data_PCOD9205707
_publ_section_title
;
Structure prediction by ZEFSAII (Michael W. Deem and Ramdas Pophale) SiO2 
 PCOD9205707
Probable space group: C 2/M
;
_chemical_formula_sum "Si O2"
_cell_formula_units_Z 64
_cell_length_a 14.887918
_cell_length_b 27.401739
_cell_length_c 18.316357
_cell_angle_alpha 90.000000
_cell_angle_beta 150.464608
_cell_angle_gamma 90.000000
_cell_volume 3683.526810
_symmetry_space_group_name_H-M "C 2/M"
_symmetry_group_IT_number 12
_symmetry_cell_setting 'monoclinic'
loop_
_space_group_symop_operation_xyz
x,y,z
-x,y,-z
-x,-y,-z
x,-y,z
1/2+x,1/2+y,z
1/2-x,1/2+y,-z
1/2-x,1/2-y,-z
1/2+x,1/2-y,z
loop_
_atom_site_type_symbol
_atom_site_label
_atom_site_fract_x
_atom_site_fract_y
_atom_site_fract_z
Si Si1 0.932616 0.860587 0.660191
Si Si2 0.768044 0.741439 0.659905
Si Si3 0.302338 0.704826 0.837993
Si Si4 0.899507 0.442585 0.813305
Si Si5 0.870117 0.763046 0.155647
Si Si6 0.673071 0.634867 0.581303
Si Si7 0.055853 0.331565 0.459804
Si Si8 0.784682 0.943089 0.159454
O O1 0.882118 0.852651 0.539914
O O2 0.737322 0.857822 0.561414
O O3 0.063327 0.818416 0.785017
O O4 0.046491 0.910066 0.743165
O O5 0.816468 0.772811 0.766317
O O6 0.715305 0.687380 0.646488
O O7 0.614788 0.774061 0.511066
O O8 0.937252 0.736459 0.724182
O O9 0.242420 0.745735 0.853864
O O10 0.130284 0.668149 0.717483
O O11 0.500000 0.685148 0.000000
O O12 0.872928 0.500000 0.775924
O O13 0.831971 0.404349 0.705317
O O14 0.787024 0.432676 0.808883
O O15 0.109982 0.435217 0.983923
O O16 0.750000 0.750000 0.000000
O O17 0.500000 0.612807 0.500000
O O18 0.000000 0.349576 0.500000
O O19 0.831536 0.000000 0.190362
#
# Coordination Sequence:
#
# PCOD9205707 Si02
#       8
#     8   8   8   8   8   8   8   8
#     4  11  22  36  56  81 106 148 190 227 279 334
#     4  10  21  36  50  71 105 148 180 228 272 315
#     4  11  20  33  52  72 100 144 187 222 274 324
#     4   9  20  36  55  80 118 153 180 225 275 327
#     4  11  22  35  49  76 108 141 184 235 269 322
#     4  12  21  32  50  81 113 146 187 221 270 330
#     4   9  20  39  55  70 105 141 186 234 278 323
#     4   9  19  38  58  81 112 149 186 225 275 334
#
# _framework density 17.374654
#
# number of rings (size 3 to 8) (size 9 to 14) (size 15 to 20)
#    0.000    1.750    2.500    4.125    1.750    2.750 
#    0.000    0.000    0.000    0.375    0.000    0.000 
#    0.000    2.500    0.000    0.000    0.000    0.000 
#
# Total GULP energy -178392.436092 kJ/mol
# GULP energy per Si atom -5574.763628 kJ/mol
# Density = 1.733511 g / cm^3
# Si number density = 17.374654 Si / 1000 Ang^3
#
#
#
# Elastic Constant Matrix: (Units=GPa)
#
#
# Indices 1 2 3 4 5 6 
#
# 1 75.6912 15.0301 27.3036 0.0000 15.6574 0.0000
# 2 15.0301 58.6780 46.2674 0.0000 7.8531 0.0000
# 3 27.3036 46.2674 106.8410 0.0000 12.3552 0.0000
# 4 0.0000 0.0000 0.0000 22.7977 0.0000 5.4829
# 5 15.6574 7.8531 12.3552 0.0000 35.7204 0.0000
# 6 0.0000 0.0000 0.0000 5.4829 0.0000 20.1475
#
#
#
# Elastic Compliance Matrix: (Units=1/GPa)
#
#
# Indices 1 2 3 4 5 6 
#
# 1 0.015620 -0.000932 -0.002938 0.000000 -0.005626 0.000000
# 2 -0.000932 0.026057 -0.010865 0.000000 -0.001562 0.000000
# 3 -0.002938 -0.010865 0.014990 0.000000 -0.001508 0.000000
# 4 0.000000 0.000000 0.000000 0.046936 0.000000 -0.012773
# 5 -0.005626 -0.001562 -0.001508 0.000000 0.031326 0.000000
# 6 0.000000 0.000000 0.000000 -0.012773 0.000000 0.053110
#
#
# Mechanical properties :
#
#
# Convention : Reuss Voigt Hill
#
# Bulk Modulus (GPa) = 36.76764 46.49029 41.62897
# Shear Modulus (GPa) = 22.06774 25.90705 23.98740
#
# Velocity S-wave (km/s) = 3.56773 3.86564 3.71967
# Velocity P-wave (km/s) = 6.17893 6.83666 6.51610
#
# Compressibility (1/GPa) = 0.02719783
#
# Stress axis : x y z
#
# Youngs Moduli (GPa) = 64.02039 38.37725 66.71077
#
# Poissons Ratio (x) = 0.03576 0.19598
# Poissons Ratio (y) = 0.05965 0.72483
# Poissons Ratio (z) = 0.18807 0.41698
#
# Static dielectric constant tensor:
#      x y z
#    x 1.609250 0.000000 0.000700 
#    y 0.000000 1.570810 0.000000 
#    z 0.000700 0.000000 1.642340 
# 
# From -- ./inp_files/272883.got.cif
#   From: 2010.05.17/outbox.cif.g08.bks.cpg/sg12_137_cif.got.tgz:272883.got - 2010.06.03 13:09:07.
