data_PCOD9205178
_publ_section_title
;
Structure prediction by ZEFSAII (Michael W. Deem and Ramdas Pophale) SiO2 
 PCOD9205178
Probable space group: C 2/M
;
_chemical_formula_sum "Si O2"
_cell_formula_units_Z 48
_cell_length_a 20.245520
_cell_length_b 22.454930
_cell_length_c 12.679297
_cell_angle_alpha 90.000000
_cell_angle_beta 158.730260
_cell_angle_gamma 90.000000
_cell_volume 2091.000591
_symmetry_space_group_name_H-M "C 2/M"
_symmetry_group_IT_number 12
_symmetry_cell_setting 'monoclinic'
loop_
_space_group_symop_operation_xyz
x,y,z
-x,y,-z
-x,-y,-z
x,-y,z
1/2+x,1/2+y,z
1/2-x,1/2+y,-z
1/2-x,1/2-y,-z
1/2+x,1/2-y,z
loop_
_atom_site_type_symbol
_atom_site_label
_atom_site_fract_x
_atom_site_fract_y
_atom_site_fract_z
Si Si1 0.216338 0.436431 0.055837
Si Si2 0.787263 0.276933 0.169886
Si Si3 0.773538 0.677284 0.546735
Si Si4 0.228326 0.565970 0.601142
Si Si5 0.276801 0.909902 0.169607
Si Si6 0.292260 0.831867 0.808042
O O1 0.267976 0.500000 0.180404
O O2 0.276153 0.434963 0.023142
O O3 0.994248 0.432506 0.727394
O O4 0.281800 0.380681 0.220944
O O5 0.710774 0.342097 0.068296
O O6 0.733722 0.232927 0.182243
O O7 0.000000 0.284865 0.500000
O O8 0.750000 0.250000 0.000000
O O9 0.750000 0.750000 0.500000
O O10 0.708621 0.626730 0.365576
O O11 0.709052 0.662628 0.568833
O O12 0.989567 0.664249 0.871450
O O13 0.278223 0.500000 0.630496
O O14 0.283358 0.566450 0.806356
O O15 0.500000 0.914205 0.500000
#
# Coordination Sequence:
#
# PCOD9205178 Si02
#       6
#     8   8   8   8   8   8
#     4   9  16  28  47  74 109 142 179 228 281 334
#     4  11  22  35  58  87 118 148 187 240 293 348
#     4  10  21  35  54  75 113 148 187 237 280 344
#     4   9  17  29  49  77 108 144 188 237 285 333
#     4   9  16  28  48  77 109 139 178 234 283 329
#     4  10  21  35  51  81 108 146 189 228 287 345
#
# _framework density 22.955517
#
# number of rings (size 3 to 8) (size 9 to 14) (size 15 to 20)
#    0.000    2.333    1.667    1.500    4.667    2.667 
#    0.000    3.333    0.000    0.500    0.000   10.500 
#    0.000    0.000    0.000    0.000    0.000    0.000 
#
# Total GULP energy -133840.301185 kJ/mol
# GULP energy per Si atom -5576.679216 kJ/mol
# Density = 2.290327 g / cm^3
# Si number density = 22.955517 Si / 1000 Ang^3
#
#
#
# Elastic Constant Matrix: (Units=GPa)
#
#
# Indices 1 2 3 4 5 6 
#
# 1 97.4196 63.2993 34.0972 0.0000 -38.0766 0.0000
# 2 63.2993 192.0071 20.5883 0.0000 -39.0355 0.0000
# 3 34.0972 20.5883 56.9029 0.0000 -3.7840 -0.0001
# 4 0.0000 0.0000 0.0000 -15.1176 0.0000 84.5816
# 5 -38.0766 -39.0355 -3.7840 0.0000 35.2333 -0.0001
# 6 0.0000 0.0000 -0.0001 84.5816 -0.0001 -275.1429
#
#
#
# Elastic Compliance Matrix: (Units=1/GPa)
#
#
# Indices 1 2 3 4 5 6 
#
# 1 0.025469 -0.002194 -0.012891 0.000000 0.023709 0.000000
# 2 -0.002194 0.007133 -0.000905 0.000000 0.005435 0.000000
# 3 -0.012891 -0.000905 0.024810 0.000000 -0.012269 0.000000
# 4 0.000000 0.000000 0.000000 0.091881 0.000000 0.028245
# 5 0.023709 0.005435 -0.012269 0.000000 0.058708 0.000000
# 6 0.000000 0.000000 0.000000 0.028245 0.000000 0.005048
#
#
# Mechanical properties :
#
#
# Convention : Reuss Voigt Hill
#
# Bulk Modulus (GPa) = 39.31981 64.69991 52.00986
# Shear Modulus (GPa) = 19.72324 -35.78246 -8.02961
#
# Velocity S-wave (km/s) = 2.93438 -3.95241 -1.87230
# Velocity P-wave (km/s) = 5.35226 2.72348 4.24641
#
# Compressibility (1/GPa) = 0.02543247
#
# Stress axis : x y z
#
# Youngs Moduli (GPa) = 39.26317 140.18533 40.30658
#
# Poissons Ratio (x) = 0.30758 0.51960
# Poissons Ratio (y) = 0.08615 0.03647
# Poissons Ratio (z) = 0.50614 0.12685
#
# Static dielectric constant tensor:
#      x y z
#    x 1.935770 0.000000 0.126470 
#    y 0.000000 1.858400 0.000000 
#    z 0.126470 0.000000 1.990350 
# 
# From -- ./inp_files/132988.got.cif
#   From: 2010.05.17/outbox.cif.g08.bks.cpg/sg12_67_cif.got.tgz:132988.got - 2010.06.03 13:09:07.
