data_PCOD9205094
_publ_section_title
;
Structure prediction by ZEFSAII (Michael W. Deem and Ramdas Pophale) SiO2 
 PCOD9205094
Probable space group: C 2/M
;
_chemical_formula_sum "Si O2"
_cell_formula_units_Z 52
_cell_length_a 18.803147
_cell_length_b 7.690552
_cell_length_c 18.616303
_cell_angle_alpha 90.000000
_cell_angle_beta 134.663090
_cell_angle_gamma 90.000000
_cell_volume 1914.719988
_symmetry_space_group_name_H-M "C 2/M"
_symmetry_group_IT_number 12
_symmetry_cell_setting 'monoclinic'
loop_
_space_group_symop_operation_xyz
x,y,z
-x,y,-z
-x,-y,-z
x,-y,z
1/2+x,1/2+y,z
1/2-x,1/2+y,-z
1/2-x,1/2-y,-z
1/2+x,1/2-y,z
loop_
_atom_site_type_symbol
_atom_site_label
_atom_site_fract_x
_atom_site_fract_y
_atom_site_fract_z
Si Si1 0.845614 0.204343 0.158775
Si Si2 0.645061 0.694692 0.075585
Si Si3 0.614430 0.813539 0.448730
Si Si4 0.211372 0.302214 0.274307
Si Si5 0.420579 0.291412 0.372830
Si Si6 0.683060 0.500000 0.402947
Si Si7 0.496488 0.794480 0.850485
O O1 0.737423 0.292914 0.085041
O O2 0.894430 0.240637 0.270449
O O3 0.923919 0.256266 0.154197
O O4 0.826533 0.000000 0.138771
O O5 0.640188 0.500000 0.100683
O O6 0.672148 0.812420 0.162909
O O7 0.547038 0.735883 0.960460
O O8 0.533758 0.778616 0.454321
O O9 0.617175 0.651716 0.397840
O O10 0.587665 0.000000 0.394110
O O11 0.728884 0.849560 0.554231
O O12 0.225043 0.500000 0.313069
O O13 0.320548 0.222489 0.340226
O O14 0.113606 0.211132 0.239889
O O15 0.422826 0.500000 0.385921
O O16 0.481126 0.000000 0.843177
#
# Coordination Sequence:
#
# PCOD9205094 Si02
#       7
#     8   8   8   8   8   4   8
#     4  10  21  35  49  68  94 125 161 201 247 291
#     4  11  21  33  50  69  89 118 160 210 254 293
#     4   9  15  26  45  70 103 132 156 191 238 280
#     4   9  20  35  49  68  94 126 160 198 247 292
#     4   9  17  31  49  68  98 130 156 194 240 290
#     4   8  16  26  42  74 104 126 156 196 230 282
#     4  11  21  34  50  66  92 125 163 205 245 293
#
# _framework density 27.158018999999999
#
# number of rings (size 3 to 8) (size 9 to 14) (size 15 to 20)
#    0.462    1.846    0.769    4.154    0.000    6.154 
#    0.000    0.000    0.000    0.000    0.000    0.000 
#    0.000    7.385    0.000    0.000    0.000    0.000 
#
# Total GULP energy -145029.266627 kJ/mol
# GULP energy per Si atom -5578.048716 kJ/mol
# Density = 2.709621 g / cm^3
# Si number density = 27.158019 Si / 1000 Ang^3
#
#
#
# Elastic Constant Matrix: (Units=GPa)
#
#
# Indices 1 2 3 4 5 6 
#
# 1 195.1348 4.0317 33.1517 0.0000 34.4102 0.0000
# 2 4.0317 99.4304 -11.1514 0.0000 9.1954 0.0000
# 3 33.1517 -11.1514 157.2562 0.0000 38.9842 0.0000
# 4 0.0000 0.0000 0.0000 -37.2552 0.0000 21.1923
# 5 34.4102 9.1954 38.9842 0.0000 53.1511 0.0000
# 6 0.0000 0.0000 0.0000 21.1923 0.0000 20.9733
#
#
#
# Elastic Compliance Matrix: (Units=1/GPa)
#
#
# Indices 1 2 3 4 5 6 
#
# 1 0.005802 0.000050 -0.000350 0.000000 -0.003508 0.000000
# 2 0.000050 0.010488 0.001456 0.000000 -0.002915 0.000000
# 3 -0.000350 0.001456 0.007996 0.000000 -0.005890 0.000000
# 4 0.000000 0.000000 0.000000 -0.017045 0.000000 0.017223
# 5 -0.003508 -0.002915 -0.005890 0.000000 0.025910 0.000000
# 6 0.000000 0.000000 0.000000 0.017223 0.000000 0.030277
#
#
# Mechanical properties :
#
#
# Convention : Reuss Voigt Hill
#
# Bulk Modulus (GPa) = 37.59742 55.98727 46.79235
# Shear Modulus (GPa) = 71.44657 35.75980 53.60319
#
# Velocity S-wave (km/s) = 5.13467 3.63262 4.44751
# Velocity P-wave (km/s) = 7.00194 6.18503 6.60612
#
# Compressibility (1/GPa) = 0.02659757
#
# Stress axis : x y z
#
# Youngs Moduli (GPa) = 172.36381 95.34651 125.05864
#
# Poissons Ratio (x) = -0.00476 0.04376
# Poissons Ratio (y) = -0.00861 -0.18205
# Poissons Ratio (z) = 0.06031 -0.13880
#
# Static dielectric constant tensor:
#      x y z
#    x 2.206340 0.000000 -0.070050 
#    y 0.000000 2.108350 0.000000 
#    z -0.070050 0.000000 2.276210 
# 
# From -- ./inp_files/362525.got.cif
#   From: 2010.05.17/outbox.cif.g08.bks.cpg/sg12_182_cif.got.tgz:362525.got - 2010.06.03 13:09:07.
