data_PCOD9205657
_publ_section_title
;
Structure prediction by ZEFSAII (Michael W. Deem and Ramdas Pophale) SiO2 
 PCOD9205657
Probable space group: C 2/M
;
_chemical_formula_sum "Si O2"
_cell_formula_units_Z 36
_cell_length_a 9.662351
_cell_length_b 15.427000
_cell_length_c 12.387053
_cell_angle_alpha 90.000000
_cell_angle_beta 124.756938
_cell_angle_gamma 90.000000
_cell_volume 1516.984136
_symmetry_space_group_name_H-M "C 2/M"
_symmetry_group_IT_number 12
_symmetry_cell_setting 'monoclinic'
loop_
_space_group_symop_operation_xyz
x,y,z
-x,y,-z
-x,-y,-z
x,-y,z
1/2+x,1/2+y,z
1/2-x,1/2+y,-z
1/2-x,1/2-y,-z
1/2+x,1/2-y,z
loop_
_atom_site_type_symbol
_atom_site_label
_atom_site_fract_x
_atom_site_fract_y
_atom_site_fract_z
Si Si1 0.797982 0.696931 0.416964
Si Si2 0.796571 0.500000 0.389279
Si Si3 0.277989 0.851375 0.000481
Si Si4 0.861644 0.343457 0.785738
Si Si5 0.974074 0.000000 0.143932
Si Si6 0.362790 0.500000 0.348674
O O1 0.750000 0.750000 0.500000
O O2 0.749585 0.596545 0.408334
O O3 0.699085 0.747905 0.277331
O O4 0.000000 0.702083 0.500000
O O5 0.677131 0.500000 0.227520
O O6 0.000000 0.500000 0.500000
O O7 0.328813 0.859359 0.897510
O O8 0.121785 0.915790 0.946164
O O9 0.250000 0.750000 0.000000
O O10 0.443287 0.866868 0.146758
O O11 0.746871 0.414712 0.679724
O O12 0.931025 0.000000 0.255082
O O13 0.500000 0.500000 0.500000
#
# Coordination Sequence:
#
# PCOD9205657 Si02
#       6
#     8   4   8   8   4   4
#     4  11  26  43  70 100 139 183 227 282 350 413
#     4  10  24  45  61  95 140 178 213 281 349 404
#     4  10  21  39  63  91 126 173 224 278 331 398
#     4  10  22  38  62  95 130 169 224 281 336 397
#     4  10  21  38  67  91 132 170 219 285 340 396
#     4  10  21  35  60  98 130 158 218 285 342 385
#
# _framework density 23.731296
#
# number of rings (size 3 to 8) (size 9 to 14) (size 15 to 20)
#    0.000    1.778    0.000    2.667   12.444    2.667 
#    0.000    1.667    0.000    4.000    0.000    0.000 
#    0.000    0.000    0.000    0.000    0.000    0.000 
#
# Total GULP energy -100472.030841 kJ/mol
# GULP energy per Si atom -5581.779491 kJ/mol
# Density = 2.367728 g / cm^3
# Si number density = 23.731296 Si / 1000 Ang^3
#
#
#
# Elastic Constant Matrix: (Units=GPa)
#
#
# Indices 1 2 3 4 5 6 
#
# 1 51.5405 30.1556 33.9422 0.0000 19.9761 0.0000
# 2 30.1556 205.9598 72.5745 0.0000 27.5379 0.0000
# 3 33.9422 72.5745 166.9795 0.0000 47.9083 0.0000
# 4 0.0000 0.0000 0.0000 43.7376 0.0000 8.9214
# 5 19.9761 27.5379 47.9083 0.0000 39.1179 0.0000
# 6 0.0000 0.0000 0.0000 8.9214 0.0000 6.9808
#
#
#
# Elastic Compliance Matrix: (Units=1/GPa)
#
#
# Indices 1 2 3 4 5 6 
#
# 1 0.025267 -0.001858 -0.001545 0.000000 -0.009704 0.000000
# 2 -0.001858 0.005929 -0.001964 0.000000 -0.000820 0.000000
# 3 -0.001545 -0.001964 0.010073 0.000000 -0.010165 0.000000
# 4 0.000000 0.000000 0.000000 0.030925 0.000000 -0.039521
# 5 -0.009704 -0.000820 -0.010165 0.000000 0.043545 0.000000
# 6 0.000000 0.000000 0.000000 -0.039521 0.000000 0.193757
#
#
# Mechanical properties :
#
#
# Convention : Reuss Voigt Hill
#
# Bulk Modulus (GPa) = 32.74817 77.53604 55.14210
# Shear Modulus (GPa) = 15.13282 37.15442 26.14362
#
# Velocity S-wave (km/s) = 2.52796 3.96110 3.32271
# Velocity P-wave (km/s) = 4.72761 7.32556 6.16499
#
# Compressibility (1/GPa) = 0.03053605
#
# Stress axis : x y z
#
# Youngs Moduli (GPa) = 39.57679 168.66173 99.27706
#
# Poissons Ratio (x) = 0.31335 0.15334
# Poissons Ratio (y) = 0.07353 0.19499
# Poissons Ratio (z) = 0.06113 0.33127
#
# Static dielectric constant tensor:
#      x y z
#    x 1.986330 0.000000 0.014860 
#    y 0.000000 2.107890 0.000000 
#    z 0.014860 0.000000 2.003270 
# 
# From -- ./inp_files/205192.got.cif
#   From: 2010.05.17/outbox.cif.g08.bks.cpg/sg12_103_cif.got.tgz:205192.got - 2010.06.03 13:09:07.
