data_PCOD9205751
_publ_section_title
;
Structure prediction by ZEFSAII (Michael W. Deem and Ramdas Pophale) SiO2 
 PCOD9205751
Probable space group: C 2/M
;
_chemical_formula_sum "Si O2"
_cell_formula_units_Z 64
_cell_length_a 19.945151
_cell_length_b 30.899982
_cell_length_c 8.759733
_cell_angle_alpha 90.000000
_cell_angle_beta 135.658807
_cell_angle_gamma 90.000000
_cell_volume 3773.287452
_symmetry_space_group_name_H-M "C 2/M"
_symmetry_group_IT_number 12
_symmetry_cell_setting 'monoclinic'
loop_
_space_group_symop_operation_xyz
x,y,z
-x,y,-z
-x,-y,-z
x,-y,z
1/2+x,1/2+y,z
1/2-x,1/2+y,-z
1/2-x,1/2-y,-z
1/2+x,1/2-y,z
loop_
_atom_site_type_symbol
_atom_site_label
_atom_site_fract_x
_atom_site_fract_y
_atom_site_fract_z
Si Si1 0.051407 0.451130 0.838121
Si Si2 0.152717 0.449591 0.325001
Si Si3 0.602685 0.124103 0.702486
Si Si4 0.790150 0.692321 0.945093
Si Si5 0.601314 0.305825 0.106148
Si Si6 0.900585 0.773234 0.247042
Si Si7 0.288473 0.136806 0.432743
Si Si8 0.886574 0.289081 0.783888
O O1 0.060810 0.500000 0.801142
O O2 0.074081 0.420168 0.736641
O O3 0.944763 0.445299 0.733367
O O4 0.120654 0.444937 0.096813
O O5 0.186998 0.500000 0.401887
O O6 0.213411 0.407280 0.470761
O O7 0.500000 0.146532 0.500000
O O8 0.665108 0.123294 0.652152
O O9 0.666931 0.147611 0.932065
O O10 0.677936 0.697651 0.793634
O O11 0.821341 0.700516 0.823855
O O12 0.847563 0.727059 0.143633
O O13 0.685429 0.340609 0.248827
O O14 0.624676 0.263102 0.248886
O O15 0.500000 0.323045 0.000000
O O16 0.589022 0.289498 0.910965
O O17 0.000000 0.771046 0.500000
O O18 0.354419 0.176103 0.606308
O O19 0.000000 0.295538 0.000000
#
# Coordination Sequence:
#
# PCOD9205751 Si02
#       8
#     8   8   8   8   8   8   8   8
#     4   9  19  35  53  78 116 153 181 215 273 344
#     4   9  19  36  57  80 112 151 187 224 274 346
#     4  12  21  31  50  80 117 146 177 226 273 329
#     4  10  21  36  52  79 107 142 193 232 273 329
#     4  10  23  41  54  78 110 149 196 242 284 326
#     4  10  21  38  57  75 106 148 189 235 287 327
#     4  12  22  34  57  84 114 143 193 232 276 342
#     4  10  22  37  55  79 111 156 192 227 279 336
#
# _framework density 16.961338000000001
#
# number of rings (size 3 to 8) (size 9 to 14) (size 15 to 20)
#    0.000    1.750    2.500    3.000    3.500    2.750 
#    0.000    0.000    0.000    0.375    0.000    0.000 
#    0.000    3.000    0.000    0.000    0.000    0.000 
#
# Total GULP energy -178443.544685 kJ/mol
# GULP energy per Si atom -5576.360771 kJ/mol
# Density = 1.692273 g / cm^3
# Si number density = 16.961338 Si / 1000 Ang^3
#
#
#
# Elastic Constant Matrix: (Units=GPa)
#
#
# Indices 1 2 3 4 5 6 
#
# 1 88.9874 33.8381 28.0527 0.0000 10.8539 0.0000
# 2 33.8381 88.8378 51.9545 0.0000 -5.9330 0.0000
# 3 28.0527 51.9545 80.5864 0.0000 15.2066 0.0000
# 4 0.0000 0.0000 0.0000 18.6983 0.0000 -1.0130
# 5 10.8539 -5.9330 15.2066 0.0000 15.5058 0.0000
# 6 0.0000 0.0000 0.0000 -1.0130 0.0000 23.3954
#
#
#
# Elastic Compliance Matrix: (Units=1/GPa)
#
#
# Indices 1 2 3 4 5 6 
#
# 1 0.016029 -0.010169 0.004697 0.000000 -0.019717 0.000000
# 2 -0.010169 0.034428 -0.027591 0.000000 0.047349 0.000000
# 3 0.004697 -0.027591 0.038253 0.000000 -0.051360 0.000000
# 4 0.000000 0.000000 0.000000 0.053607 0.000000 0.002321
# 5 -0.019717 0.047349 -0.051360 0.000000 0.146780 0.000000
# 6 0.000000 0.000000 0.000000 0.002321 0.000000 0.042844
#
#
# Mechanical properties :
#
#
# Convention : Reuss Voigt Hill
#
# Bulk Modulus (GPa) = 44.27832 54.01134 49.14483
# Shear Modulus (GPa) = 12.32760 21.15765 16.74263
#
# Velocity S-wave (km/s) = 2.69886 3.53569 3.14523
# Velocity P-wave (km/s) = 5.98948 6.97001 6.49827
#
# Compressibility (1/GPa) = 0.02258442
#
# Stress axis : x y z
#
# Youngs Moduli (GPa) = 62.38852 29.04650 26.14143
#
# Poissons Ratio (x) = 0.29537 -0.12278
# Poissons Ratio (y) = 0.63442 0.72126
# Poissons Ratio (z) = -0.29303 0.80141
#
# Static dielectric constant tensor:
#      x y z
#    x 1.613830 0.000000 -0.008300 
#    y 0.000000 1.598180 0.000000 
#    z -0.008300 0.000000 1.593510 
# 
# From -- ./inp_files/80745.got.cif
#   From: 2010.05.17/outbox.cif.g08.bks.cpg/sg12_41_cif.got.tgz:80745.got - 2010.06.03 13:09:07.
