data_PCOD9205956
_publ_section_title
;
Structure prediction by ZEFSAII (Michael W. Deem and Ramdas Pophale) SiO2 
 PCOD9205956
Probable space group: C 2/M
;
_chemical_formula_sum "Si O2"
_cell_formula_units_Z 48
_cell_length_a 10.062519
_cell_length_b 28.036878
_cell_length_c 8.821663
_cell_angle_alpha 90.000000
_cell_angle_beta 102.265237
_cell_angle_gamma 90.000000
_cell_volume 2431.974510
_symmetry_space_group_name_H-M "C 2/M"
_symmetry_group_IT_number 12
_symmetry_cell_setting 'monoclinic'
loop_
_space_group_symop_operation_xyz
x,y,z
-x,y,-z
-x,-y,-z
x,-y,z
1/2+x,1/2+y,z
1/2-x,1/2+y,-z
1/2-x,1/2-y,-z
1/2+x,1/2-y,z
loop_
_atom_site_type_symbol
_atom_site_label
_atom_site_fract_x
_atom_site_fract_y
_atom_site_fract_z
Si Si1 0.359071 0.600714 0.536465
Si Si2 0.418464 0.052357 0.636499
Si Si3 0.203403 0.184653 0.677567
Si Si4 0.498110 0.152800 0.310607
Si Si5 0.761714 0.721292 0.163349
Si Si6 0.465347 0.646939 0.829161
O O1 0.500000 0.582931 0.500000
O O2 0.231993 0.571551 0.444148
O O3 0.341235 0.656605 0.483550
O O4 0.379203 0.607413 0.718410
O O5 0.500000 0.047485 0.500000
O O6 0.492845 0.097064 0.731511
O O7 0.413386 0.000000 0.708260
O O8 0.363737 0.175178 0.721922
O O9 0.190502 0.240646 0.698330
O O10 0.105573 0.159509 0.776795
O O11 0.500000 0.155927 0.500000
O O12 0.373140 0.179719 0.203625
O O13 0.619812 0.695670 0.167348
O O14 0.750000 0.750000 0.000000
O O15 0.500000 0.627386 0.000000
#
# Coordination Sequence:
#
# PCOD9205956 Si02
#       6
#     8   8   8   8   8   8
#     4   9  20  36  56  82 115 149 191 238 295 340
#     4   9  17  34  60  88 110 140 190 247 297 341
#     4  10  21  36  55  77 112 160 194 238 276 343
#     4  10  22  38  57  85 118 152 194 246 289 341
#     4  12  23  36  53  81 119 160 199 235 285 345
#     4  11  21  36  51  78 115 154 193 234 286 341
#
# _framework density 19.737048000000001
#
# number of rings (size 3 to 8) (size 9 to 14) (size 15 to 20)
#    0.000    1.833    1.667    4.000    0.000    5.000 
#    0.000    0.000    0.000    0.500    0.000    9.333 
#    0.000    0.000    0.000    0.000    0.000    0.000 
#
# Total GULP energy -133711.615180 kJ/mol
# GULP energy per Si atom -5571.317299 kJ/mol
# Density = 1.969213 g / cm^3
# Si number density = 19.737048 Si / 1000 Ang^3
#
#
#
# Elastic Constant Matrix: (Units=GPa)
#
#
# Indices 1 2 3 4 5 6 
#
# 1 118.8116 34.8524 20.3217 0.0000 -2.4206 0.0000
# 2 34.8524 128.2739 24.5686 0.0000 11.7642 0.0000
# 3 20.3217 24.5686 70.5714 0.0000 6.2890 0.0000
# 4 0.0000 0.0000 0.0000 7.6692 0.0000 7.6023
# 5 -2.4206 11.7642 6.2890 0.0000 20.2122 0.0000
# 6 0.0000 0.0000 0.0000 7.6023 0.0000 13.7294
#
#
#
# Elastic Compliance Matrix: (Units=1/GPa)
#
#
# Indices 1 2 3 4 5 6 
#
# 1 0.009587 -0.002486 -0.002187 0.000000 0.003276 0.000000
# 2 -0.002486 0.009336 -0.002081 0.000000 -0.005084 0.000000
# 3 -0.002187 -0.002081 0.015880 0.000000 -0.003992 0.000000
# 4 0.000000 0.000000 0.000000 0.289050 0.000000 -0.160054
# 5 0.003276 -0.005084 -0.003992 0.000000 0.054068 0.000000
# 6 0.000000 0.000000 0.000000 -0.160054 0.000000 0.161463
#
#
# Mechanical properties :
#
#
# Convention : Reuss Voigt Hill
#
# Bulk Modulus (GPa) = 46.96137 53.01582 49.98860
# Shear Modulus (GPa) = 8.92872 24.18312 16.55592
#
# Velocity S-wave (km/s) = 2.12924 3.50418 2.89939
# Velocity P-wave (km/s) = 5.46718 6.57964 6.04904
#
# Compressibility (1/GPa) = 0.02129410
#
# Stress axis : x y z
#
# Youngs Moduli (GPa) = 104.30986 107.10926 62.97196
#
# Poissons Ratio (x) = 0.26631 0.13772
# Poissons Ratio (y) = 0.25935 0.13106
# Poissons Ratio (z) = 0.22812 0.22292
#
# Static dielectric constant tensor:
#      x y z
#    x 1.727250 0.000000 0.022580 
#    y 0.000000 1.723180 0.000000 
#    z 0.022580 0.000000 1.882060 
# 
# From -- ./inp_files/52030.got.cif
#   From: 2010.05.17/outbox.cif.g08.bks.cpg/sg12_27_cif.got.tgz:52030.got - 2010.06.03 13:09:07.
