data_PCOD9205867
_publ_section_title
;
Structure prediction by ZEFSAII (Michael W. Deem and Ramdas Pophale) SiO2 
 PCOD9205867
Probable space group: C 2/M
;
_chemical_formula_sum "Si O2"
_cell_formula_units_Z 56
_cell_length_a 16.557506
_cell_length_b 8.280207
_cell_length_c 23.355662
_cell_angle_alpha 90.000000
_cell_angle_beta 121.938850
_cell_angle_gamma 90.000000
_cell_volume 2717.303004
_symmetry_space_group_name_H-M "C 2/M"
_symmetry_group_IT_number 12
_symmetry_cell_setting 'monoclinic'
loop_
_space_group_symop_operation_xyz
x,y,z
-x,y,-z
-x,-y,-z
x,-y,z
1/2+x,1/2+y,z
1/2-x,1/2+y,-z
1/2-x,1/2-y,-z
1/2+x,1/2-y,z
loop_
_atom_site_type_symbol
_atom_site_label
_atom_site_fract_x
_atom_site_fract_y
_atom_site_fract_z
Si Si1 0.058683 0.308899 0.284809
Si Si2 0.522627 0.689837 0.148980
Si Si3 0.293298 0.303819 0.843262
Si Si4 0.413356 0.696918 0.427880
Si Si5 0.615934 0.693482 0.712280
Si Si6 0.693702 0.808145 0.923350
Si Si7 0.771575 0.694475 0.572099
O O1 0.073244 0.500000 0.281393
O O2 0.131050 0.250459 0.361300
O O3 0.069996 0.221661 0.228652
O O4 0.952937 0.276437 0.267837
O O5 0.509495 0.500000 0.135174
O O6 0.598696 0.749110 0.130163
O O7 0.417372 0.763645 0.112418
O O8 0.292611 0.500000 0.842298
O O9 0.223230 0.241275 0.767378
O O10 0.246303 0.246180 0.885340
O O11 0.500000 0.753092 0.500000
O O12 0.415724 0.500000 0.428486
O O13 0.415232 0.747660 0.362738
O O14 0.315134 0.746879 0.420149
O O15 0.605607 0.500000 0.712376
O O16 0.699411 0.000000 0.922396
O O17 0.750000 0.750000 0.000000
O O18 0.773780 0.500000 0.571869
O O19 0.750000 0.750000 0.500000
#
# Coordination Sequence:
#
# PCOD9205867 Si02
#       7
#     8   8   8   8   8   8   8
#     4  11  22  37  57  85 123 162 201 257 321 371
#     4  11  23  41  66  96 126 166 215 258 308 379
#     4  10  23  42  64  92 130 167 203 257 321 369
#     4   9  18  33  52  77 110 148 195 252 309 363
#     4  11  21  35  61  89 115 157 210 257 307 374
#     4  11  24  44  68  95 132 172 207 260 318 372
#     4  10  21  36  54  78 112 153 199 253 315 376
#
# _framework density 20.60867
#
# number of rings (size 3 to 8) (size 9 to 14) (size 15 to 20)
#    0.000    1.571    1.429    3.429    0.000    5.714 
#    0.000    4.286    0.000    3.857    0.000    0.000 
#    0.000    0.000    0.000    0.000    0.000    0.000 
#
# Total GULP energy -156432.868066 kJ/mol
# GULP energy per Si atom -5586.888145 kJ/mol
# Density = 2.056176 g / cm^3
# Si number density = 20.608670 Si / 1000 Ang^3
#
#
#
# Elastic Constant Matrix: (Units=GPa)
#
#
# Indices 1 2 3 4 5 6 
#
# 1 130.8227 9.5075 44.1450 0.0000 3.4137 0.0000
# 2 9.5075 17.1759 6.4065 0.0000 2.0429 0.0000
# 3 44.1450 6.4065 115.2346 0.0000 2.6589 0.0000
# 4 0.0000 0.0000 0.0000 32.3727 0.0000 3.4016
# 5 3.4137 2.0429 2.6589 0.0000 26.6310 0.0000
# 6 0.0000 0.0000 0.0000 3.4016 0.0000 16.4997
#
#
#
# Elastic Compliance Matrix: (Units=1/GPa)
#
#
# Indices 1 2 3 4 5 6 
#
# 1 0.009021 -0.003721 -0.003236 0.000000 -0.000548 0.000000
# 2 -0.003721 0.061471 -0.001899 0.000000 -0.004049 0.000000
# 3 -0.003236 -0.001899 0.010033 0.000000 -0.000441 0.000000
# 4 0.000000 0.000000 0.000000 0.031574 0.000000 -0.006509
# 5 -0.000548 -0.004049 -0.000441 0.000000 0.037975 0.000000
# 6 0.000000 0.000000 0.000000 -0.006509 0.000000 0.061949
#
#
# Mechanical properties :
#
#
# Convention : Reuss Voigt Hill
#
# Bulk Modulus (GPa) = 15.92024 42.59459 29.25741
# Shear Modulus (GPa) = 19.94632 28.64561 24.29597
#
# Velocity S-wave (km/s) = 3.11442 3.73229 3.43726
# Velocity P-wave (km/s) = 4.54693 6.26789 5.47545
#
# Compressibility (1/GPa) = 0.06281313
#
# Stress axis : x y z
#
# Youngs Moduli (GPa) = 110.85636 16.26791 99.66674
#
# Poissons Ratio (x) = 0.06053 0.32254
# Poissons Ratio (y) = 0.41250 0.18923
# Poissons Ratio (z) = 0.35875 0.03089
#
# Static dielectric constant tensor:
#      x y z
#    x 1.755660 0.000000 0.003480 
#    y 0.000000 1.717770 0.000000 
#    z 0.003480 0.000000 1.732890 
# 
# From -- ./inp_files/338996.got.cif
#   From: 2010.05.17/outbox.cif.g08.bks.cpg/sg12_170_cif.got.tgz:338996.got - 2010.06.03 13:09:07.
