data_PCOD9205379
_publ_section_title
;
Structure prediction by ZEFSAII (Michael W. Deem and Ramdas Pophale) SiO2 
 PCOD9205379
Probable space group: C 2/M
;
_chemical_formula_sum "Si O2"
_cell_formula_units_Z 42
_cell_length_a 5.111231
_cell_length_b 23.432309
_cell_length_c 13.689087
_cell_angle_alpha 90.000000
_cell_angle_beta 89.608086
_cell_angle_gamma 90.000000
_cell_volume 1639.475453
_symmetry_space_group_name_H-M "C 2/M"
_symmetry_group_IT_number 12
_symmetry_cell_setting 'monoclinic'
loop_
_space_group_symop_operation_xyz
x,y,z
-x,y,-z
-x,-y,-z
x,-y,z
1/2+x,1/2+y,z
1/2-x,1/2+y,-z
1/2-x,1/2-y,-z
1/2+x,1/2-y,z
loop_
_atom_site_type_symbol
_atom_site_label
_atom_site_fract_x
_atom_site_fract_y
_atom_site_fract_z
Si Si1 0.500000 0.500000 0.500000
Si Si2 0.021320 0.680793 0.107053
Si Si3 0.180636 0.061662 0.903681
Si Si4 0.360618 0.376657 0.754388
Si Si5 0.723956 0.282344 0.700663
Si Si6 0.089361 0.564265 0.600718
O O1 0.387650 0.548253 0.575971
O O2 0.142872 0.617437 0.092007
O O3 0.209094 0.713022 0.182830
O O4 0.751382 0.665863 0.162691
O O5 0.000000 0.707043 0.000000
O O6 0.000354 0.071864 0.809394
O O7 0.317317 0.000000 0.896817
O O8 0.000000 0.061490 0.000000
O O9 0.564130 0.341148 0.687555
O O10 0.107746 0.399332 0.696496
O O11 0.514012 0.234989 0.664959
O O12 0.952931 0.500000 0.603927
O O13 0.000000 0.591977 0.500000
#
# Coordination Sequence:
#
# PCOD9205379 Si02
#       6
#     2   8   8   8   8   8
#     4   8  18  40  60  94 136 158 214 256 322 384
#     4  11  23  39  61  91 131 176 226 272 320 393
#     4  10  21  35  54  86 133 177 216 257 311 389
#     4  11  22  40  64  92 128 175 219 271 331 389
#     4  11  24  45  64  95 127 172 225 286 335 388
#     4   9  20  39  64  97 131 162 211 263 316 392
#
# _framework density 25.617948999999999
#
# number of rings (size 3 to 8) (size 9 to 14) (size 15 to 20)
#    0.571    1.143    3.810    0.571    0.000    5.714 
#    0.000    0.000    0.000    1.143    0.000    0.000 
#    0.000    0.000    0.000    0.000    0.000    0.000 
#
# Total GULP energy -116918.934974 kJ/mol
# GULP energy per Si atom -5567.568332 kJ/mol
# Density = 2.555964 g / cm^3
# Si number density = 25.617949 Si / 1000 Ang^3
#
#
#
# Elastic Constant Matrix: (Units=GPa)
#
#
# Indices 1 2 3 4 5 6 
#
# 1 95.1143 1.8592 -13.1135 0.0000 8.4393 0.0000
# 2 1.8592 91.4095 -8.5610 0.0000 3.5866 0.0000
# 3 -13.1135 -8.5610 72.5769 0.0000 23.5363 0.0000
# 4 0.0000 0.0000 0.0000 187.9466 0.0000 134.5777
# 5 8.4393 3.5866 23.5363 0.0000 31.4109 0.0000
# 6 0.0000 0.0000 0.0000 134.5777 0.0000 122.0151
#
#
#
# Elastic Compliance Matrix: (Units=1/GPa)
#
#
# Indices 1 2 3 4 5 6 
#
# 1 0.011646 0.000405 0.004203 0.000000 -0.006325 0.000000
# 2 0.000405 0.011288 0.002454 0.000000 -0.003237 0.000000
# 3 0.004203 0.002454 0.020191 0.000000 -0.016539 0.000000
# 4 0.000000 0.000000 0.000000 0.025308 0.000000 -0.027914
# 5 -0.006325 -0.003237 -0.016539 0.000000 0.046297 0.000000
# 6 0.000000 0.000000 0.000000 -0.027914 0.000000 0.038984
#
#
# Mechanical properties :
#
#
# Convention : Reuss Voigt Hill
#
# Bulk Modulus (GPa) = 17.46701 24.38557 20.92629
# Shear Modulus (GPa) = 31.51127 86.86893 59.19010
#
# Velocity S-wave (km/s) = 3.51101 5.82950 4.81197
# Velocity P-wave (km/s) = 4.82383 7.40610 6.24978
#
# Compressibility (1/GPa) = 0.05725077
#
# Stress axis : x y z
#
# Youngs Moduli (GPa) = 85.86316 88.58637 49.52743
#
# Poissons Ratio (x) = -0.03587 -0.20817
# Poissons Ratio (y) = -0.03477 -0.12156
# Poissons Ratio (z) = -0.36090 -0.21743
#
# Static dielectric constant tensor:
#      x y z
#    x 1.953940 0.000000 -0.010970 
#    y 0.000000 2.090200 0.000000 
#    z -0.010970 0.000000 2.060780 
# 
# From -- ./inp_files/191991.got.cif
#   From: 2010.05.17/outbox.cif.g08.bks.cpg/sg12_96_cif.got.tgz:191991.got - 2010.06.03 13:09:07.
