data_PCOD9205031
_publ_section_title
;
Structure prediction by ZEFSAII (Michael W. Deem and Ramdas Pophale) SiO2 
 PCOD9205031
Probable space group: C 2/M
;
_chemical_formula_sum "Si O2"
_cell_formula_units_Z 48
_cell_length_a 21.669186
_cell_length_b 19.565396
_cell_length_c 5.070541
_cell_angle_alpha 90.000000
_cell_angle_beta 92.549849
_cell_angle_gamma 90.000000
_cell_volume 2147.609556
_symmetry_space_group_name_H-M "C 2/M"
_symmetry_group_IT_number 12
_symmetry_cell_setting 'monoclinic'
loop_
_space_group_symop_operation_xyz
x,y,z
-x,y,-z
-x,-y,-z
x,-y,z
1/2+x,1/2+y,z
1/2-x,1/2+y,-z
1/2-x,1/2-y,-z
1/2+x,1/2-y,z
loop_
_atom_site_type_symbol
_atom_site_label
_atom_site_fract_x
_atom_site_fract_y
_atom_site_fract_z
Si Si1 0.927153 0.712542 0.033484
Si Si2 0.741459 0.662265 0.226142
Si Si3 0.183797 0.693036 0.287571
Si Si4 0.435288 0.581566 0.610764
Si Si5 0.044960 0.573396 0.755910
Si Si6 0.377215 0.360869 0.102409
O O1 0.920389 0.644756 0.208259
O O2 0.893003 0.780362 0.132616
O O3 0.889735 0.693120 0.760601
O O4 0.000000 0.725757 0.000000
O O5 0.783902 0.645451 0.487354
O O6 0.703772 0.728080 0.330380
O O7 0.787871 0.678271 0.995803
O O8 0.687287 0.623105 0.058622
O O9 0.500000 0.605631 0.500000
O O10 0.435423 0.500000 0.624253
O O11 0.384171 0.605837 0.389601
O O12 0.425741 0.610434 0.899454
O O13 0.079554 0.500000 0.756683
O O14 0.000000 0.575742 0.500000
O O15 0.000000 0.572045 0.000000
#
# Coordination Sequence:
#
# PCOD9205031 Si02
#       6
#     8   8   8   8   8   8
#     4  10  21  34  57  90 119 145 188 247 296 335
#     4   9  18  34  53  76 106 149 191 227 277 335
#     4   9  18  32  51  77 113 147 182 227 282 343
#     4  11  23  39  58  84 121 160 191 228 294 365
#     4   9  19  35  53  75 109 150 181 210 269 349
#     4  11  22  37  60  86 114 149 199 251 283 325
#
# _framework density 22.350432999999999
#
# number of rings (size 3 to 8) (size 9 to 14) (size 15 to 20)
#    0.000    2.167    0.000    3.000    0.000   11.333 
#    0.000    0.000    0.000    6.000    0.000    0.000 
#    0.000    0.000    0.000    0.000    0.000    0.000 
#
# Total GULP energy -133831.099326 kJ/mol
# GULP energy per Si atom -5576.295805 kJ/mol
# Density = 2.229956 g / cm^3
# Si number density = 22.350433 Si / 1000 Ang^3
#
#
#
# Elastic Constant Matrix: (Units=GPa)
#
#
# Indices 1 2 3 4 5 6 
#
# 1 100.0410 -2.9010 25.6391 0.0000 22.6110 0.0000
# 2 -2.9010 76.3856 24.6166 0.0000 -2.7507 0.0000
# 3 25.6391 24.6166 123.0740 0.0000 19.6442 0.0000
# 4 0.0000 0.0000 0.0000 7.2050 0.0000 4.5874
# 5 22.6110 -2.7507 19.6442 0.0000 37.1831 0.0000
# 6 0.0000 0.0000 0.0000 4.5874 0.0000 4.5347
#
#
#
# Elastic Compliance Matrix: (Units=1/GPa)
#
#
# Indices 1 2 3 4 5 6 
#
# 1 0.011855 0.000743 -0.001612 0.000000 -0.006302 0.000000
# 2 0.000743 0.014301 -0.003399 0.000000 0.002402 0.000000
# 3 -0.001612 -0.003399 0.009856 0.000000 -0.004478 0.000000
# 4 0.000000 0.000000 0.000000 0.389982 0.000000 -0.394518
# 5 -0.006302 0.002402 -0.004478 0.000000 0.033270 0.000000
# 6 0.000000 0.000000 0.000000 -0.394518 0.000000 0.619628
#
#
# Mechanical properties :
#
#
# Convention : Reuss Voigt Hill
#
# Bulk Modulus (GPa) = 36.39549 43.80112 40.09830
# Shear Modulus (GPa) = 4.55960 26.59428 15.57694
#
# Velocity S-wave (km/s) = 1.42985 3.45320 2.64283
# Velocity P-wave (km/s) = 4.36410 5.96150 5.22421
#
# Compressibility (1/GPa) = 0.02747593
#
# Stress axis : x y z
#
# Youngs Moduli (GPa) = 84.35199 69.92306 101.46557
#
# Poissons Ratio (x) = -0.05194 0.16360
# Poissons Ratio (y) = -0.06266 0.34484
# Poissons Ratio (z) = 0.13600 0.23764
#
# Static dielectric constant tensor:
#      x y z
#    x 1.925310 0.000000 0.031570 
#    y 0.000000 1.853730 0.000000 
#    z 0.031570 0.000000 1.847320 
# 
# From -- ./inp_files/21014.got.cif
#   From: 2010.05.17/outbox.cif.g08.bks.cpg/sg12_11_cif.got.tgz:21014.got - 2010.06.03 13:09:07.
