data_PCOD9205701
_publ_section_title
;
Structure prediction by ZEFSAII (Michael W. Deem and Ramdas Pophale) SiO2 
 PCOD9205701
Probable space group: C 2/M
;
_chemical_formula_sum "Si O2"
_cell_formula_units_Z 36
_cell_length_a 24.505223
_cell_length_b 14.911982
_cell_length_c 6.331596
_cell_angle_alpha 90.000000
_cell_angle_beta 139.866066
_cell_angle_gamma 90.000000
_cell_volume 1491.357377
_symmetry_space_group_name_H-M "C 2/M"
_symmetry_group_IT_number 12
_symmetry_cell_setting 'monoclinic'
loop_
_space_group_symop_operation_xyz
x,y,z
-x,y,-z
-x,-y,-z
x,-y,z
1/2+x,1/2+y,z
1/2-x,1/2+y,-z
1/2-x,1/2-y,-z
1/2+x,1/2-y,z
loop_
_atom_site_type_symbol
_atom_site_label
_atom_site_fract_x
_atom_site_fract_y
_atom_site_fract_z
Si Si1 0.255886 0.806935 0.726404
Si Si2 0.330478 0.000000 0.332051
Si Si3 0.609425 0.690782 0.608644
Si Si4 0.139306 0.000000 0.855757
Si Si5 0.267636 0.000000 0.590933
Si Si6 0.528834 0.864715 0.336416
O O1 0.250000 0.750000 0.500000
O O2 0.163164 0.815889 0.553607
O O3 0.282037 0.907664 0.749975
O O4 0.323047 0.747571 0.053484
O O5 0.380302 0.913100 0.406392
O O6 0.333386 0.000000 0.593836
O O7 0.229802 0.000000 0.996112
O O8 0.595008 0.592574 0.662040
O O9 0.530955 0.756918 0.350386
O O10 0.175395 0.000000 0.201980
O O11 0.500000 0.889772 0.500000
O O12 0.500000 0.885421 0.000000
#
# Coordination Sequence:
#
# PCOD9205701 Si02
#       6
#     8   4   8   4   4   8
#     4  11  20  37  66  98 135 177 216 306 364 417
#     4  10  22  46  71 110 146 171 247 288 374 424
#     4  11  24  41  65  99 139 175 245 286 360 418
#     4  10  21  43  70 107 128 175 220 318 368 404
#     4  10  21  35  69 106 142 171 217 288 390 428
#     4  12  29  48  71 100 146 208 241 280 338 431
#
# _framework density 24.139082999999999
#
# number of rings (size 3 to 8) (size 9 to 14) (size 15 to 20)
#    0.667    0.444    2.222    5.333    6.222    0.889 
#    0.000    1.111    0.000    0.000    0.000    0.000 
#    0.000    0.000    0.000    0.000    0.000    0.000 
#
# Total GULP energy -100235.699132 kJ/mol
# GULP energy per Si atom -5568.649952 kJ/mol
# Density = 2.408414 g / cm^3
# Si number density = 24.139083 Si / 1000 Ang^3
#
#
#
# Elastic Constant Matrix: (Units=GPa)
#
#
# Indices 1 2 3 4 5 6 
#
# 1 98.3512 17.1684 24.9120 0.0000 -33.9601 0.0000
# 2 17.1684 172.8540 15.2721 0.0000 -12.1679 0.0000
# 3 24.9120 15.2721 90.3440 0.0000 -36.1216 0.0000
# 4 0.0000 0.0000 0.0000 27.2128 0.0000 -5.5029
# 5 -33.9601 -12.1679 -36.1216 0.0000 33.9406 0.0000
# 6 0.0000 0.0000 0.0000 -5.5029 0.0000 39.9732
#
#
#
# Elastic Compliance Matrix: (Units=1/GPa)
#
#
# Indices 1 2 3 4 5 6 
#
# 1 0.016191 -0.000528 0.003527 0.000000 0.019765 0.000000
# 2 -0.000528 0.005956 -0.000381 0.000000 0.001201 0.000000
# 3 0.003527 -0.000381 0.020048 0.000000 0.024728 0.000000
# 4 0.000000 0.000000 0.000000 0.037800 0.000000 0.005204
# 5 0.019765 0.001201 0.024728 0.000000 0.075987 0.000000
# 6 0.000000 0.000000 0.000000 0.005204 0.000000 0.025733
#
#
# Mechanical properties :
#
#
# Convention : Reuss Voigt Hill
#
# Bulk Modulus (GPa) = 21.08362 52.91714 37.00038
# Shear Modulus (GPa) = 26.00249 40.50511 33.25380
#
# Velocity S-wave (km/s) = 3.28562 4.10077 3.71562
# Velocity P-wave (km/s) = 4.81113 6.66267 5.81111
#
# Compressibility (1/GPa) = 0.04743018
#
# Stress axis : x y z
#
# Youngs Moduli (GPa) = 61.76227 167.90019 49.88127
#
# Poissons Ratio (x) = 0.08873 -0.17593
# Poissons Ratio (y) = 0.03264 0.01900
# Poissons Ratio (z) = -0.21784 0.06394
#
# Static dielectric constant tensor:
#      x y z
#    x 1.968120 0.000000 -0.057230 
#    y 0.000000 1.918730 0.000000 
#    z -0.057230 0.000000 2.024480 
# 
# From -- ./inp_files/28082.got.cif
#   From: 2010.05.17/outbox.cif.g08.bks.cpg/sg12_15_cif.got.tgz:28082.got - 2010.06.03 13:09:07.
