data_PCOD9205155
_publ_section_title
;
Structure prediction by ZEFSAII (Michael W. Deem and Ramdas Pophale) SiO2 
 PCOD9205155
Probable space group: C 2/M
;
_chemical_formula_sum "Si O2"
_cell_formula_units_Z 64
_cell_length_a 20.912506
_cell_length_b 7.575473
_cell_length_c 23.979704
_cell_angle_alpha 90.000000
_cell_angle_beta 51.238188
_cell_angle_gamma 90.000000
_cell_volume 2962.225099
_symmetry_space_group_name_H-M "C 2/M"
_symmetry_group_IT_number 12
_symmetry_cell_setting 'monoclinic'
loop_
_space_group_symop_operation_xyz
x,y,z
-x,y,-z
-x,-y,-z
x,-y,z
1/2+x,1/2+y,z
1/2-x,1/2+y,-z
1/2-x,1/2-y,-z
1/2+x,1/2-y,z
loop_
_atom_site_type_symbol
_atom_site_label
_atom_site_fract_x
_atom_site_fract_y
_atom_site_fract_z
Si Si1 0.870736 0.785054 0.904231
Si Si2 0.422179 0.783627 0.078337
Si Si3 0.978054 0.789829 0.252073
Si Si4 0.203485 0.705542 0.940456
Si Si5 0.327976 0.295950 0.671753
Si Si6 0.915401 0.708904 0.518737
Si Si7 0.503964 0.712938 0.363163
Si Si8 0.645863 0.212742 0.770647
O O1 0.789645 0.721454 0.915147
O O2 0.950601 0.722657 0.828021
O O3 0.869745 0.000000 0.906976
O O4 0.859514 0.720676 0.973434
O O5 0.340952 0.723172 0.089629
O O6 0.413899 0.726635 0.146724
O O7 0.423932 0.000000 0.076679
O O8 0.500000 0.724070 0.000000
O O9 0.987976 0.721622 0.309426
O O10 0.892496 0.758900 0.267865
O O11 0.990196 0.000000 0.249088
O O12 0.219361 0.500000 0.920500
O O13 0.324143 0.500000 0.691751
O O14 0.345510 0.289040 0.595694
O O15 0.408801 0.220711 0.658818
O O16 0.237965 0.218832 0.730449
O O17 0.910559 0.500000 0.530051
O O18 0.929944 0.742181 0.445801
O O19 0.000000 0.777805 0.500000
O O20 0.508601 0.500000 0.359898
O O21 0.649376 0.000000 0.771282
#
# Coordination Sequence:
#
# PCOD9205155 Si02
#       8
#     8   8   8   8   8   8   8   8
#     4   9  18  31  48  71 100 132 167 210 260 308
#     4   9  17  29  48  73  99 130 171 214 256 298
#     4  10  21  35  51  73 105 141 172 208 260 313
#     4   9  17  30  50  72  96 128 170 217 259 303
#     4   9  18  33  55  80 104 133 172 217 257 300
#     4   9  17  31  53  81 110 136 165 207 259 310
#     4   9  18  33  55  79 104 136 175 212 252 306
#     4  10  21  35  53  77 105 136 175 219 261 306
#
# _framework density 21.605378999999999
#
# number of rings (size 3 to 8) (size 9 to 14) (size 15 to 20)
#    0.000    2.750    0.000    1.125    1.750    4.000 
#    0.000    1.250    0.000    2.250    0.000    0.000 
#    0.000    0.000    0.000    0.000    0.000    0.000 
#
# Total GULP energy -178490.734513 kJ/mol
# GULP energy per Si atom -5577.835454 kJ/mol
# Density = 2.155620 g / cm^3
# Si number density = 21.605379 Si / 1000 Ang^3
#
#
#
# Elastic Constant Matrix: (Units=GPa)
#
#
# Indices 1 2 3 4 5 6 
#
# 1 98.4050 -4.8650 44.1829 -0.0011 23.8041 0.0024
# 2 -4.8650 48.9988 -10.1009 -0.0013 -2.7908 0.0005
# 3 44.1829 -10.1009 87.9638 -0.0002 7.7580 0.0000
# 4 -0.0011 -0.0013 -0.0002 -8.6954 0.0000 1.7575
# 5 23.8041 -2.7908 7.7580 0.0000 28.6994 0.0002
# 6 0.0024 0.0005 0.0000 1.7575 0.0002 10.9732
#
#
#
# Elastic Compliance Matrix: (Units=1/GPa)
#
#
# Indices 1 2 3 4 5 6 
#
# 1 0.016125 -0.000527 -0.007146 -0.000002 -0.011494 -0.000003
# 2 -0.000527 0.020977 0.002515 -0.000003 0.001797 0.000000
# 3 -0.007146 0.002515 0.015061 0.000000 0.002100 0.000001
# 4 -0.000002 -0.000003 0.000000 -0.111397 0.000002 0.017841
# 5 -0.011494 0.001797 0.002100 0.000002 0.043984 0.000001
# 6 -0.000003 0.000000 0.000001 0.017841 0.000001 0.088274
#
#
# Mechanical properties :
#
#
# Convention : Reuss Voigt Hill
#
# Bulk Modulus (GPa) = 23.89633 32.64463 28.27048
# Shear Modulus (GPa) = 51.39291 19.93880 35.66586
#
# Velocity S-wave (km/s) = 4.88249 3.04116 4.06739
# Velocity P-wave (km/s) = 6.54747 5.24155 5.93056
#
# Compressibility (1/GPa) = 0.04184743
#
# Stress axis : x y z
#
# Youngs Moduli (GPa) = 62.01559 47.67094 66.39567
#
# Poissons Ratio (x) = 0.02511 0.47447
# Poissons Ratio (y) = 0.03267 -0.16698
# Poissons Ratio (z) = 0.44317 -0.11989
#
# Static dielectric constant tensor:
#      x y z
#    x 1.788230 0.000000 -0.000160 
#    y 0.000000 1.833360 0.000000 
#    z -0.000160 0.000000 1.795480 
# 
# From -- ./inp_files/346061.got.cif
#   From: 2010.05.17/outbox.cif.g08.bks.cpg/sg12_174_cif.got.tgz:346061.got - 2010.06.03 13:09:07.
