data_PCOD9205162
_publ_section_title
;
Structure prediction by ZEFSAII (Michael W. Deem and Ramdas Pophale) SiO2 
 PCOD9205162
Probable space group: C 2/M
;
_chemical_formula_sum "Si O2"
_cell_formula_units_Z 48
_cell_length_a 32.826206
_cell_length_b 10.853581
_cell_length_c 22.035660
_cell_angle_alpha 90.000000
_cell_angle_beta 17.507431
_cell_angle_gamma 90.000000
_cell_volume 2361.784196
_symmetry_space_group_name_H-M "C 2/M"
_symmetry_group_IT_number 12
_symmetry_cell_setting 'monoclinic'
loop_
_space_group_symop_operation_xyz
x,y,z
-x,y,-z
-x,-y,-z
x,-y,z
1/2+x,1/2+y,z
1/2-x,1/2+y,-z
1/2-x,1/2-y,-z
1/2+x,1/2-y,z
loop_
_atom_site_type_symbol
_atom_site_label
_atom_site_fract_x
_atom_site_fract_y
_atom_site_fract_z
Si Si1 0.157792 0.863289 0.958025
Si Si2 0.842518 0.141937 0.547916
Si Si3 0.543060 0.215786 0.502762
Si Si4 0.261312 0.868312 0.942483
Si Si5 0.936811 0.637695 0.983555
Si Si6 0.242733 0.354491 0.562034
O O1 0.313387 0.849047 0.713825
O O2 0.166583 0.855567 0.018141
O O3 0.108012 0.000000 0.011751
O O4 0.078269 0.749889 0.041982
O O5 0.933075 0.205746 0.470350
O O6 0.832093 0.184411 0.493158
O O7 0.882010 0.000000 0.489252
O O8 0.689410 0.149339 0.791874
O O9 0.500000 0.281297 0.500000
O O10 0.414911 0.131578 0.699171
O O11 0.233731 0.000000 0.012010
O O12 0.250000 0.750000 0.000000
O O13 0.925619 0.500000 0.971059
O O14 0.083408 0.643667 0.805751
O O15 0.273781 0.500000 0.501899
O O16 0.250000 0.250000 0.500000
#
# Coordination Sequence:
#
# PCOD9205162 Si02
#       6
#     8   8   8   8   8   8
#     4   9  18  34  56  78 101 135 177 219 264 312
#     4   9  18  34  57  81 105 138 178 220 266 313
#     4   9  18  34  56  80 105 136 177 221 264 313
#     4  10  21  35  51  74 106 142 176 213 262 317
#     4   9  18  34  56  79 102 133 175 219 262 310
#     4  10  21  37  55  77 109 145 178 215 263 317
#
# _framework density 20.323618
#
# number of rings (size 3 to 8) (size 9 to 14) (size 15 to 20)
#    0.000    2.667    0.000    1.000    0.000    7.667 
#    0.000   12.500    0.000    5.000    0.000    0.000 
#    0.000    0.000    0.000    0.000    0.000    0.000 
#
# Total GULP energy -133748.991265 kJ/mol
# GULP energy per Si atom -5572.874636 kJ/mol
# Density = 2.027736 g / cm^3
# Si number density = 20.323618 Si / 1000 Ang^3
#
#
#
# Elastic Constant Matrix: (Units=GPa)
#
#
# Indices 1 2 3 4 5 6 
#
# 1 153.8044 102.0720 13.2895 0.0000 -11.0541 0.0000
# 2 102.0720 146.8255 7.7740 0.0000 0.5789 0.0000
# 3 13.2895 7.7740 67.4183 0.0000 -16.5627 0.0000
# 4 0.0000 0.0000 0.0000 9.6086 0.0000 5.7323
# 5 -11.0541 0.5789 -16.5627 0.0000 25.7128 0.0000
# 6 0.0000 0.0000 0.0000 5.7323 0.0000 29.7845
#
#
#
# Elastic Compliance Matrix: (Units=1/GPa)
#
#
# Indices 1 2 3 4 5 6 
#
# 1 0.012864 -0.008959 -0.000112 0.000000 0.005660 0.000000
# 2 -0.008959 0.013106 -0.000908 0.000000 -0.004731 0.000000
# 3 -0.000112 -0.000908 0.017764 0.000000 0.011415 0.000000
# 4 0.000000 0.000000 0.000000 0.117573 0.000000 -0.022628
# 5 0.005660 -0.004731 0.011415 0.000000 0.048784 0.000000
# 6 0.000000 0.000000 0.000000 -0.022628 0.000000 0.037929
#
#
# Mechanical properties :
#
#
# Convention : Reuss Voigt Hill
#
# Bulk Modulus (GPa) = 42.05990 68.25768 55.15879
# Shear Modulus (GPa) = 18.12225 29.34868 23.73547
#
# Velocity S-wave (km/s) = 2.98935 3.80421 3.42113
# Velocity P-wave (km/s) = 5.71445 7.27697 6.54253
#
# Compressibility (1/GPa) = 0.02377562
#
# Stress axis : x y z
#
# Youngs Moduli (GPa) = 77.73544 76.30071 56.29430
#
# Poissons Ratio (x) = 0.68361 0.00632
# Poissons Ratio (y) = 0.69647 0.05109
# Poissons Ratio (z) = 0.00872 0.06925
#
# Static dielectric constant tensor:
#      x y z
#    x 1.721770 0.000000 0.004090 
#    y 0.000000 1.707670 0.000000 
#    z 0.004090 0.000000 1.781810 
# 
# From -- ./inp_files/330006.got.cif
#   From: 2010.05.17/outbox.cif.g08.bks.cpg/sg12_166_cif.got.tgz:330006.got - 2010.06.03 13:09:07.
