data_PCOD9205782
_publ_section_title
;
Structure prediction by ZEFSAII (Michael W. Deem and Ramdas Pophale) SiO2 
 PCOD9205782
Probable space group: C 2/M
;
_chemical_formula_sum "Si O2"
_cell_formula_units_Z 48
_cell_length_a 26.772827
_cell_length_b 13.085836
_cell_length_c 11.164751
_cell_angle_alpha 90.000000
_cell_angle_beta 30.005724
_cell_angle_gamma 90.000000
_cell_volume 1956.094766
_symmetry_space_group_name_H-M "C 2/M"
_symmetry_group_IT_number 12
_symmetry_cell_setting 'monoclinic'
loop_
_space_group_symop_operation_xyz
x,y,z
-x,y,-z
-x,-y,-z
x,-y,z
1/2+x,1/2+y,z
1/2-x,1/2+y,-z
1/2-x,1/2-y,-z
1/2+x,1/2-y,z
loop_
_atom_site_type_symbol
_atom_site_label
_atom_site_fract_x
_atom_site_fract_y
_atom_site_fract_z
Si Si1 0.171999 0.377364 0.847995
Si Si2 0.045733 0.115026 0.595923
Si Si3 0.742514 0.119717 0.448291
Si Si4 0.036860 0.708339 0.798506
Si Si5 0.241772 0.616698 0.960865
Si Si6 0.677971 0.623891 0.967985
O O1 0.187678 0.500000 0.819194
O O2 0.239448 0.341789 0.592920
O O3 0.193204 0.340733 0.939653
O O4 0.057281 0.353742 0.056360
O O5 0.066356 0.201305 0.649863
O O6 0.140569 0.111777 0.313369
O O7 0.036816 0.000000 0.666587
O O8 0.938641 0.140660 0.761492
O O9 0.629656 0.135800 0.635365
O O10 0.808059 0.157910 0.199501
O O11 0.766216 0.000000 0.409206
O O12 0.000000 0.755545 0.000000
O O13 0.202448 0.500000 0.052048
O O14 0.243394 0.660133 0.092909
O O15 0.691668 0.500000 0.939096
#
# Coordination Sequence:
#
# PCOD9205782 Si02
#       6
#     8   8   8   8   8   8
#     4   9  18  35  59  84 109 138 174 219 272 326
#     4  10  21  36  53  75 107 147 186 221 261 312
#     4   9  18  35  59  84 109 138 174 219 272 326
#     4  10  21  36  55  80 110 144 180 220 268 320
#     4   9  18  35  58  81 108 143 180 221 269 318
#     4   9  18  35  58  81 108 143 180 221 269 318
#
# _framework density 24.538689999999999
#
# number of rings (size 3 to 8) (size 9 to 14) (size 15 to 20)
#    0.000    2.667    0.000    1.000    0.000    7.000 
#    0.000   12.500    0.000    4.000    0.000    0.000 
#    0.000    0.000    0.000    0.000    0.000    0.000 
#
# Total GULP energy -134057.279826 kJ/mol
# GULP energy per Si atom -5585.719993 kJ/mol
# Density = 2.448284 g / cm^3
# Si number density = 24.538690 Si / 1000 Ang^3
#
#
#
# Elastic Constant Matrix: (Units=GPa)
#
#
# Indices 1 2 3 4 5 6 
#
# 1 156.6248 28.3204 0.1043 0.0000 0.8566 0.0000
# 2 28.3204 55.4653 -12.3257 0.0000 20.4237 0.0000
# 3 0.1043 -12.3257 38.4658 0.0000 -9.5236 0.0000
# 4 0.0000 0.0000 0.0000 23.2167 0.0000 12.8052
# 5 0.8566 20.4237 -9.5236 0.0000 32.3386 0.0000
# 6 0.0000 0.0000 0.0000 12.8052 0.0000 38.6864
#
#
#
# Elastic Compliance Matrix: (Units=1/GPa)
#
#
# Indices 1 2 3 4 5 6 
#
# 1 0.007252 -0.004871 -0.000935 0.000000 0.002609 0.000000
# 2 -0.004871 0.027398 0.004897 0.000000 -0.015732 0.000000
# 3 -0.000935 0.004897 0.028918 0.000000 0.005448 0.000000
# 4 0.000000 0.000000 0.000000 0.052692 0.000000 -0.017441
# 5 0.002609 -0.015732 0.005448 0.000000 0.042394 0.000000
# 6 0.000000 0.000000 0.000000 -0.017441 0.000000 0.031622
#
#
# Mechanical properties :
#
#
# Convention : Reuss Voigt Hill
#
# Bulk Modulus (GPa) = 16.19421 31.41709 23.80565
# Shear Modulus (GPa) = 23.51000 34.47879 28.99439
#
# Velocity S-wave (km/s) = 3.09864 3.75250 3.44114
# Velocity P-wave (km/s) = 4.40635 5.62192 5.05083
#
# Compressibility (1/GPa) = 0.06175048
#
# Stress axis : x y z
#
# Youngs Moduli (GPa) = 137.89627 36.49943 34.58081
#
# Poissons Ratio (x) = 0.17780 0.03232
# Poissons Ratio (y) = 0.67172 -0.16935
# Poissons Ratio (z) = 0.12887 -0.17875
#
# Static dielectric constant tensor:
#      x y z
#    x 1.986530 0.000000 0.052780 
#    y 0.000000 2.007760 0.000000 
#    z 0.052780 0.000000 1.917780 
# 
# From -- ./inp_files/183662.got.cif
#   From: 2010.05.17/outbox.cif.g08.bks.cpg/sg12_92_cif.got.tgz:183662.got - 2010.06.03 13:09:07.
