data_PCOD9205259
_publ_section_title
;
Structure prediction by ZEFSAII (Michael W. Deem and Ramdas Pophale) SiO2 
 PCOD9205259
Probable space group: C 2/M
;
_chemical_formula_sum "Si O2"
_cell_formula_units_Z 56
_cell_length_a 14.291075
_cell_length_b 23.181704
_cell_length_c 16.095370
_cell_angle_alpha 90.000000
_cell_angle_beta 27.711571
_cell_angle_gamma 90.000000
_cell_volume 2479.611482
_symmetry_space_group_name_H-M "C 2/M"
_symmetry_group_IT_number 12
_symmetry_cell_setting 'monoclinic'
loop_
_space_group_symop_operation_xyz
x,y,z
-x,y,-z
-x,-y,-z
x,-y,z
1/2+x,1/2+y,z
1/2-x,1/2+y,-z
1/2-x,1/2-y,-z
1/2+x,1/2-y,z
loop_
_atom_site_type_symbol
_atom_site_label
_atom_site_fract_x
_atom_site_fract_y
_atom_site_fract_z
Si Si1 0.054877 0.305522 0.781434
Si Si2 0.555591 0.818147 0.327934
Si Si3 0.520342 0.308214 0.371297
Si Si4 0.888779 0.938844 0.903516
Si Si5 0.258286 0.437216 0.178728
Si Si6 0.404472 0.319736 0.268786
Si Si7 0.328307 0.894622 0.080613
O O1 0.974539 0.316975 0.749648
O O2 0.299299 0.312204 0.586560
O O3 0.015942 0.238514 0.835741
O O4 0.940263 0.346916 0.934666
O O5 0.624118 0.754163 0.301752
O O6 0.672676 0.874442 0.267543
O O7 0.333899 0.821373 0.540889
O O8 0.469538 0.311297 0.313276
O O9 0.671022 0.361163 0.263273
O O10 0.791639 0.933241 0.889852
O O11 0.013121 0.881164 0.822705
O O12 0.002104 0.000000 0.819696
O O13 0.725342 0.939898 0.104970
O O14 0.185329 0.500000 0.269732
O O15 0.500000 0.437045 0.000000
O O16 0.500000 0.923838 0.000000
#
# Coordination Sequence:
#
# PCOD9205259 Si02
#       7
#     8   8   8   8   8   8   8
#     4   9  17  34  55  81 117 140 177 233 272 329
#     4   9  16  33  56  78 107 142 180 223 278 337
#     4   8  18  32  52  85 112 139 181 226 276 329
#     4  10  21  38  56  78 109 144 188 235 273 317
#     4  10  21  35  53  78 107 141 183 233 278 324
#     4   8  17  32  56  81 104 144 178 221 284 324
#     4  11  22  34  57  84 110 156 189 216 279 330
#
# _framework density 22.584184
#
# number of rings (size 3 to 8) (size 9 to 14) (size 15 to 20)
#    0.000    2.714    1.429    1.714    2.000    3.714 
#    0.000    0.714    0.000    2.571    0.000    4.000 
#    0.000    0.000    0.000    0.000    0.000    0.000 
#
# Total GULP energy -156226.150505 kJ/mol
# GULP energy per Si atom -5579.505375 kJ/mol
# Density = 2.253278 g / cm^3
# Si number density = 22.584184 Si / 1000 Ang^3
#
#
#
# Elastic Constant Matrix: (Units=GPa)
#
#
# Indices 1 2 3 4 5 6 
#
# 1 84.9434 11.5471 2.8389 0.0742 0.8609 -0.0133
# 2 11.5471 155.9776 31.0829 0.0844 -4.8846 -0.0062
# 3 2.8389 31.0829 48.2432 0.1007 -4.5706 0.0427
# 4 0.0742 0.0844 0.1007 -1.3106 -0.0417 -6.0622
# 5 0.8609 -4.8846 -4.5706 -0.0417 28.3599 -0.0135
# 6 -0.0133 -0.0062 0.0427 -6.0622 -0.0135 7.4060
#
#
#
# Elastic Compliance Matrix: (Units=1/GPa)
#
#
# Indices 1 2 3 4 5 6 
#
# 1 0.011901 -0.000858 -0.000199 0.000110 -0.000541 0.000110
# 2 -0.000858 0.007425 -0.004681 -0.000021 0.000550 0.000016
# 3 -0.000199 -0.004681 0.024046 0.000433 0.003076 0.000217
# 4 0.000110 -0.000021 0.000433 -0.159405 -0.000234 -0.130484
# 5 -0.000541 0.000550 0.003076 -0.000234 0.035868 -0.000144
# 6 0.000110 0.000016 0.000217 -0.130484 -0.000144 0.028216
#
#
# Mechanical properties :
#
#
# Convention : Reuss Voigt Hill
#
# Bulk Modulus (GPa) = 31.35215 42.23355 36.79285
# Shear Modulus (GPa) = -167.55669 23.13742 -72.20964
#
# Velocity S-wave (km/s) = -8.62283 3.20425 -5.66065
# Velocity P-wave (km/s) = 9.23174 5.69480 5.13782
#
# Compressibility (1/GPa) = 0.03189574
#
# Stress axis : x y z
#
# Youngs Moduli (GPa) = 84.02453 134.68353 41.58641
#
# Poissons Ratio (x) = 0.11562 0.00827
# Poissons Ratio (y) = 0.07213 0.19467
# Poissons Ratio (z) = 0.01671 0.63046
#
# Static dielectric constant tensor:
#      x y z
#    x 1.936820 -0.000010 -0.004410 
#    y -0.000010 1.873410 0.000040 
#    z -0.004410 0.000040 1.823380 
# 
# From -- ./inp_files/272367.got.cif
#   From: 2010.05.17/outbox.cif.g08.bks.cpg/sg12_137_cif.got.tgz:272367.got - 2010.06.03 13:09:07.
