data_PCOD9205582
_publ_section_title
;
Structure prediction by ZEFSAII (Michael W. Deem and Ramdas Pophale) SiO2 
 PCOD9205582
Probable space group: C 2/M
;
_chemical_formula_sum "Si O2"
_cell_formula_units_Z 48
_cell_length_a 17.240276
_cell_length_b 13.344538
_cell_length_c 15.700201
_cell_angle_alpha 90.000000
_cell_angle_beta 134.576958
_cell_angle_gamma 90.000000
_cell_volume 2572.888786
_symmetry_space_group_name_H-M "C 2/M"
_symmetry_group_IT_number 12
_symmetry_cell_setting 'monoclinic'
loop_
_space_group_symop_operation_xyz
x,y,z
-x,y,-z
-x,-y,-z
x,-y,z
1/2+x,1/2+y,z
1/2-x,1/2+y,-z
1/2-x,1/2-y,-z
1/2+x,1/2-y,z
loop_
_atom_site_type_symbol
_atom_site_label
_atom_site_fract_x
_atom_site_fract_y
_atom_site_fract_z
Si Si1 0.089905 0.115354 0.965875
Si Si2 0.507400 0.745769 0.249459
Si Si3 0.452154 0.382761 0.555547
Si Si4 0.318095 0.886356 0.043494
Si Si5 0.304213 0.118087 0.670886
Si Si6 0.374448 0.804736 0.906215
O O1 0.000562 0.170618 0.837952
O O2 0.064618 0.000000 0.964845
O O3 0.199518 0.117710 0.993270
O O4 0.116469 0.185908 0.066991
O O5 0.505003 0.684136 0.334350
O O6 0.402367 0.816181 0.157732
O O7 0.613570 0.815520 0.321881
O O8 0.500000 0.354459 0.500000
O O9 0.480414 0.500000 0.591473
O O10 0.321278 0.373702 0.452711
O O11 0.357817 0.000000 0.077478
O O12 0.317887 0.851119 0.945658
O O13 0.317459 0.160775 0.776668
O O14 0.333764 0.000000 0.692408
O O15 0.500000 0.841527 0.000000
#
# Coordination Sequence:
#
# PCOD9205582 Si02
#       6
#     8   8   8   8   8   8
#     4  10  22  37  55  84 120 154 185 226 279 338
#     4  11  20  38  59  84 112 151 190 228 281 332
#     4  10  24  41  60  85 110 145 190 238 283 329
#     4  10  21  35  58  86 117 151 185 230 280 333
#     4  11  23  38  59  85 115 147 188 235 279 332
#     4  11  20  35  57  88 115 147 187 229 282 332
#
# _framework density 18.656074
#
# number of rings (size 3 to 8) (size 9 to 14) (size 15 to 20)
#    0.000    1.500    3.333    4.000    4.667    1.000 
#    0.000    0.000    0.000    4.000    0.000    0.000 
#    0.000    0.000    0.000    0.000    0.000    0.000 
#
# Total GULP energy -134082.431830 kJ/mol
# GULP energy per Si atom -5586.767993 kJ/mol
# Density = 1.861361 g / cm^3
# Si number density = 18.656074 Si / 1000 Ang^3
#
#
#
# Elastic Constant Matrix: (Units=GPa)
#
#
# Indices 1 2 3 4 5 6 
#
# 1 79.7766 32.4633 6.0793 0.0000 -9.4813 0.0000
# 2 32.4633 138.4107 46.9695 0.0000 -16.5130 0.0000
# 3 6.0793 46.9695 46.3358 0.0000 -21.0286 0.0000
# 4 0.0000 0.0000 0.0000 20.7935 0.0000 0.4150
# 5 -9.4813 -16.5130 -21.0286 0.0000 29.9210 0.0000
# 6 0.0000 0.0000 0.0000 0.4150 0.0000 30.5576
#
#
#
# Elastic Compliance Matrix: (Units=1/GPa)
#
#
# Indices 1 2 3 4 5 6 
#
# 1 0.014687 -0.004567 0.005390 0.000000 0.005922 0.000000
# 2 -0.004567 0.012573 -0.014174 0.000000 -0.004470 0.000000
# 3 0.005390 -0.014174 0.047673 0.000000 0.027390 0.000000
# 4 0.000000 0.000000 0.000000 0.048105 0.000000 -0.000653
# 5 0.005922 -0.004470 0.027390 0.000000 0.052081 0.000000
# 6 0.000000 0.000000 0.000000 -0.000653 0.000000 0.032734
#
#
# Mechanical properties :
#
#
# Convention : Reuss Voigt Hill
#
# Bulk Modulus (GPa) = 20.73401 48.39416 34.56408
# Shear Modulus (GPa) = 19.94958 28.18847 24.06903
#
# Velocity S-wave (km/s) = 3.27362 3.89132 3.59575
# Velocity P-wave (km/s) = 5.04249 6.79605 5.98385
#
# Compressibility (1/GPa) = 0.04822995
#
# Stress axis : x y z
#
# Youngs Moduli (GPa) = 68.08923 79.53648 20.97613
#
# Poissons Ratio (x) = 0.36327 -0.11307
# Poissons Ratio (y) = 0.31099 0.29732
# Poissons Ratio (z) = -0.36703 1.12738
#
# Static dielectric constant tensor:
#      x y z
#    x 1.668210 0.000000 0.014280 
#    y 0.000000 1.666360 0.000000 
#    z 0.014280 0.000000 1.614940 
# 
# From -- ./inp_files/215010.got.cif
#   From: 2010.05.17/outbox.cif.g08.bks.cpg/sg12_108_cif.got.tgz:215010.got - 2010.06.03 13:09:07.
