data_PCOD9205179
_publ_section_title
;
Structure prediction by ZEFSAII (Michael W. Deem and Ramdas Pophale) SiO2 
 PCOD9205179
Probable space group: C 2/M
;
_chemical_formula_sum "Si O2"
_cell_formula_units_Z 48
_cell_length_a 13.547028
_cell_length_b 14.451520
_cell_length_c 24.331654
_cell_angle_alpha 90.000000
_cell_angle_beta 33.621719
_cell_angle_gamma 90.000000
_cell_volume 2637.602790
_symmetry_space_group_name_H-M "C 2/M"
_symmetry_group_IT_number 12
_symmetry_cell_setting 'monoclinic'
loop_
_space_group_symop_operation_xyz
x,y,z
-x,y,-z
-x,-y,-z
x,-y,z
1/2+x,1/2+y,z
1/2-x,1/2+y,-z
1/2-x,1/2-y,-z
1/2+x,1/2-y,z
loop_
_atom_site_type_symbol
_atom_site_label
_atom_site_fract_x
_atom_site_fract_y
_atom_site_fract_z
Si Si1 0.404016 0.250877 0.732686
Si Si2 0.710598 0.891502 0.610864
Si Si3 0.492676 0.500000 0.096480
Si Si4 0.151889 0.297865 0.129370
Si Si5 0.914400 0.107884 0.627284
Si Si6 0.791471 0.500000 0.862768
Si Si7 0.501165 0.700396 0.899829
O O1 0.563357 0.176553 0.653543
O O2 0.406530 0.274111 0.796567
O O3 0.412379 0.328981 0.682349
O O4 0.205880 0.208549 0.820575
O O5 0.776821 0.865033 0.642019
O O6 0.890159 0.886594 0.491013
O O7 0.654593 0.000000 0.637066
O O8 0.303169 0.500000 0.152634
O O9 0.521888 0.596536 0.113127
O O10 0.635513 0.500000 0.980933
O O11 0.116440 0.401701 0.168071
O O12 0.047984 0.276670 0.121956
O O13 0.359741 0.290613 0.015165
O O14 0.879007 0.000000 0.656796
#
# Coordination Sequence:
#
# PCOD9205179 Si02
#       7
#     8   8   4   8   8   4   8
#     4  12  20  32  58  87 106 143 184 232 264 322
#     4   9  20  37  62  85 107 140 181 228 273 336
#     4   9  16  32  54  73 101 141 181 229 266 303
#     4  10  21  35  53  78 116 148 182 224 274 317
#     4   9  20  41  58  80 114 143 176 224 284 332
#     4   9  16  32  56  73  97 141 189 227 258 303
#     4  10  21  35  51  81 114 149 182 225 270 319
#
# _framework density 18.198343000000001
#
# number of rings (size 3 to 8) (size 9 to 14) (size 15 to 20)
#    0.000    2.167    1.667    3.000    2.333    0.000 
#    3.000    0.000    0.000    1.000    0.000    7.000 
#    0.000    0.000    0.000    0.000    0.000    0.000 
#
# Total GULP energy -133692.872227 kJ/mol
# GULP energy per Si atom -5570.536343 kJ/mol
# Density = 1.815692 g / cm^3
# Si number density = 18.198343 Si / 1000 Ang^3
#
#
#
# Elastic Constant Matrix: (Units=GPa)
#
#
# Indices 1 2 3 4 5 6 
#
# 1 76.7790 46.8697 35.3012 0.0000 0.5152 0.0000
# 2 46.8697 83.8199 30.7771 -0.0001 12.1571 -0.0001
# 3 35.3012 30.7771 80.4437 -0.0008 -1.5954 0.0000
# 4 0.0000 -0.0001 -0.0008 26.7989 0.0000 7.1171
# 5 0.5152 12.1571 -1.5954 0.0000 39.5979 0.0000
# 6 0.0000 -0.0001 0.0000 7.1171 0.0000 36.5548
#
#
#
# Elastic Compliance Matrix: (Units=1/GPa)
#
#
# Indices 1 2 3 4 5 6 
#
# 1 0.022102 -0.010728 -0.005539 0.000000 0.002783 0.000000
# 2 -0.010728 0.019930 -0.003038 0.000000 -0.006102 0.000000
# 3 -0.005539 -0.003038 0.016057 0.000000 0.001652 0.000000
# 4 0.000000 0.000000 0.000000 0.039350 0.000000 -0.007661
# 5 0.002783 -0.006102 0.001652 0.000000 0.027157 0.000000
# 6 0.000000 0.000000 0.000000 -0.007661 0.000000 0.028848
#
#
# Mechanical properties :
#
#
# Convention : Reuss Voigt Hill
#
# Bulk Modulus (GPa) = 51.34193 51.88206 51.61199
# Shear Modulus (GPa) = 25.18299 29.12994 27.15647
#
# Velocity S-wave (km/s) = 3.72399 4.00521 3.86716
# Velocity P-wave (km/s) = 6.83846 7.06824 6.95430
#
# Compressibility (1/GPa) = 0.01947726
#
# Stress axis : x y z
#
# Youngs Moduli (GPa) = 45.24557 50.17612 62.27859
#
# Poissons Ratio (x) = 0.53831 0.34497
# Poissons Ratio (y) = 0.48541 0.18920
# Poissons Ratio (z) = 0.25062 0.15244
#
# Static dielectric constant tensor:
#      x y z
#    x 1.618920 0.000000 -0.030060 
#    y 0.000000 1.628100 0.000000 
#    z -0.030060 0.000000 1.690190 
# 
# From -- ./inp_files/361224.got.cif
#   From: 2010.05.17/outbox.cif.g08.bks.cpg/sg12_181_cif.got.tgz:361224.got - 2010.06.03 13:09:07.
