data_PCOD9205683
_publ_section_title
;
Structure prediction by ZEFSAII (Michael W. Deem and Ramdas Pophale) SiO2 
 PCOD9205683
Probable space group: C 2/M
;
_chemical_formula_sum "Si O2"
_cell_formula_units_Z 40
_cell_length_a 24.400452
_cell_length_b 19.546433
_cell_length_c 5.136677
_cell_angle_alpha 90.000000
_cell_angle_beta 43.164408
_cell_angle_gamma 90.000000
_cell_volume 1675.959481
_symmetry_space_group_name_H-M "C 2/M"
_symmetry_group_IT_number 12
_symmetry_cell_setting 'monoclinic'
loop_
_space_group_symop_operation_xyz
x,y,z
-x,y,-z
-x,-y,-z
x,-y,z
1/2+x,1/2+y,z
1/2-x,1/2+y,-z
1/2-x,1/2-y,-z
1/2+x,1/2-y,z
loop_
_atom_site_type_symbol
_atom_site_label
_atom_site_fract_x
_atom_site_fract_y
_atom_site_fract_z
Si Si1 0.181510 0.425915 0.298177
Si Si2 0.096670 0.923274 0.167857
Si Si3 0.312184 0.214398 0.475695
Si Si4 0.410359 0.891975 0.901070
Si Si5 0.596318 0.336326 0.668552
O O1 0.222851 0.500000 0.174009
O O2 0.218900 0.354301 0.271046
O O3 0.149319 0.417009 0.118259
O O4 0.108064 0.427271 0.759852
O O5 0.114324 0.891725 0.385929
O O6 0.000000 0.927142 0.500000
O O7 0.127069 0.000000 0.016718
O O8 0.119899 0.871466 0.859665
O O9 0.250000 0.250000 0.500000
O O10 0.352023 0.267737 0.535158
O O11 0.385927 0.186323 0.044031
O O12 0.500000 0.900763 0.500000
O O13 0.500000 0.322592 0.000000
#
# Coordination Sequence:
#
# PCOD9205683 Si02
#       5
#     8   8   8   8   8
#     4  10  23  42  67  97 133 173 220 269 329 397
#     4   9  18  35  58  88 121 154 200 257 310 361
#     4  10  26  44  65  92 137 171 216 264 337 385
#     4  10  23  39  68  98 130 170 219 271 327 390
#     4  10  21  35  62  89 118 160 209 258 310 377
#
# _framework density 23.866928000000001
#
# number of rings (size 3 to 8) (size 9 to 14) (size 15 to 20)
#    1.200    1.000    0.000    1.800    5.600    6.400 
#    0.000    2.000    0.000    0.000    0.000    0.000 
#    0.000    0.000    0.000    0.000    0.000    0.000 
#
# Total GULP energy -111694.267277 kJ/mol
# GULP energy per Si atom -5584.713364 kJ/mol
# Density = 2.381261 g / cm^3
# Si number density = 23.866928 Si / 1000 Ang^3
#
#
#
# Elastic Constant Matrix: (Units=GPa)
#
#
# Indices 1 2 3 4 5 6 
#
# 1 49.4813 24.4629 0.6947 0.0000 6.7796 0.0000
# 2 24.4629 165.8622 3.8706 0.0000 -9.1893 0.0000
# 3 0.6947 3.8706 40.1355 0.0000 5.7595 0.0000
# 4 0.0000 0.0000 0.0000 -9.0545 0.0000 -12.6833
# 5 6.7796 -9.1893 5.7595 0.0000 42.6160 0.0000
# 6 0.0000 0.0000 0.0000 -12.6833 0.0000 -6.3631
#
#
#
# Elastic Compliance Matrix: (Units=1/GPa)
#
#
# Indices 1 2 3 4 5 6 
#
# 1 0.022586 -0.003592 0.000594 0.000000 -0.004448 0.000000
# 2 -0.003592 0.006698 -0.000890 0.000000 0.002136 0.000000
# 3 0.000594 -0.000890 0.025527 0.000000 -0.003736 0.000000
# 4 0.000000 0.000000 0.000000 0.061627 0.000000 -0.122839
# 5 -0.004448 0.002136 -0.003736 0.000000 0.025139 0.000000
# 6 0.000000 0.000000 0.000000 -0.122839 0.000000 0.087693
#
#
# Mechanical properties :
#
#
# Convention : Reuss Voigt Hill
#
# Bulk Modulus (GPa) = 21.26060 34.83727 28.04893
# Shear Modulus (GPa) = 19.78432 20.53639 20.16036
#
# Velocity S-wave (km/s) = 2.88226 2.93653 2.90952
# Velocity P-wave (km/s) = 4.47257 5.11134 4.80259
#
# Compressibility (1/GPa) = 0.04703537
#
# Stress axis : x y z
#
# Youngs Moduli (GPa) = 44.27453 149.29992 39.17366
#
# Poissons Ratio (x) = 0.53621 -0.02326
# Poissons Ratio (y) = 0.15901 0.03488
# Poissons Ratio (z) = -0.02628 0.13292
#
# Static dielectric constant tensor:
#      x y z
#    x 1.864520 0.000000 -0.023020 
#    y 0.000000 1.690230 0.000000 
#    z -0.023020 0.000000 1.909220 
# 
# From -- ./inp_files/25191.got.cif
#   From: 2010.05.17/outbox.cif.g08.bks.cpg/sg12_13_cif.got.tgz:25191.got - 2010.06.03 13:09:07.
