data_PCOD9205698
_publ_section_title
;
Structure prediction by ZEFSAII (Michael W. Deem and Ramdas Pophale) SiO2 
 PCOD9205698
Probable space group: C 2/M
;
_chemical_formula_sum "Si O2"
_cell_formula_units_Z 64
_cell_length_a 14.746654
_cell_length_b 18.008374
_cell_length_c 22.229612
_cell_angle_alpha 90.000000
_cell_angle_beta 148.507726
_cell_angle_gamma 90.000000
_cell_volume 3083.822674
_symmetry_space_group_name_H-M "C 2/M"
_symmetry_group_IT_number 12
_symmetry_cell_setting 'monoclinic'
loop_
_space_group_symop_operation_xyz
x,y,z
-x,y,-z
-x,-y,-z
x,-y,z
1/2+x,1/2+y,z
1/2-x,1/2+y,-z
1/2-x,1/2-y,-z
1/2+x,1/2-y,z
loop_
_atom_site_type_symbol
_atom_site_label
_atom_site_fract_x
_atom_site_fract_y
_atom_site_fract_z
Si Si1 0.225080 0.419958 0.496279
Si Si2 0.849120 0.359832 0.864132
Si Si3 0.115830 0.417975 0.622884
Si Si4 0.805120 0.188524 0.813437
Si Si5 0.959589 0.317801 0.692993
Si Si6 0.997112 0.855428 0.263240
Si Si7 0.847042 0.168960 0.046554
Si Si8 0.496648 0.083769 0.169181
O O1 0.277629 0.500000 0.499214
O O2 0.197892 0.351578 0.435691
O O3 0.344921 0.403254 0.621592
O O4 0.029302 0.427017 0.408425
O O5 0.812400 0.277252 0.818229
O O6 0.672003 0.382683 0.796062
O O7 0.908143 0.407673 0.840841
O O8 0.000000 0.356420 0.000000
O O9 0.199950 0.500000 0.662180
O O10 0.232942 0.351456 0.712655
O O11 0.000000 0.399187 0.500000
O O12 0.658878 0.167369 0.780823
O O13 0.010748 0.169289 0.926703
O O14 0.953986 0.229433 0.693190
O O15 0.939559 0.357102 0.745792
O O16 0.940127 0.851566 0.161842
O O17 0.750000 0.250000 0.000000
O O18 0.701464 0.107852 0.953384
O O19 0.512148 0.000000 0.200743
#
# Coordination Sequence:
#
# PCOD9205698 Si02
#       8
#     8   8   8   8   8   8   8   8
#     4  10  21  37  58  88 127 165 206 264 324 374
#     4  11  22  42  63  90 121 164 215 266 317 366
#     4   9  18  34  55  85 127 164 199 253 318 375
#     4  10  21  35  66  90 121 165 207 253 314 376
#     4  10  22  41  62  91 125 169 213 259 317 387
#     4  11  21  37  68  93 121 165 223 269 309 374
#     4  12  21  40  63  93 129 162 209 267 314 372
#     4  12  26  42  63  91 128 172 209 258 328 383
#
# _framework density 20.753463
#
# number of rings (size 3 to 8) (size 9 to 14) (size 15 to 20)
#    0.000    1.375    3.750    1.500    1.750    2.250 
#    0.000    1.250    0.000    1.500    0.000    0.000 
#    0.000    0.000    0.000    0.000    0.000    0.000 
#
# Total GULP energy -178318.205172 kJ/mol
# GULP energy per Si atom -5572.443912 kJ/mol
# Density = 2.070623 g / cm^3
# Si number density = 20.753463 Si / 1000 Ang^3
#
#
#
# Elastic Constant Matrix: (Units=GPa)
#
#
# Indices 1 2 3 4 5 6 
#
# 1 56.1397 6.7957 -5.7437 -0.0001 8.9591 0.0001
# 2 6.7957 42.4812 15.5800 0.0118 2.0323 -0.0019
# 3 -5.7437 15.5800 64.6771 0.0199 -4.4586 -0.0027
# 4 -0.0001 0.0118 0.0199 -196.2040 0.0003 37.9515
# 5 8.9591 2.0323 -4.4586 0.0003 37.0419 0.0000
# 6 0.0001 -0.0019 -0.0027 37.9515 0.0000 0.6602
#
#
#
# Elastic Compliance Matrix: (Units=1/GPa)
#
#
# Indices 1 2 3 4 5 6 
#
# 1 0.019161 -0.003714 0.002310 0.000000 -0.004153 0.000000
# 2 -0.003714 0.026717 -0.006862 0.000001 -0.001394 0.000000
# 3 0.002310 -0.006862 0.017452 0.000001 0.001918 -0.000002
# 4 0.000000 0.000001 0.000001 -0.000421 0.000000 0.024175
# 5 -0.004153 -0.001394 0.001918 0.000000 0.028308 0.000000
# 6 0.000000 0.000000 -0.000002 0.024175 0.000000 0.124982
#
#
# Mechanical properties :
#
#
# Convention : Reuss Voigt Hill
#
# Bulk Modulus (GPa) = 21.36793 21.84023 21.60408
# Shear Modulus (GPa) = 20.13445 -21.92265 -0.89410
#
# Velocity S-wave (km/s) = 3.11814 -3.25366 -0.65708
# Velocity P-wave (km/s) = 4.82516 1.88906 3.13955
#
# Compressibility (1/GPa) = 0.04679910
#
# Stress axis : x y z
#
# Youngs Moduli (GPa) = 52.18863 37.42913 57.30092
#
# Poissons Ratio (x) = 0.13900 -0.13236
# Poissons Ratio (y) = 0.19381 0.39318
# Poissons Ratio (z) = -0.12055 0.25683
#
# Static dielectric constant tensor:
#      x y z
#    x 1.811660 0.000000 0.010080 
#    y 0.000000 1.683910 0.000000 
#    z 0.010080 0.000000 1.738420 
# 
# From -- ./inp_files/340863.got.cif
#   From: 2010.05.17/outbox.cif.g08.bks.cpg/sg12_171_cif.got.tgz:340863.got - 2010.06.03 13:09:07.
