data_PCOD9205330
_publ_section_title
;
Structure prediction by ZEFSAII (Michael W. Deem and Ramdas Pophale) SiO2 
 PCOD9205330
Probable space group: C 2/M
;
_chemical_formula_sum "Si O2"
_cell_formula_units_Z 44
_cell_length_a 5.202736
_cell_length_b 14.632362
_cell_length_c 28.923873
_cell_angle_alpha 90.000000
_cell_angle_beta 85.343506
_cell_angle_gamma 90.000000
_cell_volume 2194.657901
_symmetry_space_group_name_H-M "C 2/M"
_symmetry_group_IT_number 12
_symmetry_cell_setting 'monoclinic'
loop_
_space_group_symop_operation_xyz
x,y,z
-x,y,-z
-x,-y,-z
x,-y,z
1/2+x,1/2+y,z
1/2-x,1/2+y,-z
1/2-x,1/2-y,-z
1/2+x,1/2-y,z
loop_
_atom_site_type_symbol
_atom_site_label
_atom_site_fract_x
_atom_site_fract_y
_atom_site_fract_z
Si Si1 0.082760 0.390162 0.850491
Si Si2 0.797004 0.814205 0.408075
Si Si3 0.282622 0.305978 0.302229
Si Si4 0.036837 0.309432 0.049068
Si Si5 0.764507 0.000000 0.467808
Si Si6 0.106279 0.109412 0.796145
O O1 0.085985 0.500000 0.848562
O O2 0.037704 0.362513 0.903846
O O3 0.851519 0.357393 0.821360
O O4 0.349483 0.356311 0.824959
O O5 0.547914 0.747565 0.416191
O O6 0.811188 0.843329 0.353740
O O7 0.778430 0.906385 0.437965
O O8 0.484541 0.221413 0.299389
O O9 0.371553 0.365103 0.257659
O O10 0.329042 0.273447 0.049106
O O11 0.000000 0.358447 0.000000
O O12 0.500000 0.000000 0.500000
O O13 0.000000 0.000000 0.500000
O O14 0.103384 0.000000 0.799140
#
# Coordination Sequence:
#
# PCOD9205330 Si02
#       6
#     8   8   8   8   4   8
#     4  10  21  36  52  78 109 140 181 223 278 336
#     4  10  23  43  64  93 131 165 208 265 307 365
#     4  10  21  37  58  85 114 151 194 231 286 347
#     4  10  21  36  54  76 101 135 179 225 276 330
#     4  12  26  42  68 100 124 170 220 250 317 378
#     4  10  21  35  54  80 111 145 179 227 277 332
#
# _framework density 20.048683
#
# number of rings (size 3 to 8) (size 9 to 14) (size 15 to 20)
#    0.000    1.818    0.000    3.273    1.273    6.909 
#    0.000    0.000    0.000    6.545    0.000    0.000 
#    0.000    0.000    0.000    0.000    0.000    0.000 
#
# Total GULP energy -122855.990804 kJ/mol
# GULP energy per Si atom -5584.363218 kJ/mol
# Density = 2.000305 g / cm^3
# Si number density = 20.048683 Si / 1000 Ang^3
#
#
#
# Elastic Constant Matrix: (Units=GPa)
#
#
# Indices 1 2 3 4 5 6 
#
# 1 167.9431 48.6433 88.9040 0.0000 -5.1710 0.0000
# 2 48.6433 92.8012 84.1580 0.0000 -0.6948 0.0000
# 3 88.9040 84.1580 184.4051 0.0000 -13.6696 0.0000
# 4 0.0000 0.0000 0.0000 53.8229 0.0000 -11.2433
# 5 -5.1710 -0.6948 -13.6696 0.0000 33.2507 0.0000
# 6 0.0000 0.0000 0.0000 -11.2433 0.0000 -6.3773
#
#
#
# Elastic Compliance Matrix: (Units=1/GPa)
#
#
# Indices 1 2 3 4 5 6 
#
# 1 0.008073 -0.001182 -0.003364 0.000000 -0.000152 0.000000
# 2 -0.001182 0.018886 -0.008286 0.000000 -0.003196 0.000000
# 3 -0.003364 -0.008286 0.011113 0.000000 0.003872 0.000000
# 4 0.000000 0.000000 0.000000 0.013579 0.000000 -0.023939
# 5 -0.000152 -0.003196 0.003872 0.000000 0.031576 0.000000
# 6 0.000000 0.000000 0.000000 -0.023939 0.000000 -0.114600
#
#
# Mechanical properties :
#
#
# Convention : Reuss Voigt Hill
#
# Bulk Modulus (GPa) = 80.59391 98.72890 89.66141
# Shear Modulus (GPa) = -3175.34994 31.03554 -1572.15720
#
# Velocity S-wave (km/s) = -39.84041 3.93874 -28.03341
# Velocity P-wave (km/s) = 45.56378 8.36878 31.67034
#
# Compressibility (1/GPa) = 0.01240788
#
# Stress axis : x y z
#
# Youngs Moduli (GPa) = 123.87293 52.95031 89.98394
#
# Poissons Ratio (x) = 0.06260 0.30268
# Poissons Ratio (y) = 0.14644 0.74560
# Poissons Ratio (z) = 0.41668 0.43874
#
# Static dielectric constant tensor:
#      x y z
#    x 1.692330 0.000000 0.006450 
#    y 0.000000 1.685230 0.000000 
#    z 0.006450 0.000000 1.698070 
# 
# From -- ./inp_files/354782.got.cif
#   From: 2010.05.17/outbox.cif.g08.bks.cpg/sg12_178_cif.got.tgz:354782.got - 2010.06.03 13:09:07.
