data_PCOD9205431
_publ_section_title
;
Structure prediction by ZEFSAII (Michael W. Deem and Ramdas Pophale) SiO2 
 PCOD9205431
Probable space group: C 2/M
;
_chemical_formula_sum "Si O2"
_cell_formula_units_Z 64
_cell_length_a 23.474750
_cell_length_b 24.488070
_cell_length_c 11.326796
_cell_angle_alpha 90.000000
_cell_angle_beta 31.329534
_cell_angle_gamma 90.000000
_cell_volume 3385.572506
_symmetry_space_group_name_H-M "C 2/M"
_symmetry_group_IT_number 12
_symmetry_cell_setting 'monoclinic'
loop_
_space_group_symop_operation_xyz
x,y,z
-x,y,-z
-x,-y,-z
x,-y,z
1/2+x,1/2+y,z
1/2-x,1/2+y,-z
1/2-x,1/2-y,-z
1/2+x,1/2-y,z
loop_
_atom_site_type_symbol
_atom_site_label
_atom_site_fract_x
_atom_site_fract_y
_atom_site_fract_z
Si Si1 0.650121 0.435419 0.964464
Si Si2 0.445385 0.879781 0.806905
Si Si3 0.608101 0.666968 0.387041
Si Si4 0.662679 0.063831 0.778809
Si Si5 0.600008 0.437809 0.560318
Si Si6 0.935470 0.718164 0.489533
Si Si7 0.279573 0.142562 0.902132
Si Si8 0.148697 0.565095 0.543604
O O1 0.665506 0.500000 0.959912
O O2 0.696738 0.400619 0.991017
O O3 0.730345 0.419965 0.714993
O O4 0.520867 0.427135 0.173680
O O5 0.487528 0.817102 0.732503
O O6 0.375494 0.885337 0.810526
O O7 0.557242 0.914377 0.614802
O O8 0.377429 0.900497 0.039910
O O9 0.500000 0.661279 0.500000
O O10 0.622020 0.609858 0.428161
O O11 0.593770 0.720365 0.494008
O O12 0.710171 0.676857 0.119923
O O13 0.795182 0.063619 0.539993
O O14 0.622726 0.084290 0.722230
O O15 0.628646 0.000000 0.857540
O O16 0.597873 0.500000 0.514031
O O17 0.831544 0.681374 0.710614
O O18 0.000000 0.723055 0.500000
O O19 0.144589 0.500000 0.556741
#
# Coordination Sequence:
#
# PCOD9205431 Si02
#       8
#     8   8   8   8   8   8   8   8
#     4  10  21  35  55  85 117 150 185 233 289 337
#     4  11  20  35  56  84 118 147 185 232 280 334
#     4  11  20  35  57  82 113 151 189 229 280 334
#     4  10  21  37  59  85 112 150 196 238 280 333
#     4  10  21  37  56  84 114 145 190 236 287 335
#     4   9  21  35  53  82 112 147 193 227 273 339
#     4  11  20  35  54  83 117 150 184 227 281 344
#     4  10  21  37  57  83 113 151 198 236 278 335
#
# _framework density 18.903746000000002
#
# number of rings (size 3 to 8) (size 9 to 14) (size 15 to 20)
#    0.000    1.750    3.750    1.125    0.000    3.250 
#    0.000    3.750    0.000    0.750    3.250    0.000 
#    0.000    0.000    0.000    0.000    0.000    0.000 
#
# Total GULP energy -178342.023513 kJ/mol
# GULP energy per Si atom -5573.188235 kJ/mol
# Density = 1.886072 g / cm^3
# Si number density = 18.903746 Si / 1000 Ang^3
#
#
#
# Elastic Constant Matrix: (Units=GPa)
#
#
# Indices 1 2 3 4 5 6 
#
# 1 43.8000 22.1766 18.1979 0.0000 -1.6492 0.0001
# 2 22.1766 67.8895 29.4037 0.0001 9.4405 0.0000
# 3 18.1979 29.4037 95.5565 0.0001 -11.0691 0.0001
# 4 0.0000 0.0001 0.0001 24.1936 -0.0001 3.9704
# 5 -1.6492 9.4405 -11.0691 -0.0001 24.7681 -0.0001
# 6 0.0001 0.0000 0.0001 3.9704 -0.0001 0.8219
#
#
#
# Elastic Compliance Matrix: (Units=1/GPa)
#
#
# Indices 1 2 3 4 5 6 
#
# 1 0.028424 -0.008956 -0.002154 0.000002 0.004344 -0.000013
# 2 -0.008956 0.022121 -0.006483 -0.000001 -0.011925 0.000003
# 3 -0.002154 -0.006483 0.013857 0.000000 0.008520 0.000001
# 4 0.000002 -0.000001 0.000000 0.199489 -0.000002 -0.963727
# 5 0.004344 -0.011925 0.008520 -0.000002 0.049017 0.000012
# 6 -0.000013 0.000003 0.000001 -0.963727 0.000012 5.872503
#
#
# Mechanical properties :
#
#
# Convention : Reuss Voigt Hill
#
# Bulk Modulus (GPa) = 34.22688 38.53360 36.38024
# Shear Modulus (GPa) = 0.80252 19.12122 9.96187
#
# Velocity S-wave (km/s) = 0.65227 3.18387 2.29809
# Velocity P-wave (km/s) = 4.32579 5.82618 5.13112
#
# Compressibility (1/GPa) = 0.02921680
#
# Stress axis : x y z
#
# Youngs Moduli (GPa) = 35.18133 45.20505 72.16539
#
# Poissons Ratio (x) = 0.40486 0.15545
# Poissons Ratio (y) = 0.31508 0.46783
# Poissons Ratio (z) = 0.07579 0.29305
#
# Static dielectric constant tensor:
#      x y z
#    x 1.647410 0.000000 -0.016590 
#    y 0.000000 1.670240 0.000000 
#    z -0.016590 0.000000 1.725300 
# 
# From -- ./inp_files/178408.got.cif
#   From: 2010.05.17/outbox.cif.g08.bks.cpg/sg12_90_cif.got.tgz:178408.got - 2010.06.03 13:09:07.
