data_PCOD9205074
_publ_section_title
;
Structure prediction by ZEFSAII (Michael W. Deem and Ramdas Pophale) SiO2 
 PCOD9205074
Probable space group: C 2/M
;
_chemical_formula_sum "Si O2"
_cell_formula_units_Z 40
_cell_length_a 9.168076
_cell_length_b 22.567058
_cell_length_c 16.212976
_cell_angle_alpha 90.000000
_cell_angle_beta 146.959876
_cell_angle_gamma 90.000000
_cell_volume 1828.911210
_symmetry_space_group_name_H-M "C 2/M"
_symmetry_group_IT_number 12
_symmetry_cell_setting 'monoclinic'
loop_
_space_group_symop_operation_xyz
x,y,z
-x,y,-z
-x,-y,-z
x,-y,z
1/2+x,1/2+y,z
1/2-x,1/2+y,-z
1/2-x,1/2-y,-z
1/2+x,1/2-y,z
loop_
_atom_site_type_symbol
_atom_site_label
_atom_site_fract_x
_atom_site_fract_y
_atom_site_fract_z
Si Si1 0.309044 0.066529 0.133874
Si Si2 0.596541 0.284658 0.139869
Si Si3 0.200701 0.066638 0.517096
Si Si4 0.875759 0.686751 0.533300
Si Si5 0.937393 0.658952 0.061281
O O1 0.498982 0.063886 0.303198
O O2 0.444415 0.109320 0.132622
O O3 0.296321 0.000000 0.093564
O O4 0.000000 0.084902 0.000000
O O5 0.618979 0.215180 0.171709
O O6 0.871167 0.317020 0.285075
O O7 0.500000 0.285428 0.000000
O O8 0.361839 0.313555 0.081824
O O9 0.199470 0.126893 0.462030
O O10 0.000000 0.073058 0.500000
O O11 0.146095 0.000000 0.454899
O O12 0.750000 0.750000 0.500000
O O13 0.000000 0.689654 0.500000
O O14 0.000000 0.637273 0.000000
#
# Coordination Sequence:
#
# PCOD9205074 Si02
#       5
#     8   8   8   8   8
#     4  10  21  39  64  90 120 165 216 267 317 379
#     4  10  23  42  62  89 127 175 205 253 327 391
#     4  10  23  44  67  91 128 178 217 259 332 404
#     4  12  28  41  65 101 134 167 218 280 325 377
#     4  10  21  34  62  88 123 161 213 255 316 380
#
# _framework density 21.870934999999999
#
# number of rings (size 3 to 8) (size 9 to 14) (size 15 to 20)
#    0.000    1.600    0.000    3.600   14.000    1.600 
#    0.000    0.000    0.000    7.200    0.000    0.000 
#    0.000    0.000    0.000    0.000    0.000    0.000 
#
# Total GULP energy -111696.196547 kJ/mol
# GULP energy per Si atom -5584.809827 kJ/mol
# Density = 2.182116 g / cm^3
# Si number density = 21.870935 Si / 1000 Ang^3
#
#
#
# Elastic Constant Matrix: (Units=GPa)
#
#
# Indices 1 2 3 4 5 6 
#
# 1 110.4477 68.8386 -1.8825 0.0027 1.5579 -0.0027
# 2 68.8386 200.4671 -5.1406 0.0050 5.3644 -0.0060
# 3 -1.8825 -5.1406 56.9899 0.0361 10.8433 -0.0355
# 4 0.0027 0.0050 0.0361 27.3440 0.0011 2.6600
# 5 1.5579 5.3644 10.8433 0.0011 21.2884 -0.0014
# 6 -0.0027 -0.0060 -0.0355 2.6600 -0.0014 32.9379
#
#
#
# Elastic Compliance Matrix: (Units=1/GPa)
#
#
# Indices 1 2 3 4 5 6 
#
# 1 0.011520 -0.003960 -0.000007 0.000000 0.000158 0.000000
# 2 -0.003960 0.006414 0.000775 -0.000002 -0.001721 0.000002
# 3 -0.000007 0.000775 0.019548 -0.000028 -0.010152 0.000023
# 4 0.000000 -0.000002 -0.000028 0.036861 0.000012 -0.002977
# 5 0.000158 -0.001721 -0.010152 0.000012 0.052567 -0.000010
# 6 0.000000 0.000002 0.000023 -0.002977 -0.000010 0.030601
#
#
# Mechanical properties :
#
#
# Convention : Reuss Voigt Hill
#
# Bulk Modulus (GPa) = 32.15554 54.61507 43.38530
# Shear Modulus (GPa) = 28.69265 36.72003 32.70634
#
# Velocity S-wave (km/s) = 3.62596 4.10193 3.87127
# Velocity P-wave (km/s) = 5.68018 6.88914 6.31366
#
# Compressibility (1/GPa) = 0.03109884
#
# Stress axis : x y z
#
# Youngs Moduli (GPa) = 86.80530 155.90360 51.15545
#
# Poissons Ratio (x) = 0.61742 0.00035
# Poissons Ratio (y) = 0.34377 -0.03966
# Poissons Ratio (z) = 0.00059 -0.12087
#
# Static dielectric constant tensor:
#      x y z
#    x 1.811870 0.000000 0.034490 
#    y 0.000000 1.869990 0.000000 
#    z 0.034490 0.000000 1.862880 
# 
# From -- ./inp_files/259356.got.cif
#   From: 2010.05.17/outbox.cif.g08.bks.cpg/sg12_130_cif.got.tgz:259356.got - 2010.06.03 13:09:07.
