data_PCOD9205800
_publ_section_title
;
Structure prediction by ZEFSAII (Michael W. Deem and Ramdas Pophale) SiO2 
 PCOD9205800
Probable space group: C 2/M
;
_chemical_formula_sum "Si O2"
_cell_formula_units_Z 56
_cell_length_a 29.230516
_cell_length_b 8.900605
_cell_length_c 17.666319
_cell_angle_alpha 90.000000
_cell_angle_beta 139.844076
_cell_angle_gamma 90.000000
_cell_volume 2963.972738
_symmetry_space_group_name_H-M "C 2/M"
_symmetry_group_IT_number 12
_symmetry_cell_setting 'monoclinic'
loop_
_space_group_symop_operation_xyz
x,y,z
-x,y,-z
-x,-y,-z
x,-y,z
1/2+x,1/2+y,z
1/2-x,1/2+y,-z
1/2-x,1/2-y,-z
1/2+x,1/2-y,z
loop_
_atom_site_type_symbol
_atom_site_label
_atom_site_fract_x
_atom_site_fract_y
_atom_site_fract_z
Si Si1 0.588678 0.819591 0.824492
Si Si2 0.284530 0.825627 0.744287
Si Si3 0.118878 0.181117 0.708634
Si Si4 0.612663 0.325407 0.531345
Si Si5 0.782834 0.317007 0.911006
Si Si6 0.061774 0.322526 0.315073
Si Si7 0.316670 0.677844 0.628522
O O1 0.579165 0.747502 0.730175
O O2 0.521592 0.785947 0.792909
O O3 0.591824 0.000000 0.819847
O O4 0.661338 0.766148 0.955705
O O5 0.198543 0.823406 0.635952
O O6 0.305892 0.773189 0.855256
O O7 0.312336 0.729962 0.709778
O O8 0.305878 0.000000 0.761116
O O9 0.093066 0.223024 0.591845
O O10 0.201557 0.230359 0.820620
O O11 0.116909 0.000000 0.708694
O O12 0.590465 0.500000 0.492260
O O13 0.584939 0.223110 0.429145
O O14 0.782242 0.500000 0.910477
O O15 0.071659 0.500000 0.316201
O O16 0.111885 0.234748 0.320999
O O17 0.311131 0.500000 0.615045
O O18 0.250000 0.750000 0.500000
#
# Coordination Sequence:
#
# PCOD9205800 Si02
#       7
#     8   8   8   8   8   8   8
#     4  10  21  36  53  77 110 147 183 222 265 312
#     4   9  17  33  58  83 105 135 177 224 267 310
#     4   9  18  33  56  82 105 138 183 226 271 318
#     4   9  18  33  53  78 107 139 177 223 271 319
#     4   8  16  34  58  81 107 140 182 224 262 312
#     4  11  23  36  52  77 110 146 182 218 265 321
#     4  12  23  36  57  83 109 137 173 218 269 322
#
# _framework density 18.893560000000001
#
# number of rings (size 3 to 8) (size 9 to 14) (size 15 to 20)
#    0.000    2.286    1.429    3.857    0.000    2.286 
#    0.000    6.429    0.000    4.286    0.000    0.000 
#    0.000    0.000    0.000    0.000    0.000    0.000 
#
# Total GULP energy -156289.497580 kJ/mol
# GULP energy per Si atom -5581.767771 kJ/mol
# Density = 1.885056 g / cm^3
# Si number density = 18.893560 Si / 1000 Ang^3
#
#
#
# Elastic Constant Matrix: (Units=GPa)
#
#
# Indices 1 2 3 4 5 6 
#
# 1 113.6383 35.9570 4.9873 0.0000 -9.0710 0.0000
# 2 35.9570 48.7665 1.5527 0.0000 0.6342 0.0000
# 3 4.9873 1.5527 11.9379 0.0000 -7.7642 0.0000
# 4 0.0000 0.0000 0.0000 16.5378 0.0000 -3.7733
# 5 -9.0710 0.6342 -7.7642 0.0000 21.4673 0.0000
# 6 0.0000 0.0000 0.0000 -3.7733 0.0000 32.5723
#
#
#
# Elastic Compliance Matrix: (Units=1/GPa)
#
#
# Indices 1 2 3 4 5 6 
#
# 1 0.012067 -0.008949 -0.000509 0.000000 0.005179 0.000000
# 2 -0.008949 0.027297 -0.003656 0.000000 -0.005910 0.000000
# 3 -0.000509 -0.003656 0.110340 0.000000 0.039800 0.000000
# 4 0.000000 0.000000 0.000000 0.062109 0.000000 0.007195
# 5 0.005179 -0.005910 0.039800 0.000000 0.063340 0.000000
# 6 0.000000 0.000000 0.000000 0.007195 0.000000 0.031534
#
#
# Mechanical properties :
#
#
# Convention : Reuss Voigt Hill
#
# Bulk Modulus (GPa) = 8.09857 28.81519 18.45688
# Shear Modulus (GPa) = 13.36633 22.90520 18.13576
#
# Velocity S-wave (km/s) = 2.66269 3.48563 3.10157
# Velocity P-wave (km/s) = 3.70795 5.61105 4.75567
#
# Compressibility (1/GPa) = 0.12347862
#
# Stress axis : x y z
#
# Youngs Moduli (GPa) = 82.86998 36.63374 9.06286
#
# Poissons Ratio (x) = 0.32782 0.00461
# Poissons Ratio (y) = 0.74157 0.03313
# Poissons Ratio (z) = 0.04217 0.13392
#
# Static dielectric constant tensor:
#      x y z
#    x 1.653770 0.000000 0.013040 
#    y 0.000000 1.623600 0.000000 
#    z 0.013040 0.000000 1.670140 
# 
# From -- ./inp_files/288407.got.cif
#   From: 2010.05.17/outbox.cif.g08.bks.cpg/sg12_145_cif.got.tgz:288407.got - 2010.06.03 13:09:07.
