data_PCOD9205265
_publ_section_title
;
Structure prediction by ZEFSAII (Michael W. Deem and Ramdas Pophale) SiO2 
 PCOD9205265
Probable space group: C 2/M
;
_chemical_formula_sum "Si O2"
_cell_formula_units_Z 56
_cell_length_a 9.040983
_cell_length_b 19.312472
_cell_length_c 20.393120
_cell_angle_alpha 90.000000
_cell_angle_beta 116.316880
_cell_angle_gamma 90.000000
_cell_volume 3191.667604
_symmetry_space_group_name_H-M "C 2/M"
_symmetry_group_IT_number 12
_symmetry_cell_setting 'monoclinic'
loop_
_space_group_symop_operation_xyz
x,y,z
-x,y,-z
-x,-y,-z
x,-y,z
1/2+x,1/2+y,z
1/2-x,1/2+y,-z
1/2-x,1/2-y,-z
1/2+x,1/2-y,z
loop_
_atom_site_type_symbol
_atom_site_label
_atom_site_fract_x
_atom_site_fract_y
_atom_site_fract_z
Si Si1 0.821491 0.325489 0.500000
Si Si2 0.381148 0.582566 0.206941
Si Si3 0.532733 0.917434 0.206941
Si Si4 0.739539 0.825079 0.915937
Si Si5 0.316264 0.419110 0.638698
Si Si6 0.538867 0.919110 0.361302
Si Si7 0.592334 0.674921 0.915937
O O1 0.750000 0.250000 0.500000
O O2 0.707951 0.369743 0.428224
O O3 0.000000 0.319212 0.500000
O O4 0.851503 0.369743 0.571776
O O5 0.390670 0.500000 0.197546
O O6 0.205886 0.598324 0.205886
O O7 0.528778 0.600413 0.285902
O O8 0.398626 0.622813 0.142596
O O9 0.386566 0.877187 0.142596
O O10 0.543026 0.899587 0.285902
O O11 0.504421 0.000000 0.197546
O O12 0.655753 0.750000 0.905753
O O13 0.906978 0.819782 0.906978
O O14 0.793388 0.846931 0.000000
O O15 0.333886 0.500000 0.622246
O O16 0.148503 0.414506 0.648503
O O17 0.589393 0.000000 0.377754
#
# Coordination Sequence:
#
# PCOD9205265 Si02
#       7
#     8   8   8   8   8   8   8
#     4  10  21  35  53  79 107 136 172 216 266 316
#     4  10  21  36  55  81 111 142 178 220 266 316
#     4  10  21  36  55  81 111 142 178 220 266 316
#     4  10  21  37  57  80 107 141 180 221 267 319
#     4   9  18  35  57  77 101 137 180 221 261 310
#     4   9  18  35  57  77 101 137 180 221 261 310
#     4  10  21  37  57  80 107 141 180 221 267 319
#
# _framework density 17.545686
#
# number of rings (size 3 to 8) (size 9 to 14) (size 15 to 20)
#    0.000    2.286    0.000    2.143    0.000    8.000 
#    0.000    5.714    0.000    4.286    0.000    0.000 
#    0.000    0.000    0.000    0.000    0.000    0.000 
#
# Total GULP energy -156312.535134 kJ/mol
# GULP energy per Si atom -5582.590541 kJ/mol
# Density = 1.750575 g / cm^3
# Si number density = 17.545686 Si / 1000 Ang^3
#
#
#
# Elastic Constant Matrix: (Units=GPa)
#
#
# Indices 1 2 3 4 5 6 
#
# 1 77.1604 63.8601 95.2163 0.0000 5.5857 0.0000
# 2 63.8601 87.2209 107.2901 0.0000 3.5406 0.0000
# 3 95.2163 107.2901 187.7820 0.0000 3.4326 0.0000
# 4 0.0000 0.0000 0.0000 391.3230 0.0000 28.9226
# 5 5.5857 3.5406 3.4326 0.0000 25.0545 0.0000
# 6 0.0000 0.0000 0.0000 28.9226 0.0000 36.5558
#
#
#
# Elastic Compliance Matrix: (Units=1/GPa)
#
#
# Indices 1 2 3 4 5 6 
#
# 1 0.040000 -0.014275 -0.012030 0.000000 -0.005252 0.000000
# 2 -0.014275 0.043824 -0.017790 0.000000 -0.000573 0.000000
# 3 -0.012030 -0.017790 0.021549 0.000000 0.002244 0.000000
# 4 0.000000 0.000000 0.000000 0.002714 0.000000 -0.002147
# 5 -0.005252 -0.000573 0.002244 0.000000 0.040858 0.000000
# 6 0.000000 0.000000 0.000000 -0.002147 0.000000 0.029054
#
#
# Mechanical properties :
#
#
# Convention : Reuss Voigt Hill
#
# Bulk Modulus (GPa) = 58.20167 98.32183 78.26175
# Shear Modulus (GPa) = 18.38801 96.30645 57.34723
#
# Velocity S-wave (km/s) = 3.24081 7.41675 5.72324
# Velocity P-wave (km/s) = 6.87367 11.37996 9.40082
#
# Compressibility (1/GPa) = 0.01718164
#
# Stress axis : x y z
#
# Youngs Moduli (GPa) = 24.99999 22.81871 46.40676
#
# Poissons Ratio (x) = 0.32575 0.55827
# Poissons Ratio (y) = 0.35688 0.82557
# Poissons Ratio (z) = 0.30075 0.40594
#
# Static dielectric constant tensor:
#      x y z
#    x 1.584170 0.000000 -0.000850 
#    y 0.000000 1.571100 0.000000 
#    z -0.000850 0.000000 1.573740 
# 
# From -- ./inp_files/257141.got.cif
#   From: 2010.05.17/outbox.cif.g08.bks.cpg/sg12_129_cif.got.tgz:257141.got - 2010.06.03 13:09:07.
