data_PCOD9205063
_publ_section_title
;
Structure prediction by ZEFSAII (Michael W. Deem and Ramdas Pophale) SiO2 
 PCOD9205063
Probable space group: C 2/M
;
_chemical_formula_sum "Si O2"
_cell_formula_units_Z 48
_cell_length_a 26.279151
_cell_length_b 16.981697
_cell_length_c 13.449594
_cell_angle_alpha 90.000000
_cell_angle_beta 22.745333
_cell_angle_gamma 90.000000
_cell_volume 2320.618260
_symmetry_space_group_name_H-M "C 2/M"
_symmetry_group_IT_number 12
_symmetry_cell_setting 'monoclinic'
loop_
_space_group_symop_operation_xyz
x,y,z
-x,y,-z
-x,-y,-z
x,-y,z
1/2+x,1/2+y,z
1/2-x,1/2+y,-z
1/2-x,1/2-y,-z
1/2+x,1/2-y,z
loop_
_atom_site_type_symbol
_atom_site_label
_atom_site_fract_x
_atom_site_fract_y
_atom_site_fract_z
Si Si1 0.522654 0.709219 0.070668
Si Si2 0.663230 0.162392 0.942162
Si Si3 0.051415 0.589514 0.551631
Si Si4 0.642646 0.756467 0.280254
Si Si5 0.783854 0.910086 0.536103
Si Si6 0.256131 0.911986 0.611499
O O1 0.399049 0.654922 0.322280
O O2 0.500000 0.742708 0.000000
O O3 0.561303 0.772973 0.082885
O O4 0.647685 0.651941 0.833744
O O5 0.794122 0.206393 0.744295
O O6 0.698671 0.106757 0.786450
O O7 0.594971 0.117068 0.156008
O O8 0.057749 0.500000 0.503562
O O9 0.118318 0.654186 0.360903
O O10 0.127166 0.591980 0.520703
O O11 0.500000 0.727348 0.500000
O O12 0.750000 0.750000 0.000000
O O13 0.706111 0.901610 0.571862
O O14 0.834895 0.000000 0.447521
O O15 0.197245 0.000000 0.725551
#
# Coordination Sequence:
#
# PCOD9205063 Si02
#       6
#     8   8   8   8   8   8
#     4  10  21  34  60  91 130 170 219 261 316 385
#     4  12  24  40  65  96 132 168 220 272 328 382
#     4  11  24  43  68  98 131 173 218 267 332 404
#     4  12  26  49  73  96 127 170 225 286 340 387
#     4  10  22  38  59  92 136 177 210 256 319 390
#     4   9  19  37  61  92 133 177 214 254 317 396
#
# _framework density 20.684142000000001
#
# number of rings (size 3 to 8) (size 9 to 14) (size 15 to 20)
#    0.000    1.333    3.333    2.000    2.333    3.667 
#    0.000    2.500    0.000    2.500    0.000    0.000 
#    0.000    0.000    0.000    0.000    0.000    0.000 
#
# Total GULP energy -134131.444955 kJ/mol
# GULP energy per Si atom -5588.810206 kJ/mol
# Density = 2.063706 g / cm^3
# Si number density = 20.684142 Si / 1000 Ang^3
#
#
#
# Elastic Constant Matrix: (Units=GPa)
#
#
# Indices 1 2 3 4 5 6 
#
# 1 104.3830 32.3114 28.2813 0.0000 -5.9323 0.0001
# 2 32.3114 80.7533 30.1560 0.0000 3.2241 0.0000
# 3 28.2813 30.1560 87.9020 -0.0001 13.8535 0.0001
# 4 0.0000 0.0000 -0.0001 10.6824 0.0000 -5.6202
# 5 -5.9323 3.2241 13.8535 0.0000 39.3432 0.0000
# 6 0.0001 0.0000 0.0001 -5.6202 0.0000 11.1091
#
#
#
# Elastic Compliance Matrix: (Units=1/GPa)
#
#
# Indices 1 2 3 4 5 6 
#
# 1 0.011712 -0.003693 -0.002993 0.000000 0.003123 0.000000
# 2 -0.003693 0.015380 -0.004025 0.000000 -0.000400 0.000000
# 3 -0.002993 -0.004025 0.014547 0.000000 -0.005244 0.000000
# 4 0.000000 0.000000 0.000000 0.127566 0.000000 0.064537
# 5 0.003123 -0.000400 -0.005244 0.000000 0.027767 0.000000
# 6 0.000000 0.000000 0.000000 0.064537 0.000000 0.122666
#
#
# Mechanical properties :
#
#
# Convention : Reuss Voigt Hill
#
# Bulk Modulus (GPa) = 49.46678 50.50398 49.98538
# Shear Modulus (GPa) = 14.37610 24.37957 19.37784
#
# Velocity S-wave (km/s) = 2.63920 3.43689 3.06411
# Velocity P-wave (km/s) = 5.76666 6.34187 6.06110
#
# Compressibility (1/GPa) = 0.02021559
#
# Stress axis : x y z
#
# Youngs Moduli (GPa) = 85.38459 65.01883 68.74431
#
# Poissons Ratio (x) = 0.24012 0.20577
# Poissons Ratio (y) = 0.31533 0.27671
# Poissons Ratio (z) = 0.25558 0.26171
#
# Static dielectric constant tensor:
#      x y z
#    x 1.775890 0.000000 0.007380 
#    y 0.000000 1.756310 0.000000 
#    z 0.007380 0.000000 1.721390 
# 
# From -- ./inp_files/177416.got.cif
#   From: 2010.05.17/outbox.cif.g08.bks.cpg/sg12_89_cif.got.tgz:177416.got - 2010.06.03 13:09:07.
