data_PCOD9205732
_publ_section_title
;
Structure prediction by ZEFSAII (Michael W. Deem and Ramdas Pophale) SiO2 
 PCOD9205732
Probable space group: C 2/M
;
_chemical_formula_sum "Si O2"
_cell_formula_units_Z 56
_cell_length_a 10.284121
_cell_length_b 20.253164
_cell_length_c 16.408231
_cell_angle_alpha 90.000000
_cell_angle_beta 121.763055
_cell_angle_gamma 90.000000
_cell_volume 2905.757853
_symmetry_space_group_name_H-M "C 2/M"
_symmetry_group_IT_number 12
_symmetry_cell_setting 'monoclinic'
loop_
_space_group_symop_operation_xyz
x,y,z
-x,y,-z
-x,-y,-z
x,-y,z
1/2+x,1/2+y,z
1/2-x,1/2+y,-z
1/2-x,1/2-y,-z
1/2+x,1/2-y,z
loop_
_atom_site_type_symbol
_atom_site_label
_atom_site_fract_x
_atom_site_fract_y
_atom_site_fract_z
Si Si1 0.030114 0.189599 0.605798
Si Si2 0.244617 0.390033 0.717101
Si Si3 0.830356 0.748070 0.777549
Si Si4 0.172788 0.925104 0.431693
Si Si5 0.318330 0.789097 0.098953
Si Si6 0.677976 0.572668 0.078983
Si Si7 0.563329 0.831495 0.427117
O O1 0.203543 0.206714 0.686697
O O2 0.000000 0.185130 0.500000
O O3 0.979195 0.119050 0.623026
O O4 0.931135 0.255076 0.599579
O O5 0.335232 0.320965 0.739796
O O6 0.262395 0.427735 0.638701
O O7 0.300673 0.425259 0.816372
O O8 0.068224 0.367770 0.667383
O O9 0.761836 0.761078 0.845425
O O10 0.999523 0.719370 0.835945
O O11 0.288603 0.877562 0.520188
O O12 0.157403 0.000000 0.457635
O O13 0.272866 0.865792 0.077071
O O14 0.250000 0.750000 0.000000
O O15 0.722463 0.500000 0.063180
O O16 0.500000 0.583415 0.000000
O O17 0.500000 0.828268 0.500000
#
# Coordination Sequence:
#
# PCOD9205732 Si02
#       7
#     8   8   8   8   8   8   8
#     4  10  21  36  52  73 108 152 191 233 277 334
#     4   9  18  34  54  79 107 139 184 239 283 326
#     4  10  21  37  62  89 112 145 195 236 282 343
#     4  11  21  32  51  78 110 147 186 233 288 337
#     4  11  21  38  63  90 116 146 186 243 292 334
#     4  10  21  36  55  82 115 149 185 226 279 341
#     4   8  17  32  52  74  97 132 180 227 271 321
#
# _framework density 19.272079999999999
#
# number of rings (size 3 to 8) (size 9 to 14) (size 15 to 20)
#    0.000    2.143    0.000    4.714    0.000    6.857 
#    0.000    0.714    0.000    1.714    0.000    0.000 
#    0.000    0.000    0.000    0.000    0.000    0.000 
#
# Total GULP energy -156272.444015 kJ/mol
# GULP energy per Si atom -5581.158715 kJ/mol
# Density = 1.922822 g / cm^3
# Si number density = 19.272080 Si / 1000 Ang^3
#
#
#
# Elastic Constant Matrix: (Units=GPa)
#
#
# Indices 1 2 3 4 5 6 
#
# 1 72.7554 61.9782 32.7856 0.0000 17.3531 0.0000
# 2 61.9782 165.3208 43.1826 0.0000 29.3362 0.0000
# 3 32.7856 43.1826 104.6555 0.0000 15.8923 0.0000
# 4 0.0000 0.0000 0.0000 -75.6243 0.0000 -36.5811
# 5 17.3531 29.3362 15.8923 0.0000 32.9264 0.0000
# 6 0.0000 0.0000 0.0000 -36.5811 0.0000 4.8738
#
#
#
# Elastic Compliance Matrix: (Units=1/GPa)
#
#
# Indices 1 2 3 4 5 6 
#
# 1 0.021890 -0.006577 -0.003541 0.000000 -0.003967 0.000000
# 2 -0.006577 0.009639 -0.001229 0.000000 -0.004529 0.000000
# 3 -0.003541 -0.001229 0.011570 0.000000 -0.002623 0.000000
# 4 0.000000 0.000000 0.000000 -0.002856 0.000000 -0.021433
# 5 -0.003967 -0.004529 -0.002623 0.000000 0.037762 0.000000
# 6 0.000000 0.000000 0.000000 -0.021433 0.000000 0.044309
#
#
# Mechanical properties :
#
#
# Convention : Reuss Voigt Hill
#
# Bulk Modulus (GPa) = 49.01071 68.73605 58.87338
# Shear Modulus (GPa) = 32.93567 6.08754 19.51160
#
# Velocity S-wave (km/s) = 4.13847 1.77921 3.18532
# Velocity P-wave (km/s) = 6.95141 6.32174 6.64404
#
# Compressibility (1/GPa) = 0.02040370
#
# Stress axis : x y z
#
# Youngs Moduli (GPa) = 45.68349 103.74110 86.43087
#
# Poissons Ratio (x) = 0.68236 0.30605
# Poissons Ratio (y) = 0.30048 0.10624
# Poissons Ratio (z) = 0.16177 0.12751
#
# Static dielectric constant tensor:
#      x y z
#    x 1.713560 0.000000 -0.014610 
#    y 0.000000 1.685810 0.000000 
#    z -0.014610 0.000000 1.683960 
# 
# From -- ./inp_files/264301.got.cif
#   From: 2010.05.17/outbox.cif.g08.bks.cpg/sg12_133_cif.got.tgz:264301.got - 2010.06.03 13:09:07.
