data_PCOD9205353
_publ_section_title
;
Structure prediction by ZEFSAII (Michael W. Deem and Ramdas Pophale) SiO2 
 PCOD9205353
Probable space group: C 2/M
;
_chemical_formula_sum "Si O2"
_cell_formula_units_Z 40
_cell_length_a 12.273464
_cell_length_b 31.967613
_cell_length_c 5.169471
_cell_angle_alpha 90.000000
_cell_angle_beta 106.034790
_cell_angle_gamma 90.000000
_cell_volume 1949.348104
_symmetry_space_group_name_H-M "C 2/M"
_symmetry_group_IT_number 12
_symmetry_cell_setting 'monoclinic'
loop_
_space_group_symop_operation_xyz
x,y,z
-x,y,-z
-x,-y,-z
x,-y,z
1/2+x,1/2+y,z
1/2-x,1/2+y,-z
1/2-x,1/2-y,-z
1/2+x,1/2-y,z
loop_
_atom_site_type_symbol
_atom_site_label
_atom_site_fract_x
_atom_site_fract_y
_atom_site_fract_z
Si Si1 0.863123 0.598513 0.408571
Si Si2 0.730130 0.818901 0.402480
Si Si3 0.642965 0.257952 0.115360
Si Si4 0.933566 0.831461 0.203697
Si Si5 0.862155 0.452426 0.908234
O O1 0.814349 0.643183 0.456515
O O2 0.827341 0.579025 0.112521
O O3 0.000000 0.601677 0.500000
O O4 0.828779 0.565911 0.609941
O O5 0.631307 0.787305 0.241311
O O6 0.814809 0.791077 0.638501
O O7 0.802777 0.836421 0.205482
O O8 0.750000 0.250000 0.000000
O O9 0.561779 0.281200 0.854325
O O10 0.000000 0.844148 0.500000
O O11 0.000000 0.850329 0.000000
O O12 0.823424 0.500000 0.924646
O O13 0.000000 0.453386 0.000000
#
# Coordination Sequence:
#
# PCOD9205353 Si02
#       5
#     8   8   8   8   8
#     4  10  21  35  54  82 113 148 181 216 272 325
#     4  10  21  38  54  79 115 141 186 239 275 317
#     4   9  20  37  54  72 109 146 183 232 284 314
#     4  11  21  37  56  76  98 144 195 229 273 323
#     4   9  18  34  55  79 110 145 179 215 263 332
#
# _framework density 20.519679
#
# number of rings (size 3 to 8) (size 9 to 14) (size 15 to 20)
#    0.000    2.200    2.000    0.600    5.600    2.400 
#   10.800    0.000    0.000    0.000    0.000    0.000 
#    0.000   16.000    0.000    0.000    0.000    0.000 
#
# Total GULP energy -111356.954775 kJ/mol
# GULP energy per Si atom -5567.847739 kJ/mol
# Density = 2.047298 g / cm^3
# Si number density = 20.519679 Si / 1000 Ang^3
#
#
#
# Elastic Constant Matrix: (Units=GPa)
#
#
# Indices 1 2 3 4 5 6 
#
# 1 28.8492 27.2854 29.8243 0.0000 -14.2994 0.0000
# 2 27.2854 122.4961 37.0888 0.0000 -17.7545 0.0000
# 3 29.8243 37.0888 127.9162 0.0000 -29.8629 0.0000
# 4 0.0000 0.0000 0.0000 29.9716 0.0000 -9.8933
# 5 -14.2994 -17.7545 -29.8629 0.0000 37.9243 0.0000
# 6 0.0000 0.0000 0.0000 -9.8933 0.0000 18.8685
#
#
#
# Elastic Compliance Matrix: (Units=1/GPa)
#
#
# Indices 1 2 3 4 5 6 
#
# 1 0.056607 -0.008554 -0.008172 0.000000 0.010904 0.000000
# 2 -0.008554 0.010461 -0.000794 0.000000 0.001047 0.000000
# 3 -0.008172 -0.000794 0.011207 0.000000 0.005372 0.000000
# 4 0.000000 0.000000 0.000000 0.040348 0.000000 0.021156
# 5 0.010904 0.001047 0.005372 0.000000 0.035200 0.000000
# 6 0.000000 0.000000 0.000000 0.021156 0.000000 0.064091
#
#
# Mechanical properties :
#
#
# Convention : Reuss Voigt Hill
#
# Bulk Modulus (GPa) = 23.13018 51.96206 37.54612
# Shear Modulus (GPa) = 18.70092 29.69042 24.19567
#
# Velocity S-wave (km/s) = 3.02216 3.80797 3.43759
# Velocity P-wave (km/s) = 4.84506 6.68672 5.83896
#
# Compressibility (1/GPa) = 0.04323357
#
# Stress axis : x y z
#
# Youngs Moduli (GPa) = 17.66579 95.59219 89.22613
#
# Poissons Ratio (x) = 0.81770 0.72919
# Poissons Ratio (y) = 0.15111 0.07088
# Poissons Ratio (z) = 0.14437 0.07594
#
# Static dielectric constant tensor:
#      x y z
#    x 2.128520 0.000000 0.040280 
#    y 0.000000 1.724680 0.000000 
#    z 0.040280 0.000000 1.794760 
# 
# From -- ./inp_files/11912.got.cif
#   From: 2010.05.17/outbox.cif.g08.bks.cpg/sg12_6_cif.got.tgz:11912.got - 2010.06.03 13:09:07.
