data_PCOD9205047
_publ_section_title
;
Structure prediction by ZEFSAII (Michael W. Deem and Ramdas Pophale) SiO2 
 PCOD9205047
Probable space group: C 2/M
;
_chemical_formula_sum "Si O2"
_cell_formula_units_Z 64
_cell_length_a 24.804518
_cell_length_b 21.726041
_cell_length_c 18.056992
_cell_angle_alpha 90.000000
_cell_angle_beta 161.686783
_cell_angle_gamma 90.000000
_cell_volume 3057.586943
_symmetry_space_group_name_H-M "C 2/M"
_symmetry_group_IT_number 12
_symmetry_cell_setting 'monoclinic'
loop_
_space_group_symop_operation_xyz
x,y,z
-x,y,-z
-x,-y,-z
x,-y,z
1/2+x,1/2+y,z
1/2-x,1/2+y,-z
1/2-x,1/2-y,-z
1/2+x,1/2-y,z
loop_
_atom_site_type_symbol
_atom_site_label
_atom_site_fract_x
_atom_site_fract_y
_atom_site_fract_z
Si Si1 0.340023 0.849097 0.835728
Si Si2 0.035199 0.357736 0.692870
Si Si3 0.508684 0.566769 0.400593
Si Si4 0.791271 0.375710 0.933804
Si Si5 0.510523 0.692539 0.191183
Si Si6 0.175878 0.070967 0.999784
Si Si7 0.157782 0.253467 0.760859
Si Si8 0.734545 0.232133 0.605642
O O1 0.383262 0.857711 0.978418
O O2 0.309021 0.781665 0.760592
O O3 0.159157 0.883825 0.594554
O O4 0.500000 0.876534 0.000000
O O5 0.140140 0.296089 0.808980
O O6 0.849804 0.325659 0.460295
O O7 0.077197 0.384260 0.828334
O O8 0.126175 0.404272 0.752753
O O9 0.590540 0.500000 0.511550
O O10 0.354683 0.572962 0.259535
O O11 0.403419 0.570840 0.186239
O O12 0.671651 0.317375 0.798105
O O13 0.444986 0.621930 0.117449
O O14 0.603219 0.726468 0.382799
O O15 0.631097 0.704479 0.278055
O O16 0.332431 0.727916 0.949663
O O17 0.172207 0.000000 0.022461
O O18 0.000000 0.264342 0.500000
#
# Coordination Sequence:
#
# PCOD9205047 Si02
#       8
#     8   8   8   8   8   8   8   8
#     4  12  25  36  54  83 120 155 199 247 290 347
#     4  10  21  34  59  83 116 151 191 244 298 348
#     4  10  21  38  56  77 113 163 210 243 281 335
#     4  11  21  35  54  81 112 151 196 244 290 341
#     4  10  21  35  61  82 117 156 192 241 301 363
#     4   9  19  37  61  87 113 153 205 247 288 349
#     4  11  20  34  57  87 114 147 192 246 301 357
#     4  11  21  37  56  85 117 155 195 240 305 360
#
# _framework density 20.931538
#
# number of rings (size 3 to 8) (size 9 to 14) (size 15 to 20)
#    0.000    1.500    2.500    3.750    3.500    1.250 
#    0.000    0.625    0.000    9.000    0.000    0.000 
#    0.000   13.000    0.000    0.250    0.000    0.375 
#
# Total GULP energy -178290.811060 kJ/mol
# GULP energy per Si atom -5571.587846 kJ/mol
# Density = 2.088390 g / cm^3
# Si number density = 20.931538 Si / 1000 Ang^3
#
#
#
# Elastic Constant Matrix: (Units=GPa)
#
#
# Indices 1 2 3 4 5 6 
#
# 1 93.3868 16.9651 16.7664 0.0000 25.3207 0.0000
# 2 16.9651 96.9523 10.1288 0.0000 19.4612 0.0000
# 3 16.7664 10.1288 59.6125 0.0000 20.5013 0.0000
# 4 0.0000 0.0000 0.0000 13.9359 0.0000 3.0577
# 5 25.3207 19.4612 20.5013 0.0000 35.0858 0.0000
# 6 0.0000 0.0000 0.0000 3.0577 0.0000 20.5349
#
#
#
# Elastic Compliance Matrix: (Units=1/GPa)
#
#
# Indices 1 2 3 4 5 6 
#
# 1 0.013346 -0.000461 -0.000564 0.000000 -0.009046 0.000000
# 2 -0.000461 0.011627 0.000322 0.000000 -0.006305 0.000000
# 3 -0.000564 0.000322 0.021026 0.000000 -0.012057 0.000000
# 4 0.000000 0.000000 0.000000 0.074181 0.000000 -0.011046
# 5 -0.009046 -0.006305 -0.012057 0.000000 0.045573 0.000000
# 6 0.000000 0.000000 0.000000 -0.011046 0.000000 0.050342
#
#
# Mechanical properties :
#
#
# Convention : Reuss Voigt Hill
#
# Bulk Modulus (GPa) = 22.42476 37.51912 29.97194
# Shear Modulus (GPa) = 21.51803 27.65073 24.58438
#
# Velocity S-wave (km/s) = 3.20975 3.63851 3.43084
# Velocity P-wave (km/s) = 4.94705 5.96785 5.48127
#
# Compressibility (1/GPa) = 0.04459357
#
# Stress axis : x y z
#
# Youngs Moduli (GPa) = 74.92922 86.00753 47.56127
#
# Poissons Ratio (x) = 0.03961 0.02684
# Poissons Ratio (y) = 0.03451 -0.01533
# Poissons Ratio (z) = 0.04228 -0.02773
#
# Static dielectric constant tensor:
#      x y z
#    x 1.829440 0.000000 -0.022160 
#    y 0.000000 1.774100 0.000000 
#    z -0.022160 0.000000 1.779700 
# 
# From -- ./inp_files/290926.got.cif
#   From: 2010.05.17/outbox.cif.g08.bks.cpg/sg12_146_cif.got.tgz:290926.got - 2010.06.03 13:09:07.
