data_PCOD9205970
_publ_section_title
;
Structure prediction by ZEFSAII (Michael W. Deem and Ramdas Pophale) SiO2 
 PCOD9205970
Probable space group: C 2/M
;
_chemical_formula_sum "Si O2"
_cell_formula_units_Z 56
_cell_length_a 9.234270
_cell_length_b 12.867372
_cell_length_c 23.938503
_cell_angle_alpha 90.000000
_cell_angle_beta 113.993918
_cell_angle_gamma 90.000000
_cell_volume 2598.603976
_symmetry_space_group_name_H-M "C 2/M"
_symmetry_group_IT_number 12
_symmetry_cell_setting 'monoclinic'
loop_
_space_group_symop_operation_xyz
x,y,z
-x,y,-z
-x,-y,-z
x,-y,z
1/2+x,1/2+y,z
1/2-x,1/2+y,-z
1/2-x,1/2-y,-z
1/2+x,1/2-y,z
loop_
_atom_site_type_symbol
_atom_site_label
_atom_site_fract_x
_atom_site_fract_y
_atom_site_fract_z
Si Si1 0.579889 0.877913 0.073196
Si Si2 0.521472 0.884163 0.657739
Si Si3 0.736558 0.620430 0.687477
Si Si4 0.243180 0.193421 0.225374
Si Si5 0.097105 0.755571 0.860072
Si Si6 0.645793 0.881630 0.564128
Si Si7 0.547900 0.621343 0.446250
O O1 0.755640 0.827894 0.099420
O O2 0.473428 0.816157 0.101756
O O3 0.588558 0.000000 0.088808
O O4 0.500000 0.867426 0.000000
O O5 0.384333 0.836658 0.674149
O O6 0.677222 0.885911 0.719921
O O7 0.575190 0.832106 0.608933
O O8 0.460666 0.000000 0.634328
O O9 0.768484 0.500000 0.709148
O O10 0.722887 0.694824 0.738931
O O11 0.589192 0.617773 0.621775
O O12 0.333751 0.189915 0.180832
O O13 0.056830 0.182873 0.186321
O O14 0.500000 0.891046 0.500000
O O15 0.795488 0.831447 0.557542
O O16 0.695473 0.000000 0.588990
O O17 0.500000 0.663881 0.500000
O O18 0.592444 0.500000 0.465478
#
# Coordination Sequence:
#
# PCOD9205970 Si02
#       7
#     8   8   8   8   8   8   8
#     4  10  22  44  74 105 139 180 223 269 324 381
#     4  10  21  36  55  79 112 155 200 255 319 378
#     4  10  21  37  58  80 112 160 207 261 324 390
#     4  11  22  39  58  88 127 166 209 257 310 379
#     4  10  23  40  65  98 137 176 217 268 317 381
#     4   9  17  30  50  76 107 145 194 256 324 389
#     4   9  17  30  51  79 108 145 200 262 328 398
#
# _framework density 21.550032999999999
#
# number of rings (size 3 to 8) (size 9 to 14) (size 15 to 20)
#    0.000    2.143    1.429    1.286    2.000    6.857 
#    0.000    2.857    0.000   11.143    0.000    0.000 
#    0.000    0.000    0.000    0.000    0.000    0.000 
#
# Total GULP energy -156388.499580 kJ/mol
# GULP energy per Si atom -5585.303556 kJ/mol
# Density = 2.150098 g / cm^3
# Si number density = 21.550033 Si / 1000 Ang^3
#
#
#
# Elastic Constant Matrix: (Units=GPa)
#
#
# Indices 1 2 3 4 5 6 
#
# 1 162.4896 32.8063 63.2697 0.0000 -0.3301 0.0000
# 2 32.8063 92.2682 22.0654 0.0000 -10.3100 0.0000
# 3 63.2697 22.0654 107.2527 0.0000 3.9892 0.0000
# 4 0.0000 0.0000 0.0000 20.8379 0.0000 1.6319
# 5 -0.3301 -10.3100 3.9892 0.0000 39.6347 0.0000
# 6 0.0000 0.0000 0.0000 1.6319 0.0000 21.9852
#
#
#
# Elastic Compliance Matrix: (Units=1/GPa)
#
#
# Indices 1 2 3 4 5 6 
#
# 1 0.008285 -0.001864 -0.004505 0.000000 0.000038 0.000000
# 2 -0.001864 0.012241 -0.001542 0.000000 0.003324 0.000000
# 3 -0.004505 -0.001542 0.012361 0.000000 -0.001683 0.000000
# 4 0.000000 0.000000 0.000000 0.048270 0.000000 -0.003583
# 5 0.000038 0.003324 -0.001683 0.000000 0.026265 0.000000
# 6 0.000000 0.000000 0.000000 -0.003583 0.000000 0.045751
#
#
# Mechanical properties :
#
#
# Convention : Reuss Voigt Hill
#
# Bulk Modulus (GPa) = 58.60336 66.47704 62.54020
# Shear Modulus (GPa) = 28.62299 32.74949 30.68624
#
# Velocity S-wave (km/s) = 3.64842 3.90256 3.77762
# Velocity P-wave (km/s) = 6.70828 7.15691 6.93622
#
# Compressibility (1/GPa) = 0.01706387
#
# Stress axis : x y z
#
# Youngs Moduli (GPa) = 120.70115 81.69252 80.89714
#
# Poissons Ratio (x) = 0.15229 0.36446
# Poissons Ratio (y) = 0.22500 0.12477
# Poissons Ratio (z) = 0.54379 0.12600
#
# Static dielectric constant tensor:
#      x y z
#    x 1.800230 0.000000 -0.019490 
#    y 0.000000 1.840880 0.000000 
#    z -0.019490 0.000000 1.764620 
# 
# From -- ./inp_files/332688.got.cif
#   From: 2010.05.17/outbox.cif.g08.bks.cpg/sg12_167_cif.got.tgz:332688.got - 2010.06.03 13:09:07.
