data_PCOD9205090
_publ_section_title
;
Structure prediction by ZEFSAII (Michael W. Deem and Ramdas Pophale) SiO2 
 PCOD9205090
Probable space group: C 2/M
;
_chemical_formula_sum "Si O2"
_cell_formula_units_Z 48
_cell_length_a 15.658704
_cell_length_b 10.802448
_cell_length_c 14.277890
_cell_angle_alpha 90.000000
_cell_angle_beta 108.415229
_cell_angle_gamma 90.000000
_cell_volume 2291.464226
_symmetry_space_group_name_H-M "C 2/M"
_symmetry_group_IT_number 12
_symmetry_cell_setting 'monoclinic'
loop_
_space_group_symop_operation_xyz
x,y,z
-x,y,-z
-x,-y,-z
x,-y,z
1/2+x,1/2+y,z
1/2-x,1/2+y,-z
1/2-x,1/2-y,-z
1/2+x,1/2-y,z
loop_
_atom_site_type_symbol
_atom_site_label
_atom_site_fract_x
_atom_site_fract_y
_atom_site_fract_z
Si Si1 0.471659 0.216154 0.587497
Si Si2 0.287510 0.132640 0.459658
Si Si3 0.851343 0.143489 0.127647
Si Si4 0.932686 0.858983 0.756723
Si Si5 0.664193 0.859836 0.733617
Si Si6 0.398102 0.349580 0.942519
O O1 0.500000 0.284801 0.500000
O O2 0.393056 0.128760 0.523426
O O3 0.427723 0.294868 0.655353
O O4 0.559512 0.155019 0.664784
O O5 0.250000 0.250000 0.500000
O O6 0.283233 0.150596 0.346403
O O7 0.246961 0.000000 0.472184
O O8 0.817633 0.249236 0.187017
O O9 0.840491 0.179668 0.014464
O O10 0.960065 0.139654 0.181511
O O11 0.819909 0.000000 0.131701
O O12 0.903989 0.000000 0.736977
O O13 0.882604 0.805015 0.831077
O O14 0.678673 0.000000 0.776116
O O15 0.398852 0.500000 0.938364
O O16 0.500000 0.308658 0.000000
#
# Coordination Sequence:
#
# PCOD9205090 Si02
#       6
#     8   8   8   8   8   8
#     4   9  17  29  46  66  89 120 154 185 221 268
#     4  10  21  35  49  66  90 121 153 185 224 269
#     4   8  13  22  39  63  89 117 149 183 218 259
#     4   8  13  21  36  61  91 120 149 182 220 261
#     4   9  17  30  48  68  91 120 151 182 222 270
#     4   7  10  18  33  55  86 120 147 174 215 264
#
# _framework density 20.947305
#
# number of rings (size 3 to 8) (size 9 to 14) (size 15 to 20)
#    0.000    3.500    0.000    2.500    0.000    3.667 
#    0.000    3.333    0.000   13.500    0.000    1.167 
#    0.000    0.000    0.000    0.000    0.000    0.000 
#
# Total GULP energy -133645.348788 kJ/mol
# GULP energy per Si atom -5568.556200 kJ/mol
# Density = 2.089963 g / cm^3
# Si number density = 20.947305 Si / 1000 Ang^3
#
#
#
# Elastic Constant Matrix: (Units=GPa)
#
#
# Indices 1 2 3 4 5 6 
#
# 1 59.8013 32.7861 31.8399 0.0000 -1.4820 0.0000
# 2 32.7861 132.3715 91.4783 0.0000 -42.0522 0.0000
# 3 31.8399 91.4783 178.9388 0.0000 -28.3055 0.0000
# 4 0.0000 0.0000 0.0000 14.8267 0.0000 -19.1794
# 5 -1.4820 -42.0522 -28.3055 0.0000 39.8111 0.0000
# 6 0.0000 0.0000 0.0000 -19.1794 0.0000 11.3323
#
#
#
# Elastic Compliance Matrix: (Units=1/GPa)
#
#
# Indices 1 2 3 4 5 6 
#
# 1 0.020844 -0.006273 -0.001608 0.000000 -0.006994 0.000000
# 2 -0.006273 0.017495 -0.005567 0.000000 0.014288 0.000000
# 3 -0.001608 -0.005567 0.008767 0.000000 0.000293 0.000000
# 4 0.000000 0.000000 0.000000 -0.056710 0.000000 -0.095980
# 5 -0.006994 0.014288 0.000293 0.000000 0.040158 0.000000
# 6 0.000000 0.000000 0.000000 -0.095980 0.000000 -0.074197
#
#
# Mechanical properties :
#
#
# Convention : Reuss Voigt Hill
#
# Bulk Modulus (GPa) = 49.48436 75.92448 62.70442
# Shear Modulus (GPa) = -499.53292 27.52783 -236.00254
#
# Velocity S-wave (km/s) = -15.45927 3.62905 -10.62589
# Velocity P-wave (km/s) = 17.17490 7.34058 10.97937
#
# Compressibility (1/GPa) = 0.02020840
#
# Stress axis : x y z
#
# Youngs Moduli (GPa) = 47.97478 57.16024 114.06141
#
# Poissons Ratio (x) = 0.35857 0.18344
# Poissons Ratio (y) = 0.30095 0.63503
# Poissons Ratio (z) = 0.07716 0.31824
#
# Static dielectric constant tensor:
#      x y z
#    x 1.821170 0.000000 0.030130 
#    y 0.000000 1.713190 0.000000 
#    z 0.030130 0.000000 1.803100 
# 
# From -- ./inp_files/222054.got.cif
#   From: 2010.05.17/outbox.cif.g08.bks.cpg/sg12_112_cif.got.tgz:222054.got - 2010.06.03 13:09:07.
