data_PCOD9205802
_publ_section_title
;
Structure prediction by ZEFSAII (Michael W. Deem and Ramdas Pophale) SiO2 
 PCOD9205802
Probable space group: C 2/M
;
_chemical_formula_sum "Si O2"
_cell_formula_units_Z 64
_cell_length_a 36.644131
_cell_length_b 16.223596
_cell_length_c 10.061317
_cell_angle_alpha 90.000000
_cell_angle_beta 33.979190
_cell_angle_gamma 90.000000
_cell_volume 3342.982378
_symmetry_space_group_name_H-M "C 2/M"
_symmetry_group_IT_number 12
_symmetry_cell_setting 'monoclinic'
loop_
_space_group_symop_operation_xyz
x,y,z
-x,y,-z
-x,-y,-z
x,-y,z
1/2+x,1/2+y,z
1/2-x,1/2+y,-z
1/2-x,1/2-y,-z
1/2+x,1/2-y,z
loop_
_atom_site_type_symbol
_atom_site_label
_atom_site_fract_x
_atom_site_fract_y
_atom_site_fract_z
Si Si1 0.866361 0.401371 0.576589
Si Si2 0.121388 0.676823 0.952196
Si Si3 0.572249 0.215006 0.829412
Si Si4 0.288044 0.596332 0.910478
Si Si5 0.687360 0.302449 0.928934
Si Si6 0.066878 0.595917 0.353243
Si Si7 0.748554 0.905738 0.481046
Si Si8 0.804741 0.832000 0.572349
O O1 0.874937 0.500000 0.538261
O O2 0.898921 0.356121 0.353907
O O3 0.900153 0.371662 0.612374
O O4 0.788708 0.387093 0.824873
O O5 0.069599 0.685705 0.991342
O O6 0.131416 0.756758 0.013867
O O7 0.187735 0.656395 0.674123
O O8 0.112773 0.605144 0.086532
O O9 0.625970 0.287221 0.656038
O O10 0.500000 0.237438 0.000000
O O11 0.300813 0.500000 0.899355
O O12 0.301044 0.616152 0.718077
O O13 0.327618 0.660393 0.882429
O O14 0.711652 0.379016 0.767780
O O15 0.746433 0.235983 0.758830
O O16 0.054057 0.500000 0.419832
O O17 0.000000 0.635246 0.500000
O O18 0.789247 0.887348 0.490948
O O19 0.727414 0.000000 0.537021
#
# Coordination Sequence:
#
# PCOD9205802 Si02
#       8
#     8   8   8   8   8   8   8   8
#     4  10  21  37  56  85 120 151 188 234 288 351
#     4  11  21  37  55  86 113 146 192 234 284 346
#     4  12  24  38  57  82 119 164 199 229 275 341
#     4  11  22  36  60  90 114 145 185 238 311 354
#     4  11  20  36  58  84 118 143 178 244 300 342
#     4  10  21  36  53  77 113 155 195 228 265 329
#     4  11  20  35  60  85 115 149 183 238 297 340
#     4  11  21  38  56  87 120 150 193 242 280 348
#
# _framework density 19.144582
#
# number of rings (size 3 to 8) (size 9 to 14) (size 15 to 20)
#    0.000    1.125    3.750    4.500    1.750    3.250 
#    0.000    0.000    0.000    1.500    0.000    0.875 
#    0.000    0.000    0.000    0.000    0.000    0.000 
#
# Total GULP energy -178656.791189 kJ/mol
# GULP energy per Si atom -5583.024725 kJ/mol
# Density = 1.910101 g / cm^3
# Si number density = 19.144582 Si / 1000 Ang^3
#
#
#
# Elastic Constant Matrix: (Units=GPa)
#
#
# Indices 1 2 3 4 5 6 
#
# 1 116.8610 18.8557 3.4126 0.0000 6.4162 0.0000
# 2 18.8557 46.4059 -7.5053 0.0000 -0.0485 0.0000
# 3 3.4126 -7.5053 18.7521 0.0000 1.6576 0.0000
# 4 0.0000 0.0000 0.0000 11.5559 0.0000 7.7769
# 5 6.4162 -0.0485 1.6576 0.0000 23.6568 0.0000
# 6 0.0000 0.0000 0.0000 7.7769 0.0000 24.3777
#
#
#
# Elastic Compliance Matrix: (Units=1/GPa)
#
#
# Indices 1 2 3 4 5 6 
#
# 1 0.009490 -0.004388 -0.003275 0.000000 -0.002353 0.000000
# 2 -0.004388 0.025078 0.010793 0.000000 0.000485 0.000000
# 3 -0.003275 0.010793 0.058525 0.000000 -0.003190 0.000000
# 4 0.000000 0.000000 0.000000 0.110194 0.000000 -0.035154
# 5 -0.002353 0.000485 -0.003190 0.000000 0.043134 0.000000
# 6 0.000000 0.000000 0.000000 -0.035154 0.000000 0.052236
#
#
# Mechanical properties :
#
#
# Convention : Reuss Voigt Hill
#
# Bulk Modulus (GPa) = 10.06525 23.50500 16.78512
# Shear Modulus (GPa) = 15.36023 23.06847 19.21435
#
# Velocity S-wave (km/s) = 2.83561 3.47502 3.17147
# Velocity P-wave (km/s) = 3.99873 5.32966 4.71143
#
# Compressibility (1/GPa) = 0.09935176
#
# Stress axis : x y z
#
# Youngs Moduli (GPa) = 105.37316 39.87550 17.08669
#
# Poissons Ratio (x) = 0.17498 0.05596
# Poissons Ratio (y) = 0.46240 -0.18441
# Poissons Ratio (z) = 0.34513 -0.43037
#
# Static dielectric constant tensor:
#      x y z
#    x 1.703630 0.000000 -0.011450 
#    y 0.000000 1.669680 0.000000 
#    z -0.011450 0.000000 1.713260 
# 
# From -- ./inp_files/112818.got.cif
#   From: 2010.05.17/outbox.cif.g08.bks.cpg/sg12_57_cif.got.tgz:112818.got - 2010.06.03 13:09:07.
