data_PCOD9205777
_publ_section_title
;
Structure prediction by ZEFSAII (Michael W. Deem and Ramdas Pophale) SiO2 
 PCOD9205777
Probable space group: C 2/M
;
_chemical_formula_sum "Si O2"
_cell_formula_units_Z 48
_cell_length_a 20.737310
_cell_length_b 8.896928
_cell_length_c 21.743977
_cell_angle_alpha 90.000000
_cell_angle_beta 44.423905
_cell_angle_gamma 90.000000
_cell_volume 2808.054613
_symmetry_space_group_name_H-M "C 2/M"
_symmetry_group_IT_number 12
_symmetry_cell_setting 'monoclinic'
loop_
_space_group_symop_operation_xyz
x,y,z
-x,y,-z
-x,-y,-z
x,-y,z
1/2+x,1/2+y,z
1/2-x,1/2+y,-z
1/2-x,1/2-y,-z
1/2+x,1/2-y,z
loop_
_atom_site_type_symbol
_atom_site_label
_atom_site_fract_x
_atom_site_fract_y
_atom_site_fract_z
Si Si1 0.249841 0.681073 0.932864
Si Si2 0.895555 0.320446 0.396549
Si Si3 0.096125 0.180748 0.270760
Si Si4 0.395066 0.816956 0.069975
Si Si5 0.243718 0.179598 0.601756
Si Si6 0.744729 0.681192 0.271946
O O1 0.247731 0.500000 0.938582
O O2 0.339833 0.721299 0.831268
O O3 0.161761 0.728930 0.951920
O O4 0.250000 0.750000 0.000000
O O5 0.896739 0.500000 0.389466
O O6 0.844627 0.249172 0.372426
O O7 0.831493 0.281625 0.498952
O O8 0.997805 0.258401 0.335190
O O9 0.155908 0.219341 0.290624
O O10 0.084777 0.000000 0.278047
O O11 0.334029 0.773875 0.170667
O O12 0.396354 0.000000 0.068768
O O13 0.500000 0.763616 0.000000
O O14 0.255455 0.243814 0.661740
O O15 0.235214 0.000000 0.609122
O O16 0.746482 0.500000 0.277305
#
# Coordination Sequence:
#
# PCOD9205777 Si02
#       6
#     8   8   8   8   8   8
#     4   9  18  32  50  74 103 133 166 206 251 296
#     4  10  21  36  54  75  99 132 173 210 250 306
#     4   9  19  35  52  73 105 139 170 210 255 297
#     4   8  15  30  51  73  98 129 166 205 241 285
#     4  10  21  36  53  75 104 132 162 210 262 303
#     4   9  18  33  53  76 102 135 172 205 246 303
#
# _framework density 17.093684
#
# number of rings (size 3 to 8) (size 9 to 14) (size 15 to 20)
#    0.000    2.833    0.000    3.000    0.000    5.333 
#    0.000    7.500    0.000    1.000    0.000    0.000 
#    0.000    0.000    0.000    0.000    0.000    0.000 
#
# Total GULP energy -133831.758592 kJ/mol
# GULP energy per Si atom -5576.323275 kJ/mol
# Density = 1.705478 g / cm^3
# Si number density = 17.093684 Si / 1000 Ang^3
#
#
#
# Elastic Constant Matrix: (Units=GPa)
#
#
# Indices 1 2 3 4 5 6 
#
# 1 167.0462 54.7940 127.3864 0.0000 0.9470 0.0000
# 2 54.7940 28.5137 46.5579 0.0000 0.7495 0.0001
# 3 127.3864 46.5579 117.6643 0.0000 0.9391 0.0000
# 4 0.0000 0.0000 0.0000 29.4824 0.0000 5.0226
# 5 0.9470 0.7495 0.9391 0.0000 42.8981 0.0000
# 6 0.0000 0.0001 0.0000 5.0226 0.0000 33.3138
#
#
#
# Elastic Compliance Matrix: (Units=1/GPa)
#
#
# Indices 1 2 3 4 5 6 
#
# 1 0.036732 -0.015984 -0.033444 0.000000 0.000201 0.000000
# 2 -0.015984 0.106081 -0.024662 0.000000 -0.000961 0.000000
# 3 -0.033444 -0.024662 0.054465 0.000000 -0.000023 0.000000
# 4 0.000000 0.000000 0.000000 0.034813 0.000000 -0.005249
# 5 0.000201 -0.000961 -0.000023 0.000000 0.023324 0.000000
# 6 0.000000 0.000000 0.000000 -0.005249 0.000000 0.030809
#
#
# Mechanical properties :
#
#
# Convention : Reuss Voigt Hill
#
# Bulk Modulus (GPa) = 20.36764 85.63342 53.00053
# Shear Modulus (GPa) = 11.09208 26.77126 18.93167
#
# Velocity S-wave (km/s) = 2.55011 3.96175 3.33156
# Velocity P-wave (km/s) = 4.54004 8.43401 6.77291
#
# Compressibility (1/GPa) = 0.04909750
#
# Stress axis : x y z
#
# Youngs Moduli (GPa) = 27.22391 9.42672 18.36031
#
# Poissons Ratio (x) = 0.15068 0.61405
# Poissons Ratio (y) = 0.43515 0.45281
# Poissons Ratio (z) = 0.91049 0.23249
#
# Static dielectric constant tensor:
#      x y z
#    x 1.555430 0.000000 -0.007390 
#    y 0.000000 1.573690 0.000000 
#    z -0.007390 0.000000 1.565710 
# 
# From -- ./inp_files/248779.got.cif
#   From: 2010.05.17/outbox.cif.g08.bks.cpg/sg12_125_cif.got.tgz:248779.got - 2010.06.03 13:09:07.
