data_PCOD9205248
_publ_section_title
;
Structure prediction by ZEFSAII (Michael W. Deem and Ramdas Pophale) SiO2 
 PCOD9205248
Probable space group: C 2/M
;
_chemical_formula_sum "Si O2"
_cell_formula_units_Z 56
_cell_length_a 14.874965
_cell_length_b 8.431881
_cell_length_c 29.270252
_cell_angle_alpha 90.000000
_cell_angle_beta 51.088609
_cell_angle_gamma 90.000000
_cell_volume 2856.620214
_symmetry_space_group_name_H-M "C 2/M"
_symmetry_group_IT_number 12
_symmetry_cell_setting 'monoclinic'
loop_
_space_group_symop_operation_xyz
x,y,z
-x,y,-z
-x,-y,-z
x,-y,z
1/2+x,1/2+y,z
1/2-x,1/2+y,-z
1/2-x,1/2-y,-z
1/2+x,1/2-y,z
loop_
_atom_site_type_symbol
_atom_site_label
_atom_site_fract_x
_atom_site_fract_y
_atom_site_fract_z
Si Si1 0.354052 0.691354 0.498237
Si Si2 0.304722 0.812959 0.273857
Si Si3 0.941777 0.189892 0.811272
Si Si4 0.691351 0.677379 0.063237
Si Si5 0.884383 0.806735 0.593004
Si Si6 0.259110 0.314459 0.190170
Si Si7 0.877994 0.183113 0.063590
O O1 0.352521 0.500000 0.497915
O O2 0.250000 0.750000 0.500000
O O3 0.482714 0.743601 0.441501
O O4 0.345832 0.740724 0.554165
O O5 0.427145 0.728987 0.242135
O O6 0.205598 0.753939 0.339958
O O7 0.267788 0.783322 0.233484
O O8 0.320623 0.000000 0.276543
O O9 0.911301 0.248249 0.872856
O O10 0.852798 0.268603 0.804219
O O11 0.923834 0.000000 0.816786
O O12 0.656977 0.500000 0.061514
O O13 0.794879 0.690556 0.066688
O O14 0.750000 0.750000 0.000000
O O15 0.885849 0.000000 0.593024
O O16 0.255288 0.500000 0.203348
O O17 0.367767 0.291366 0.120974
O O18 0.835809 0.000000 0.069433
O O19 0.000000 0.194236 0.000000
#
# Coordination Sequence:
#
# PCOD9205248 Si02
#       7
#     8   8   8   8   8   8   8
#     4   9  17  35  60  84 114 151 188 227 273 321
#     4  11  22  37  59  85 115 153 192 233 284 338
#     4  10  22  40  57  78 110 148 189 235 284 340
#     4  10  21  35  53  76 103 134 175 225 279 338
#     4   8  18  36  56  81 115 152 188 225 271 332
#     4  10  21  38  57  80 111 146 187 234 286 342
#     4   9  19  35  54  75 101 134 173 223 280 337
#
# _framework density 19.603587000000001
#
# number of rings (size 3 to 8) (size 9 to 14) (size 15 to 20)
#    0.000    2.429    0.000    2.571    2.000    3.714 
#    0.000    7.143    0.000    0.000    0.000    0.000 
#    0.000    0.000    0.000    0.000    0.000    0.000 
#
# Total GULP energy -156098.333556 kJ/mol
# GULP energy per Si atom -5574.940484 kJ/mol
# Density = 1.955897 g / cm^3
# Si number density = 19.603587 Si / 1000 Ang^3
#
#
#
# Elastic Constant Matrix: (Units=GPa)
#
#
# Indices 1 2 3 4 5 6 
#
# 1 92.1733 1.2044 52.8587 -0.0001 -9.2471 -0.0001
# 2 1.2044 18.8162 17.4994 -0.0001 -3.5148 -0.0002
# 3 52.8587 17.4994 166.3758 0.0000 -15.5150 0.0000
# 4 -0.0001 -0.0001 0.0000 19.5224 0.0000 -2.0039
# 5 -9.2471 -3.5148 -15.5150 0.0000 20.1692 0.0000
# 6 -0.0001 -0.0002 0.0000 -2.0039 0.0000 31.9547
#
#
#
# Elastic Compliance Matrix: (Units=1/GPa)
#
#
# Indices 1 2 3 4 5 6 
#
# 1 0.013695 0.003908 -0.004431 0.000000 0.003552 0.000000
# 2 0.003908 0.060687 -0.006971 0.000000 0.007005 0.000000
# 3 -0.004431 -0.006971 0.008455 0.000000 0.003258 0.000000
# 4 0.000000 0.000000 0.000000 0.051555 0.000000 0.003233
# 5 0.003552 0.007005 0.003258 0.000000 0.054936 0.000000
# 6 0.000000 0.000000 0.000000 0.003233 0.000000 0.031497
#
#
# Mechanical properties :
#
#
# Convention : Reuss Voigt Hill
#
# Bulk Modulus (GPa) = 14.73866 46.72113 30.72989
# Shear Modulus (GPa) = 19.34749 28.04945 23.69847
#
# Velocity S-wave (km/s) = 3.14496 3.78674 3.48067
# Velocity P-wave (km/s) = 4.55218 6.55773 5.64474
#
# Compressibility (1/GPa) = 0.06784879
#
# Stress axis : x y z
#
# Youngs Moduli (GPa) = 73.01731 16.47786 118.26950
#
# Poissons Ratio (x) = -0.06439 0.52404
# Poissons Ratio (y) = -0.28532 0.82450
# Poissons Ratio (z) = 0.32353 0.11487
#
# Static dielectric constant tensor:
#      x y z
#    x 1.671460 0.000000 -0.000490 
#    y 0.000000 1.379070 0.000000 
#    z -0.000490 0.000000 1.719940 
# 
# From -- ./inp_files/374959.got.cif
#   From: 2010.05.17/outbox.cif.g08.bks.cpg/sg12_188_cif.got.tgz:374959.got - 2010.06.03 13:09:07.
