data_PCOD9205733
_publ_section_title
;
Structure prediction by ZEFSAII (Michael W. Deem and Ramdas Pophale) SiO2 
 PCOD9205733
Probable space group: C 2/M
;
_chemical_formula_sum "Si O2"
_cell_formula_units_Z 48
_cell_length_a 14.293362
_cell_length_b 18.387599
_cell_length_c 17.687176
_cell_angle_alpha 90.000000
_cell_angle_beta 146.609462
_cell_angle_gamma 90.000000
_cell_volume 2558.298719
_symmetry_space_group_name_H-M "C 2/M"
_symmetry_group_IT_number 12
_symmetry_cell_setting 'monoclinic'
loop_
_space_group_symop_operation_xyz
x,y,z
-x,y,-z
-x,-y,-z
x,-y,z
1/2+x,1/2+y,z
1/2-x,1/2+y,-z
1/2-x,1/2-y,-z
1/2+x,1/2-y,z
loop_
_atom_site_type_symbol
_atom_site_label
_atom_site_fract_x
_atom_site_fract_y
_atom_site_fract_z
Si Si1 0.949856 0.915996 0.878478
Si Si2 0.075786 0.639362 0.130364
Si Si3 0.922671 0.084382 0.320733
Si Si4 0.262372 0.413402 0.046664
Si Si5 0.266823 0.779058 0.281822
Si Si6 0.118941 0.227201 0.475878
O O1 0.109276 0.894304 0.933739
O O2 0.798173 0.860617 0.760910
O O3 0.907904 0.000000 0.832066
O O4 0.000000 0.911859 0.000000
O O5 0.257171 0.599718 0.261754
O O6 0.122729 0.723951 0.155396
O O7 0.000000 0.611083 0.000000
O O8 0.920501 0.625205 0.081766
O O9 0.856888 0.101197 0.190662
O O10 0.068375 0.142102 0.438686
O O11 0.971387 0.000000 0.358043
O O12 0.230876 0.500000 0.023316
O O13 0.436454 0.767540 0.347187
O O14 0.308191 0.750401 0.393820
O O15 0.250000 0.250000 0.500000
#
# Coordination Sequence:
#
# PCOD9205733 Si02
#       6
#     8   8   8   8   8   8
#     4  10  21  36  53  75 104 135 170 213 255 300
#     4   9  17  30  51  79 106 132 162 202 255 313
#     4   9  17  32  54  78 106 136 167 208 258 308
#     4   9  17  30  51  79 107 135 166 201 249 306
#     4  10  21  36  52  74 101 134 173 212 258 304
#     4  10  21  37  53  73 102 136 177 219 254 297
#
# _framework density 18.762467999999998
#
# number of rings (size 3 to 8) (size 9 to 14) (size 15 to 20)
#    0.000    2.500    0.000    2.000    0.000    4.000 
#    0.000   10.000    0.000    0.000    0.000    0.000 
#    0.000    0.000    0.000    0.000    0.000    0.000 
#
# Total GULP energy -133834.621827 kJ/mol
# GULP energy per Si atom -5576.442576 kJ/mol
# Density = 1.871976 g / cm^3
# Si number density = 18.762468 Si / 1000 Ang^3
#
#
#
# Elastic Constant Matrix: (Units=GPa)
#
#
# Indices 1 2 3 4 5 6 
#
# 1 119.7678 51.8089 43.7063 -0.0004 31.5384 -0.0001
# 2 51.8089 108.8006 56.4678 -0.0006 23.6451 -0.0002
# 3 43.7063 56.4678 67.8904 -0.0008 16.4294 -0.0005
# 4 -0.0004 -0.0006 -0.0008 26.7267 -0.0006 2.7619
# 5 31.5384 23.6451 16.4294 -0.0006 26.2919 -0.0002
# 6 -0.0001 -0.0002 -0.0005 2.7619 -0.0002 20.0366
#
#
#
# Elastic Compliance Matrix: (Units=1/GPa)
#
#
# Indices 1 2 3 4 5 6 
#
# 1 0.014026 -0.001487 -0.004765 0.000000 -0.012510 0.000000
# 2 -0.001487 0.017588 -0.012106 0.000000 -0.006469 0.000000
# 3 -0.004765 -0.012106 0.028098 0.000000 -0.000954 0.000000
# 4 0.000000 0.000000 0.000000 0.037956 0.000001 -0.005232
# 5 -0.012510 -0.006469 -0.000954 0.000001 0.059454 0.000000
# 6 0.000000 0.000000 0.000000 -0.005232 0.000000 0.050630
#
#
# Mechanical properties :
#
#
# Convention : Reuss Voigt Hill
#
# Bulk Modulus (GPa) = 43.48861 66.71389 55.10125
# Shear Modulus (GPa) = 19.83067 24.24276 22.03671
#
# Velocity S-wave (km/s) = 3.25458 3.59846 3.43083
# Velocity P-wave (km/s) = 6.11162 7.27321 6.71757
#
# Compressibility (1/GPa) = 0.02299453
#
# Stress axis : x y z
#
# Youngs Moduli (GPa) = 71.29651 56.85619 35.59007
#
# Poissons Ratio (x) = 0.08454 0.16960
# Poissons Ratio (y) = 0.10601 0.43086
# Poissons Ratio (z) = 0.33976 0.68832
#
# Static dielectric constant tensor:
#      x y z
#    x 1.670790 0.000000 -0.009490 
#    y 0.000000 1.654610 0.000000 
#    z -0.009490 0.000000 1.670220 
# 
# From -- ./inp_files/216231.got.cif
#   From: 2010.05.17/outbox.cif.g08.bks.cpg/sg12_109_cif.got.tgz:216231.got - 2010.06.03 13:09:07.
