data_PCOD9205044
_publ_section_title
;
Structure prediction by ZEFSAII (Michael W. Deem and Ramdas Pophale) SiO2 
 PCOD9205044
Probable space group: C 2/M
;
_chemical_formula_sum "Si O2"
_cell_formula_units_Z 50
_cell_length_a 8.554528
_cell_length_b 22.755422
_cell_length_c 11.704534
_cell_angle_alpha 90.000000
_cell_angle_beta 103.994343
_cell_angle_gamma 90.000000
_cell_volume 2210.802163
_symmetry_space_group_name_H-M "C 2/M"
_symmetry_group_IT_number 12
_symmetry_cell_setting 'monoclinic'
loop_
_space_group_symop_operation_xyz
x,y,z
-x,y,-z
-x,-y,-z
x,-y,z
1/2+x,1/2+y,z
1/2-x,1/2+y,-z
1/2-x,1/2-y,-z
1/2+x,1/2-y,z
loop_
_atom_site_type_symbol
_atom_site_label
_atom_site_fract_x
_atom_site_fract_y
_atom_site_fract_z
Si Si1 0.722695 0.327863 0.886338
Si Si2 0.119815 0.434674 0.208695
Si Si3 0.733028 0.908417 0.913439
Si Si4 0.861355 0.567164 0.346892
Si Si5 0.500000 0.500000 0.000000
Si Si6 0.626419 0.805760 0.613121
Si Si7 0.066634 0.748201 0.227780
O O1 0.762337 0.384253 0.813149
O O2 0.745563 0.346395 0.021411
O O3 0.853426 0.280818 0.867995
O O4 0.550499 0.300786 0.827402
O O5 0.186513 0.500000 0.206575
O O6 0.041390 0.431057 0.322344
O O7 0.952621 0.427711 0.108417
O O8 0.862135 0.949512 0.994724
O O9 0.756250 0.919834 0.782296
O O10 0.835539 0.500000 0.383467
O O11 0.841236 0.626413 0.414775
O O12 0.500000 0.780441 0.500000
O O13 0.790231 0.770890 0.664417
O O14 0.535483 0.800167 0.719437
#
# Coordination Sequence:
#
# PCOD9205044 Si02
#       7
#     8   8   8   8   2   8   8
#     4  11  22  39  64  86 127 170 204 248 305 366
#     4   9  18  36  57  85 119 161 199 240 297 359
#     4  10  21  34  58  91 125 166 194 242 299 357
#     4   9  19  38  59  89 121 153 196 248 295 373
#     4  12  20  36  58  96 134 162 210 248 280 384
#     4  11  22  42  67  87 116 158 207 264 317 362
#     4  10  24  42  59  92 122 159 214 256 301 366
#
# _framework density 22.616225
#
# number of rings (size 3 to 8) (size 9 to 14) (size 15 to 20)
#    0.960    0.960    3.200    0.960    3.360    0.960 
#    0.000   15.200    0.000    0.000    0.000    2.240 
#    0.000    0.000    0.000    0.000    0.000    0.000 
#
# Total GULP energy -139179.720018 kJ/mol
# GULP energy per Si atom -5567.188801 kJ/mol
# Density = 2.256475 g / cm^3
# Si number density = 22.616225 Si / 1000 Ang^3
#
#
#
# Elastic Constant Matrix: (Units=GPa)
#
#
# Indices 1 2 3 4 5 6 
#
# 1 56.8753 40.5138 8.9817 0.0000 12.6520 0.0000
# 2 40.5138 145.0819 19.8954 0.0000 19.6774 0.0000
# 3 8.9817 19.8954 51.3596 0.0000 13.4000 0.0000
# 4 0.0000 0.0000 0.0000 6.3243 0.0000 0.4170
# 5 12.6520 19.6774 13.4000 0.0000 17.0577 0.0000
# 6 0.0000 0.0000 0.0000 0.4170 0.0000 42.0157
#
#
#
# Elastic Compliance Matrix: (Units=1/GPa)
#
#
# Indices 1 2 3 4 5 6 
#
# 1 0.023859 -0.005093 0.001113 0.000000 -0.012695 0.000000
# 2 -0.005093 0.009291 -0.001129 0.000000 -0.006053 0.000000
# 3 0.001113 -0.001129 0.024639 0.000000 -0.018878 0.000000
# 4 0.000000 0.000000 0.000000 0.158224 0.000000 -0.001570
# 5 -0.012695 -0.006053 -0.018878 0.000000 0.089853 0.000000
# 6 0.000000 0.000000 0.000000 -0.001570 0.000000 0.023816
#
#
# Mechanical properties :
#
#
# Convention : Reuss Voigt Hill
#
# Bulk Modulus (GPa) = 21.02200 43.56653 32.29426
# Shear Modulus (GPa) = 14.05454 25.34127 19.69791
#
# Velocity S-wave (km/s) = 2.49557 3.35100 2.95441
# Velocity P-wave (km/s) = 4.19751 5.85470 5.09395
#
# Compressibility (1/GPa) = 0.04756922
#
# Stress axis : x y z
#
# Youngs Moduli (GPa) = 41.91342 107.63438 40.58647
#
# Poissons Ratio (x) = 0.54821 -0.04517
# Poissons Ratio (y) = 0.21348 0.04582
# Poissons Ratio (z) = -0.04664 0.12153
#
# Static dielectric constant tensor:
#      x y z
#    x 1.838320 0.000000 -0.063720 
#    y 0.000000 1.840440 0.000000 
#    z -0.063720 0.000000 1.941620 
# 
# From -- ./inp_files/198567.got.cif
#   From: 2010.05.17/outbox.cif.g08.bks.cpg/sg12_100_cif.got.tgz:198567.got - 2010.06.03 13:09:07.
