data_PCOD9205191
_publ_section_title
;
Structure prediction by ZEFSAII (Michael W. Deem and Ramdas Pophale) SiO2 
 PCOD9205191
Probable space group: C 2/M
;
_chemical_formula_sum "Si O2"
_cell_formula_units_Z 56
_cell_length_a 9.709826
_cell_length_b 27.010339
_cell_length_c 12.925471
_cell_angle_alpha 90.000000
_cell_angle_beta 55.502168
_cell_angle_gamma 90.000000
_cell_volume 2793.784277
_symmetry_space_group_name_H-M "C 2/M"
_symmetry_group_IT_number 12
_symmetry_cell_setting 'monoclinic'
loop_
_space_group_symop_operation_xyz
x,y,z
-x,y,-z
-x,-y,-z
x,-y,z
1/2+x,1/2+y,z
1/2-x,1/2+y,-z
1/2-x,1/2-y,-z
1/2+x,1/2-y,z
loop_
_atom_site_type_symbol
_atom_site_label
_atom_site_fract_x
_atom_site_fract_y
_atom_site_fract_z
Si Si1 0.659338 0.779855 0.738610
Si Si2 0.920659 0.387691 0.648948
Si Si3 0.956699 0.611248 0.182027
Si Si4 0.601622 0.291958 0.064980
Si Si5 0.528633 0.774815 0.368590
Si Si6 0.915574 0.942563 0.142835
Si Si7 0.272744 0.398360 0.908115
O O1 0.566130 0.828960 0.817348
O O2 0.543262 0.733400 0.808544
O O3 0.642519 0.781888 0.621766
O O4 0.836554 0.767990 0.713339
O O5 0.887431 0.328982 0.676715
O O6 0.746976 0.415127 0.745242
O O7 0.000000 0.395654 0.500000
O O8 0.038575 0.401071 0.697984
O O9 0.809296 0.594698 0.169296
O O10 0.127557 0.592936 0.055649
O O11 0.666890 0.342742 0.087344
O O12 0.500000 0.300404 0.000000
O O13 0.750000 0.250000 0.000000
O O14 0.500000 0.766803 0.500000
O O15 0.070054 0.934136 0.152944
O O16 0.874037 0.000000 0.145052
O O17 0.000000 0.923267 0.000000
#
# Coordination Sequence:
#
# PCOD9205191 Si02
#       7
#     8   8   8   8   8   8   8
#     4  11  20  32  49  77 115 151 198 241 280 343
#     4  10  22  42  64  88 121 162 203 248 307 366
#     4  10  21  36  57  87 123 162 200 245 304 364
#     4  12  22  31  51  85 118 157 198 242 303 354
#     4  10  21  35  52  75 110 158 204 240 280 341
#     4  11  23  41  67  96 120 150 201 255 311 372
#     4  11  21  37  58  87 128 158 195 256 307 362
#
# _framework density 20.044497
#
# number of rings (size 3 to 8) (size 9 to 14) (size 15 to 20)
#    0.000    1.286    2.857    4.286    2.000    0.286 
#    0.000    2.857    0.000    0.857    0.000    0.000 
#    0.000    0.000    0.000    0.000    0.000    0.000 
#
# Total GULP energy -155937.759469 kJ/mol
# GULP energy per Si atom -5569.205695 kJ/mol
# Density = 1.999887 g / cm^3
# Si number density = 20.044497 Si / 1000 Ang^3
#
#
#
# Elastic Constant Matrix: (Units=GPa)
#
#
# Indices 1 2 3 4 5 6 
#
# 1 128.7059 8.1546 40.5689 0.0000 20.0373 0.0000
# 2 8.1546 34.8460 23.9463 0.0000 -11.2517 0.0000
# 3 40.5689 23.9463 67.7100 0.0000 19.2602 0.0000
# 4 0.0000 0.0000 0.0000 14.3955 0.0000 -5.2986
# 5 20.0373 -11.2517 19.2602 0.0000 29.6601 0.0000
# 6 0.0000 0.0000 0.0000 -5.2986 0.0000 16.0276
#
#
#
# Elastic Compliance Matrix: (Units=1/GPa)
#
#
# Indices 1 2 3 4 5 6 
#
# 1 0.009861 -0.000118 -0.004856 0.000000 -0.003553 0.000000
# 2 -0.000118 0.077616 -0.043883 0.000000 0.058020 0.000000
# 3 -0.004856 -0.043883 0.045383 0.000000 -0.042837 0.000000
# 4 0.000000 0.000000 0.000000 0.079090 0.000000 0.026146
# 5 -0.003553 0.058020 -0.042837 0.000000 0.085943 0.000000
# 6 0.000000 0.000000 0.000000 0.026146 0.000000 0.071036
#
#
# Mechanical properties :
#
#
# Convention : Reuss Voigt Hill
#
# Bulk Modulus (GPa) = 28.45222 41.84461 35.14841
# Shear Modulus (GPa) = 10.45242 22.58944 16.52093
#
# Velocity S-wave (km/s) = 2.28603 3.36067 2.87402
# Velocity P-wave (km/s) = 4.60361 5.99833 5.34665
#
# Compressibility (1/GPa) = 0.03514665
#
# Stress axis : x y z
#
# Youngs Moduli (GPa) = 101.41091 12.88386 22.03475
#
# Poissons Ratio (x) = 0.00152 0.10699
# Poissons Ratio (y) = 0.01198 0.96695
# Poissons Ratio (z) = 0.49242 0.56538
#
# Static dielectric constant tensor:
#      x y z
#    x 1.879340 0.000000 0.103300 
#    y 0.000000 1.746550 0.000000 
#    z 0.103300 0.000000 1.786500 
# 
# From -- ./inp_files/125578.got.cif
#   From: 2010.05.17/outbox.cif.g08.bks.cpg/sg12_63_cif.got.tgz:125578.got - 2010.06.03 13:09:07.
