data_PCOD9205806
_publ_section_title
;
Structure prediction by ZEFSAII (Michael W. Deem and Ramdas Pophale) SiO2 
 PCOD9205806
Probable space group: C 2/M
;
_chemical_formula_sum "Si O2"
_cell_formula_units_Z 48
_cell_length_a 18.948372
_cell_length_b 16.130384
_cell_length_c 16.707159
_cell_angle_alpha 90.000000
_cell_angle_beta 151.850580
_cell_angle_gamma 90.000000
_cell_volume 2409.083801
_symmetry_space_group_name_H-M "C 2/M"
_symmetry_group_IT_number 12
_symmetry_cell_setting 'monoclinic'
loop_
_space_group_symop_operation_xyz
x,y,z
-x,y,-z
-x,-y,-z
x,-y,z
1/2+x,1/2+y,z
1/2-x,1/2+y,-z
1/2-x,1/2-y,-z
1/2+x,1/2-y,z
loop_
_atom_site_type_symbol
_atom_site_label
_atom_site_fract_x
_atom_site_fract_y
_atom_site_fract_z
Si Si1 0.602216 0.168372 0.401617
Si Si2 0.160118 0.220134 0.034075
Si Si3 0.892982 0.907733 0.469173
Si Si4 0.339882 0.779866 0.713838
Si Si5 0.397781 0.668372 0.197182
Si Si6 0.607019 0.907733 0.683209
O O1 0.636028 0.161986 0.341448
O O2 0.752728 0.197276 0.596816
O O3 0.499999 0.250000 0.303911
O O4 0.502490 0.102752 0.349159
O O5 0.247270 0.302725 0.091357
O O6 0.269466 0.164591 0.196564
O O7 0.136031 0.161985 0.930610
O O8 1.000000 0.249999 0.904585
O O9 0.769466 0.835410 0.342369
O O10 0.000000 0.899186 0.500000
O O11 0.002492 0.897249 0.655822
O O12 0.826487 0.000000 0.403178
O O13 0.500000 0.899188 0.500000
O O14 0.673515 0.000000 0.750205
#
# Coordination Sequence:
#
# PCOD9205806 Si02
#       6
#     8   8   8   8   8   8
#     4   8  16  32  54  78 106 141 180 219 262 319
#     4   9  17  33  57  82 104 134 184 233 266 311
#     4  10  21  36  53  78 115 151 179 215 271 332
#     4   9  17  33  57  82 104 134 184 233 266 311
#     4   8  16  32  54  78 106 141 180 219 262 319
#     4  10  21  36  53  78 115 151 179 215 271 332
#
# _framework density 19.924586999999999
#
# number of rings (size 3 to 8) (size 9 to 14) (size 15 to 20)
#    0.000    3.000    0.000    2.000    0.000    7.333 
#    0.000    5.000    0.000    4.000    0.000    0.000 
#    0.000    0.000    0.000    0.000    0.000    0.000 
#
# Total GULP energy -133692.201283 kJ/mol
# GULP energy per Si atom -5570.508387 kJ/mol
# Density = 1.987924 g / cm^3
# Si number density = 19.924587 Si / 1000 Ang^3
#
#
#
# Elastic Constant Matrix: (Units=GPa)
#
#
# Indices 1 2 3 4 5 6 
#
# 1 43.4606 21.2444 20.4354 -0.0005 5.4179 0.0004
# 2 21.2444 67.6742 25.5690 -0.0014 3.9115 0.0008
# 3 20.4354 25.5690 74.1155 -0.0021 22.3011 0.0001
# 4 -0.0005 -0.0014 -0.0021 22.1203 -0.0013 -1.7313
# 5 5.4179 3.9115 22.3011 -0.0013 29.7765 0.0007
# 6 0.0004 0.0008 0.0001 -1.7313 0.0007 24.0390
#
#
#
# Elastic Compliance Matrix: (Units=1/GPa)
#
#
# Indices 1 2 3 4 5 6 
#
# 1 0.029069 -0.007026 -0.005522 0.000000 -0.000231 0.000000
# 2 -0.007026 0.018870 -0.005437 0.000001 0.002871 0.000000
# 3 -0.005522 -0.005437 0.021137 0.000001 -0.014111 0.000001
# 4 0.000000 0.000001 0.000001 0.045464 0.000001 0.003274
# 5 -0.000231 0.002871 -0.014111 0.000001 0.043817 -0.000001
# 6 0.000000 0.000000 0.000001 0.003274 -0.000001 0.041835
#
#
# Mechanical properties :
#
#
# Convention : Reuss Voigt Hill
#
# Bulk Modulus (GPa) = 30.20503 35.52754 32.86628
# Shear Modulus (GPa) = 20.22686 23.05391 21.64039
#
# Velocity S-wave (km/s) = 3.18963 3.40525 3.29920
# Velocity P-wave (km/s) = 5.36261 5.77327 5.57172
#
# Compressibility (1/GPa) = 0.03310707
#
# Stress axis : x y z
#
# Youngs Moduli (GPa) = 34.40117 52.99295 47.31113
#
# Poissons Ratio (x) = 0.37231 0.26124
# Poissons Ratio (y) = 0.24169 0.25723
# Poissons Ratio (z) = 0.18995 0.28812
#
# Static dielectric constant tensor:
#      x y z
#    x 1.803010 0.000000 -0.027010 
#    y 0.000000 1.688750 0.000000 
#    z -0.027010 0.000000 1.773150 
# 
# From -- ./inp_files/284083.got.cif
#   From: 2010.05.17/outbox.cif.g08.bks.cpg/sg12_143_cif.got.tgz:284083.got - 2010.06.03 13:09:07.
