data_PCOD9205182
_publ_section_title
;
Structure prediction by ZEFSAII (Michael W. Deem and Ramdas Pophale) SiO2 
 PCOD9205182
Probable space group: C 2/M
;
_chemical_formula_sum "Si O2"
_cell_formula_units_Z 48
_cell_length_a 8.207402
_cell_length_b 17.746057
_cell_length_c 18.889211
_cell_angle_alpha 90.000000
_cell_angle_beta 120.896986
_cell_angle_gamma 90.000000
_cell_volume 2360.778318
_symmetry_space_group_name_H-M "C 2/M"
_symmetry_group_IT_number 12
_symmetry_cell_setting 'monoclinic'
loop_
_space_group_symop_operation_xyz
x,y,z
-x,y,-z
-x,-y,-z
x,-y,z
1/2+x,1/2+y,z
1/2-x,1/2+y,-z
1/2-x,1/2-y,-z
1/2+x,1/2-y,z
loop_
_atom_site_type_symbol
_atom_site_label
_atom_site_fract_x
_atom_site_fract_y
_atom_site_fract_z
Si Si1 0.345941 0.916981 0.527053
Si Si2 0.134064 0.173120 0.278279
Si Si3 0.563979 0.800166 0.942041
Si Si4 0.690677 0.704976 0.588975
Si Si5 0.190212 0.296383 0.825223
Si Si6 0.036690 0.918739 0.649522
O O1 0.500000 0.910279 0.500000
O O2 0.336380 0.844287 0.574840
O O3 0.138794 0.920672 0.444585
O O4 0.376028 0.000000 0.568287
O O5 0.237538 0.215990 0.366299
O O6 0.266654 0.162986 0.239510
O O7 0.047791 0.098107 0.292377
O O8 0.962638 0.230261 0.221891
O O9 0.389001 0.743757 0.888570
O O10 0.613629 0.839591 0.878078
O O11 0.500000 0.842446 0.000000
O O12 0.750000 0.750000 0.000000
O O13 0.500000 0.713428 0.500000
O O14 0.656606 0.652250 0.649902
O O15 0.132854 0.000000 0.667853
#
# Coordination Sequence:
#
# PCOD9205182 Si02
#       6
#     8   8   8   8   8   8
#     4   9  19  33  50  70  92 125 181 243 273 301
#     4  11  20  33  48  76 106 144 166 224 267 308
#     4   8  14  28  50  76 108 140 159 192 249 317
#     4  10  21  35  52  70  96 141 189 224 264 317
#     4   9  18  29  47  77 113 134 162 207 262 302
#     4  10  21  36  51  68  97 139 182 221 269 315
#
# _framework density 20.332277000000001
#
# number of rings (size 3 to 8) (size 9 to 14) (size 15 to 20)
#    0.000    2.500    1.667    0.500    2.333    5.333 
#    0.000    0.000    0.000    0.000    0.000    0.000 
#    0.000   84.000    0.000    0.000    0.000    0.000 
#
# Total GULP energy -133793.818137 kJ/mol
# GULP energy per Si atom -5574.742422 kJ/mol
# Density = 2.028600 g / cm^3
# Si number density = 20.332277 Si / 1000 Ang^3
#
#
#
# Elastic Constant Matrix: (Units=GPa)
#
#
# Indices 1 2 3 4 5 6 
#
# 1 106.6078 16.0079 31.0308 0.0000 -34.8508 0.0000
# 2 16.0079 48.1461 7.9380 0.0000 -10.4195 0.0000
# 3 31.0308 7.9380 68.0356 0.0000 -13.2844 0.0000
# 4 0.0000 0.0000 0.0000 -8.5260 0.0000 12.4024
# 5 -34.8508 -10.4195 -13.2844 0.0000 57.3972 0.0000
# 6 0.0000 0.0000 0.0000 12.4024 0.0000 1.9111
#
#
#
# Elastic Compliance Matrix: (Units=1/GPa)
#
#
# Indices 1 2 3 4 5 6 
#
# 1 0.013154 -0.002220 -0.004461 0.000000 0.006551 0.000000
# 2 -0.002220 0.022216 -0.001105 0.000000 0.002429 0.000000
# 3 -0.004461 -0.001105 0.017065 0.000000 0.001040 0.000000
# 4 0.000000 0.000000 0.000000 -0.011234 0.000000 0.072907
# 5 0.006551 0.002429 0.001040 0.000000 0.022082 0.000000
# 6 0.000000 0.000000 0.000000 0.072907 0.000000 0.050119
#
#
# Mechanical properties :
#
#
# Convention : Reuss Voigt Hill
#
# Bulk Modulus (GPa) = 27.12821 36.97143 32.04982
# Shear Modulus (GPa) = 35.39519 21.34399 28.36959
#
# Velocity S-wave (km/s) = 4.17686 3.24351 3.73942
# Velocity P-wave (km/s) = 6.05252 5.67893 5.86870
#
# Compressibility (1/GPa) = 0.03686200
#
# Stress axis : x y z
#
# Youngs Moduli (GPa) = 76.02413 45.01219 58.59959
#
# Poissons Ratio (x) = 0.09993 0.26142
# Poissons Ratio (y) = 0.16878 0.06476
# Poissons Ratio (z) = 0.33916 0.04975
#
# Static dielectric constant tensor:
#      x y z
#    x 1.802320 0.000000 -0.042080 
#    y 0.000000 1.692960 0.000000 
#    z -0.042080 0.000000 1.793130 
# 
# From -- ./inp_files/256165.got.cif
#   From: 2010.05.17/outbox.cif.g08.bks.cpg/sg12_129_cif.got.tgz:256165.got - 2010.06.03 13:09:07.
