data_PCOD9205639
_publ_section_title
;
Structure prediction by ZEFSAII (Michael W. Deem and Ramdas Pophale) SiO2 
 PCOD9205639
Probable space group: C 2/M
;
_chemical_formula_sum "Si O2"
_cell_formula_units_Z 36
_cell_length_a 14.004302
_cell_length_b 16.249306
_cell_length_c 23.341172
_cell_angle_alpha 90.000000
_cell_angle_beta 20.564888
_cell_angle_gamma 90.000000
_cell_volume 1865.767250
_symmetry_space_group_name_H-M "C 2/M"
_symmetry_group_IT_number 12
_symmetry_cell_setting 'monoclinic'
loop_
_space_group_symop_operation_xyz
x,y,z
-x,y,-z
-x,-y,-z
x,-y,z
1/2+x,1/2+y,z
1/2-x,1/2+y,-z
1/2-x,1/2-y,-z
1/2+x,1/2-y,z
loop_
_atom_site_type_symbol
_atom_site_label
_atom_site_fract_x
_atom_site_fract_y
_atom_site_fract_z
Si Si1 0.802285 0.500000 0.666353
Si Si2 0.602829 0.666611 0.825804
Si Si3 0.317670 0.000000 0.307145
Si Si4 0.973037 0.677174 0.206837
Si Si5 0.864425 0.324866 0.399886
Si Si6 0.328676 0.000000 0.428248
O O1 0.633715 0.585077 0.768386
O O2 0.000000 0.500000 0.500000
O O3 0.986902 0.500000 0.619438
O O4 0.643479 0.749929 0.766517
O O5 0.830377 0.660766 0.747300
O O6 0.300102 0.675412 0.020467
O O7 0.387451 0.915080 0.237714
O O8 0.000000 0.000000 0.500000
O O9 0.463026 0.000000 0.288753
O O10 0.873283 0.691231 0.327591
O O11 0.750000 0.250000 0.500000
O O12 0.696779 0.409687 0.503914
#
# Coordination Sequence:
#
# PCOD9205639 Si02
#       6
#     4   8   4   8   8   4
#     4  10  21  35  60  83 112 145 190 236 277 333
#     4  10  22  38  57  83 116 151 187 229 287 344
#     4  10  21  35  60  83 112 145 190 236 277 333
#     4  10  22  38  57  83 116 151 187 229 287 344
#     4  10  21  35  60  83 112 145 190 236 277 333
#     4   8  20  36  49  84 101 144 180 222 284 316
#
# _framework density 19.295010999999999
#
# number of rings (size 3 to 8) (size 9 to 14) (size 15 to 20)
#    0.000    2.222    0.000    1.333   12.444    0.000 
#    0.000    6.667    0.000    0.000    0.000    9.333 
#    0.000    0.000    0.000    0.000    0.000    0.000 
#
# Total GULP energy -100290.906629 kJ/mol
# GULP energy per Si atom -5571.717035 kJ/mol
# Density = 1.925109 g / cm^3
# Si number density = 19.295011 Si / 1000 Ang^3
#
#
#
# Elastic Constant Matrix: (Units=GPa)
#
#
# Indices 1 2 3 4 5 6 
#
# 1 66.7735 26.3926 12.3154 -0.1073 -0.5383 0.0364
# 2 26.3926 163.9302 15.9080 0.1020 28.0771 -0.0263
# 3 12.3154 15.9080 39.6936 -0.1208 8.3926 0.0774
# 4 -0.1073 0.1020 -0.1208 34.9180 0.0394 5.0251
# 5 -0.5383 28.0771 8.3926 0.0394 25.6575 -0.0211
# 6 0.0364 -0.0263 0.0774 5.0251 -0.0211 30.2073
#
#
#
# Elastic Compliance Matrix: (Units=1/GPa)
#
#
# Indices 1 2 3 4 5 6 
#
# 1 0.017267 -0.003233 -0.005249 0.000040 0.005617 -0.000013
# 2 -0.003233 0.008182 -0.000396 -0.000027 -0.008892 0.000010
# 3 -0.005249 -0.000396 0.028912 0.000109 -0.009134 -0.000093
# 4 0.000040 -0.000027 0.000109 0.029342 -0.000055 -0.004882
# 5 0.005617 -0.008892 -0.009134 -0.000055 0.051811 0.000054
# 6 -0.000013 0.000010 -0.000093 -0.004882 0.000054 0.033917
#
#
# Mechanical properties :
#
#
# Convention : Reuss Voigt Hill
#
# Bulk Modulus (GPa) = 27.31850 42.18103 34.74977
# Shear Modulus (GPa) = 25.07663 32.54197 28.80930
#
# Velocity S-wave (km/s) = 3.60897 4.11122 3.86825
# Velocity P-wave (km/s) = 5.61741 6.66669 6.16441
#
# Compressibility (1/GPa) = 0.03660523
#
# Stress axis : x y z
#
# Youngs Moduli (GPa) = 57.91324 122.21928 34.58759
#
# Poissons Ratio (x) = 0.39509 0.18156
# Poissons Ratio (y) = 0.18721 0.01370
# Poissons Ratio (z) = 0.30400 0.04842
#
# Static dielectric constant tensor:
#      x y z
#    x 1.674490 0.000000 -0.034520 
#    y 0.000000 1.729730 0.000040 
#    z -0.034520 0.000040 1.666630 
# 
# From -- ./inp_files/128999.got.cif
#   From: 2010.05.17/outbox.cif.g08.bks.cpg/sg12_65_cif.got.tgz:128999.got - 2010.06.03 13:09:07.
