data_PCOD9205003
_publ_section_title
;
Structure prediction by ZEFSAII (Michael W. Deem and Ramdas Pophale) SiO2 
 PCOD9205003
Probable space group: C 2/M
;
_chemical_formula_sum "Si O2"
_cell_formula_units_Z 56
_cell_length_a 25.132129
_cell_length_b 29.299942
_cell_length_c 11.075563
_cell_angle_alpha 90.000000
_cell_angle_beta 159.697899
_cell_angle_gamma 90.000000
_cell_volume 2829.787558
_symmetry_space_group_name_H-M "C 2/M"
_symmetry_group_IT_number 12
_symmetry_cell_setting 'monoclinic'
loop_
_space_group_symop_operation_xyz
x,y,z
-x,y,-z
-x,-y,-z
x,-y,z
1/2+x,1/2+y,z
1/2-x,1/2+y,-z
1/2-x,1/2-y,-z
1/2+x,1/2-y,z
loop_
_atom_site_type_symbol
_atom_site_label
_atom_site_fract_x
_atom_site_fract_y
_atom_site_fract_z
Si Si1 0.328313 0.223329 0.971491
Si Si2 0.420377 0.052166 0.026428
Si Si3 0.660733 0.777877 0.408738
Si Si4 0.187468 0.862957 0.151909
Si Si5 0.520172 0.864421 0.396370
Si Si6 0.242048 0.551363 0.562259
Si Si7 0.543479 0.309436 0.471231
O O1 0.200780 0.246363 0.611377
O O2 0.220262 0.202845 0.844508
O O3 0.435842 0.180931 0.162215
O O4 0.440048 0.263818 0.247138
O O5 0.294542 0.062385 0.655234
O O6 0.397373 0.000000 0.021901
O O7 0.438210 0.090766 0.165706
O O8 0.579937 0.051880 0.290114
O O9 0.750000 0.750000 0.500000
O O10 0.725797 0.827520 0.576160
O O11 0.500000 0.782639 0.000000
O O12 0.305505 0.865386 0.287632
O O13 0.164501 0.910569 0.169154
O O14 0.023449 0.840635 0.775723
O O15 0.500000 0.863204 0.500000
O O16 0.303669 0.500000 0.699721
O O17 0.500000 0.334891 0.500000
#
# Coordination Sequence:
#
# PCOD9205003 Si02
#       7
#     8   8   8   8   8   8   8
#     4  11  22  36  51  77 103 143 183 217 268 320
#     4   8  16  30  51  81 110 141 175 222 275 320
#     4  11  22  34  50  74 107 136 171 218 271 316
#     4  10  21  34  56  82 107 142 181 223 273 316
#     4  11  21  34  54  81 111 145 183 223 267 321
#     4   8  15  30  54  81 109 137 177 222 270 326
#     4  11  21  37  55  74 106 143 184 224 260 316
#
# _framework density 19.789472
#
# number of rings (size 3 to 8) (size 9 to 14) (size 15 to 20)
#    0.000    2.000    0.000    6.857    6.000    0.286 
#    0.000    0.000    0.000    1.286    0.000    2.000 
#    0.000    0.000    0.000    0.000    0.000    0.000 
#
# Total GULP energy -155986.834174 kJ/mol
# GULP energy per Si atom -5570.958363 kJ/mol
# Density = 1.974443 g / cm^3
# Si number density = 19.789472 Si / 1000 Ang^3
#
#
#
# Elastic Constant Matrix: (Units=GPa)
#
#
# Indices 1 2 3 4 5 6 
#
# 1 46.1713 19.2746 6.2241 0.0000 -12.6841 0.0000
# 2 19.2746 119.2392 35.0601 0.0000 -24.1127 0.0000
# 3 6.2241 35.0601 49.2447 0.0000 -12.2131 0.0000
# 4 0.0000 0.0000 0.0000 3.9747 0.0000 -1.4540
# 5 -12.6841 -24.1127 -12.2131 0.0000 23.9754 0.0000
# 6 0.0000 0.0000 0.0000 -1.4540 0.0000 23.2117
#
#
#
# Elastic Compliance Matrix: (Units=1/GPa)
#
#
# Indices 1 2 3 4 5 6 
#
# 1 0.025689 -0.002058 0.001231 0.000000 0.012148 0.000000
# 2 -0.002058 0.012223 -0.006482 0.000000 0.007902 0.000000
# 3 0.001231 -0.006482 0.026682 0.000000 0.007723 0.000000
# 4 0.000000 0.000000 0.000000 0.257494 0.000000 0.016130
# 5 0.012148 0.007902 0.007723 0.000000 0.060018 0.000000
# 6 0.000000 0.000000 0.000000 0.016130 0.000000 0.044092
#
#
# Mechanical properties :
#
#
# Convention : Reuss Voigt Hill
#
# Bulk Modulus (GPa) = 20.00983 37.30806 28.65895
# Shear Modulus (GPa) = 10.92955 20.50546 15.71751
#
# Velocity S-wave (km/s) = 2.35264 3.22247 2.82128
# Velocity P-wave (km/s) = 4.18487 5.72181 5.01260
#
# Compressibility (1/GPa) = 0.04997544
#
# Stress axis : x y z
#
# Youngs Moduli (GPa) = 38.92735 81.81147 37.47866
#
# Poissons Ratio (x) = 0.16836 -0.04614
# Poissons Ratio (y) = 0.08011 0.24295
# Poissons Ratio (z) = -0.04792 0.53034
#
# Static dielectric constant tensor:
#      x y z
#    x 1.725480 0.000000 0.012460 
#    y 0.000000 1.721560 0.000000 
#    z 0.012460 0.000000 1.692740 
# 
# From -- ./inp_files/185167.got.cif
#   From: 2010.05.17/outbox.cif.g08.bks.cpg/sg12_93_cif.got.tgz:185167.got - 2010.06.03 13:09:07.
