data_PCOD9205071
_publ_section_title
;
Structure prediction by ZEFSAII (Michael W. Deem and Ramdas Pophale) SiO2 
 PCOD9205071
Probable space group: C 2/M
;
_chemical_formula_sum "Si O2"
_cell_formula_units_Z 56
_cell_length_a 8.108669
_cell_length_b 19.324898
_cell_length_c 26.108480
_cell_angle_alpha 90.000000
_cell_angle_beta 42.931899
_cell_angle_gamma 90.000000
_cell_volume 2786.618324
_symmetry_space_group_name_H-M "C 2/M"
_symmetry_group_IT_number 12
_symmetry_cell_setting 'monoclinic'
loop_
_space_group_symop_operation_xyz
x,y,z
-x,y,-z
-x,-y,-z
x,-y,z
1/2+x,1/2+y,z
1/2-x,1/2+y,-z
1/2-x,1/2-y,-z
1/2+x,1/2-y,z
loop_
_atom_site_type_symbol
_atom_site_label
_atom_site_fract_x
_atom_site_fract_y
_atom_site_fract_z
Si Si1 0.955682 0.805963 0.940308
Si Si2 0.595001 0.081611 0.036342
Si Si3 0.096907 0.327130 0.591240
Si Si4 0.479571 0.672664 0.590572
Si Si5 0.169926 0.920551 0.641054
Si Si6 0.036745 0.752987 0.169378
Si Si7 0.781632 0.858893 0.794900
O O1 0.019823 0.802559 0.865518
O O2 0.205611 0.779401 0.905626
O O3 0.750000 0.750000 0.000000
O O4 0.849363 0.878786 0.981113
O O5 0.407246 0.112783 0.120110
O O6 0.616235 0.000000 0.038733
O O7 0.500000 0.095404 0.000000
O O8 0.312862 0.328835 0.500371
O O9 0.227060 0.339720 0.616914
O O10 0.987722 0.249656 0.612892
O O11 0.893911 0.380416 0.616963
O O12 0.569664 0.619177 0.613508
O O13 0.947698 0.915545 0.731594
O O14 0.232265 0.000000 0.615666
O O15 0.056693 0.801398 0.213361
O O16 0.863180 0.687530 0.213043
#
# Coordination Sequence:
#
# PCOD9205071 Si02
#       7
#     8   8   8   8   8   8   8
#     4  11  17  34  59  86 104 139 195 260 305 367
#     4  11  21  35  56  82 116 155 195 250 317 379
#     4  10  21  41  74 106 132 171 224 272 315 388
#     4  10  21  41  72 107 134 168 223 274 320 381
#     4  12  27  44  64  96 143 183 216 272 340 400
#     4  10  21  34  62  84 109 145 206 264 308 364
#     4  11  24  39  57  89 120 160 208 261 318 388
#
# _framework density 20.096043000000002
#
# number of rings (size 3 to 8) (size 9 to 14) (size 15 to 20)
#    0.000    1.286    5.714    1.286    2.000    1.714 
#    2.571    3.571    0.000    0.000    0.000    0.000 
#    0.000    0.000    0.000    0.000    0.000    0.000 
#
# Total GULP energy -156274.602760 kJ/mol
# GULP energy per Si atom -5581.235813 kJ/mol
# Density = 2.005030 g / cm^3
# Si number density = 20.096043 Si / 1000 Ang^3
#
#
#
# Elastic Constant Matrix: (Units=GPa)
#
#
# Indices 1 2 3 4 5 6 
#
# 1 142.1537 62.7523 16.9835 -0.0031 -1.3919 -0.0008
# 2 62.7523 140.1081 21.2232 -0.0103 -1.3154 0.0027
# 3 16.9835 21.2232 50.0578 -0.0095 -3.1701 0.0048
# 4 -0.0031 -0.0103 -0.0095 20.5732 0.0032 -0.6989
# 5 -1.3919 -1.3154 -3.1701 0.0032 7.1487 -0.0004
# 6 -0.0008 0.0027 0.0048 -0.6989 -0.0004 27.0208
#
#
#
# Elastic Compliance Matrix: (Units=1/GPa)
#
#
# Indices 1 2 3 4 5 6 
#
# 1 0.008862 -0.003755 -0.001388 -0.000001 0.000419 0.000001
# 2 -0.003755 0.009218 -0.002648 0.000003 -0.000209 0.000000
# 3 -0.001388 -0.002648 0.022144 0.000007 0.009062 -0.000003
# 4 -0.000001 0.000003 0.000007 0.048650 -0.000019 0.001258
# 5 0.000419 -0.000209 0.009062 -0.000019 0.143947 0.000000
# 6 0.000001 0.000000 -0.000003 0.001258 0.000000 0.037041
#
#
# Mechanical properties :
#
#
# Convention : Reuss Voigt Hill
#
# Bulk Modulus (GPa) = 40.57904 59.35973 49.96938
# Shear Modulus (GPa) = 17.02658 26.37258 21.69958
#
# Velocity S-wave (km/s) = 2.91393 3.62654 3.28959
# Velocity P-wave (km/s) = 5.61763 6.86570 6.27278
#
# Compressibility (1/GPa) = 0.02464326
#
# Stress axis : x y z
#
# Youngs Moduli (GPa) = 112.83857 108.48043 45.15837
#
# Poissons Ratio (x) = 0.40735 0.06269
# Poissons Ratio (y) = 0.42371 0.11956
# Poissons Ratio (z) = 0.15664 0.28721
#
# Static dielectric constant tensor:
#      x y z
#    x 1.810980 -0.000010 -0.012510 
#    y -0.000010 1.676680 0.000010 
#    z -0.012510 0.000010 1.748030 
# 
# From -- ./inp_files/372771.got.cif
#   From: 2010.05.17/outbox.cif.g08.bks.cpg/sg12_187_cif.got.tgz:372771.got - 2010.06.03 13:09:07.
