data_PCOD9205082
_publ_section_title
;
Structure prediction by ZEFSAII (Michael W. Deem and Ramdas Pophale) SiO2 
 PCOD9205082
Probable space group: C 2/M
;
_chemical_formula_sum "Si O2"
_cell_formula_units_Z 60
_cell_length_a 23.965594
_cell_length_b 32.630882
_cell_length_c 5.096370
_cell_angle_alpha 90.000000
_cell_angle_beta 62.715811
_cell_angle_gamma 90.000000
_cell_volume 3542.048699
_symmetry_space_group_name_H-M "C 2/M"
_symmetry_group_IT_number 12
_symmetry_cell_setting 'monoclinic'
loop_
_space_group_symop_operation_xyz
x,y,z
-x,y,-z
-x,-y,-z
x,-y,z
1/2+x,1/2+y,z
1/2-x,1/2+y,-z
1/2-x,1/2-y,-z
1/2+x,1/2-y,z
loop_
_atom_site_type_symbol
_atom_site_label
_atom_site_fract_x
_atom_site_fract_y
_atom_site_fract_z
Si Si1 0.147486 0.263223 0.292797
Si Si2 0.769320 0.817690 0.933755
Si Si3 0.930052 0.255298 0.041618
Si Si4 0.082440 0.046317 0.591782
Si Si5 0.567810 0.657791 0.978512
Si Si6 0.500000 0.391341 0.500000
Si Si7 0.332647 0.453414 0.092441
Si Si8 0.798938 0.870196 0.382810
O O1 0.177161 0.217163 0.228151
O O2 0.119888 0.271381 0.639285
O O3 0.204206 0.293116 0.095186
O O4 0.091396 0.267998 0.202609
O O5 0.767108 0.851708 0.709677
O O6 0.783576 0.839962 0.175888
O O7 0.923026 0.206082 0.047429
O O8 0.000000 0.264376 0.000000
O O9 0.027724 0.077933 0.654555
O O10 0.110038 0.046613 0.823653
O O11 0.060908 0.000000 0.582705
O O12 0.138485 0.054779 0.258280
O O13 0.556583 0.637922 0.286801
O O14 0.500000 0.651205 0.000000
O O15 0.626639 0.635565 0.725873
O O16 0.306276 0.500000 0.151410
O O17 0.289717 0.416483 0.296372
#
# Coordination Sequence:
#
# PCOD9205082 Si02
#       8
#     8   8   8   8   8   4   8   8
#     4  11  21  40  52  77 103 129 171 207 256 298
#     4  11  23  35  58  73  98 135 167 217 248 294
#     4  11  23  35  55  74 104 133 165 205 260 309
#     4  10  21  35  48  63  86 125 167 210 268 318
#     4  11  24  31  47  68  98 128 168 220 266 309
#     4  12  23  32  46  64  92 126 164 224 272 304
#     4  10  21  36  51  68  94 123 162 215 261 308
#     4  12  21  37  52  75  94 130 176 210 264 303
#
# _framework density 16.939350000000001
#
# number of rings (size 3 to 8) (size 9 to 14) (size 15 to 20)
#    0.000    1.067    4.000    3.000    5.600    2.133 
#    0.000    2.000    0.000    0.000    0.000    0.000 
#    0.000    0.000    0.000    0.000    0.000   46.667 
#
# Total GULP energy -167527.505006 kJ/mol
# GULP energy per Si atom -5584.250167 kJ/mol
# Density = 1.690080 g / cm^3
# Si number density = 16.939350 Si / 1000 Ang^3
#
#
#
# Elastic Constant Matrix: (Units=GPa)
#
#
# Indices 1 2 3 4 5 6 
#
# 1 28.3375 14.5359 0.6355 0.0000 2.4780 0.0000
# 2 14.5359 64.7705 15.8800 0.0000 -7.7222 0.0000
# 3 0.6355 15.8800 63.3352 0.0000 4.7388 0.0000
# 4 0.0000 0.0000 0.0000 24.9137 0.0000 0.3324
# 5 2.4780 -7.7222 4.7388 0.0000 23.8838 0.0000
# 6 0.0000 0.0000 0.0000 0.3324 0.0000 15.9949
#
#
#
# Elastic Compliance Matrix: (Units=1/GPa)
#
#
# Indices 1 2 3 4 5 6 
#
# 1 0.041659 -0.011099 0.003001 0.000000 -0.008506 0.000000
# 2 -0.011099 0.020374 -0.005660 0.000000 0.008862 0.000000
# 3 0.003001 -0.005660 0.017600 0.000000 -0.005633 0.000000
# 4 0.000000 0.000000 0.000000 0.040150 0.000000 -0.000834
# 5 -0.008506 0.008862 -0.005633 0.000000 0.046735 0.000000
# 6 0.000000 0.000000 0.000000 -0.000834 0.000000 0.062537
#
#
# Mechanical properties :
#
#
# Convention : Reuss Voigt Hill
#
# Bulk Modulus (GPa) = 19.18765 24.28288 21.73527
# Shear Modulus (GPa) = 18.25199 21.31794 19.78496
#
# Velocity S-wave (km/s) = 3.28608 3.55136 3.42129
# Velocity P-wave (km/s) = 5.07440 5.58413 5.33536
#
# Compressibility (1/GPa) = 0.05211685
#
# Stress axis : x y z
#
# Youngs Moduli (GPa) = 24.00450 49.08140 56.81961
#
# Poissons Ratio (x) = 0.54476 -0.17054
# Poissons Ratio (y) = 0.26643 0.32161
# Poissons Ratio (z) = -0.07205 0.27781
#
# Static dielectric constant tensor:
#      x y z
#    x 1.592150 0.000000 0.049340 
#    y 0.000000 1.598100 0.000000 
#    z 0.049340 0.000000 1.645790 
# 
# From -- ./inp_files/26638.got.cif
#   From: 2010.05.17/outbox.cif.g08.bks.cpg/sg12_14_cif.got.tgz:26638.got - 2010.06.03 13:09:07.
