data_PCOD9205869
_publ_section_title
;
Structure prediction by ZEFSAII (Michael W. Deem and Ramdas Pophale) SiO2 
 PCOD9205869
Probable space group: C 2/M
;
_chemical_formula_sum "Si O2"
_cell_formula_units_Z 52
_cell_length_a 19.129292
_cell_length_b 28.889886
_cell_length_c 5.599479
_cell_angle_alpha 90.000000
_cell_angle_beta 103.182940
_cell_angle_gamma 90.000000
_cell_volume 3012.963072
_symmetry_space_group_name_H-M "C 2/M"
_symmetry_group_IT_number 12
_symmetry_cell_setting 'monoclinic'
loop_
_space_group_symop_operation_xyz
x,y,z
-x,y,-z
-x,-y,-z
x,-y,z
1/2+x,1/2+y,z
1/2-x,1/2+y,-z
1/2-x,1/2-y,-z
1/2+x,1/2-y,z
loop_
_atom_site_type_symbol
_atom_site_label
_atom_site_fract_x
_atom_site_fract_y
_atom_site_fract_z
Si Si1 0.793540 0.815022 0.615352
Si Si2 0.311189 0.746859 0.243018
Si Si3 0.917154 0.247664 0.940510
Si Si4 0.805766 0.604828 0.376697
Si Si5 0.062719 0.333297 0.391391
Si Si6 0.658343 0.945827 0.089046
Si Si7 0.500000 0.910154 0.000000
O O1 0.721205 0.784287 0.601301
O O2 0.811280 0.804129 0.354565
O O3 0.861795 0.791385 0.799204
O O4 0.768116 0.865810 0.663273
O O5 0.250000 0.750000 0.000000
O O6 0.385987 0.757908 0.178960
O O7 0.912761 0.294626 0.780833
O O8 0.000000 0.233067 0.000000
O O9 0.872203 0.641239 0.424508
O O10 0.810353 0.576702 0.131414
O O11 0.816677 0.577580 0.638749
O O12 0.000000 0.311630 0.500000
O O13 0.022097 0.375484 0.227796
O O14 0.571840 0.938924 0.004608
O O15 0.675460 0.000000 0.109835
#
# Coordination Sequence:
#
# PCOD9205869 Si02
#       7
#     8   8   8   8   8   8   4
#     4  10  22  36  53  79 108 157 198 245 292 342
#     4   9  19  35  51  75 111 149 198 239 280 335
#     4  11  24  33  55  78 120 154 201 252 281 343
#     4  11  24  38  63  81 112 156 197 247 294 363
#     4  11  21  34  49  82 112 157 210 237 278 326
#     4  11  24  41  60  87 116 149 196 256 310 354
#     4  10  21  36  54  78 116 160 196 244 285 352
#
# _framework density 17.258756999999999
#
# number of rings (size 3 to 8) (size 9 to 14) (size 15 to 20)
#    0.000    1.538    2.308    3.462   12.923    0.000 
#    0.000    2.308    0.000    0.000    0.000    0.000 
#    0.000    3.692    0.000    0.000    0.000    0.000 
#
# Total GULP energy -144792.169279 kJ/mol
# GULP energy per Si atom -5568.929588 kJ/mol
# Density = 1.721948 g / cm^3
# Si number density = 17.258757 Si / 1000 Ang^3
#
#
#
# Elastic Constant Matrix: (Units=GPa)
#
#
# Indices 1 2 3 4 5 6 
#
# 1 112.2218 52.1931 43.7071 0.0000 -8.4378 0.0000
# 2 52.1931 102.5399 44.5153 0.0000 -9.0298 0.0000
# 3 43.7071 44.5153 75.8461 0.0000 -16.0876 0.0000
# 4 0.0000 0.0000 0.0000 20.7871 0.0000 -2.8825
# 5 -8.4378 -9.0298 -16.0876 0.0000 35.3063 0.0000
# 6 0.0000 0.0000 0.0000 -2.8825 0.0000 23.9436
#
#
#
# Elastic Compliance Matrix: (Units=1/GPa)
#
#
# Indices 1 2 3 4 5 6 
#
# 1 0.012853 -0.004463 -0.004846 0.000000 -0.000278 0.000000
# 2 -0.004463 0.014637 -0.006034 0.000000 -0.000073 0.000000
# 3 -0.004846 -0.006034 0.020973 0.000000 0.006855 0.000000
# 4 0.000000 0.000000 0.000000 0.048923 0.000000 0.005890
# 5 -0.000278 -0.000073 0.006855 0.000000 0.031362 0.000000
# 6 0.000000 0.000000 0.000000 0.005890 0.000000 0.042474
#
#
# Mechanical properties :
#
#
# Convention : Reuss Voigt Hill
#
# Bulk Modulus (GPa) = 56.25543 63.49320 59.87431
# Shear Modulus (GPa) = 24.05745 26.02021 25.03883
#
# Velocity S-wave (km/s) = 3.73758 3.88706 3.81306
# Velocity P-wave (km/s) = 7.16185 7.55080 7.35889
#
# Compressibility (1/GPa) = 0.01777606
#
# Stress axis : x y z
#
# Youngs Moduli (GPa) = 77.80181 68.31897 47.68004
#
# Poissons Ratio (x) = 0.30489 0.23108
# Poissons Ratio (y) = 0.34721 0.28772
# Poissons Ratio (z) = 0.37706 0.41227
#
# Static dielectric constant tensor:
#      x y z
#    x 1.632170 0.000000 -0.021680 
#    y 0.000000 1.602040 0.000000 
#    z -0.021680 0.000000 1.737440 
# 
# From -- ./inp_files/17394.got.cif
#   From: 2010.05.17/outbox.cif.g08.bks.cpg/sg12_9_cif.got.tgz:17394.got - 2010.06.03 13:09:07.
