data_PCOD9205103
_publ_section_title
;
Structure prediction by ZEFSAII (Michael W. Deem and Ramdas Pophale) SiO2 
 PCOD9205103
Probable space group: C 2/M
;
_chemical_formula_sum "Si O2"
_cell_formula_units_Z 58
_cell_length_a 14.496200
_cell_length_b 7.681358
_cell_length_c 20.848681
_cell_angle_alpha 90.000000
_cell_angle_beta 78.433564
_cell_angle_gamma 90.000000
_cell_volume 2274.367872
_symmetry_space_group_name_H-M "C 2/M"
_symmetry_group_IT_number 12
_symmetry_cell_setting 'monoclinic'
loop_
_space_group_symop_operation_xyz
x,y,z
-x,y,-z
-x,-y,-z
x,-y,z
1/2+x,1/2+y,z
1/2-x,1/2+y,-z
1/2-x,1/2-y,-z
1/2+x,1/2-y,z
loop_
_atom_site_type_symbol
_atom_site_label
_atom_site_fract_x
_atom_site_fract_y
_atom_site_fract_z
Si Si1 0.460280 0.289037 0.171275
Si Si2 0.038218 0.803807 0.691010
Si Si3 0.636265 0.703873 0.949781
Si Si4 0.819658 0.691787 0.585758
Si Si5 0.873446 0.293354 0.449530
Si Si6 0.812613 0.192197 0.730104
Si Si7 0.500000 0.000000 0.000000
Si Si8 0.177362 0.786833 0.134754
O O1 0.460248 0.500000 0.176335
O O2 0.425497 0.225190 0.246546
O O3 0.401826 0.244551 0.116674
O O4 0.568417 0.233377 0.144776
O O5 0.053815 0.724118 0.618846
O O6 0.926560 0.812729 0.717138
O O7 0.076710 0.000000 0.681060
O O8 0.580575 0.844520 0.998678
O O9 0.748196 0.726475 0.927826
O O10 0.114363 0.000000 0.966827
O O11 0.857651 0.500000 0.591835
O O12 0.886911 0.772607 0.520979
O O13 0.718964 0.699739 0.564991
O O14 0.796306 0.757803 0.659426
O O15 0.854665 0.500000 0.458191
O O16 0.787697 0.284247 0.800071
O O17 0.773240 0.000000 0.741946
O O18 0.177632 0.000000 0.134732
#
# Coordination Sequence:
#
# PCOD9205103 Si02
#       8
#     8   8   8   8   8   8   2   8
#     4   8  18  38  65  92 127 165 208 253 312 372
#     4   9  18  35  56  82 111 148 192 245 298 361
#     4  11  23  43  72  98 132 174 209 258 308 362
#     4  10  21  35  50  69 105 149 195 249 303 360
#     4  10  21  35  49  71 104 147 196 249 303 362
#     4   9  19  34  56  83 113 148 193 243 300 362
#     4  12  26  48  68 102 140 166 218 252 300 374
#     4   9  18  39  65  93 129 166 205 260 314 366
#
# _framework density 25.501591999999999
#
# number of rings (size 3 to 8) (size 9 to 14) (size 15 to 20)
#    0.000    2.483    0.690    2.690    1.931    3.310 
#    2.483    4.828    0.000    0.000    0.000    0.000 
#    0.000    0.000    0.000    0.000    0.000    0.000 
#
# Total GULP energy -161534.819272 kJ/mol
# GULP energy per Si atom -5570.166182 kJ/mol
# Density = 2.544355 g / cm^3
# Si number density = 25.501592 Si / 1000 Ang^3
#
#
#
# Elastic Constant Matrix: (Units=GPa)
#
#
# Indices 1 2 3 4 5 6 
#
# 1 61.0841 2.1643 29.7630 0.0000 -15.2013 0.0000
# 2 2.1643 85.4830 19.6177 0.0000 -8.5121 0.0000
# 3 29.7630 19.6177 172.3120 0.0000 -2.9059 0.0000
# 4 0.0000 0.0000 0.0000 -6.6399 0.0000 -7.5719
# 5 -15.2013 -8.5121 -2.9059 0.0000 45.3824 0.0000
# 6 0.0000 0.0000 0.0000 -7.5719 0.0000 1.7538
#
#
#
# Elastic Compliance Matrix: (Units=1/GPa)
#
#
# Indices 1 2 3 4 5 6 
#
# 1 0.019610 0.000930 -0.003383 0.000000 0.006527 0.000000
# 2 0.000930 0.012273 -0.001515 0.000000 0.002516 0.000000
# 3 -0.003383 -0.001515 0.006543 0.000000 -0.000998 0.000000
# 4 0.000000 0.000000 0.000000 -0.025425 0.000000 -0.109772
# 5 0.006527 0.002516 -0.000998 0.000000 0.024629 0.000000
# 6 0.000000 0.000000 0.000000 -0.109772 0.000000 0.096261
#
#
# Mechanical properties :
#
#
# Convention : Reuss Voigt Hill
#
# Bulk Modulus (GPa) = 32.79814 46.88545 39.84179
# Shear Modulus (GPa) = 32.89639 25.92153 29.40896
#
# Velocity S-wave (km/s) = 3.59552 3.19167 3.39959
# Velocity P-wave (km/s) = 5.48873 5.65752 5.57376
#
# Compressibility (1/GPa) = 0.03048954
#
# Stress axis : x y z
#
# Youngs Moduli (GPa) = 50.99312 81.47938 152.82421
#
# Poissons Ratio (x) = -0.07576 0.51701
# Poissons Ratio (y) = -0.04741 0.23160
# Poissons Ratio (z) = 0.17251 0.12348
#
# Static dielectric constant tensor:
#      x y z
#    x 2.041450 0.000000 0.038540 
#    y 0.000000 1.969620 0.000000 
#    z 0.038540 0.000000 2.198670 
# 
# From -- ./inp_files/313929.got.cif
#   From: 2010.05.17/outbox.cif.g08.bks.cpg/sg12_157_cif.got.tgz:313929.got - 2010.06.03 13:09:07.
