data_PCOD9205348
_publ_section_title
;
Structure prediction by ZEFSAII (Michael W. Deem and Ramdas Pophale) SiO2 
 PCOD9205348
Probable space group: C 2/M
;
_chemical_formula_sum "Si O2"
_cell_formula_units_Z 52
_cell_length_a 15.961030
_cell_length_b 21.172401
_cell_length_c 10.543121
_cell_angle_alpha 90.000000
_cell_angle_beta 128.022680
_cell_angle_gamma 90.000000
_cell_volume 2806.712914
_symmetry_space_group_name_H-M "C 2/M"
_symmetry_group_IT_number 12
_symmetry_cell_setting 'monoclinic'
loop_
_space_group_symop_operation_xyz
x,y,z
-x,y,-z
-x,-y,-z
x,-y,z
1/2+x,1/2+y,z
1/2-x,1/2+y,-z
1/2-x,1/2-y,-z
1/2+x,1/2-y,z
loop_
_atom_site_type_symbol
_atom_site_label
_atom_site_fract_x
_atom_site_fract_y
_atom_site_fract_z
Si Si1 0.779219 0.377499 0.288140
Si Si2 0.157994 0.000000 0.239511
Si Si3 0.931587 0.000000 0.133312
Si Si4 0.885126 0.655565 0.932220
Si Si5 0.706915 0.616958 0.933869
Si Si6 0.667651 0.261817 0.310784
Si Si7 0.938163 0.240467 0.196358
Si Si8 0.000000 0.679859 0.500000
O O1 0.728779 0.437278 0.311688
O O2 0.767165 0.387423 0.125760
O O3 0.712276 0.315373 0.260334
O O4 0.899427 0.363171 0.440821
O O5 0.058835 0.000000 0.242627
O O6 0.109014 0.000000 0.051031
O O7 0.880951 0.062072 0.148572
O O8 0.846176 0.696489 0.776921
O O9 0.793655 0.611553 0.903456
O O10 0.902987 0.707541 0.060399
O O11 0.000000 0.627858 0.000000
O O12 0.646516 0.684355 0.870253
O O13 0.750000 0.250000 0.500000
O O14 0.552696 0.283453 0.254234
O O15 0.959961 0.276124 0.348309
#
# Coordination Sequence:
#
# PCOD9205348 Si02
#       8
#     8   4   4   8   8   8   8   4
#     4  11  21  36  57  83 120 147 190 236 290 346
#     4   9  20  37  58  85 114 149 182 242 291 335
#     4   9  20  36  61  88 105 144 202 237 277 343
#     4  10  21  35  54  81 116 151 184 234 296 342
#     4  11  20  37  60  83 113 151 192 239 285 343
#     4  11  21  34  53  86 118 146 186 239 294 341
#     4  11  21  33  56  84 117 150 186 236 292 344
#     4  12  22  33  54  89 116 152 190 234 288 352
#
# _framework density 18.527010000000001
#
# number of rings (size 3 to 8) (size 9 to 14) (size 15 to 20)
#    0.000    1.385    4.615    2.308    0.000    1.538 
#    0.000    0.385    0.000    1.385    0.000    0.000 
#    0.000    0.000    0.000    0.000    0.000    0.000 
#
# Total GULP energy -145171.939377 kJ/mol
# GULP energy per Si atom -5583.536130 kJ/mol
# Density = 1.848484 g / cm^3
# Si number density = 18.527010 Si / 1000 Ang^3
#
#
#
# Elastic Constant Matrix: (Units=GPa)
#
#
# Indices 1 2 3 4 5 6 
#
# 1 142.2388 44.5569 14.9390 0.0000 27.8820 0.0000
# 2 44.5569 59.0748 10.6595 0.0000 18.0716 0.0000
# 3 14.9390 10.6595 65.6844 0.0000 -0.9303 0.0000
# 4 0.0000 0.0000 0.0000 14.0215 0.0000 1.3121
# 5 27.8820 18.0716 -0.9303 0.0000 34.9521 0.0000
# 6 0.0000 0.0000 0.0000 1.3121 0.0000 22.5740
#
#
#
# Elastic Compliance Matrix: (Units=1/GPa)
#
#
# Indices 1 2 3 4 5 6 
#
# 1 0.009954 -0.005717 -0.001407 0.000000 -0.005021 0.000000
# 2 -0.005717 0.024187 -0.002738 0.000000 -0.008017 0.000000
# 3 -0.001407 -0.002738 0.016031 0.000000 0.002965 0.000000
# 4 0.000000 0.000000 0.000000 0.071709 0.000000 -0.004168
# 5 -0.005021 -0.008017 0.002965 0.000000 0.036841 0.000000
# 6 0.000000 0.000000 0.000000 -0.004168 0.000000 0.044541
#
#
# Mechanical properties :
#
#
# Convention : Reuss Voigt Hill
#
# Bulk Modulus (GPa) = 32.84568 45.25654 39.05111
# Shear Modulus (GPa) = 21.44675 27.43237 24.43956
#
# Velocity S-wave (km/s) = 3.40603 3.85212 3.63592
# Velocity P-wave (km/s) = 5.76499 6.65323 6.22497
#
# Compressibility (1/GPa) = 0.03044541
#
# Stress axis : x y z
#
# Youngs Moduli (GPa) = 100.46683 41.34496 62.38032
#
# Poissons Ratio (x) = 0.23639 0.08777
# Poissons Ratio (y) = 0.57441 0.17082
# Poissons Ratio (z) = 0.14136 0.11322
#
# Static dielectric constant tensor:
#      x y z
#    x 1.679450 0.000000 0.008670 
#    y 0.000000 1.621050 0.000000 
#    z 0.008670 0.000000 1.634580 
# 
# From -- ./inp_files/147756.got.cif
#   From: 2010.05.17/outbox.cif.g08.bks.cpg/sg12_74_cif.got.tgz:147756.got - 2010.06.03 13:09:07.
