data_PCOD9205912
_publ_section_title
;
Structure prediction by ZEFSAII (Michael W. Deem and Ramdas Pophale) SiO2 
 PCOD9205912
Probable space group: C 2/M
;
_chemical_formula_sum "Si O2"
_cell_formula_units_Z 64
_cell_length_a 31.460430
_cell_length_b 9.067504
_cell_length_c 16.008619
_cell_angle_alpha 90.000000
_cell_angle_beta 134.607162
_cell_angle_gamma 90.000000
_cell_volume 3251.236922
_symmetry_space_group_name_H-M "C 2/M"
_symmetry_group_IT_number 12
_symmetry_cell_setting 'monoclinic'
loop_
_space_group_symop_operation_xyz
x,y,z
-x,y,-z
-x,-y,-z
x,-y,z
1/2+x,1/2+y,z
1/2-x,1/2+y,-z
1/2-x,1/2-y,-z
1/2+x,1/2-y,z
loop_
_atom_site_type_symbol
_atom_site_label
_atom_site_fract_x
_atom_site_fract_y
_atom_site_fract_z
Si Si1 0.003243 0.825181 0.682916
Si Si2 0.122602 0.173947 0.550491
Si Si3 0.570336 0.175045 0.086587
Si Si4 0.309573 0.171366 0.049749
Si Si5 0.913928 0.669757 0.331838
Si Si6 0.397069 0.323728 0.042449
Si Si7 0.660505 0.326423 0.328591
Si Si8 0.211589 0.326786 0.563801
O O1 0.031058 0.731949 0.645722
O O2 0.043131 0.793821 0.819465
O O3 0.932698 0.796050 0.589305
O O4 0.010320 0.000000 0.674261
O O5 0.100276 0.229005 0.609086
O O6 0.180851 0.262055 0.603104
O O7 0.134188 0.000000 0.566737
O O8 0.605189 0.242181 0.213106
O O9 0.580324 0.000000 0.095032
O O10 0.500000 0.202173 0.000000
O O11 0.594067 0.252687 0.035538
O O12 0.357856 0.175147 0.191275
O O13 0.341814 0.253869 0.017222
O O14 0.297973 0.000000 0.012817
O O15 0.250000 0.250000 0.000000
O O16 0.923510 0.500000 0.370255
O O17 0.389775 0.500000 0.026231
O O18 0.648325 0.500000 0.320983
O O19 0.717370 0.307460 0.345236
O O20 0.682337 0.259779 0.446019
O O21 0.199124 0.500000 0.538505
#
# Coordination Sequence:
#
# PCOD9205912 Si02
#       8
#     8   8   8   8   8   8   8   8
#     4   9  20  37  56  81 115 152 191 236 285 345
#     4  11  22  35  56  86 116 152 195 237 285 346
#     4  11  25  42  62  92 125 159 202 253 307 361
#     4  10  21  38  60  85 116 154 197 244 296 357
#     4  10  21  36  54  81 114 150 190 236 288 343
#     4  10  21  39  61  86 117 156 199 245 301 360
#     4  10  22  42  65  87 118 156 196 243 299 359
#     4  10  22  40  62  89 118 153 196 245 298 353
#
# _framework density 19.684816999999999
#
# number of rings (size 3 to 8) (size 9 to 14) (size 15 to 20)
#    0.000    1.875    0.000    3.000    1.750    8.000 
#    0.000    1.250    0.000    0.000    0.000    0.000 
#    0.000    0.000    0.000    0.000    0.000    0.000 
#
# Total GULP energy -178855.614583 kJ/mol
# GULP energy per Si atom -5589.237956 kJ/mol
# Density = 1.964001 g / cm^3
# Si number density = 19.684817 Si / 1000 Ang^3
#
#
#
# Elastic Constant Matrix: (Units=GPa)
#
#
# Indices 1 2 3 4 5 6 
#
# 1 46.6732 33.8165 5.9153 0.0000 8.4698 0.0000
# 2 33.8165 79.9433 30.4121 0.0000 17.9489 0.0000
# 3 5.9153 30.4121 39.7531 0.0000 5.0636 0.0000
# 4 0.0000 0.0000 0.0000 30.4169 0.0000 -1.8941
# 5 8.4698 17.9489 5.0636 0.0000 19.4946 0.0000
# 6 0.0000 0.0000 0.0000 -1.8941 0.0000 36.0063
#
#
#
# Elastic Compliance Matrix: (Units=1/GPa)
#
#
# Indices 1 2 3 4 5 6 
#
# 1 0.032634 -0.016632 0.007988 0.000000 -0.000940 0.000000
# 2 -0.016632 0.030137 -0.018582 0.000000 -0.015695 0.000000
# 3 0.007988 -0.018582 0.037692 0.000000 0.003848 0.000000
# 4 0.000000 0.000000 0.000000 0.032984 0.000000 0.001735
# 5 -0.000940 -0.015695 0.003848 0.000000 0.065156 0.000000
# 6 0.000000 0.000000 0.000000 0.001735 0.000000 0.027864
#
#
# Mechanical properties :
#
#
# Convention : Reuss Voigt Hill
#
# Bulk Modulus (GPa) = 21.73375 34.07305 27.90340
# Shear Modulus (GPa) = 16.87725 23.59862 20.23793
#
# Velocity S-wave (km/s) = 2.93127 3.46616 3.20988
# Velocity P-wave (km/s) = 4.74566 5.77632 5.28617
#
# Compressibility (1/GPa) = 0.04601139
#
# Stress axis : x y z
#
# Youngs Moduli (GPa) = 30.64242 33.18178 26.53088
#
# Poissons Ratio (x) = 0.55189 -0.21192
# Poissons Ratio (y) = 0.50965 0.49298
# Poissons Ratio (z) = -0.24477 0.61657
#
# Static dielectric constant tensor:
#      x y z
#    x 1.665440 0.000000 0.013360 
#    y 0.000000 1.652540 0.000000 
#    z 0.013360 0.000000 1.693450 
# 
# From -- ./inp_files/250105.got.cif
#   From: 2010.05.17/outbox.cif.g08.bks.cpg/sg12_126_cif.got.tgz:250105.got - 2010.06.03 13:09:07.
