data_PCOD9205194
_publ_section_title
;
Structure prediction by ZEFSAII (Michael W. Deem and Ramdas Pophale) SiO2 
 PCOD9205194
Probable space group: C 2/M
;
_chemical_formula_sum "Si O2"
_cell_formula_units_Z 64
_cell_length_a 14.932040
_cell_length_b 8.486053
_cell_length_c 27.504824
_cell_angle_alpha 90.000000
_cell_angle_beta 103.348442
_cell_angle_gamma 90.000000
_cell_volume 3391.091157
_symmetry_space_group_name_H-M "C 2/M"
_symmetry_group_IT_number 12
_symmetry_cell_setting 'monoclinic'
loop_
_space_group_symop_operation_xyz
x,y,z
-x,y,-z
-x,-y,-z
x,-y,z
1/2+x,1/2+y,z
1/2-x,1/2+y,-z
1/2-x,1/2-y,-z
1/2+x,1/2-y,z
loop_
_atom_site_type_symbol
_atom_site_label
_atom_site_fract_x
_atom_site_fract_y
_atom_site_fract_z
Si Si1 0.969271 0.687879 0.247097
Si Si2 0.847683 0.812620 0.691992
Si Si3 0.285175 0.309603 0.577745
Si Si4 0.264928 0.686355 0.231167
Si Si5 0.553572 0.189806 0.866115
Si Si6 0.764149 0.190367 0.877232
Si Si7 0.602754 0.190416 0.498806
Si Si8 0.947457 0.189173 0.946046
O O1 0.980469 0.500000 0.251947
O O2 0.864883 0.732255 0.246915
O O3 0.982778 0.734042 0.192044
O O4 0.044914 0.771709 0.289303
O O5 0.808194 0.758279 0.635193
O O6 0.796088 0.732371 0.730501
O O7 0.834570 0.000000 0.694027
O O8 0.287684 0.500000 0.576884
O O9 0.360243 0.247862 0.548688
O O10 0.183600 0.259944 0.546501
O O11 0.277376 0.500000 0.230610
O O12 0.220360 0.742750 0.174812
O O13 0.661346 0.234518 0.880220
O O14 0.501178 0.267477 0.903857
O O15 0.546866 0.000000 0.869222
O O16 0.842914 0.244234 0.924122
O O17 0.766418 0.000000 0.873913
O O18 0.500000 0.245159 0.500000
O O19 0.600965 0.000000 0.498132
O O20 0.944103 0.000000 0.950088
O O21 0.000000 0.252630 0.000000
#
# Coordination Sequence:
#
# PCOD9205194 Si02
#       8
#     8   8   8   8   8   8   8   8
#     4  10  21  38  58  81 109 142 183 227 273 325
#     4  11  22  36  54  80 117 152 182 223 273 322
#     4   9  20  36  53  79 111 141 178 224 270 316
#     4  11  22  36  56  83 111 143 185 224 269 329
#     4   9  19  35  54  75 100 133 172 216 266 319
#     4   9  19  37  56  74 104 142 176 217 270 321
#     4   9  18  35  58  80 104 140 184 225 267 316
#     4  10  21  35  52  76 104 135 173 217 267 321
#
# _framework density 18.872980999999999
#
# number of rings (size 3 to 8) (size 9 to 14) (size 15 to 20)
#    0.000    2.250    0.000    3.375    0.000    8.000 
#    0.000    1.250    0.000    0.000    0.000    0.000 
#    0.000    0.000    0.000    0.000    0.000    0.000 
#
# Total GULP energy -178638.877093 kJ/mol
# GULP energy per Si atom -5582.464909 kJ/mol
# Density = 1.883003 g / cm^3
# Si number density = 18.872981 Si / 1000 Ang^3
#
#
#
# Elastic Constant Matrix: (Units=GPa)
#
#
# Indices 1 2 3 4 5 6 
#
# 1 70.5084 -2.3956 21.5508 0.0000 13.5602 0.0000
# 2 -2.3956 7.2603 4.2123 0.0000 2.0041 0.0000
# 3 21.5508 4.2123 60.0689 0.0000 25.8153 0.0000
# 4 0.0000 0.0000 0.0000 21.5536 0.0000 -5.6427
# 5 13.5602 2.0041 25.8153 0.0000 15.1706 0.0000
# 6 0.0000 0.0000 0.0000 -5.6427 0.0000 29.8229
#
#
#
# Elastic Compliance Matrix: (Units=1/GPa)
#
#
# Indices 1 2 3 4 5 6 
#
# 1 0.017917 0.010590 0.001166 0.000000 -0.019397 0.000000
# 2 0.010590 0.150027 -0.006455 0.000000 -0.018302 0.000000
# 3 0.001166 -0.006455 0.062390 0.000000 -0.106357 0.000000
# 4 0.000000 0.000000 0.000000 0.048814 0.000000 0.009236
# 5 -0.019397 -0.018302 -0.106357 0.000000 0.266658 0.000000
# 6 0.000000 0.000000 0.000000 0.009236 0.000000 0.035279
#
#
# Mechanical properties :
#
#
# Convention : Reuss Voigt Hill
#
# Bulk Modulus (GPa) = 4.15048 20.50808 12.32928
# Shear Modulus (GPa) = 7.68293 20.94074 14.31184
#
# Velocity S-wave (km/s) = 2.01983 3.33462 2.75676
# Velocity P-wave (km/s) = 2.76469 5.07112 4.08410
#
# Compressibility (1/GPa) = 0.24093584
#
# Stress axis : x y z
#
# Youngs Moduli (GPa) = 55.81379 6.66548 16.02818
#
# Poissons Ratio (x) = -0.07059 -0.01868
# Poissons Ratio (y) = -0.59107 0.10346
# Poissons Ratio (z) = -0.06506 0.04302
#
# Static dielectric constant tensor:
#      x y z
#    x 1.645220 0.000000 0.027740 
#    y 0.000000 1.639360 0.000000 
#    z 0.027740 0.000000 1.644090 
# 
# From -- ./inp_files/359969.got.cif
#   From: 2010.05.17/outbox.cif.g08.bks.cpg/sg12_180_cif.got.tgz:359969.got - 2010.06.03 13:09:07.
