data_PCOD9205792
_publ_section_title
;
Structure prediction by ZEFSAII (Michael W. Deem and Ramdas Pophale) SiO2 
 PCOD9205792
Probable space group: C 2/M
;
_chemical_formula_sum "Si O2"
_cell_formula_units_Z 56
_cell_length_a 27.564778
_cell_length_b 9.544266
_cell_length_c 18.548055
_cell_angle_alpha 90.000000
_cell_angle_beta 32.878575
_cell_angle_gamma 90.000000
_cell_volume 2649.010068
_symmetry_space_group_name_H-M "C 2/M"
_symmetry_group_IT_number 12
_symmetry_cell_setting 'monoclinic'
loop_
_space_group_symop_operation_xyz
x,y,z
-x,y,-z
-x,-y,-z
x,-y,z
1/2+x,1/2+y,z
1/2-x,1/2+y,-z
1/2-x,1/2-y,-z
1/2+x,1/2-y,z
loop_
_atom_site_type_symbol
_atom_site_label
_atom_site_fract_x
_atom_site_fract_y
_atom_site_fract_z
Si Si1 0.763912 0.838667 0.911433
Si Si2 0.859307 0.169560 0.651219
Si Si3 0.763849 0.833410 0.556792
Si Si4 0.555494 0.841936 0.003675
Si Si5 0.560250 0.841646 0.150882
Si Si6 0.040193 0.837951 0.611398
Si Si7 0.704856 0.665297 0.762177
O O1 0.664931 0.827701 0.999650
O O2 0.777984 0.000000 0.913892
O O3 0.750000 0.750000 0.000000
O O4 0.841903 0.801175 0.757397
O O5 0.944250 0.196481 0.492944
O O6 0.786037 0.267275 0.705002
O O7 0.842242 0.000000 0.664330
O O8 0.750000 0.750000 0.500000
O O9 0.864367 0.821044 0.465393
O O10 0.702415 0.754501 0.691685
O O11 0.744894 0.000000 0.574090
O O12 0.508430 0.822273 0.139920
O O13 0.598337 0.000000 0.955068
O O14 0.500000 0.847180 0.000000
O O15 0.618223 0.708747 0.914512
O O16 0.530441 0.745586 0.253316
O O17 0.545689 0.000000 0.193752
O O18 0.015756 0.000000 0.644127
O O19 0.714423 0.500000 0.738536
#
# Coordination Sequence:
#
# PCOD9205792 Si02
#       7
#     8   8   8   8   8   8   8
#     4  10  21  39  64  90 116 148 191 237 290 352
#     4   9  18  39  62  80 112 155 192 231 280 346
#     4  10  21  36  53  76 110 153 199 245 290 343
#     4  10  21  37  56  78 109 157 200 234 289 350
#     4  10  21  38  59  85 118 153 191 241 295 349
#     4   9  20  36  57  82 111 150 191 237 291 340
#     4  11  21  33  53  81 110 146 191 242 289 336
#
# _framework density 21.139973999999999
#
# number of rings (size 3 to 8) (size 9 to 14) (size 15 to 20)
#    0.000    2.143    1.429    2.571    2.000    4.857 
#    0.000    0.714    0.000    4.286    0.000    0.000 
#    0.000    0.000    0.000    0.000    0.000    0.000 
#
# Total GULP energy -156032.860118 kJ/mol
# GULP energy per Si atom -5572.602147 kJ/mol
# Density = 2.109186 g / cm^3
# Si number density = 21.139974 Si / 1000 Ang^3
#
#
#
# Elastic Constant Matrix: (Units=GPa)
#
#
# Indices 1 2 3 4 5 6 
#
# 1 65.2213 31.6095 36.3542 -0.0009 31.6828 0.0011
# 2 31.6095 76.9036 59.1740 -0.0012 21.7123 0.0013
# 3 36.3542 59.1740 141.3326 -0.0016 35.0655 0.0020
# 4 -0.0009 -0.0012 -0.0016 36.9015 0.0001 8.4006
# 5 31.6828 21.7123 35.0655 0.0001 41.2083 -0.0003
# 6 0.0011 0.0013 0.0020 8.4006 -0.0003 25.7089
#
#
#
# Elastic Compliance Matrix: (Units=1/GPa)
#
#
# Indices 1 2 3 4 5 6 
#
# 1 0.026693 -0.006059 -0.000037 0.000001 -0.017298 -0.000001
# 2 -0.006059 0.021135 -0.007204 0.000000 -0.000347 0.000000
# 3 -0.000037 -0.007204 0.011602 0.000000 -0.006048 -0.000001
# 4 0.000001 0.000000 0.000000 0.029277 -0.000001 -0.009566
# 5 -0.017298 -0.000347 -0.006048 -0.000001 0.042896 0.000002
# 6 -0.000001 0.000000 -0.000001 -0.009566 0.000002 0.042023
#
#
# Mechanical properties :
#
#
# Convention : Reuss Voigt Hill
#
# Bulk Modulus (GPa) = 30.46108 59.74806 45.10457
# Shear Modulus (GPa) = 23.67762 31.18507 27.43134
#
# Velocity S-wave (km/s) = 3.35033 3.84496 3.60614
# Velocity P-wave (km/s) = 5.42280 6.93081 6.22266
#
# Compressibility (1/GPa) = 0.03282878
#
# Stress axis : x y z
#
# Youngs Moduli (GPa) = 37.46325 47.31472 86.19203
#
# Poissons Ratio (x) = 0.28667 0.00323
# Poissons Ratio (y) = 0.22698 0.62096
# Poissons Ratio (z) = 0.00140 0.34087
#
# Static dielectric constant tensor:
#      x y z
#    x 1.907800 0.000000 -0.035180 
#    y 0.000000 1.707580 0.000000 
#    z -0.035180 0.000000 1.816670 
# 
# From -- ./inp_files/280998.got.cif
#   From: 2010.05.17/outbox.cif.g08.bks.cpg/sg12_141_cif.got.tgz:280998.got - 2010.06.03 13:09:07.
