data_PCOD9205187
_publ_section_title
;
Structure prediction by ZEFSAII (Michael W. Deem and Ramdas Pophale) SiO2 
 PCOD9205187
Probable space group: C 2/M
;
_chemical_formula_sum "Si O2"
_cell_formula_units_Z 44
_cell_length_a 8.273425
_cell_length_b 17.738986
_cell_length_c 14.351154
_cell_angle_alpha 90.000000
_cell_angle_beta 93.286483
_cell_angle_gamma 90.000000
_cell_volume 2102.742574
_symmetry_space_group_name_H-M "C 2/M"
_symmetry_group_IT_number 12
_symmetry_cell_setting 'monoclinic'
loop_
_space_group_symop_operation_xyz
x,y,z
-x,y,-z
-x,-y,-z
x,-y,z
1/2+x,1/2+y,z
1/2-x,1/2+y,-z
1/2-x,1/2-y,-z
1/2+x,1/2-y,z
loop_
_atom_site_type_symbol
_atom_site_label
_atom_site_fract_x
_atom_site_fract_y
_atom_site_fract_z
Si Si1 0.000000 0.799223 0.000000
Si Si2 0.842988 0.081389 0.331235
Si Si3 0.312231 0.083247 0.469564
Si Si4 0.423970 0.295436 0.600364
Si Si5 0.274142 0.795640 0.132067
Si Si6 0.418592 0.826285 0.750774
O O1 0.132442 0.839430 0.071027
O O2 0.890234 0.746192 0.061922
O O3 0.787539 0.079464 0.437217
O O4 0.685500 0.098741 0.264917
O O5 0.963177 0.151782 0.331206
O O6 0.914637 0.000000 0.310810
O O7 0.500000 0.090426 0.500000
O O8 0.239431 0.155654 0.415448
O O9 0.289964 0.000000 0.423172
O O10 0.500000 0.287041 0.500000
O O11 0.409959 0.216385 0.651072
O O12 0.400450 0.836557 0.204864
O O13 0.179797 0.731014 0.186047
#
# Coordination Sequence:
#
# PCOD9205187 Si02
#       6
#     4   8   8   8   8   8
#     4   8  16  34  56  82 110 140 156 218 284 344
#     4  10  21  36  51  72 108 153 189 222 268 319
#     4   9  19  33  50  70 100 148 201 233 263 312
#     4  10  21  35  52  74 110 156 190 226 268 306
#     4   9  18  32  55  85 114 128 175 219 281 320
#     4  11  20  33  52  86 113 139 180 237 261 317
#
# _framework density 20.925052999999998
#
# number of rings (size 3 to 8) (size 9 to 14) (size 15 to 20)
#    0.000    2.364    1.818    0.545    2.545    5.818 
#    0.000    0.000    0.000    0.000    0.000   24.182 
#    0.000    0.000    0.000    0.000    0.000    0.000 
#
# Total GULP energy -122738.890598 kJ/mol
# GULP energy per Si atom -5579.040482 kJ/mol
# Density = 2.087743 g / cm^3
# Si number density = 20.925053 Si / 1000 Ang^3
#
#
#
# Elastic Constant Matrix: (Units=GPa)
#
#
# Indices 1 2 3 4 5 6 
#
# 1 97.6369 15.2093 29.1486 0.0000 30.9773 0.0000
# 2 15.2093 54.2372 9.4639 0.0000 11.2784 0.0000
# 3 29.1486 9.4639 68.1578 0.0000 16.4053 0.0000
# 4 0.0000 0.0000 0.0000 -8.7894 0.0000 -10.9613
# 5 30.9773 11.2784 16.4053 0.0000 55.3406 0.0000
# 6 0.0000 0.0000 0.0000 -10.9613 0.0000 6.9492
#
#
#
# Elastic Compliance Matrix: (Units=1/GPa)
#
#
# Indices 1 2 3 4 5 6 
#
# 1 0.013688 -0.001857 -0.004138 0.000000 -0.006057 0.000000
# 2 -0.001857 0.019727 -0.001322 0.000000 -0.002589 0.000000
# 3 -0.004138 -0.001322 0.017232 0.000000 -0.002523 0.000000
# 4 0.000000 0.000000 0.000000 -0.038345 0.000000 -0.060483
# 5 -0.006057 -0.002589 -0.002523 0.000000 0.022736 0.000000
# 6 0.000000 0.000000 0.000000 -0.060483 0.000000 0.048499
#
#
# Mechanical properties :
#
#
# Convention : Reuss Voigt Hill
#
# Bulk Modulus (GPa) = 27.76703 36.40839 32.08771
# Shear Modulus (GPa) = 45.38157 21.78075 33.58116
#
# Velocity S-wave (km/s) = 4.66205 3.22979 4.01038
# Velocity P-wave (km/s) = 6.50217 5.59874 6.06729
#
# Compressibility (1/GPa) = 0.03601394
#
# Stress axis : x y z
#
# Youngs Moduli (GPa) = 73.05432 50.69116 58.03036
#
# Poissons Ratio (x) = 0.09413 0.24015
# Poissons Ratio (y) = 0.13566 0.07671
# Poissons Ratio (z) = 0.30232 0.06701
#
# Static dielectric constant tensor:
#      x y z
#    x 1.815760 0.000000 0.035690 
#    y 0.000000 1.719860 0.000000 
#    z 0.035690 0.000000 1.815150 
# 
# From -- ./inp_files/195427.got.cif
#   From: 2010.05.17/outbox.cif.g08.bks.cpg/sg12_98_cif.got.tgz:195427.got - 2010.06.03 13:09:07.
