data_PCOD9205072
_publ_section_title
;
Structure prediction by ZEFSAII (Michael W. Deem and Ramdas Pophale) SiO2 
 PCOD9205072
Probable space group: C 2/M
;
_chemical_formula_sum "Si O2"
_cell_formula_units_Z 32
_cell_length_a 28.755071
_cell_length_b 12.094654
_cell_length_c 8.818034
_cell_angle_alpha 90.000000
_cell_angle_beta 32.577151
_cell_angle_gamma 90.000000
_cell_volume 1651.249760
_symmetry_space_group_name_H-M "C 2/M"
_symmetry_group_IT_number 12
_symmetry_cell_setting 'monoclinic'
loop_
_space_group_symop_operation_xyz
x,y,z
-x,y,-z
-x,-y,-z
x,-y,z
1/2+x,1/2+y,z
1/2-x,1/2+y,-z
1/2-x,1/2-y,-z
1/2+x,1/2-y,z
loop_
_atom_site_type_symbol
_atom_site_label
_atom_site_fract_x
_atom_site_fract_y
_atom_site_fract_z
Si Si1 0.647211 0.000000 0.549635
Si Si2 0.238197 0.267384 0.349279
Si Si3 0.408875 0.623190 0.168834
Si Si4 0.571474 0.766391 0.188092
Si Si5 0.479832 0.000000 0.809886
O O1 0.705624 0.109929 0.399346
O O2 0.578701 0.000000 0.598751
O O3 0.584533 0.000000 0.868789
O O4 0.250000 0.250000 0.500000
O O5 0.159708 0.184137 0.534829
O O6 0.329815 0.236977 0.024231
O O7 0.377110 0.500000 0.219114
O O8 0.500000 0.617631 0.000000
O O9 0.424599 0.692357 0.973492
O O10 0.500000 0.722969 0.500000
O O11 0.542741 0.889481 0.219629
#
# Coordination Sequence:
#
# PCOD9205072 Si02
#       5
#     4   8   8   8   4
#     4  11  20  38  63  90 108 157 204 245 284 342
#     4  10  21  34  62  86 115 148 203 239 282 345
#     4  10  21  38  61  86 117 155 197 239 287 350
#     4  11  24  38  60  88 122 153 191 245 298 345
#     4  11  21  38  64  84 120 149 199 247 294 342
#
# _framework density 19.379259000000001
#
# number of rings (size 3 to 8) (size 9 to 14) (size 15 to 20)
#    0.000    1.500    5.000    1.875    8.750    0.500 
#    0.000    5.000    0.000    0.000    0.000    0.000 
#    0.000    0.000    0.000    0.000    0.000    0.000 
#
# Total GULP energy -89268.799790 kJ/mol
# GULP energy per Si atom -5579.299987 kJ/mol
# Density = 1.933515 g / cm^3
# Si number density = 19.379259 Si / 1000 Ang^3
#
#
#
# Elastic Constant Matrix: (Units=GPa)
#
#
# Indices 1 2 3 4 5 6 
#
# 1 48.2094 45.4151 40.5315 0.0000 -31.1372 0.0000
# 2 45.4151 169.9551 46.8082 0.0000 -18.3745 0.0000
# 3 40.5315 46.8082 152.8886 0.0000 -25.9094 0.0000
# 4 0.0000 0.0000 0.0000 16.8296 0.0000 -14.0209
# 5 -31.1372 -18.3745 -25.9094 0.0000 30.9122 0.0000
# 6 0.0000 0.0000 0.0000 -14.0209 0.0000 20.9767
#
#
#
# Elastic Compliance Matrix: (Units=1/GPa)
#
#
# Indices 1 2 3 4 5 6 
#
# 1 0.086002 -0.013311 -0.006276 0.000000 0.073455 0.000000
# 2 -0.013311 0.008660 -0.000609 0.000000 -0.008771 0.000000
# 3 -0.006276 -0.000609 0.008460 0.000000 0.000407 0.000000
# 4 0.000000 0.000000 0.000000 0.134083 0.000000 0.089621
# 5 0.073455 -0.008771 0.000407 0.000000 0.101467 0.000000
# 6 0.000000 0.000000 0.000000 0.089621 0.000000 0.107575
#
#
# Mechanical properties :
#
#
# Convention : Reuss Voigt Hill
#
# Bulk Modulus (GPa) = 15.94135 70.72918 43.33526
# Shear Modulus (GPa) = 9.85123 29.63026 19.74075
#
# Velocity S-wave (km/s) = 2.25708 3.91444 3.19510
# Velocity P-wave (km/s) = 3.87768 7.55030 6.00181
#
# Compressibility (1/GPa) = 0.06272996
#
# Stress axis : x y z
#
# Youngs Moduli (GPa) = 11.62762 115.46827 118.20422
#
# Poissons Ratio (x) = 1.53703 0.74186
# Poissons Ratio (y) = 0.15478 0.07197
# Poissons Ratio (z) = 0.07298 0.07031
#
# Static dielectric constant tensor:
#      x y z
#    x 1.753310 0.000000 -0.079630 
#    y 0.000000 1.700030 0.000000 
#    z -0.079630 0.000000 1.748350 
# 
# From -- ./inp_files/70731.got.cif
#   From: 2010.05.17/outbox.cif.g08.bks.cpg/sg12_36_cif.got.tgz:70731.got - 2010.06.03 13:09:07.
