data_PCOD9205874
_publ_section_title
;
Structure prediction by ZEFSAII (Michael W. Deem and Ramdas Pophale) SiO2 
 PCOD9205874
Probable space group: C 2/M
;
_chemical_formula_sum "Si O2"
_cell_formula_units_Z 64
_cell_length_a 20.475743
_cell_length_b 8.823039
_cell_length_c 20.557981
_cell_angle_alpha 90.000000
_cell_angle_beta 90.007027
_cell_angle_gamma 90.000000
_cell_volume 3713.969440
_symmetry_space_group_name_H-M "C 2/M"
_symmetry_group_IT_number 12
_symmetry_cell_setting 'monoclinic'
loop_
_space_group_symop_operation_xyz
x,y,z
-x,y,-z
-x,-y,-z
x,-y,z
1/2+x,1/2+y,z
1/2-x,1/2+y,-z
1/2-x,1/2-y,-z
1/2+x,1/2-y,z
loop_
_atom_site_type_symbol
_atom_site_label
_atom_site_fract_x
_atom_site_fract_y
_atom_site_fract_z
Si Si1 0.802478 0.682178 0.799179
Si Si2 0.050342 0.316986 0.556415
Si Si3 0.299837 0.181551 0.948869
Si Si4 0.200163 0.318449 0.551131
Si Si5 0.054887 0.818354 0.697143
Si Si6 0.550342 0.816986 0.056415
Si Si7 0.697523 0.182178 0.700821
Si Si8 0.945113 0.181646 0.802858
O O1 0.803408 0.500000 0.795047
O O2 0.785769 0.724905 0.873959
O O3 0.750000 0.749999 0.750000
O O4 0.875089 0.745114 0.786250
O O5 0.048444 0.500000 0.564369
O O6 0.124769 0.274943 0.538130
O O7 0.035641 0.241884 0.625752
O O8 0.000000 0.274397 0.500000
O O9 0.375231 0.225057 0.961870
O O10 0.296021 0.000000 0.952755
O O11 0.250000 0.250000 0.000000
O O12 0.203979 0.500000 0.547244
O O13 0.250000 0.250000 0.500000
O O14 0.214231 0.275096 0.626041
O O15 0.124910 0.745113 0.713750
O O16 0.000000 0.778356 0.750000
O O17 0.061642 0.000000 0.695554
O O18 0.535642 0.741885 0.125752
O O19 0.548443 0.000000 0.064368
O O20 0.500000 0.774396 0.000000
O O21 0.696593 0.000000 0.704954
O O22 0.938358 0.000000 0.804447
#
# Coordination Sequence:
#
# PCOD9205874 Si02
#       8
#     8   8   8   8   8   8   8   8
#     4  10  21  37  56  79 107 139 177 218 262 314
#     4   9  19  36  55  76 103 136 177 219 259 309
#     4   9  19  34  52  76 104 134 170 212 256 307
#     4   9  19  34  52  76 104 134 170 212 256 307
#     4  10  21  36  54  79 109 139 176 220 263 311
#     4   9  19  36  55  76 103 136 177 219 259 309
#     4  10  21  37  56  79 107 139 177 218 262 314
#     4  10  21  36  54  79 109 139 176 220 263 311
#
# _framework density 17.232237000000001
#
# number of rings (size 3 to 8) (size 9 to 14) (size 15 to 20)
#    0.000    2.500    0.000    3.000    0.000    9.500 
#    0.000    5.000    0.000    0.000    0.000    0.000 
#    0.000    0.000    0.000    0.000    0.000    0.000 
#
# Total GULP energy -178542.254321 kJ/mol
# GULP energy per Si atom -5579.445448 kJ/mol
# Density = 1.719302 g / cm^3
# Si number density = 17.232237 Si / 1000 Ang^3
#
#
#
# Elastic Constant Matrix: (Units=GPa)
#
#
# Indices 1 2 3 4 5 6 
#
# 1 151.0322 58.0707 147.2992 0.0000 0.8314 0.0000
# 2 58.0707 43.3010 60.6486 0.0000 -1.6815 0.0000
# 3 147.2992 60.6486 164.3214 0.0000 0.1186 0.0000
# 4 0.0000 0.0000 0.0000 35.0014 0.0000 -1.4611
# 5 0.8314 -1.6815 0.1186 0.0000 43.3996 0.0000
# 6 0.0000 0.0000 0.0000 -1.4611 0.0000 30.5902
#
#
#
# Elastic Compliance Matrix: (Units=1/GPa)
#
#
# Indices 1 2 3 4 5 6 
#
# 1 0.054612 -0.009780 -0.045344 0.000000 -0.001301 0.000000
# 2 -0.009780 0.049718 -0.009585 0.000000 0.002140 0.000000
# 3 -0.045344 -0.009585 0.050269 0.000000 0.000360 0.000000
# 4 0.000000 0.000000 0.000000 0.028627 0.000000 0.001367
# 5 -0.001301 0.002140 0.000360 0.000000 0.023149 0.000000
# 6 0.000000 0.000000 0.000000 0.001367 0.000000 0.032755
#
#
# Mechanical properties :
#
#
# Convention : Reuss Voigt Hill
#
# Bulk Modulus (GPa) = 39.71101 98.96574 69.33838
# Shear Modulus (GPa) = 13.26467 27.97399 20.61933
#
# Velocity S-wave (km/s) = 2.77746 4.03346 3.46288
# Velocity P-wave (km/s) = 5.77757 8.90208 7.50424
#
# Compressibility (1/GPa) = 0.02518193
#
# Stress axis : x y z
#
# Youngs Moduli (GPa) = 18.31114 20.11345 19.89284
#
# Poissons Ratio (x) = 0.19671 0.90201
# Poissons Ratio (y) = 0.17909 0.19067
# Poissons Ratio (z) = 0.83029 0.19278
#
# Static dielectric constant tensor:
#      x y z
#    x 1.564300 0.000000 0.003820 
#    y 0.000000 1.579740 0.000000 
#    z 0.003820 0.000000 1.562540 
# 
# From -- ./inp_files/314165.got.cif
#   From: 2010.05.17/outbox.cif.g08.bks.cpg/sg12_158_cif.got.tgz:314165.got - 2010.06.03 13:09:07.
