data_PCOD9205533
_publ_section_title
;
Structure prediction by ZEFSAII (Michael W. Deem and Ramdas Pophale) SiO2 
 PCOD9205533
Probable space group: C 2/M
;
_chemical_formula_sum "Si O2"
_cell_formula_units_Z 58
_cell_length_a 20.166780
_cell_length_b 7.447485
_cell_length_c 14.772903
_cell_angle_alpha 90.000000
_cell_angle_beta 92.718122
_cell_angle_gamma 90.000000
_cell_volume 2216.272488
_symmetry_space_group_name_H-M "C 2/M"
_symmetry_group_IT_number 12
_symmetry_cell_setting 'monoclinic'
loop_
_space_group_symop_operation_xyz
x,y,z
-x,y,-z
-x,-y,-z
x,-y,z
1/2+x,1/2+y,z
1/2-x,1/2+y,-z
1/2-x,1/2-y,-z
1/2+x,1/2-y,z
loop_
_atom_site_type_symbol
_atom_site_label
_atom_site_fract_x
_atom_site_fract_y
_atom_site_fract_z
Si Si1 0.527426 0.290613 0.228118
Si Si2 0.367843 0.781389 0.392996
Si Si3 0.920171 0.297147 0.577219
Si Si4 0.222097 0.782074 0.352178
Si Si5 0.243769 0.790420 0.147298
Si Si6 0.111564 0.217943 0.067509
Si Si7 0.000000 0.500000 0.000000
Si Si8 0.110184 0.205013 0.814602
O O1 0.517938 0.500000 0.213799
O O2 0.538130 0.268728 0.335000
O O3 0.589958 0.243898 0.171189
O O4 0.461538 0.201739 0.182443
O O5 0.415102 0.715119 0.476733
O O6 0.290824 0.734781 0.406353
O O7 0.382121 0.711351 0.294068
O O8 0.371670 0.000000 0.389008
O O9 0.942099 0.500000 0.566069
O O10 0.844236 0.291774 0.607946
O O11 0.231654 0.719526 0.248774
O O12 0.216079 0.000000 0.351752
O O13 0.189003 0.724169 0.072660
O O14 0.322478 0.776241 0.137548
O O15 0.228344 0.000000 0.152635
O O16 0.059187 0.340571 0.011726
O O17 0.104225 0.000000 0.050217
O O18 0.108164 0.000000 0.845200
#
# Coordination Sequence:
#
# PCOD9205533 Si02
#       8
#     8   8   8   8   8   8   2   8
#     4  10  22  40  58  83 119 159 198 243 305 359
#     4   9  20  35  46  70 114 159 201 253 311 352
#     4  11  21  30  49  77 110 153 206 260 301 348
#     4   9  16  30  50  72 107 151 196 243 301 351
#     4   9  18  35  60  87 117 157 195 243 301 354
#     4  10  22  43  68  98 132 160 193 244 302 365
#     4  12  26  40  72 110 128 154 194 240 304 370
#     4  10  21  35  57  85 113 157 210 254 292 350
#
# _framework density 26.170065999999998
#
# number of rings (size 3 to 8) (size 9 to 14) (size 15 to 20)
#    0.000    2.207    1.379    2.276    1.931    4.966 
#    0.000    2.759    0.000    0.828    0.000    0.000 
#    0.000    0.000    0.000    0.000    0.000    0.000 
#
# Total GULP energy -161801.180747 kJ/mol
# GULP energy per Si atom -5579.351060 kJ/mol
# Density = 2.611050 g / cm^3
# Si number density = 26.170066 Si / 1000 Ang^3
#
#
#
# Elastic Constant Matrix: (Units=GPa)
#
#
# Indices 1 2 3 4 5 6 
#
# 1 138.3213 6.5764 55.7405 0.0000 45.9431 0.0000
# 2 6.5764 97.5508 6.2069 0.0000 17.9922 0.0000
# 3 55.7405 6.2069 178.1213 0.0000 34.4386 0.0000
# 4 0.0000 0.0000 0.0000 29.9839 0.0000 25.8092
# 5 45.9431 17.9922 34.4386 0.0000 48.6159 0.0000
# 6 0.0000 0.0000 0.0000 25.8092 0.0000 -4.7800
#
#
#
# Elastic Compliance Matrix: (Units=1/GPa)
#
#
# Indices 1 2 3 4 5 6 
#
# 1 0.011059 0.001152 -0.001620 0.000000 -0.009730 0.000000
# 2 0.001152 0.011156 0.000301 0.000000 -0.005430 0.000000
# 3 -0.001620 0.000301 0.006762 0.000000 -0.003371 0.000000
# 4 0.000000 0.000000 0.000000 0.005905 0.000000 0.031885
# 5 -0.009730 -0.005430 -0.003371 0.000000 0.034162 0.000000
# 6 0.000000 0.000000 0.000000 0.031885 0.000000 -0.037043
#
#
# Mechanical properties :
#
#
# Convention : Reuss Voigt Hill
#
# Bulk Modulus (GPa) = 34.91168 61.22678 48.06923
# Shear Modulus (GPa) = 119.37682 37.79528 78.58605
#
# Velocity S-wave (km/s) = 6.76127 3.80441 5.48582
# Velocity P-wave (km/s) = 8.62104 6.53793 7.65072
#
# Compressibility (1/GPa) = 0.02864371
#
# Stress axis : x y z
#
# Youngs Moduli (GPa) = 90.42072 89.63905 147.87913
#
# Poissons Ratio (x) = -0.10328 0.23952
# Poissons Ratio (y) = -0.10418 -0.04446
# Poissons Ratio (z) = 0.14646 -0.02695
#
# Static dielectric constant tensor:
#      x y z
#    x 2.113460 0.000000 -0.010190 
#    y 0.000000 1.998040 0.000000 
#    z -0.010190 0.000000 2.078390 
# 
# From -- ./inp_files/281573.got.cif
#   From: 2010.05.17/outbox.cif.g08.bks.cpg/sg12_141_cif.got.tgz:281573.got - 2010.06.03 13:09:07.
