data_PCOD9205754
_publ_section_title
;
Structure prediction by ZEFSAII (Michael W. Deem and Ramdas Pophale) SiO2 
 PCOD9205754
Probable space group: C 2/M
;
_chemical_formula_sum "Si O2"
_cell_formula_units_Z 34
_cell_length_a 12.664461
_cell_length_b 13.208952
_cell_length_c 14.973338
_cell_angle_alpha 90.000000
_cell_angle_beta 140.412481
_cell_angle_gamma 90.000000
_cell_volume 1596.201531
_symmetry_space_group_name_H-M "C 2/M"
_symmetry_group_IT_number 12
_symmetry_cell_setting 'monoclinic'
loop_
_space_group_symop_operation_xyz
x,y,z
-x,y,-z
-x,-y,-z
x,-y,z
1/2+x,1/2+y,z
1/2-x,1/2+y,-z
1/2-x,1/2-y,-z
1/2+x,1/2-y,z
loop_
_atom_site_type_symbol
_atom_site_label
_atom_site_fract_x
_atom_site_fract_y
_atom_site_fract_z
Si Si1 0.025091 0.205539 0.286244
Si Si2 0.848527 0.886232 0.332269
Si Si3 0.997080 0.704591 0.903259
Si Si4 0.500000 0.000000 0.000000
Si Si5 0.608582 0.119174 0.480725
O O1 0.935797 0.235857 0.136982
O O2 0.199256 0.149434 0.382068
O O3 0.051103 0.307044 0.363233
O O4 0.919685 0.134581 0.281839
O O5 0.695270 0.814308 0.250281
O O6 0.000000 0.878298 0.500000
O O7 0.778033 0.000000 0.288241
O O8 0.000000 0.761804 0.000000
O O9 0.060710 0.592728 0.971021
O O10 0.500000 0.137000 0.500000
O O11 0.595453 0.000000 0.449814
#
# Coordination Sequence:
#
# PCOD9205754 Si02
#       5
#     8   8   8   2   8
#     4  11  21  33  58  84 106 145 193 228 274 327
#     4  11  21  36  59  87 116 144 184 236 278 324
#     4  10  21  38  57  78 115 145 188 229 275 331
#     4   8  20  40  54  80 108 154 184 232 270 340
#     4  10  21  36  52  80 119 147 175 224 283 338
#
# _framework density 21.300568999999999
#
# number of rings (size 3 to 8) (size 9 to 14) (size 15 to 20)
#    0.706    0.941    1.176    5.647    1.647    2.824 
#    0.000    0.000    0.000    3.529    0.000    0.000 
#    0.000    0.000    0.000    0.000    0.000    0.000 
#
# Total GULP energy -94640.126282 kJ/mol
# GULP energy per Si atom -5567.066252 kJ/mol
# Density = 2.125209 g / cm^3
# Si number density = 21.300569 Si / 1000 Ang^3
#
#
#
# Elastic Constant Matrix: (Units=GPa)
#
#
# Indices 1 2 3 4 5 6 
#
# 1 72.9588 6.0191 39.9796 0.0000 -4.2774 0.0000
# 2 6.0191 51.1314 21.8811 0.0000 -0.3411 0.0000
# 3 39.9796 21.8811 61.7555 0.0001 -15.5945 0.0001
# 4 0.0000 0.0000 0.0001 18.6986 0.0001 -5.1807
# 5 -4.2774 -0.3411 -15.5945 0.0001 45.1570 0.0001
# 6 0.0000 0.0000 0.0001 -5.1807 0.0001 24.7570
#
#
#
# Elastic Compliance Matrix: (Units=1/GPa)
#
#
# Indices 1 2 3 4 5 6 
#
# 1 0.022517 0.004679 -0.017186 0.000000 -0.003767 0.000000
# 2 0.004679 0.024377 -0.012607 0.000000 -0.003726 0.000000
# 3 -0.017186 -0.012607 0.034346 0.000000 0.010138 0.000000
# 4 0.000000 0.000000 0.000000 0.056771 0.000000 0.011880
# 5 -0.003767 -0.003726 0.010138 0.000000 0.025261 0.000000
# 6 0.000000 0.000000 0.000000 0.011880 0.000000 0.042879
#
#
# Mechanical properties :
#
#
# Convention : Reuss Voigt Hill
#
# Bulk Modulus (GPa) = 32.24681 35.73393 33.99037
# Shear Modulus (GPa) = 18.74641 25.58690 22.16666
#
# Velocity S-wave (km/s) = 2.96985 3.46964 3.22943
# Velocity P-wave (km/s) = 5.18959 5.73268 5.46788
#
# Compressibility (1/GPa) = 0.03101082
#
# Stress axis : x y z
#
# Youngs Moduli (GPa) = 44.41052 41.02238 29.11538
#
# Poissons Ratio (x) = -0.19194 0.50039
# Poissons Ratio (y) = -0.20779 0.36706
# Poissons Ratio (z) = 0.76325 0.51718
#
# Static dielectric constant tensor:
#      x y z
#    x 1.805520 0.000000 0.067210 
#    y 0.000000 1.761430 0.000000 
#    z 0.067210 0.000000 1.900860 
# 
# From -- ./inp_files/204022.got.cif
#   From: 2010.05.17/outbox.cif.g08.bks.cpg/sg12_103_cif.got.tgz:204022.got - 2010.06.03 13:09:07.
