data_PCOD9205214
_publ_section_title
;
Structure prediction by ZEFSAII (Michael W. Deem and Ramdas Pophale) SiO2 
 PCOD9205214
Probable space group: C 2/M
;
_chemical_formula_sum "Si O2"
_cell_formula_units_Z 58
_cell_length_a 9.051486
_cell_length_b 13.043271
_cell_length_c 24.365084
_cell_angle_alpha 90.000000
_cell_angle_beta 79.524489
_cell_angle_gamma 90.000000
_cell_volume 2828.621250
_symmetry_space_group_name_H-M "C 2/M"
_symmetry_group_IT_number 12
_symmetry_cell_setting 'monoclinic'
loop_
_space_group_symop_operation_xyz
x,y,z
-x,y,-z
-x,-y,-z
x,-y,z
1/2+x,1/2+y,z
1/2-x,1/2+y,-z
1/2-x,1/2-y,-z
1/2+x,1/2-y,z
loop_
_atom_site_type_symbol
_atom_site_label
_atom_site_fract_x
_atom_site_fract_y
_atom_site_fract_z
Si Si1 0.444895 0.886345 0.115636
Si Si2 0.500000 0.000000 0.000000
Si Si3 0.929058 0.375331 0.423024
Si Si4 0.611533 0.694565 0.754861
Si Si5 0.190317 0.378377 0.686203
Si Si6 0.531370 0.622181 0.643815
Si Si7 0.325444 0.756899 0.830041
Si Si8 0.261384 0.874975 0.538877
O O1 0.584609 0.828102 0.133968
O O2 0.301602 0.813281 0.133850
O O3 0.421028 0.000000 0.143026
O O4 0.475561 0.912277 0.050056
O O5 0.929865 0.500000 0.424159
O O6 0.904472 0.350243 0.361430
O O7 0.792737 0.346429 0.473508
O O8 0.088416 0.344916 0.437956
O O9 0.626826 0.815978 0.741185
O O10 0.619511 0.643207 0.694681
O O11 0.448496 0.683131 0.792634
O O12 0.742518 0.674262 0.789220
O O13 0.188406 0.500000 0.694118
O O14 0.360766 0.342108 0.663258
O O15 0.520034 0.500000 0.638601
O O16 0.616569 0.658948 0.583271
O O17 0.255787 0.000000 0.539514
#
# Coordination Sequence:
#
# PCOD9205214 Si02
#       8
#     8   2   8   8   8   8   8   8
#     4   9  21  43  69 105 137 179 218 267 310 374
#     4   8  20  44  76 106 142 176 220 266 316 360
#     4   8  15  29  50  75 101 138 189 251 325 398
#     4  11  22  38  55  86 121 163 207 257 299 380
#     4  10  21  36  55  78 107 152 200 255 326 380
#     4  10  21  35  52  78 109 150 194 253 322 371
#     4  10  22  39  65  92 134 177 217 258 323 362
#     4   8  15  29  49  74 105 135 186 254 322 397
#
# _framework density 20.504691000000001
#
# number of rings (size 3 to 8) (size 9 to 14) (size 15 to 20)
#    0.414    2.207    1.379    0.828    1.931    4.414 
#    0.000    5.517    0.000    3.310    0.000    0.000 
#    0.000    0.000    0.000    0.000    0.000    0.000 
#
# Total GULP energy -161601.459039 kJ/mol
# GULP energy per Si atom -5572.464105 kJ/mol
# Density = 2.045802 g / cm^3
# Si number density = 20.504691 Si / 1000 Ang^3
#
#
#
# Elastic Constant Matrix: (Units=GPa)
#
#
# Indices 1 2 3 4 5 6 
#
# 1 90.8585 21.4646 38.3043 0.0000 0.0125 0.0000
# 2 21.4646 63.4255 18.9881 0.0000 -1.9156 0.0000
# 3 38.3043 18.9881 108.0859 0.0000 1.4279 0.0000
# 4 0.0000 0.0000 0.0000 40.6822 0.0000 0.2098
# 5 0.0125 -1.9156 1.4279 0.0000 9.5594 0.0000
# 6 0.0000 0.0000 0.0000 0.2098 0.0000 19.7587
#
#
#
# Elastic Compliance Matrix: (Units=1/GPa)
#
#
# Indices 1 2 3 4 5 6 
#
# 1 0.013574 -0.003331 -0.004225 0.000000 -0.000054 0.000000
# 2 -0.003331 0.017596 -0.001961 0.000000 0.003824 0.000000
# 3 -0.004225 -0.001961 0.011121 0.000000 -0.002049 0.000000
# 4 0.000000 0.000000 0.000000 0.024582 0.000000 -0.000261
# 5 -0.000054 0.003824 -0.002049 0.000000 0.105681 0.000000
# 6 0.000000 0.000000 0.000000 -0.000261 0.000000 0.050613
#
#
# Mechanical properties :
#
#
# Convention : Reuss Voigt Hill
#
# Bulk Modulus (GPa) = 42.99653 46.65376 44.82515
# Shear Modulus (GPa) = 20.00370 26.24090 23.12230
#
# Velocity S-wave (km/s) = 3.12680 3.58124 3.36171
# Velocity P-wave (km/s) = 5.83528 6.31684 6.08083
#
# Compressibility (1/GPa) = 0.02325769
#
# Stress axis : x y z
#
# Youngs Moduli (GPa) = 73.67028 56.82986 89.92239
#
# Poissons Ratio (x) = 0.18928 0.37989
# Poissons Ratio (y) = 0.24537 0.17638
# Poissons Ratio (z) = 0.31123 0.11147
#
# Static dielectric constant tensor:
#      x y z
#    x 1.734090 0.000000 -0.012290 
#    y 0.000000 1.798900 0.000000 
#    z -0.012290 0.000000 1.713670 
# 
# From -- ./inp_files/356013.got.cif
#   From: 2010.05.17/outbox.cif.g08.bks.cpg/sg12_179_cif.got.tgz:356013.got - 2010.06.03 13:09:07.
