data_PCOD9205758
_publ_section_title
;
Structure prediction by ZEFSAII (Michael W. Deem and Ramdas Pophale) SiO2 
 PCOD9205758
Probable space group: C 2/M
;
_chemical_formula_sum "Si O2"
_cell_formula_units_Z 64
_cell_length_a 12.987906
_cell_length_b 20.756086
_cell_length_c 26.722957
_cell_angle_alpha 90.000000
_cell_angle_beta 150.812736
_cell_angle_gamma 90.000000
_cell_volume 3513.105896
_symmetry_space_group_name_H-M "C 2/M"
_symmetry_group_IT_number 12
_symmetry_cell_setting 'monoclinic'
loop_
_space_group_symop_operation_xyz
x,y,z
-x,y,-z
-x,-y,-z
x,-y,z
1/2+x,1/2+y,z
1/2-x,1/2+y,-z
1/2-x,1/2-y,-z
1/2+x,1/2-y,z
loop_
_atom_site_type_symbol
_atom_site_label
_atom_site_fract_x
_atom_site_fract_y
_atom_site_fract_z
Si Si1 0.068746 0.923189 0.083710
Si Si2 0.731392 0.173468 0.297338
Si Si3 0.232905 0.835017 0.528043
Si Si4 0.789761 0.694332 0.443479
Si Si5 0.512488 0.699786 0.765874
Si Si6 0.867121 0.158262 0.078446
Si Si7 0.083565 0.713328 0.126636
Si Si8 0.443625 0.077214 0.700128
O O1 0.309001 0.905571 0.199432
O O2 0.916340 0.900069 0.062815
O O3 0.063470 0.000000 0.078092
O O4 0.000000 0.896736 0.000000
O O5 0.621570 0.236685 0.275294
O O6 0.686278 0.181081 0.219520
O O7 0.631783 0.110585 0.280586
O O8 0.979837 0.169930 0.414856
O O9 0.295543 0.765196 0.576765
O O10 0.324163 0.841152 0.510737
O O11 0.312436 0.889189 0.599757
O O12 0.614928 0.665501 0.332624
O O13 0.000000 0.700558 0.500000
O O14 0.541113 0.656435 0.826911
O O15 0.739470 0.720099 0.840530
O O16 0.986154 0.218454 0.102336
O O17 0.619278 0.172788 0.976282
O O18 0.418652 0.000000 0.689703
#
# Coordination Sequence:
#
# PCOD9205758 Si02
#       8
#     8   8   8   8   8   8   8   8
#     4  10  22  41  62  85 111 149 197 238 280 339
#     4  11  20  35  54  80 115 153 189 228 282 341
#     4  11  22  34  55  82 115 150 194 235 275 339
#     4  11  21  34  55  83 113 150 190 230 283 338
#     4  11  20  34  56  84 116 147 187 231 286 343
#     4  10  22  34  59  84 115 150 185 236 291 336
#     4  10  21  36  52  86 119 150 180 232 293 346
#     4  11  23  37  58  84 114 150 191 240 286 333
#
# _framework density 18.217499
#
# number of rings (size 3 to 8) (size 9 to 14) (size 15 to 20)
#    0.000    1.375    3.750    2.250    1.750    3.000 
#    0.000    0.000    0.000    3.375    0.000    0.000 
#    0.000    0.000    0.000    0.000    0.000    0.000 
#
# Total GULP energy -178651.407887 kJ/mol
# GULP energy per Si atom -5582.856496 kJ/mol
# Density = 1.817604 g / cm^3
# Si number density = 18.217499 Si / 1000 Ang^3
#
#
#
# Elastic Constant Matrix: (Units=GPa)
#
#
# Indices 1 2 3 4 5 6 
#
# 1 107.3762 8.4488 37.9178 0.0006 0.3775 -0.0003
# 2 8.4488 29.4104 18.6711 0.0009 -2.7632 -0.0002
# 3 37.9178 18.6711 102.4218 -0.0020 -7.7110 0.0006
# 4 0.0006 0.0009 -0.0020 20.6836 0.0000 -1.0613
# 5 0.3775 -2.7632 -7.7110 0.0000 31.9531 0.0001
# 6 -0.0003 -0.0002 0.0006 -1.0613 0.0001 25.3596
#
#
#
# Elastic Compliance Matrix: (Units=1/GPa)
#
#
# Indices 1 2 3 4 5 6 
#
# 1 0.010765 -0.000695 -0.003944 -0.000001 -0.001139 0.000000
# 2 -0.000695 0.038584 -0.006645 -0.000002 0.001741 0.000000
# 3 -0.003944 -0.006645 0.012625 0.000002 0.002519 0.000000
# 4 -0.000001 -0.000002 0.000002 0.048452 0.000000 0.002028
# 5 -0.001139 0.001741 0.002519 0.000000 0.032068 0.000000
# 6 0.000000 0.000000 0.000000 0.002028 0.000000 0.039518
#
#
# Mechanical properties :
#
#
# Convention : Reuss Voigt Hill
#
# Bulk Modulus (GPa) = 25.37849 41.03154 33.20501
# Shear Modulus (GPa) = 22.96593 27.21062 25.08828
#
# Velocity S-wave (km/s) = 3.55442 3.86897 3.71503
# Velocity P-wave (km/s) = 5.55034 6.52155 6.05545
#
# Compressibility (1/GPa) = 0.03940345
#
# Stress axis : x y z
#
# Youngs Moduli (GPa) = 92.89721 25.91776 79.20960
#
# Poissons Ratio (x) = 0.01802 0.31242
# Poissons Ratio (y) = 0.06460 0.52636
# Poissons Ratio (z) = 0.36640 0.17223
#
# Static dielectric constant tensor:
#      x y z
#    x 1.641210 0.000000 -0.001550 
#    y 0.000000 1.600480 0.000000 
#    z -0.001550 0.000000 1.664280 
# 
# From -- ./inp_files/359018.got.cif
#   From: 2010.05.17/outbox.cif.g08.bks.cpg/sg12_180_cif.got.tgz:359018.got - 2010.06.03 13:09:07.
