data_PCOD9205087
_publ_section_title
;
Structure prediction by ZEFSAII (Michael W. Deem and Ramdas Pophale) SiO2 
 PCOD9205087
Probable space group: C 2/M
;
_chemical_formula_sum "Si O2"
_cell_formula_units_Z 36
_cell_length_a 24.790468
_cell_length_b 13.615313
_cell_length_c 5.185476
_cell_angle_alpha 90.000000
_cell_angle_beta 116.738673
_cell_angle_gamma 90.000000
_cell_volume 1563.095335
_symmetry_space_group_name_H-M "C 2/M"
_symmetry_group_IT_number 12
_symmetry_cell_setting 'monoclinic'
loop_
_space_group_symop_operation_xyz
x,y,z
-x,y,-z
-x,-y,-z
x,-y,z
1/2+x,1/2+y,z
1/2-x,1/2+y,-z
1/2-x,1/2-y,-z
1/2+x,1/2-y,z
loop_
_atom_site_type_symbol
_atom_site_label
_atom_site_fract_x
_atom_site_fract_y
_atom_site_fract_z
Si Si1 0.459409 0.675799 0.668841
Si Si2 0.225122 0.672889 0.658668
Si Si3 0.608264 0.176109 0.163592
Si Si4 0.343354 0.672462 0.130085
Si Si5 0.039991 0.500000 0.829940
O O1 0.500000 0.677986 0.500000
O O2 0.436965 0.783512 0.714530
O O3 0.395170 0.628962 0.428996
O O4 0.500000 0.636876 0.000000
O O5 0.250000 0.750000 0.500000
O O6 0.168395 0.623509 0.399363
O O7 0.189806 0.737922 0.793889
O O8 0.283475 0.617146 0.896343
O O9 0.624371 0.275870 0.043200
O O10 0.578264 0.098693 0.915297
O O11 0.000000 0.500000 0.500000
O O12 0.000000 0.500000 0.000000
#
# Coordination Sequence:
#
# PCOD9205087 Si02
#       5
#     8   8   8   8   4
#     4  11  20  29  48  67  97 128 159 200 245 300
#     4   8  16  31  51  70  84 113 161 218 261 299
#     4  10  21  35  49  64  94 131 177 212 247 282
#     4   9  17  30  50  70  89 117 164 208 263 298
#     4  12  30  36  48  68 102 146 186 211 234 278
#
# _framework density 23.031223000000001
#
# number of rings (size 3 to 8) (size 9 to 14) (size 15 to 20)
#    0.000    2.222    2.222    0.667    9.333    0.000 
#    0.000    0.000    0.000    0.000    0.000    0.000 
#    0.000    0.000    0.000    2.000    0.444   59.444 
#
# Total GULP energy -100202.400737 kJ/mol
# GULP energy per Si atom -5566.800041 kJ/mol
# Density = 2.297880 g / cm^3
# Si number density = 23.031223 Si / 1000 Ang^3
#
#
#
# Elastic Constant Matrix: (Units=GPa)
#
#
# Indices 1 2 3 4 5 6 
#
# 1 99.2875 -3.7242 58.4251 0.0000 3.4752 0.0000
# 2 -3.7242 27.5412 10.8389 0.0000 2.8603 0.0000
# 3 58.4251 10.8389 223.1936 0.0000 50.1451 0.0000
# 4 0.0000 0.0000 0.0000 10.7796 0.0000 -0.0957
# 5 3.4752 2.8603 50.1451 0.0000 69.3729 0.0000
# 6 0.0000 0.0000 0.0000 -0.0957 0.0000 -9.0800
#
#
#
# Elastic Compliance Matrix: (Units=1/GPa)
#
#
# Indices 1 2 3 4 5 6 
#
# 1 0.012372 0.002973 -0.003840 0.000000 0.002033 0.000000
# 2 0.002973 0.037735 -0.002660 0.000000 0.000218 0.000000
# 3 -0.003840 -0.002660 0.006622 0.000000 -0.004485 0.000000
# 4 0.000000 0.000000 0.000000 0.092759 0.000000 -0.000978
# 5 0.002033 0.000218 -0.004485 0.000000 0.017546 0.000000
# 6 0.000000 0.000000 0.000000 -0.000978 0.000000 -0.110122
#
#
# Mechanical properties :
#
#
# Convention : Reuss Voigt Hill
#
# Bulk Modulus (GPa) = 20.13034 53.45576 36.79305
# Shear Modulus (GPa) = 62.09377 33.18001 47.63689
#
# Velocity S-wave (km/s) = 5.19800 3.79971 4.55286
# Velocity P-wave (km/s) = 6.69216 6.52004 6.60666
#
# Compressibility (1/GPa) = 0.04967625
#
# Stress axis : x y z
#
# Youngs Moduli (GPa) = 80.83088 26.50040 151.00561
#
# Poissons Ratio (x) = -0.07878 0.57980
# Poissons Ratio (y) = -0.24030 0.40162
# Poissons Ratio (z) = 0.31036 0.07048
#
# Static dielectric constant tensor:
#      x y z
#    x 2.014180 0.000000 0.030980 
#    y 0.000000 1.929270 0.000000 
#    z 0.030980 0.000000 2.040290 
# 
# From -- ./inp_files/24640.got.cif
#   From: 2010.05.17/outbox.cif.g08.bks.cpg/sg12_13_cif.got.tgz:24640.got - 2010.06.03 13:09:07.
