data_PCOD9205311
_publ_section_title
;
Structure prediction by ZEFSAII (Michael W. Deem and Ramdas Pophale) SiO2 
 PCOD9205311
Probable space group: C 2/M
;
_chemical_formula_sum "Si O2"
_cell_formula_units_Z 56
_cell_length_a 16.476473
_cell_length_b 22.714536
_cell_length_c 8.600893
_cell_angle_alpha 90.000000
_cell_angle_beta 65.333797
_cell_angle_gamma 90.000000
_cell_volume 2925.218039
_symmetry_space_group_name_H-M "C 2/M"
_symmetry_group_IT_number 12
_symmetry_cell_setting 'monoclinic'
loop_
_space_group_symop_operation_xyz
x,y,z
-x,y,-z
-x,-y,-z
x,-y,z
1/2+x,1/2+y,z
1/2-x,1/2+y,-z
1/2-x,1/2-y,-z
1/2+x,1/2-y,z
loop_
_atom_site_type_symbol
_atom_site_label
_atom_site_fract_x
_atom_site_fract_y
_atom_site_fract_z
Si Si1 0.718150 0.429253 0.642838
Si Si2 0.087761 0.167295 0.819790
Si Si3 0.754820 0.752839 0.180214
Si Si4 0.585142 0.763025 0.542365
Si Si5 0.317980 0.855020 0.323013
Si Si6 0.598314 0.063951 0.988428
Si Si7 0.910085 0.429203 0.662892
O O1 0.710302 0.500000 0.620852
O O2 0.625868 0.399698 0.776108
O O3 0.740225 0.384755 0.484177
O O4 0.812013 0.421593 0.664796
O O5 0.170510 0.199885 0.835740
O O6 0.076630 0.206306 0.667564
O O7 0.000000 0.170753 0.000000
O O8 0.666786 0.762796 0.353971
O O9 0.786333 0.691010 0.221661
O O10 0.750000 0.750000 0.000000
O O11 0.500000 0.767489 0.500000
O O12 0.610505 0.818979 0.630593
O O13 0.355130 0.907231 0.192896
O O14 0.639859 0.000000 0.983441
O O15 0.500000 0.058095 0.000000
O O16 0.594622 0.095619 0.158090
O O17 0.923559 0.500000 0.664896
O O18 0.000000 0.408653 0.500000
#
# Coordination Sequence:
#
# PCOD9205311 Si02
#       7
#     8   8   8   8   8   8   8
#     4  11  22  40  66  94 131 178 216 261 320 381
#     4  11  23  44  66  94 130 168 218 271 318 378
#     4  11  23  42  66  95 123 162 210 268 328 378
#     4  11  23  44  67  95 127 162 207 268 333 386
#     4  11  22  38  62  90 132 163 210 260 315 388
#     4  10  21  35  53  86 131 173 210 251 307 379
#     4   9  19  36  57  84 123 170 214 255 307 370
#
# _framework density 19.143872999999999
#
# number of rings (size 3 to 8) (size 9 to 14) (size 15 to 20)
#    0.000    1.429    2.857    3.000    2.000    7.714 
#    0.000    0.000    0.000    0.857    0.000    0.000 
#    0.000    0.000    0.000    0.000    0.000    0.000 
#
# Total GULP energy -155875.145535 kJ/mol
# GULP energy per Si atom -5566.969483 kJ/mol
# Density = 1.910030 g / cm^3
# Si number density = 19.143873 Si / 1000 Ang^3
#
#
#
# Elastic Constant Matrix: (Units=GPa)
#
#
# Indices 1 2 3 4 5 6 
#
# 1 74.6340 16.9569 36.8205 0.0000 0.9322 0.0000
# 2 16.9569 73.8752 9.7795 0.0000 1.0343 0.0000
# 3 36.8205 9.7795 83.6552 0.0000 2.4178 0.0000
# 4 0.0000 0.0000 0.0000 35.5997 0.0000 -6.5948
# 5 0.9322 1.0343 2.4178 0.0000 42.1167 0.0000
# 6 0.0000 0.0000 0.0000 -6.5948 0.0000 16.6534
#
#
#
# Elastic Compliance Matrix: (Units=1/GPa)
#
#
# Indices 1 2 3 4 5 6 
#
# 1 0.017786 -0.003095 -0.007470 0.000000 0.000111 0.000000
# 2 -0.003095 0.014290 -0.000301 0.000000 -0.000265 0.000000
# 3 -0.007470 -0.000301 0.015297 0.000000 -0.000705 0.000000
# 4 0.000000 0.000000 0.000000 0.030314 0.000000 0.012005
# 5 0.000111 -0.000265 -0.000705 0.000000 0.023788 0.000000
# 6 0.000000 0.000000 0.000000 0.012005 0.000000 0.064802
#
#
# Mechanical properties :
#
#
# Convention : Reuss Voigt Hill
#
# Bulk Modulus (GPa) = 38.99815 39.91981 39.45898
# Shear Modulus (GPa) = 25.43814 30.11446 27.77630
#
# Velocity S-wave (km/s) = 3.64921 3.97049 3.81323
# Velocity P-wave (km/s) = 6.17826 6.47437 6.32805
#
# Compressibility (1/GPa) = 0.02564224
#
# Stress axis : x y z
#
# Youngs Moduli (GPa) = 56.22488 69.97758 65.37183
#
# Poissons Ratio (x) = 0.21659 0.48831
# Poissons Ratio (y) = 0.17403 0.01965
# Poissons Ratio (z) = 0.41998 0.02103
#
# Static dielectric constant tensor:
#      x y z
#    x 1.903670 0.000000 -0.154320 
#    y 0.000000 1.799610 0.000000 
#    z -0.154320 0.000000 1.796840 
# 
# From -- ./inp_files/65776.got.cif
#   From: 2010.05.17/outbox.cif.g08.bks.cpg/sg12_33_cif.got.tgz:65776.got - 2010.06.03 13:09:07.
