data_PCOD9205981
_publ_section_title
;
Structure prediction by ZEFSAII (Michael W. Deem and Ramdas Pophale) SiO2 
 PCOD9205981
Probable space group: C 2/M
;
_chemical_formula_sum "Si O2"
_cell_formula_units_Z 56
_cell_length_a 17.269044
_cell_length_b 21.322035
_cell_length_c 11.728098
_cell_angle_alpha 90.000000
_cell_angle_beta 47.677576
_cell_angle_gamma 90.000000
_cell_volume 3192.897471
_symmetry_space_group_name_H-M "C 2/M"
_symmetry_group_IT_number 12
_symmetry_cell_setting 'monoclinic'
loop_
_space_group_symop_operation_xyz
x,y,z
-x,y,-z
-x,-y,-z
x,-y,z
1/2+x,1/2+y,z
1/2-x,1/2+y,-z
1/2-x,1/2-y,-z
1/2+x,1/2-y,z
loop_
_atom_site_type_symbol
_atom_site_label
_atom_site_fract_x
_atom_site_fract_y
_atom_site_fract_z
Si Si1 0.102402 0.075289 0.748603
Si Si2 0.236495 0.350836 0.562372
Si Si3 0.866908 0.733983 0.517611
Si Si4 0.607646 0.245548 0.248324
Si Si5 0.728925 0.850397 0.977074
Si Si6 0.361067 0.424820 0.026911
Si Si7 0.125210 0.425598 0.873096
O O1 0.169889 0.109972 0.587443
O O2 0.142740 0.092523 0.835650
O O3 0.111477 0.000000 0.728352
O O4 0.979002 0.090878 0.868239
O O5 0.165584 0.323344 0.530774
O O6 0.285987 0.290436 0.575976
O O7 0.172637 0.392734 0.714225
O O8 0.867799 0.718324 0.650413
O O9 0.983562 0.756109 0.368113
O O10 0.676046 0.308234 0.166033
O O11 0.645174 0.197730 0.113873
O O12 0.678045 0.892847 0.930079
O O13 0.777030 0.891267 0.031661
O O14 0.350027 0.500000 0.030934
O O15 0.146969 0.500000 0.851132
O O16 0.000000 0.416792 0.000000
#
# Coordination Sequence:
#
# PCOD9205981 Si02
#       7
#     8   8   8   8   8   8   8
#     4   9  18  33  54  81 111 142 182 231 277 328
#     4  11  20  36  57  79 108 150 184 225 279 337
#     4  10  21  36  55  80 109 140 181 234 277 325
#     4  10  21  36  55  80 109 140 181 234 277 325
#     4  11  20  36  57  79 108 150 184 225 279 337
#     4   9  18  33  54  81 111 142 182 231 277 328
#     4  11  24  40  57  81 113 149 191 234 276 333
#
# _framework density 17.538929
#
# number of rings (size 3 to 8) (size 9 to 14) (size 15 to 20)
#    0.000    1.857    1.429    4.286    0.000    0.000 
#    0.000    0.000    0.000    3.429    0.000   12.000 
#    0.000    0.000    0.000    0.000    0.000    0.000 
#
# Total GULP energy -156306.678442 kJ/mol
# GULP energy per Si atom -5582.381373 kJ/mol
# Density = 1.749901 g / cm^3
# Si number density = 17.538929 Si / 1000 Ang^3
#
#
#
# Elastic Constant Matrix: (Units=GPa)
#
#
# Indices 1 2 3 4 5 6 
#
# 1 47.6578 24.9263 -3.0123 0.0000 3.0867 0.0000
# 2 24.9263 70.9772 28.7113 0.0000 1.9301 0.0000
# 3 -3.0123 28.7113 72.6821 0.0000 -1.8653 0.0000
# 4 0.0000 0.0000 0.0000 29.2622 0.0000 5.0880
# 5 3.0867 1.9301 -1.8653 0.0000 21.0735 0.0000
# 6 0.0000 0.0000 0.0000 5.0880 0.0000 20.1137
#
#
#
# Elastic Compliance Matrix: (Units=1/GPa)
#
#
# Indices 1 2 3 4 5 6 
#
# 1 0.027829 -0.012078 0.005861 0.000000 -0.002451 0.000000
# 2 -0.012078 0.022106 -0.009261 0.000000 -0.001075 0.000000
# 3 0.005861 -0.009261 0.017700 0.000000 0.001556 0.000000
# 4 0.000000 0.000000 0.000000 0.035746 0.000000 -0.009042
# 5 -0.002451 -0.001075 0.001556 0.000000 0.048048 0.000000
# 6 0.000000 0.000000 0.000000 -0.009042 0.000000 0.052005
#
#
# Mechanical properties :
#
#
# Convention : Reuss Voigt Hill
#
# Bulk Modulus (GPa) = 27.26204 32.50754 29.88479
# Shear Modulus (GPa) = 20.27460 23.46932 21.87196
#
# Velocity S-wave (km/s) = 3.40366 3.66201 3.53519
# Velocity P-wave (km/s) = 5.56992 6.03781 5.80858
#
# Compressibility (1/GPa) = 0.03668104
#
# Stress axis : x y z
#
# Youngs Moduli (GPa) = 35.93364 45.23696 56.49855
#
# Poissons Ratio (x) = 0.54635 -0.33116
# Poissons Ratio (y) = 0.43399 0.52321
# Poissons Ratio (z) = -0.21062 0.41892
#
# Static dielectric constant tensor:
#      x y z
#    x 1.580100 0.000000 0.001630 
#    y 0.000000 1.576560 0.000000 
#    z 0.001630 0.000000 1.577560 
# 
# From -- ./inp_files/159183.got.cif
#   From: 2010.05.17/outbox.cif.g08.bks.cpg/sg12_80_cif.got.tgz:159183.got - 2010.06.03 13:09:07.
