data_PCOD9205022
_publ_section_title
;
Structure prediction by ZEFSAII (Michael W. Deem and Ramdas Pophale) SiO2 
 PCOD9205022
Probable space group: C 2/M
;
_chemical_formula_sum "Si O2"
_cell_formula_units_Z 40
_cell_length_a 11.467119
_cell_length_b 15.482363
_cell_length_c 10.788188
_cell_angle_alpha 90.000000
_cell_angle_beta 69.738112
_cell_angle_gamma 90.000000
_cell_volume 1796.793780
_symmetry_space_group_name_H-M "C 2/M"
_symmetry_group_IT_number 12
_symmetry_cell_setting 'monoclinic'
loop_
_space_group_symop_operation_xyz
x,y,z
-x,y,-z
-x,-y,-z
x,-y,z
1/2+x,1/2+y,z
1/2-x,1/2+y,-z
1/2-x,1/2-y,-z
1/2+x,1/2-y,z
loop_
_atom_site_type_symbol
_atom_site_label
_atom_site_fract_x
_atom_site_fract_y
_atom_site_fract_z
Si Si1 0.348016 0.213414 0.565933
Si Si2 0.144794 0.096448 0.704711
Si Si3 0.538788 0.903912 0.128298
Si Si4 0.164178 0.903629 0.988822
Si Si5 0.563336 0.276656 0.229873
O O1 0.500000 0.208258 0.500000
O O2 0.250000 0.250000 0.500000
O O3 0.285642 0.121484 0.620625
O O4 0.335723 0.266710 0.699109
O O5 0.046505 0.161762 0.682885
O O6 0.118970 0.000000 0.674966
O O7 0.124536 0.104863 0.860549
O O8 0.507322 0.817179 0.215224
O O9 0.496111 0.000000 0.187595
O O10 0.500000 0.894304 0.000000
O O11 0.687602 0.904075 0.072250
O O12 0.121836 0.825194 0.090426
O O13 0.126010 0.000000 0.048715
#
# Coordination Sequence:
#
# PCOD9205022 Si02
#       5
#     8   8   8   8   8
#     4  12  27  48  69  99 135 189 252 292 333 405
#     4  11  24  45  73 105 140 178 228 292 355 426
#     4  10  21  34  56  97 142 174 217 272 339 426
#     4  10  21  38  64 106 140 172 222 280 356 438
#     4  12  23  40  73  96 141 183 228 281 365 409
#
# _framework density 22.261875
#
# number of rings (size 3 to 8) (size 9 to 14) (size 15 to 20)
#    0.000    1.000    4.000    3.000    2.800    2.000 
#    0.000    3.000    0.000    0.000    0.000    0.000 
#    0.000    0.000    0.000    0.000    0.000    0.000 
#
# Total GULP energy -111583.270099 kJ/mol
# GULP energy per Si atom -5579.163505 kJ/mol
# Density = 2.221121 g / cm^3
# Si number density = 22.261875 Si / 1000 Ang^3
#
#
#
# Elastic Constant Matrix: (Units=GPa)
#
#
# Indices 1 2 3 4 5 6 
#
# 1 106.4755 60.8833 13.0048 0.0000 18.9599 0.0000
# 2 60.8833 176.3917 46.4686 0.0000 7.0080 0.0000
# 3 13.0048 46.4686 38.6891 0.0000 4.9027 0.0000
# 4 0.0000 0.0000 0.0000 12.8927 0.0000 -4.6807
# 5 18.9599 7.0080 4.9027 0.0000 44.1002 0.0000
# 6 0.0000 0.0000 0.0000 -4.6807 0.0000 35.4798
#
#
#
# Elastic Compliance Matrix: (Units=1/GPa)
#
#
# Indices 1 2 3 4 5 6 
#
# 1 0.012731 -0.004733 0.002032 0.000000 -0.004947 0.000000
# 2 -0.004733 0.010055 -0.010692 0.000000 0.001626 0.000000
# 3 0.002032 -0.010692 0.038443 0.000000 -0.003448 0.000000
# 4 0.000000 0.000000 0.000000 0.081465 0.000000 0.010747
# 5 -0.004947 0.001626 -0.003448 0.000000 0.024928 0.000000
# 6 0.000000 0.000000 0.000000 0.010747 0.000000 0.029603
#
#
# Mechanical properties :
#
#
# Convention : Reuss Voigt Hill
#
# Bulk Modulus (GPa) = 29.03311 62.47442 45.75377
# Shear Modulus (GPa) = 21.23229 31.90785 26.57007
#
# Velocity S-wave (km/s) = 3.09164 3.79000 3.45849
# Velocity P-wave (km/s) = 5.08077 6.87579 6.04527
#
# Compressibility (1/GPa) = 0.03444343
#
# Stress axis : x y z
#
# Youngs Moduli (GPa) = 78.54887 99.45373 26.01284
#
# Poissons Ratio (x) = 0.47072 -0.05287
# Poissons Ratio (y) = 0.37178 0.27812
# Poissons Ratio (z) = -0.15964 1.06334
#
# Static dielectric constant tensor:
#      x y z
#    x 1.872750 0.000000 -0.026830 
#    y 0.000000 1.847370 0.000000 
#    z -0.026830 0.000000 1.909210 
# 
# From -- ./inp_files/129582.got.cif
#   From: 2010.05.17/outbox.cif.g08.bks.cpg/sg12_65_cif.got.tgz:129582.got - 2010.06.03 13:09:07.
