data_PCOD9205720
_publ_section_title
;
Structure prediction by ZEFSAII (Michael W. Deem and Ramdas Pophale) SiO2 
 PCOD9205720
Probable space group: C 2/M
;
_chemical_formula_sum "Si O2"
_cell_formula_units_Z 56
_cell_length_a 9.834396
_cell_length_b 26.068613
_cell_length_c 14.907556
_cell_angle_alpha 90.000000
_cell_angle_beta 121.102748
_cell_angle_gamma 90.000000
_cell_volume 3272.417830
_symmetry_space_group_name_H-M "C 2/M"
_symmetry_group_IT_number 12
_symmetry_cell_setting 'monoclinic'
loop_
_space_group_symop_operation_xyz
x,y,z
-x,y,-z
-x,-y,-z
x,-y,z
1/2+x,1/2+y,z
1/2-x,1/2+y,-z
1/2-x,1/2-y,-z
1/2+x,1/2-y,z
loop_
_atom_site_type_symbol
_atom_site_label
_atom_site_fract_x
_atom_site_fract_y
_atom_site_fract_z
Si Si1 0.066144 0.198515 0.750735
Si Si2 0.381392 0.099485 0.544249
Si Si3 0.582046 0.778694 0.432140
Si Si4 0.478661 0.608360 0.592610
Si Si5 0.064877 0.749391 0.922431
Si Si6 0.322406 0.058728 0.715405
Si Si7 0.583426 0.149634 0.123897
O O1 0.005730 0.209712 0.830083
O O2 0.248582 0.180189 0.824585
O O3 0.025984 0.248859 0.677704
O O4 0.989727 0.151902 0.671008
O O5 0.500000 0.090320 0.500000
O O6 0.391463 0.160340 0.573233
O O7 0.197904 0.086296 0.457750
O O8 0.401138 0.069488 0.644834
O O9 0.500000 0.774117 0.500000
O O10 0.750000 0.750000 0.500000
O O11 0.500000 0.632201 0.500000
O O12 0.631635 0.571012 0.648680
O O13 0.025115 0.693354 0.869824
O O14 0.250000 0.750000 0.000000
O O15 0.000000 0.755674 0.000000
O O16 0.392159 0.099362 0.809498
O O17 0.346521 0.000000 0.749051
O O18 0.500000 0.138446 0.000000
#
# Coordination Sequence:
#
# PCOD9205720 Si02
#       7
#     8   8   8   8   8   8   8
#     4  11  20  33  55  76 114 155 183 225 272 325
#     4  10  21  36  51  87 121 146 187 229 282 345
#     4  11  23  32  52  83 119 160 186 215 272 341
#     4   9  19  35  57  80 110 145 192 230 274 340
#     4  11  21  36  53  82 113 153 188 219 276 335
#     4  10  22  39  62  81 103 150 197 241 291 329
#     4  10  21  38  57  82 112 141 190 244 276 331
#
# _framework density 17.112728000000001
#
# number of rings (size 3 to 8) (size 9 to 14) (size 15 to 20)
#    0.000    1.714    4.286    1.286    6.000    3.143 
#    2.571    0.000    0.000    0.000    0.000    0.000 
#    0.000    6.286    0.000    0.000    0.000    0.000 
#
# Total GULP energy -155914.043187 kJ/mol
# GULP energy per Si atom -5568.358685 kJ/mol
# Density = 1.707378 g / cm^3
# Si number density = 17.112728 Si / 1000 Ang^3
#
#
#
# Elastic Constant Matrix: (Units=GPa)
#
#
# Indices 1 2 3 4 5 6 
#
# 1 93.4913 34.2965 35.7980 0.0000 -4.3485 0.0000
# 2 34.2965 92.0984 39.8877 0.0000 -7.4188 0.0000
# 3 35.7980 39.8877 108.4723 0.0000 -4.6554 0.0000
# 4 0.0000 0.0000 0.0000 15.9183 0.0000 -2.5481
# 5 -4.3485 -7.4188 -4.6554 0.0000 25.7856 0.0000
# 6 0.0000 0.0000 0.0000 -2.5481 0.0000 16.0665
#
#
#
# Elastic Compliance Matrix: (Units=1/GPa)
#
#
# Indices 1 2 3 4 5 6 
#
# 1 0.013184 -0.003550 -0.003018 0.000000 0.000657 0.000000
# 2 -0.003550 0.014086 -0.003890 0.000000 0.002752 0.000000
# 3 -0.003018 -0.003890 0.011666 0.000000 0.000478 0.000000
# 4 0.000000 0.000000 0.000000 0.064457 0.000000 0.010223
# 5 0.000657 0.002752 0.000478 0.000000 0.039770 0.000000
# 6 0.000000 0.000000 0.000000 0.010223 0.000000 0.063863
#
#
# Mechanical properties :
#
#
# Convention : Reuss Voigt Hill
#
# Bulk Modulus (GPa) = 55.48986 57.11404 56.30195
# Shear Modulus (GPa) = 21.37216 23.82607 22.59911
#
# Velocity S-wave (km/s) = 3.53782 3.73540 3.63795
# Velocity P-wave (km/s) = 7.01318 7.21470 7.11465
#
# Compressibility (1/GPa) = 0.01802131
#
# Stress axis : x y z
#
# Youngs Moduli (GPa) = 75.84707 70.99034 85.72044
#
# Poissons Ratio (x) = 0.25201 0.25866
# Poissons Ratio (y) = 0.26925 0.33347
# Poissons Ratio (z) = 0.22887 0.27617
#
# Static dielectric constant tensor:
#      x y z
#    x 1.592330 0.000000 0.034980 
#    y 0.000000 1.578050 0.000000 
#    z 0.034980 0.000000 1.649950 
# 
# From -- ./inp_files/198956.got.cif
#   From: 2010.05.17/outbox.cif.g08.bks.cpg/sg12_100_cif.got.tgz:198956.got - 2010.06.03 13:09:07.
