data_PCOD9205387
_publ_section_title
;
Structure prediction by ZEFSAII (Michael W. Deem and Ramdas Pophale) SiO2 
 PCOD9205387
Probable space group: C 2/M
;
_chemical_formula_sum "Si O2"
_cell_formula_units_Z 58
_cell_length_a 29.070500
_cell_length_b 7.920982
_cell_length_c 19.616605
_cell_angle_alpha 90.000000
_cell_angle_beta 140.470033
_cell_angle_gamma 90.000000
_cell_volume 2875.022870
_symmetry_space_group_name_H-M "C 2/M"
_symmetry_group_IT_number 12
_symmetry_cell_setting 'monoclinic'
loop_
_space_group_symop_operation_xyz
x,y,z
-x,y,-z
-x,-y,-z
x,-y,z
1/2+x,1/2+y,z
1/2-x,1/2+y,-z
1/2-x,1/2-y,-z
1/2+x,1/2-y,z
loop_
_atom_site_type_symbol
_atom_site_label
_atom_site_fract_x
_atom_site_fract_y
_atom_site_fract_z
Si Si1 0.295903 0.698026 0.158439
Si Si2 0.273047 0.198242 0.427564
Si Si3 0.000000 0.000000 0.000000
Si Si4 0.023508 0.808190 0.878757
Si Si5 0.849449 0.799669 0.078695
Si Si6 0.402157 0.188830 0.906770
Si Si7 0.366851 0.802889 0.661107
Si Si8 0.731677 0.701648 0.725942
O O1 0.313304 0.500000 0.184655
O O2 0.342761 0.765812 0.148535
O O3 0.299813 0.771036 0.238979
O O4 0.213220 0.715479 0.037971
O O5 0.329489 0.262363 0.548724
O O6 0.195534 0.282882 0.353435
O O7 0.296769 0.225485 0.377378
O O8 0.263075 0.000000 0.429198
O O9 0.939779 0.153287 0.913569
O O10 0.073735 0.786992 0.869844
O O11 0.941278 0.784716 0.764587
O O12 0.033796 0.000000 0.921181
O O13 0.057097 0.687993 0.973803
O O14 0.831523 0.000000 0.059480
O O15 0.318301 0.227185 0.824688
O O16 0.408863 0.000000 0.883431
O O17 0.383220 0.000000 0.671178
O O18 0.720593 0.500000 0.711426
#
# Coordination Sequence:
#
# PCOD9205387 Si02
#       8
#     8   8   2   8   8   8   8   8
#     4   9  17  32  52  78 109 143 178 220 275 331
#     4  10  22  38  58  79 104 138 183 233 282 332
#     4  12  26  40  52  74 116 160 194 220 288 336
#     4  11  21  35  55  81 112 148 186 229 276 333
#     4   9  18  31  52  79 110 142 180 223 269 330
#     4  11  24  38  53  81 115 151 191 231 276 340
#     4  10  22  39  57  79 104 140 185 233 282 330
#     4  10  21  35  55  79 110 144 182 229 279 333
#
# _framework density 20.173753000000001
#
# number of rings (size 3 to 8) (size 9 to 14) (size 15 to 20)
#    0.000    1.931    2.069    1.448    2.897    2.759 
#    0.000    0.000    0.000    0.828    0.000    5.793 
#    0.000    0.000    0.000    0.000    0.000    0.000 
#
# Total GULP energy -161730.234898 kJ/mol
# GULP energy per Si atom -5576.904652 kJ/mol
# Density = 2.012784 g / cm^3
# Si number density = 20.173753 Si / 1000 Ang^3
#
#
#
# Elastic Constant Matrix: (Units=GPa)
#
#
# Indices 1 2 3 4 5 6 
#
# 1 81.4991 13.6215 32.3378 0.0000 -27.9437 0.0000
# 2 13.6215 67.7445 5.0175 -0.0001 2.3935 0.0000
# 3 32.3378 5.0175 75.4193 0.0000 -13.2036 0.0000
# 4 0.0000 -0.0001 0.0000 21.4339 0.0000 -3.8988
# 5 -27.9437 2.3935 -13.2036 0.0000 34.1922 0.0000
# 6 0.0000 0.0000 0.0000 -3.8988 0.0000 18.7289
#
#
#
# Elastic Compliance Matrix: (Units=1/GPa)
#
#
# Indices 1 2 3 4 5 6 
#
# 1 0.020309 -0.004165 -0.005871 0.000000 0.014622 0.000000
# 2 -0.004165 0.015763 -0.000056 0.000000 -0.004529 0.000000
# 3 -0.005871 -0.000056 0.016024 0.000000 0.001394 0.000000
# 4 0.000000 0.000000 0.000000 0.048491 0.000000 0.010094
# 5 0.014622 -0.004529 0.001394 0.000000 0.042052 0.000000
# 6 0.000000 0.000000 0.000000 0.010094 0.000000 0.055495
#
#
# Mechanical properties :
#
#
# Convention : Reuss Voigt Hill
#
# Bulk Modulus (GPa) = 31.33564 36.29071 33.81317
# Shear Modulus (GPa) = 21.83825 26.45007 24.14416
#
# Velocity S-wave (km/s) = 3.29372 3.62486 3.46325
# Velocity P-wave (km/s) = 5.48009 5.96218 5.72621
#
# Compressibility (1/GPa) = 0.03191255
#
# Stress axis : x y z
#
# Youngs Moduli (GPa) = 49.23832 63.43963 62.40541
#
# Poissons Ratio (x) = 0.26425 0.36639
# Poissons Ratio (y) = 0.20510 0.00347
# Poissons Ratio (z) = 0.28908 0.00353
#
# Static dielectric constant tensor:
#      x y z
#    x 1.711710 0.000000 -0.013730 
#    y 0.000000 1.757290 0.000000 
#    z -0.013730 0.000000 1.687520 
# 
# From -- ./inp_files/329087.got.cif
#   From: 2010.05.17/outbox.cif.g08.bks.cpg/sg12_165_cif.got.tgz:329087.got - 2010.06.03 13:09:07.
