data_PCOD9205275
_publ_section_title
;
Structure prediction by ZEFSAII (Michael W. Deem and Ramdas Pophale) SiO2 
 PCOD9205275
Probable space group: C 2/M
;
_chemical_formula_sum "Si O2"
_cell_formula_units_Z 56
_cell_length_a 18.803848
_cell_length_b 8.785092
_cell_length_c 29.841167
_cell_angle_alpha 90.000000
_cell_angle_beta 142.055218
_cell_angle_gamma 90.000000
_cell_volume 3031.199926
_symmetry_space_group_name_H-M "C 2/M"
_symmetry_group_IT_number 12
_symmetry_cell_setting 'monoclinic'
loop_
_space_group_symop_operation_xyz
x,y,z
-x,y,-z
-x,-y,-z
x,-y,z
1/2+x,1/2+y,z
1/2-x,1/2+y,-z
1/2-x,1/2-y,-z
1/2+x,1/2-y,z
loop_
_atom_site_type_symbol
_atom_site_label
_atom_site_fract_x
_atom_site_fract_y
_atom_site_fract_z
Si Si1 0.761897 0.682331 0.142552
Si Si2 0.828217 0.184011 0.999746
Si Si3 0.289359 0.181485 0.566989
Si Si4 0.905815 0.182295 0.858094
Si Si5 0.957537 0.181589 0.299030
Si Si6 0.364172 0.817982 0.429875
Si Si7 0.710595 0.681566 0.701554
O O1 0.782433 0.500000 0.152571
O O2 0.721401 0.730585 0.073305
O O3 0.659885 0.711744 0.127683
O O4 0.875060 0.765153 0.217616
O O5 0.826108 0.000000 0.999826
O O6 0.750000 0.250000 0.000000
O O7 0.961487 0.231005 0.072492
O O8 0.250000 0.250000 0.500000
O O9 0.419782 0.236495 0.641020
O O10 0.205853 0.241556 0.564593
O O11 0.284463 0.000000 0.562551
O O12 0.831453 0.264125 0.782924
O O13 0.901825 0.000000 0.848455
O O14 0.887522 0.220129 0.310001
O O15 0.973559 0.000000 0.305758
O O16 0.500000 0.778536 0.500000
O O17 0.315970 0.761882 0.358332
O O18 0.352959 0.000000 0.427816
O O19 0.710722 0.500000 0.695749
#
# Coordination Sequence:
#
# PCOD9205275 Si02
#       7
#     8   8   8   8   8   8   8
#     4   9  18  35  58  81 107 144 191 235 277 331
#     4  10  21  35  53  79 110 145 184 231 285 337
#     4  12  25  41  62  87 117 152 190 233 281 333
#     4   9  18  35  58  80 106 145 191 234 276 330
#     4  10  21  38  60  87 118 150 188 233 282 337
#     4  11  24  41  62  87 115 150 191 233 280 335
#     4  10  21  37  59  87 117 149 186 232 284 336
#
# _framework density 18.474532
#
# number of rings (size 3 to 8) (size 9 to 14) (size 15 to 20)
#    0.000    1.857    0.000    3.857    0.000    9.143 
#    0.000    2.857    0.000    4.286    0.000    0.000 
#    0.000    0.000    0.000    0.000    0.000    0.000 
#
# Total GULP energy -156482.727800 kJ/mol
# GULP energy per Si atom -5588.668850 kJ/mol
# Density = 1.843248 g / cm^3
# Si number density = 18.474532 Si / 1000 Ang^3
#
#
#
# Elastic Constant Matrix: (Units=GPa)
#
#
# Indices 1 2 3 4 5 6 
#
# 1 131.7203 69.8821 119.2658 0.0000 4.6174 0.0001
# 2 69.8821 70.6990 73.5031 0.0000 4.0996 0.0001
# 3 119.2658 73.5031 177.0238 0.0000 -0.0153 0.0000
# 4 0.0000 0.0000 0.0000 27.7055 0.0000 -1.0290
# 5 4.6174 4.0996 -0.0153 0.0000 35.3088 0.0000
# 6 0.0001 0.0001 0.0000 -1.0290 0.0000 32.1593
#
#
#
# Elastic Compliance Matrix: (Units=1/GPa)
#
#
# Indices 1 2 3 4 5 6 
#
# 1 0.024472 -0.012219 -0.011414 0.000000 -0.001786 0.000000
# 2 -0.012219 0.031288 -0.004760 0.000000 -0.002037 0.000000
# 3 -0.011414 -0.004760 0.015315 0.000000 0.002052 0.000000
# 4 0.000000 0.000000 0.000000 0.036137 0.000000 0.001156
# 5 -0.001786 -0.002037 0.002052 0.000000 0.028793 0.000000
# 6 0.000000 0.000000 0.000000 0.001156 0.000000 0.031132
#
#
# Mechanical properties :
#
#
# Convention : Reuss Voigt Hill
#
# Bulk Modulus (GPa) = 69.97436 100.52725 85.25080
# Shear Modulus (GPa) = 21.86412 26.82086 24.34249
#
# Velocity S-wave (km/s) = 3.44390 3.81435 3.63385
# Velocity P-wave (km/s) = 7.33296 8.59832 7.99072
#
# Compressibility (1/GPa) = 0.01429095
#
# Stress axis : x y z
#
# Youngs Moduli (GPa) = 40.86366 31.96070 65.29392
#
# Poissons Ratio (x) = 0.39051 0.74527
# Poissons Ratio (y) = 0.49929 0.31078
# Poissons Ratio (z) = 0.46642 0.15212
#
# Static dielectric constant tensor:
#      x y z
#    x 1.609010 0.000000 0.003830 
#    y 0.000000 1.621530 0.000000 
#    z 0.003830 0.000000 1.609720 
# 
# From -- ./inp_files/363223.got.cif
#   From: 2010.05.17/outbox.cif.g08.bks.cpg/sg12_182_cif.got.tgz:363223.got - 2010.06.03 13:09:07.
