data_PCOD9205759
_publ_section_title
;
Structure prediction by ZEFSAII (Michael W. Deem and Ramdas Pophale) SiO2 
 PCOD9205759
Probable space group: C 2/M
;
_chemical_formula_sum "Si O2"
_cell_formula_units_Z 64
_cell_length_a 14.771220
_cell_length_b 18.190469
_cell_length_c 15.382224
_cell_angle_alpha 90.000000
_cell_angle_beta 101.348348
_cell_angle_gamma 90.000000
_cell_volume 4052.326095
_symmetry_space_group_name_H-M "C 2/M"
_symmetry_group_IT_number 12
_symmetry_cell_setting 'monoclinic'
loop_
_space_group_symop_operation_xyz
x,y,z
-x,y,-z
-x,-y,-z
x,-y,z
1/2+x,1/2+y,z
1/2-x,1/2+y,-z
1/2-x,1/2-y,-z
1/2+x,1/2-y,z
loop_
_atom_site_type_symbol
_atom_site_label
_atom_site_fract_x
_atom_site_fract_y
_atom_site_fract_z
Si Si1 0.367628 0.410976 0.413497
Si Si2 0.378417 0.200039 0.066664
Si Si3 0.572387 0.588941 0.388599
Si Si4 0.408358 0.195600 0.866785
Si Si5 0.721879 0.582908 0.078400
Si Si6 0.907991 0.139472 0.799719
Si Si7 0.879563 0.130239 0.112738
Si Si8 0.739033 0.086511 0.236727
O O1 0.366994 0.500000 0.413006
O O2 0.369908 0.388690 0.514816
O O3 0.465968 0.390146 0.389379
O O4 0.284137 0.387537 0.336153
O O5 0.482717 0.177913 0.111544
O O6 0.302763 0.142668 0.084511
O O7 0.362885 0.281991 0.100328
O O8 0.376674 0.203120 0.961295
O O9 0.575465 0.500000 0.382008
O O10 0.602797 0.623104 0.303823
O O11 0.396356 0.274667 0.819894
O O12 0.347804 0.134306 0.808614
O O13 0.758340 0.500000 0.080918
O O14 0.664387 0.595963 0.154972
O O15 0.652901 0.595768 0.984206
O O16 0.012551 0.118490 0.847563
O O17 0.817569 0.098056 0.178135
O O18 0.717183 0.000000 0.237713
#
# Coordination Sequence:
#
# PCOD9205759 Si02
#       8
#     8   8   8   8   8   8   8   8
#     4   8  16  30  50  75 104 132 157 197 253 302
#     4  10  21  38  51  64  98 143 178 202 241 293
#     4   9  16  30  50  75 106 134 160 194 245 308
#     4  10  21  36  53  69  94 137 178 210 244 289
#     4  12  23  32  48  75 104 133 169 210 246 290
#     4  11  21  33  50  75 105 136 164 196 248 308
#     4  11  20  33  50  71 103 135 163 199 244 303
#     4  11  20  32  53  79  99 125 168 214 253 289
#
# _framework density 15.793398
#
# number of rings (size 3 to 8) (size 9 to 14) (size 15 to 20)
#    0.000    1.750    3.750    3.000    0.000    2.500 
#    0.000    1.875    0.000    0.000    0.000    0.000 
#    0.000    4.000    0.000    0.000    0.000    0.000 
#
# Total GULP energy -178595.776384 kJ/mol
# GULP energy per Si atom -5581.118012 kJ/mol
# Density = 1.575745 g / cm^3
# Si number density = 15.793398 Si / 1000 Ang^3
#
#
#
# Elastic Constant Matrix: (Units=GPa)
#
#
# Indices 1 2 3 4 5 6 
#
# 1 50.8205 23.8829 33.0372 0.0000 -1.9732 0.0000
# 2 23.8829 50.5863 28.5648 0.0000 2.7481 0.0000
# 3 33.0372 28.5648 121.2889 0.0000 -0.3940 0.0000
# 4 0.0000 0.0000 0.0000 23.3985 0.0000 -22.1813
# 5 -1.9732 2.7481 -0.3940 0.0000 24.4180 0.0000
# 6 0.0000 0.0000 0.0000 -22.1813 0.0000 93.9365
#
#
#
# Elastic Compliance Matrix: (Units=1/GPa)
#
#
# Indices 1 2 3 4 5 6 
#
# 1 0.028121 -0.010543 -0.005166 0.000000 0.003376 0.000000
# 2 -0.010543 0.026926 -0.003482 0.000000 -0.003939 0.000000
# 3 -0.005166 -0.003482 0.010472 0.000000 0.000143 0.000000
# 4 0.000000 0.000000 0.000000 0.055064 0.000000 0.013002
# 5 0.003376 -0.003939 0.000143 0.000000 0.041672 0.000000
# 6 0.000000 0.000000 0.000000 0.013002 0.000000 0.013716
#
#
# Mechanical properties :
#
#
# Convention : Reuss Voigt Hill
#
# Bulk Modulus (GPa) = 36.84969 43.74063 40.29516
# Shear Modulus (GPa) = 22.38151 37.49800 29.93975
#
# Velocity S-wave (km/s) = 3.76858 4.87795 4.35870
# Velocity P-wave (km/s) = 6.50533 7.71242 7.13445
#
# Compressibility (1/GPa) = 0.02713727
#
# Stress axis : x y z
#
# Youngs Moduli (GPa) = 35.56076 37.13864 95.48844
#
# Poissons Ratio (x) = 0.39155 0.49327
# Poissons Ratio (y) = 0.37491 0.33254
# Poissons Ratio (z) = 0.18370 0.12933
#
# Static dielectric constant tensor:
#      x y z
#    x 1.520630 0.000000 0.009800 
#    y 0.000000 1.518130 0.000000 
#    z 0.009800 0.000000 1.527740 
# 
# From -- ./inp_files/215966.got.cif
#   From: 2010.05.17/outbox.cif.g08.bks.cpg/sg12_108_cif.got.tgz:215966.got - 2010.06.03 13:09:07.
