data_PCOD9205529
_publ_section_title
;
Structure prediction by ZEFSAII (Michael W. Deem and Ramdas Pophale) SiO2 
 PCOD9205529
Probable space group: C 2/M
;
_chemical_formula_sum "Si O2"
_cell_formula_units_Z 52
_cell_length_a 8.737387
_cell_length_b 21.376414
_cell_length_c 20.315974
_cell_angle_alpha 90.000000
_cell_angle_beta 47.433180
_cell_angle_gamma 90.000000
_cell_volume 2794.604174
_symmetry_space_group_name_H-M "C 2/M"
_symmetry_group_IT_number 12
_symmetry_cell_setting 'monoclinic'
loop_
_space_group_symop_operation_xyz
x,y,z
-x,y,-z
-x,-y,-z
x,-y,z
1/2+x,1/2+y,z
1/2-x,1/2+y,-z
1/2-x,1/2-y,-z
1/2+x,1/2-y,z
loop_
_atom_site_type_symbol
_atom_site_label
_atom_site_fract_x
_atom_site_fract_y
_atom_site_fract_z
Si Si1 0.246906 0.929367 0.930760
Si Si2 0.500000 0.855717 0.500000
Si Si3 0.581174 0.805719 0.049584
Si Si4 0.231591 0.308519 0.744961
Si Si5 0.177217 0.243614 0.629937
Si Si6 0.918632 0.571468 0.270177
Si Si7 0.261596 0.624448 0.547734
O O1 0.325837 0.871059 0.950485
O O2 0.351766 0.922762 0.827971
O O3 0.306449 0.000000 0.936718
O O4 0.000000 0.926626 0.000000
O O5 0.648764 0.809392 0.415324
O O6 0.342423 0.888932 0.493530
O O7 0.387768 0.790726 0.154220
O O8 0.500000 0.813977 0.000000
O O9 0.750000 0.750000 0.000000
O O10 0.121697 0.274833 0.715731
O O11 0.467522 0.288518 0.667964
O O12 0.214988 0.382303 0.736525
O O13 0.250163 0.300402 0.562131
O O14 0.852738 0.500000 0.283989
O O15 0.886183 0.593852 0.353950
O O16 0.500000 0.606599 0.500000
#
# Coordination Sequence:
#
# PCOD9205529 Si02
#       7
#     8   4   8   8   8   8   8
#     4   9  19  39  65  84 107 153 202 240 289 359
#     4  12  20  34  55  86 117 146 190 250 288 346
#     4  11  22  36  54  86 125 152 186 242 300 357
#     4  10  21  35  57  85 108 155 189 231 294 346
#     4  11  19  35  54  81 115 142 193 238 289 348
#     4   9  20  39  59  81 113 152 196 234 282 353
#     4  11  22  35  57  87 118 155 195 241 302 352
#
# _framework density 18.607286999999999
#
# number of rings (size 3 to 8) (size 9 to 14) (size 15 to 20)
#    0.000    1.692    2.308    3.692    0.000    3.077 
#    2.769    0.385    0.000    0.923    0.000    0.000 
#    0.000    0.000    0.000    0.000    0.000    0.000 
#
# Total GULP energy -144875.081609 kJ/mol
# GULP energy per Si atom -5572.118523 kJ/mol
# Density = 1.856494 g / cm^3
# Si number density = 18.607287 Si / 1000 Ang^3
#
#
#
# Elastic Constant Matrix: (Units=GPa)
#
#
# Indices 1 2 3 4 5 6 
#
# 1 93.8824 28.7163 44.0896 0.0000 5.1443 0.0000
# 2 28.7163 87.2318 40.5604 0.0000 -2.9069 0.0000
# 3 44.0896 40.5604 97.2554 0.0000 7.7056 0.0000
# 4 0.0000 0.0000 0.0000 26.5413 0.0000 0.2235
# 5 5.1443 -2.9069 7.7056 0.0000 34.0153 0.0000
# 6 0.0000 0.0000 0.0000 0.2235 0.0000 11.2769
#
#
#
# Elastic Compliance Matrix: (Units=1/GPa)
#
#
# Indices 1 2 3 4 5 6 
#
# 1 0.013854 -0.002129 -0.005308 0.000000 -0.001075 0.000000
# 2 -0.002129 0.014779 -0.005422 0.000000 0.002813 0.000000
# 3 -0.005308 -0.005422 0.015195 0.000000 -0.003103 0.000000
# 4 0.000000 0.000000 0.000000 0.037683 0.000000 -0.000747
# 5 -0.001075 0.002813 -0.003103 0.000000 0.030504 0.000000
# 6 0.000000 0.000000 0.000000 -0.000747 0.000000 0.088692
#
#
# Mechanical properties :
#
#
# Convention : Reuss Voigt Hill
#
# Bulk Modulus (GPa) = 55.20949 56.12247 55.66598
# Shear Modulus (GPa) = 21.50894 25.36691 23.43793
#
# Velocity S-wave (km/s) = 3.40360 3.69627 3.55295
# Velocity P-wave (km/s) = 6.72171 6.96014 6.84196
#
# Compressibility (1/GPa) = 0.01811283
#
# Stress axis : x y z
#
# Youngs Moduli (GPa) = 72.17985 67.66341 65.80975
#
# Poissons Ratio (x) = 0.14403 0.34930
# Poissons Ratio (y) = 0.15364 0.35679
# Poissons Ratio (z) = 0.38312 0.36684
#
# Static dielectric constant tensor:
#      x y z
#    x 1.659920 0.000000 -0.004390 
#    y 0.000000 1.655480 0.000000 
#    z -0.004390 0.000000 1.669780 
# 
# From -- ./inp_files/302272.got.cif
#   From: 2010.05.17/outbox.cif.g08.bks.cpg/sg12_152_cif.got.tgz:302272.got - 2010.06.03 13:09:07.
