data_PCOD9205747
_publ_section_title
;
Structure prediction by ZEFSAII (Michael W. Deem and Ramdas Pophale) SiO2 
 PCOD9205747
Probable space group: C 2/M
;
_chemical_formula_sum "Si O2"
_cell_formula_units_Z 48
_cell_length_a 16.365494
_cell_length_b 21.825456
_cell_length_c 13.114578
_cell_angle_alpha 90.000000
_cell_angle_beta 28.220046
_cell_angle_gamma 90.000000
_cell_volume 2215.024303
_symmetry_space_group_name_H-M "C 2/M"
_symmetry_group_IT_number 12
_symmetry_cell_setting 'monoclinic'
loop_
_space_group_symop_operation_xyz
x,y,z
-x,y,-z
-x,-y,-z
x,-y,z
1/2+x,1/2+y,z
1/2-x,1/2+y,-z
1/2-x,1/2-y,-z
1/2+x,1/2-y,z
loop_
_atom_site_type_symbol
_atom_site_label
_atom_site_fract_x
_atom_site_fract_y
_atom_site_fract_z
Si Si1 0.430693 0.682423 0.231105
Si Si2 0.199043 0.375956 0.786800
Si Si3 0.860196 0.761309 0.534945
Si Si4 0.245183 0.430860 0.954744
Si Si5 0.693980 0.191802 0.131249
Si Si6 0.353868 0.568165 0.415455
O O1 0.318450 0.725844 0.284936
O O2 0.401257 0.706359 0.380275
O O3 0.349067 0.615140 0.327519
O O4 0.635506 0.680957 0.988016
O O5 0.320303 0.316018 0.656680
O O6 0.230042 0.417380 0.851261
O O7 0.240805 0.410997 0.636108
O O8 0.000000 0.356707 0.000000
O O9 0.018152 0.714874 0.374883
O O10 0.179399 0.500000 0.049804
O O11 0.447357 0.430146 0.763568
O O12 0.165785 0.371109 0.098601
O O13 0.750000 0.250000 0.000000
O O14 0.307458 0.500000 0.436370
#
# Coordination Sequence:
#
# PCOD9205747 Si02
#       6
#     8   8   8   8   8   8
#     4   8  16  30  50  69  90 129 175 224 257 292
#     4  11  23  32  45  73 109 148 173 209 264 320
#     4   9  18  33  48  68  98 133 181 222 252 299
#     4  10  21  36  52  77 112 143 175 217 266 328
#     4   9  18  32  56  73  95 141 182 220 263 304
#     4   9  18  33  49  70 102 139 176 210 258 320
#
# _framework density 21.670193000000001
#
# number of rings (size 3 to 8) (size 9 to 14) (size 15 to 20)
#    0.000    2.667    0.000    2.000    9.333    2.667 
#    0.000    0.000    0.000    0.000    0.000    0.000 
#    0.000    6.667    0.000    0.000    0.000    1.000 
#
# Total GULP energy -134010.543238 kJ/mol
# GULP energy per Si atom -5583.772635 kJ/mol
# Density = 2.162087 g / cm^3
# Si number density = 21.670193 Si / 1000 Ang^3
#
#
#
# Elastic Constant Matrix: (Units=GPa)
#
#
# Indices 1 2 3 4 5 6 
#
# 1 22.4414 21.6935 4.3387 0.0128 6.9514 -0.0032
# 2 21.6935 177.3061 35.5631 0.0057 2.8464 0.0012
# 3 4.3387 35.5631 48.6201 0.0248 -14.6443 -0.0077
# 4 0.0128 0.0057 0.0248 22.9455 -0.0115 1.9720
# 5 6.9514 2.8464 -14.6443 -0.0115 18.9683 0.0179
# 6 -0.0032 0.0012 -0.0077 1.9720 0.0179 27.3051
#
#
#
# Elastic Compliance Matrix: (Units=1/GPa)
#
#
# Indices 1 2 3 4 5 6 
#
# 1 0.060519 -0.004726 -0.010958 -0.000038 -0.029930 0.000026
# 2 -0.004726 0.007581 -0.006442 0.000006 -0.004379 0.000000
# 3 -0.010958 -0.006442 0.036169 -0.000014 0.032907 -0.000011
# 4 -0.000038 0.000006 -0.000014 0.043854 0.000032 -0.003167
# 5 -0.029930 -0.004379 0.032907 0.000032 0.089751 -0.000055
# 6 0.000026 0.000000 -0.000011 -0.003167 -0.000055 0.036852
#
#
# Mechanical properties :
#
#
# Convention : Reuss Voigt Hill
#
# Bulk Modulus (GPa) = 16.66247 41.28426 28.97336
# Shear Modulus (GPa) = 14.74999 26.29526 20.52263
#
# Velocity S-wave (km/s) = 2.61177 3.48721 3.08075
# Velocity P-wave (km/s) = 4.09890 5.94195 5.10430
#
# Compressibility (1/GPa) = 0.06001512
#
# Stress axis : x y z
#
# Youngs Moduli (GPa) = 16.52384 131.91541 27.64794
#
# Poissons Ratio (x) = 0.62343 0.30298
# Poissons Ratio (y) = 0.07809 0.17811
# Poissons Ratio (z) = 0.18108 0.84981
#
# Static dielectric constant tensor:
#      x y z
#    x 1.812700 -0.000010 -0.013880 
#    y -0.000010 1.826570 0.000030 
#    z -0.013880 0.000030 1.796000 
# 
# From -- ./inp_files/285358.got.cif
#   From: 2010.05.17/outbox.cif.g08.bks.cpg/sg12_143_cif.got.tgz:285358.got - 2010.06.03 13:09:07.
