data_PCOD9205301
_publ_section_title
;
Structure prediction by ZEFSAII (Michael W. Deem and Ramdas Pophale) SiO2 
 PCOD9205301
Probable space group: C 2/M
;
_chemical_formula_sum "Si O2"
_cell_formula_units_Z 64
_cell_length_a 15.267483
_cell_length_b 17.448017
_cell_length_c 14.167036
_cell_angle_alpha 90.000000
_cell_angle_beta 134.469366
_cell_angle_gamma 90.000000
_cell_volume 2693.162968
_symmetry_space_group_name_H-M "C 2/M"
_symmetry_group_IT_number 12
_symmetry_cell_setting 'monoclinic'
loop_
_space_group_symop_operation_xyz
x,y,z
-x,y,-z
-x,-y,-z
x,-y,z
1/2+x,1/2+y,z
1/2-x,1/2+y,-z
1/2-x,1/2-y,-z
1/2+x,1/2-y,z
loop_
_atom_site_type_symbol
_atom_site_label
_atom_site_fract_x
_atom_site_fract_y
_atom_site_fract_z
Si Si1 0.580768 0.088148 0.212086
Si Si2 0.893448 0.859914 0.994796
Si Si3 0.421502 0.237079 0.658557
Si Si4 0.915624 0.084277 0.717552
Si Si5 0.128655 0.265753 0.589220
Si Si6 0.813711 0.416256 0.920980
Si Si7 0.199155 0.579662 0.706008
Si Si8 0.294369 0.263541 0.159099
O O1 0.610904 0.163596 0.298681
O O2 0.647109 0.089384 0.159736
O O3 0.602541 0.000000 0.267559
O O4 0.436907 0.092692 0.075693
O O5 0.785973 0.906112 0.861393
O O6 0.820185 0.783401 0.968897
O O7 0.000000 0.837119 0.000000
O O8 0.966838 0.908956 0.125336
O O9 0.408164 0.328380 0.671943
O O10 0.350318 0.228661 0.505326
O O11 0.570356 0.231518 0.757985
O O12 0.795281 0.079214 0.692551
O O13 0.921032 0.000000 0.670518
O O14 0.113301 0.350175 0.620565
O O15 0.223111 0.236670 0.738719
O O16 0.000000 0.220880 0.500000
O O17 0.762006 0.500000 0.898130
O O18 0.718985 0.351431 0.875969
O O19 0.132452 0.500000 0.665623
#
# Coordination Sequence:
#
# PCOD9205301 Si02
#       8
#     8   8   8   8   8   8   8   8
#     4   9  20  37  59  88 119 150 188 237 291 347
#     4   9  18  32  57  82 108 145 177 226 281 346
#     4  11  23  38  57  82 117 155 190 245 291 333
#     4  10  21  35  53  83 117 147 180 226 287 345
#     4   9  21  39  55  76 108 148 193 237 283 337
#     4   9  19  36  59  85 115 150 191 238 286 344
#     4   9  18  34  55  80 107 141 184 226 275 344
#     4  10  21  37  58  84 109 148 202 233 286 352
#
# _framework density 23.76388
#
# number of rings (size 3 to 8) (size 9 to 14) (size 15 to 20)
#    0.000    2.500    0.000    1.875    7.000    5.250 
#    0.000    7.500    0.000    2.250    0.000    0.000 
#    0.000    0.000    0.000    0.000    0.000    0.000 
#
# Total GULP energy -178332.234818 kJ/mol
# GULP energy per Si atom -5572.882338 kJ/mol
# Density = 2.370979 g / cm^3
# Si number density = 23.763880 Si / 1000 Ang^3
#
#
#
# Elastic Constant Matrix: (Units=GPa)
#
#
# Indices 1 2 3 4 5 6 
#
# 1 56.1898 24.7611 6.2043 0.0000 0.6895 0.0000
# 2 24.7611 192.4622 37.7090 0.0000 -12.7574 0.0000
# 3 6.2043 37.7090 80.9666 0.0000 -9.5458 0.0000
# 4 0.0000 0.0000 0.0000 -11.3991 0.0000 1.4740
# 5 0.6895 -12.7574 -9.5458 0.0000 33.2932 0.0000
# 6 0.0000 0.0000 0.0000 1.4740 0.0000 23.1706
#
#
#
# Elastic Compliance Matrix: (Units=1/GPa)
#
#
# Indices 1 2 3 4 5 6 
#
# 1 0.018943 -0.002439 -0.000489 0.000000 -0.001467 0.000000
# 2 -0.002439 0.006103 -0.002457 0.000000 0.001685 0.000000
# 3 -0.000489 -0.002457 0.013892 0.000000 0.003052 0.000000
# 4 0.000000 0.000000 0.000000 -0.087011 0.000000 0.005535
# 5 -0.001467 0.001685 0.003052 0.000000 0.031587 0.000000
# 6 0.000000 0.000000 0.000000 0.005535 0.000000 0.042806
#
#
# Mechanical properties :
#
#
# Convention : Reuss Voigt Hill
#
# Bulk Modulus (GPa) = 35.49880 51.88528 43.69204
# Shear Modulus (GPa) = 107.57615 26.40923 66.99269
#
# Velocity S-wave (km/s) = 6.73551 3.33726 5.31528
# Velocity P-wave (km/s) = 8.68677 6.06060 7.48969
#
# Compressibility (1/GPa) = 0.02816996
#
# Stress axis : x y z
#
# Youngs Moduli (GPa) = 52.78873 163.86552 71.98278
#
# Poissons Ratio (x) = 0.39961 0.03518
# Poissons Ratio (y) = 0.12873 0.17684
# Poissons Ratio (z) = 0.02580 0.40257
#
# Static dielectric constant tensor:
#      x y z
#    x 2.015910 0.000000 -0.033030 
#    y 0.000000 1.971290 0.000000 
#    z -0.033030 0.000000 1.894900 
# 
# From -- ./inp_files/226903.got.cif
#   From: 2010.05.17/outbox.cif.g08.bks.cpg/sg12_114_cif.got.tgz:226903.got - 2010.06.03 13:09:07.
