data_PCOD9205366
_publ_section_title
;
Structure prediction by ZEFSAII (Michael W. Deem and Ramdas Pophale) SiO2 
 PCOD9205366
Probable space group: C 2/M
;
_chemical_formula_sum "Si O2"
_cell_formula_units_Z 40
_cell_length_a 15.266356
_cell_length_b 8.421912
_cell_length_c 30.976799
_cell_angle_alpha 90.000000
_cell_angle_beta 29.926003
_cell_angle_gamma 90.000000
_cell_volume 1986.916838
_symmetry_space_group_name_H-M "C 2/M"
_symmetry_group_IT_number 12
_symmetry_cell_setting 'monoclinic'
loop_
_space_group_symop_operation_xyz
x,y,z
-x,y,-z
-x,-y,-z
x,-y,z
1/2+x,1/2+y,z
1/2-x,1/2+y,-z
1/2-x,1/2-y,-z
1/2+x,1/2-y,z
loop_
_atom_site_type_symbol
_atom_site_label
_atom_site_fract_x
_atom_site_fract_y
_atom_site_fract_z
Si Si1 0.390713 0.820435 0.407124
Si Si2 0.703333 0.191999 0.220550
Si Si3 0.792504 0.317391 0.593639
Si Si4 0.522254 0.808143 0.767258
Si Si5 0.431512 0.189798 0.902901
O O1 0.250000 0.750000 0.500000
O O2 0.579392 0.747912 0.313230
O O3 0.292515 0.805960 0.403234
O O4 0.421180 0.000000 0.408288
O O5 0.613296 0.237439 0.213382
O O6 0.899863 0.250103 0.142714
O O7 0.699542 0.000000 0.223823
O O8 0.743334 0.500000 0.603772
O O9 0.707462 0.272324 0.675612
O O10 0.000000 0.306018 0.500000
O O11 0.456332 0.758688 0.842426
O O12 0.540448 0.000000 0.758925
O O13 0.430881 0.000000 0.903736
O O14 0.250000 0.250000 0.000000
#
# Coordination Sequence:
#
# PCOD9205366 Si02
#       5
#     8   8   8   8   8
#     4  10  21  36  56  83 118 158 198 240 294 353
#     4   9  20  40  61  83 117 156 195 244 298 351
#     4  10  21  35  54  84 118 154 197 242 294 350
#     4   9  21  41  61  84 117 159 199 241 298 361
#     4  11  24  41  63  91 118 152 200 247 302 360
#
# _framework density 20.131694
#
# number of rings (size 3 to 8) (size 9 to 14) (size 15 to 20)
#    0.000    2.200    0.000    3.000    2.800    8.000 
#    0.000    4.000    0.000    0.000    0.000    0.000 
#    0.000    0.000    0.000    0.000    0.000    0.000 
#
# Total GULP energy -111553.017473 kJ/mol
# GULP energy per Si atom -5577.650874 kJ/mol
# Density = 2.008587 g / cm^3
# Si number density = 20.131694 Si / 1000 Ang^3
#
#
#
# Elastic Constant Matrix: (Units=GPa)
#
#
# Indices 1 2 3 4 5 6 
#
# 1 65.6932 11.2791 53.5588 -0.0001 2.3975 -0.0008
# 2 11.2791 19.3110 31.0170 -0.0007 -1.4192 -0.0018
# 3 53.5588 31.0170 179.3495 -0.0005 -1.0277 -0.0001
# 4 -0.0001 -0.0007 -0.0005 32.7213 -0.0001 -2.7360
# 5 2.3975 -1.4192 -1.0277 -0.0001 36.5625 -0.0001
# 6 -0.0008 -0.0018 -0.0001 -2.7360 -0.0001 25.2910
#
#
#
# Elastic Compliance Matrix: (Units=1/GPa)
#
#
# Indices 1 2 3 4 5 6 
#
# 1 0.020334 -0.003083 -0.005548 0.000000 -0.001609 0.000000
# 2 -0.003083 0.072386 -0.011582 0.000002 0.002686 0.000005
# 3 -0.005548 -0.011582 0.009237 0.000000 0.000174 -0.000001
# 4 0.000000 0.000002 0.000000 0.030840 0.000000 0.003336
# 5 -0.001609 0.002686 0.000174 0.000000 0.027565 0.000000
# 6 0.000000 0.000005 -0.000001 0.003336 0.000000 0.039901
#
#
# Mechanical properties :
#
#
# Convention : Reuss Voigt Hill
#
# Bulk Modulus (GPa) = 16.25265 50.67371 33.46318
# Shear Modulus (GPa) = 19.14248 30.14822 24.64535
#
# Velocity S-wave (km/s) = 3.08695 3.87402 3.50266
# Velocity P-wave (km/s) = 4.56031 6.72580 5.74599
#
# Compressibility (1/GPa) = 0.06152843
#
# Stress axis : x y z
#
# Youngs Moduli (GPa) = 49.17928 13.81488 108.26453
#
# Poissons Ratio (x) = 0.04259 0.60068
# Poissons Ratio (y) = 0.15163 1.25396
# Poissons Ratio (z) = 0.27286 0.16001
#
# Static dielectric constant tensor:
#      x y z
#    x 1.715420 0.000000 0.024370 
#    y 0.000000 1.660960 0.000000 
#    z 0.024370 0.000000 1.745570 
# 
# From -- ./inp_files/211248.got.cif
#   From: 2010.05.17/outbox.cif.g08.bks.cpg/sg12_106_cif.got.tgz:211248.got - 2010.06.03 13:09:07.
