data_PCOD9205609
_publ_section_title
;
Structure prediction by ZEFSAII (Michael W. Deem and Ramdas Pophale) SiO2 
 PCOD9205609
Probable space group: C 2/M
;
_chemical_formula_sum "Si O2"
_cell_formula_units_Z 58
_cell_length_a 8.908492
_cell_length_b 29.175104
_cell_length_c 10.144854
_cell_angle_alpha 90.000000
_cell_angle_beta 83.195374
_cell_angle_gamma 90.000000
_cell_volume 2618.137124
_symmetry_space_group_name_H-M "C 2/M"
_symmetry_group_IT_number 12
_symmetry_cell_setting 'monoclinic'
loop_
_space_group_symop_operation_xyz
x,y,z
-x,y,-z
-x,-y,-z
x,-y,z
1/2+x,1/2+y,z
1/2-x,1/2+y,-z
1/2-x,1/2-y,-z
1/2+x,1/2-y,z
loop_
_atom_site_type_symbol
_atom_site_label
_atom_site_fract_x
_atom_site_fract_y
_atom_site_fract_z
Si Si1 0.566218 0.431766 0.796273
Si Si2 0.196920 0.795017 0.081724
Si Si3 0.935644 0.357414 0.153581
Si Si4 0.177248 0.084939 0.520551
Si Si5 0.628185 0.167981 0.388465
Si Si6 0.385270 0.675928 0.183744
Si Si7 0.223141 0.549588 0.763158
Si Si8 0.500000 0.500000 0.000000
O O1 0.663880 0.442962 0.657481
O O2 0.565740 0.376430 0.793031
O O3 0.396178 0.449816 0.794354
O O4 0.608641 0.459191 0.921445
O O5 0.309834 0.817320 0.173321
O O6 0.031099 0.791684 0.160836
O O7 0.250000 0.750000 0.000000
O O8 0.178536 0.828368 0.957669
O O9 0.861914 0.407216 0.169341
O O10 0.045983 0.352597 0.266852
O O11 0.000000 0.350730 0.000000
O O12 0.280357 0.129347 0.538805
O O13 0.255573 0.058018 0.394779
O O14 0.000000 0.095625 0.500000
O O15 0.500000 0.187583 0.500000
O O16 0.764273 0.194937 0.301019
O O17 0.155835 0.500000 0.798647
#
# Coordination Sequence:
#
# PCOD9205609 Si02
#       8
#     8   8   8   8   8   8   8   2
#     4  10  21  35  58  95 132 181 230 302 344 413
#     4  11  24  42  72 106 140 181 234 296 357 439
#     4  12  25  43  67 102 142 186 236 302 364 432
#     4   9  21  39  63  93 131 186 250 293 347 426
#     4  11  22  41  69 104 138 197 237 289 359 435
#     4  10  22  41  68  98 141 175 236 289 358 416
#     4  11  22  39  64  92 139 187 243 294 358 420
#     4  12  20  28  54  96 140 170 246 302 356 398
#
# _framework density 22.153155000000002
#
# number of rings (size 3 to 8) (size 9 to 14) (size 15 to 20)
#    0.000    1.379    4.828    0.828    2.897    1.103 
#    0.000    1.379    1.517    3.310    0.000    0.000 
#    0.000    0.000    0.000    0.000    0.000    0.000 
#
# Total GULP energy -161475.499860 kJ/mol
# GULP energy per Si atom -5568.120685 kJ/mol
# Density = 2.210273 g / cm^3
# Si number density = 22.153155 Si / 1000 Ang^3
#
#
#
# Elastic Constant Matrix: (Units=GPa)
#
#
# Indices 1 2 3 4 5 6 
#
# 1 81.4442 37.0001 21.0055 0.0000 -24.1120 0.0000
# 2 37.0001 60.8546 -2.5547 0.0000 5.4654 0.0000
# 3 21.0055 -2.5547 98.8039 0.0000 -25.2786 0.0000
# 4 0.0000 0.0000 0.0000 17.6744 0.0000 -8.3019
# 5 -24.1120 5.4654 -25.2786 0.0000 40.8136 0.0000
# 6 0.0000 0.0000 0.0000 -8.3019 0.0000 7.8542
#
#
#
# Elastic Compliance Matrix: (Units=1/GPa)
#
#
# Indices 1 2 3 4 5 6 
#
# 1 0.025053 -0.016740 -0.001662 0.000000 0.016013 0.000000
# 2 -0.016740 0.027821 0.000945 0.000000 -0.013030 0.000000
# 3 -0.001662 0.000945 0.012139 0.000000 0.006410 0.000000
# 4 0.000000 0.000000 0.000000 0.112368 0.000000 0.118773
# 5 0.016013 -0.013030 0.006410 0.000000 0.039677 0.000000
# 6 0.000000 0.000000 0.000000 0.118773 0.000000 0.252863
#
#
# Mechanical properties :
#
#
# Convention : Reuss Voigt Hill
#
# Bulk Modulus (GPa) = 33.22635 39.11163 36.16899
# Shear Modulus (GPa) = 9.71122 25.64522 17.67822
#
# Velocity S-wave (km/s) = 2.09599 3.40609 2.82795
# Velocity P-wave (km/s) = 4.57041 5.75865 5.19859
#
# Compressibility (1/GPa) = 0.03009660
#
# Stress axis : x y z
#
# Youngs Moduli (GPa) = 39.91550 35.94436 82.38042
#
# Poissons Ratio (x) = 0.60172 0.13693
# Poissons Ratio (y) = 0.66820 -0.07781
# Poissons Ratio (z) = 0.06635 -0.03395
#
# Static dielectric constant tensor:
#      x y z
#    x 1.916530 0.000000 0.051550 
#    y 0.000000 1.805170 0.000000 
#    z 0.051550 0.000000 1.950470 
# 
# From -- ./inp_files/125242.got.cif
#   From: 2010.05.17/outbox.cif.g08.bks.cpg/sg12_63_cif.got.tgz:125242.got - 2010.06.03 13:09:07.
