data_PCOD9205494
_publ_section_title
;
Structure prediction by ZEFSAII (Michael W. Deem and Ramdas Pophale) SiO2 
 PCOD9205494
Probable space group: C 2/M
;
_chemical_formula_sum "Si O2"
_cell_formula_units_Z 52
_cell_length_a 12.789000
_cell_length_b 16.496388
_cell_length_c 18.985667
_cell_angle_alpha 90.000000
_cell_angle_beta 147.381582
_cell_angle_gamma 90.000000
_cell_volume 2159.104020
_symmetry_space_group_name_H-M "C 2/M"
_symmetry_group_IT_number 12
_symmetry_cell_setting 'monoclinic'
loop_
_space_group_symop_operation_xyz
x,y,z
-x,y,-z
-x,-y,-z
x,-y,z
1/2+x,1/2+y,z
1/2-x,1/2+y,-z
1/2-x,1/2-y,-z
1/2+x,1/2-y,z
loop_
_atom_site_type_symbol
_atom_site_label
_atom_site_fract_x
_atom_site_fract_y
_atom_site_fract_z
Si Si1 0.800940 0.721370 0.823603
Si Si2 0.294684 0.406019 0.409110
Si Si3 0.204238 0.654371 0.647294
Si Si4 0.133952 0.831708 0.411465
Si Si5 0.210168 0.875717 0.093632
Si Si6 0.539562 0.903534 0.886142
Si Si7 0.140381 0.500000 0.711993
O O1 0.798860 0.784513 0.756930
O O2 0.594384 0.676710 0.705863
O O3 0.788916 0.781943 0.883630
O O4 0.971689 0.655996 0.909330
O O5 0.500000 0.370354 0.500000
O O6 0.299536 0.500000 0.394328
O O7 0.283559 0.395965 0.486213
O O8 0.115201 0.375559 0.262105
O O9 0.331092 0.645837 0.649176
O O10 0.160573 0.571629 0.663395
O O11 0.000000 0.685918 0.500000
O O12 0.250000 0.750000 0.500000
O O13 0.256989 0.888727 0.038223
O O14 0.353910 0.929604 0.221990
O O15 0.000000 0.906491 0.000000
O O16 0.523978 0.000000 0.893404
#
# Coordination Sequence:
#
# PCOD9205494 Si02
#       7
#     8   8   8   8   8   8   4
#     4  11  23  40  62  96 132 165 216 269 318 390
#     4  10  21  35  56  87 124 169 207 240 296 379
#     4  11  23  36  58  92 132 174 210 258 321 384
#     4  12  22  34  59  85 131 176 206 247 311 387
#     4  11  24  45  73  93 121 168 227 280 336 383
#     4  11  23  40  66  98 130 169 224 266 320 387
#     4  10  24  42  60  94 125 160 222 280 319 390
#
# _framework density 24.084064000000001
#
# number of rings (size 3 to 8) (size 9 to 14) (size 15 to 20)
#    0.000    1.077    3.846    3.231    3.231    0.615 
#    0.000    0.000    0.000    0.462    0.000    0.000 
#    0.000    0.000    0.000    0.000    0.000    0.000 
#
# Total GULP energy -144883.840674 kJ/mol
# GULP energy per Si atom -5572.455411 kJ/mol
# Density = 2.402925 g / cm^3
# Si number density = 24.084064 Si / 1000 Ang^3
#
#
#
# Elastic Constant Matrix: (Units=GPa)
#
#
# Indices 1 2 3 4 5 6 
#
# 1 137.8599 34.5014 25.4643 0.0002 -4.1004 0.0000
# 2 34.5014 140.6410 16.7205 0.0012 -0.2432 0.0003
# 3 25.4643 16.7205 33.6185 0.0011 6.5509 0.0005
# 4 0.0002 0.0012 0.0011 10.3111 0.0002 -16.2469
# 5 -4.1004 -0.2432 6.5509 0.0002 39.8712 0.0000
# 6 0.0000 0.0003 0.0005 -16.2469 0.0000 40.4667
#
#
#
# Elastic Compliance Matrix: (Units=1/GPa)
#
#
# Indices 1 2 3 4 5 6 
#
# 1 0.008842 -0.001408 -0.006377 0.000002 0.001948 0.000001
# 2 -0.001408 0.007799 -0.002886 -0.000002 0.000377 -0.000001
# 3 -0.006377 -0.002886 0.037338 -0.000012 -0.006808 -0.000005
# 4 0.000002 -0.000002 -0.000012 0.263979 0.000001 0.105985
# 5 0.001948 0.000377 -0.006808 0.000001 0.026402 0.000000
# 6 0.000001 -0.000001 -0.000005 0.105985 0.000000 0.067263
#
#
# Mechanical properties :
#
#
# Convention : Reuss Voigt Hill
#
# Bulk Modulus (GPa) = 30.63969 51.72132 41.18051
# Shear Modulus (GPa) = 11.26521 33.82535 22.54528
#
# Velocity S-wave (km/s) = 2.16509 3.75169 3.06291
# Velocity P-wave (km/s) = 4.35887 6.34735 5.44466
#
# Compressibility (1/GPa) = 0.03263740
#
# Stress axis : x y z
#
# Youngs Moduli (GPa) = 113.09881 128.21489 26.78250
#
# Poissons Ratio (x) = 0.18047 0.17079
# Poissons Ratio (y) = 0.15919 0.07731
# Poissons Ratio (z) = 0.72121 0.37009
#
# Static dielectric constant tensor:
#      x y z
#    x 2.024240 0.000000 0.085360 
#    y 0.000000 1.904250 0.000000 
#    z 0.085360 0.000000 2.061630 
# 
# From -- ./inp_files/306285.got.cif
#   From: 2010.05.17/outbox.cif.g08.bks.cpg/sg12_154_cif.got.tgz:306285.got - 2010.06.03 13:09:07.
