data_PCOD9205173
_publ_section_title
;
Structure prediction by ZEFSAII (Michael W. Deem and Ramdas Pophale) SiO2 
 PCOD9205173
Probable space group: C 2/M
;
_chemical_formula_sum "Si O2"
_cell_formula_units_Z 56
_cell_length_a 30.767604
_cell_length_b 8.930876
_cell_length_c 18.428141
_cell_angle_alpha 90.000000
_cell_angle_beta 141.382878
_cell_angle_gamma 90.000000
_cell_volume 3160.331005
_symmetry_space_group_name_H-M "C 2/M"
_symmetry_group_IT_number 12
_symmetry_cell_setting 'monoclinic'
loop_
_space_group_symop_operation_xyz
x,y,z
-x,y,-z
-x,-y,-z
x,-y,z
1/2+x,1/2+y,z
1/2-x,1/2+y,-z
1/2-x,1/2-y,-z
1/2+x,1/2-y,z
loop_
_atom_site_type_symbol
_atom_site_label
_atom_site_fract_x
_atom_site_fract_y
_atom_site_fract_z
Si Si1 0.695705 0.675489 0.252697
Si Si2 0.197006 0.821666 0.872895
Si Si3 0.587684 0.179467 0.822969
Si Si4 0.445087 0.821495 0.707358
Si Si5 0.205541 0.821860 0.507605
Si Si6 0.189756 0.320950 0.090289
Si Si7 0.046029 0.823608 0.129317
O O1 0.713894 0.500000 0.275494
O O2 0.756358 0.770474 0.369238
O O3 0.679603 0.733025 0.151143
O O4 0.626363 0.692458 0.210820
O O5 0.122849 0.755631 0.799143
O O6 0.233670 0.789247 0.843850
O O7 0.196661 0.000000 0.881237
O O8 0.250000 0.750000 0.000000
O O9 0.507992 0.218717 0.735334
O O10 0.593436 0.000000 0.822824
O O11 0.633519 0.219214 0.954505
O O12 0.372855 0.739238 0.597224
O O13 0.468070 0.772713 0.818082
O O14 0.434844 0.000000 0.691757
O O15 0.250000 0.750000 0.500000
O O16 0.205966 0.000000 0.500253
O O17 0.184001 0.500000 0.095028
O O18 0.032744 0.000000 0.127086
O O19 0.000000 0.780010 0.000000
#
# Coordination Sequence:
#
# PCOD9205173 Si02
#       7
#     8   8   8   8   8   8   8
#     4  11  22  35  54  79 107 141 181 223 267 318
#     4   9  17  30  51  78 110 146 182 220 265 320
#     4   9  19  34  53  81 114 145 180 220 267 325
#     4  11  22  36  56  80 107 142 181 224 271 321
#     4  12  24  40  59  77 102 139 184 230 271 318
#     4   9  18  33  52  79 113 145 178 217 265 321
#     4  10  21  35  51  76 110 143 176 218 265 318
#
# _framework density 17.719662
#
# number of rings (size 3 to 8) (size 9 to 14) (size 15 to 20)
#    0.000    1.857    1.429    4.286    0.000    4.857 
#    0.000    0.000    0.000    0.857    0.000    6.000 
#    0.000    0.000    0.000    0.000    0.000    0.000 
#
# Total GULP energy -156297.027891 kJ/mol
# GULP energy per Si atom -5582.036710 kJ/mol
# Density = 1.767933 g / cm^3
# Si number density = 17.719662 Si / 1000 Ang^3
#
#
#
# Elastic Constant Matrix: (Units=GPa)
#
#
# Indices 1 2 3 4 5 6 
#
# 1 70.4747 33.0663 -4.3085 0.0000 24.7077 0.0000
# 2 33.0663 62.9575 14.8301 0.0000 17.0217 0.0000
# 3 -4.3085 14.8301 50.5485 0.0000 21.7039 0.0000
# 4 0.0000 0.0000 0.0000 26.4103 0.0000 -1.1382
# 5 24.7077 17.0217 21.7039 0.0000 25.9794 0.0000
# 6 0.0000 0.0000 0.0000 -1.1382 0.0000 29.4339
#
#
#
# Elastic Compliance Matrix: (Units=1/GPa)
#
#
# Indices 1 2 3 4 5 6 
#
# 1 0.045530 -0.015250 0.035330 0.000000 -0.062826 0.000000
# 2 -0.015250 0.024415 -0.012196 0.000000 0.008695 0.000000
# 3 0.035330 -0.012196 0.058270 0.000000 -0.074290 0.000000
# 4 0.000000 0.000000 0.000000 0.037927 0.000000 0.001467
# 5 -0.062826 0.008695 -0.074290 0.000000 0.154609 0.000000
# 6 0.000000 0.000000 0.000000 0.001467 0.000000 0.034031
#
#
# Mechanical properties :
#
#
# Convention : Reuss Voigt Hill
#
# Bulk Modulus (GPa) = 6.94520 30.12852 18.53686
# Shear Modulus (GPa) = 12.91958 25.72422 19.32190
#
# Velocity S-wave (km/s) = 2.70313 3.81430 3.30574
# Velocity P-wave (km/s) = 3.69737 6.03641 5.00544
#
# Compressibility (1/GPa) = 0.14398426
#
# Stress axis : x y z
#
# Youngs Moduli (GPa) = 21.96333 40.95847 17.16140
#
# Poissons Ratio (x) = 0.62460 -0.60631
# Poissons Ratio (y) = 0.33493 0.20931
# Poissons Ratio (z) = -0.77597 0.49954
#
# Static dielectric constant tensor:
#      x y z
#    x 1.623830 0.000000 0.024380 
#    y 0.000000 1.589120 0.000000 
#    z 0.024380 0.000000 1.604640 
# 
# From -- ./inp_files/281685.got.cif
#   From: 2010.05.17/outbox.cif.g08.bks.cpg/sg12_141_cif.got.tgz:281685.got - 2010.06.03 13:09:07.
