data_PCOD9205645
_publ_section_title
;
Structure prediction by ZEFSAII (Michael W. Deem and Ramdas Pophale) SiO2 
 PCOD9205645
Probable space group: C 2/M
;
_chemical_formula_sum "Si O2"
_cell_formula_units_Z 56
_cell_length_a 11.737005
_cell_length_b 18.647219
_cell_length_c 25.196765
_cell_angle_alpha 90.000000
_cell_angle_beta 150.150243
_cell_angle_gamma 90.000000
_cell_volume 2744.780769
_symmetry_space_group_name_H-M "C 2/M"
_symmetry_group_IT_number 12
_symmetry_cell_setting 'monoclinic'
loop_
_space_group_symop_operation_xyz
x,y,z
-x,y,-z
-x,-y,-z
x,-y,z
1/2+x,1/2+y,z
1/2-x,1/2+y,-z
1/2-x,1/2-y,-z
1/2+x,1/2-y,z
loop_
_atom_site_type_symbol
_atom_site_label
_atom_site_fract_x
_atom_site_fract_y
_atom_site_fract_z
Si Si1 0.285288 0.336458 0.450853
Si Si2 0.346961 0.829645 0.889597
Si Si3 0.506686 0.668789 0.925443
Si Si4 0.609560 0.294999 0.238142
Si Si5 0.402134 0.172121 0.515559
Si Si6 0.068463 0.419392 0.763362
Si Si7 0.476866 0.864855 0.832905
O O1 0.500000 0.358213 0.500000
O O2 0.293453 0.249338 0.455281
O O3 0.265255 0.358684 0.505428
O O4 0.070184 0.368936 0.332776
O O5 0.458994 0.751262 0.922549
O O6 0.355784 0.876443 0.840042
O O7 0.086092 0.814185 0.799112
O O8 0.500000 0.858977 0.000000
O O9 0.471150 0.666768 0.848171
O O10 0.315415 0.616655 0.871295
O O11 0.758570 0.646891 0.043975
O O12 0.606440 0.210607 0.224987
O O13 0.862458 0.314471 0.357648
O O14 0.500000 0.137546 0.500000
O O15 0.084301 0.500000 0.749167
O O16 0.954485 0.418670 0.775447
#
# Coordination Sequence:
#
# PCOD9205645 Si02
#       7
#     8   8   8   8   8   8   8
#     4  10  22  39  59  86 117 152 198 248 310 354
#     4  11  18  31  55  89 121 152 183 246 315 346
#     4  11  20  34  55  86 123 156 196 234 289 363
#     4  11  19  33  57  89 125 152 180 247 312 362
#     4  10  21  35  60  91 122 145 187 252 318 368
#     4  12  25  41  58  81 120 166 206 239 280 352
#     4  11  21  32  55  87 122 157 200 237 290 355
#
# _framework density 20.402358
#
# number of rings (size 3 to 8) (size 9 to 14) (size 15 to 20)
#    0.000    1.143    5.714    3.000    0.000    3.714 
#    0.000    0.000    0.000    1.714    0.000    0.000 
#    0.000    0.000    0.000    0.000    0.000    0.000 
#
# Total GULP energy -156243.850031 kJ/mol
# GULP energy per Si atom -5580.137501 kJ/mol
# Density = 2.035592 g / cm^3
# Si number density = 20.402358 Si / 1000 Ang^3
#
#
#
# Elastic Constant Matrix: (Units=GPa)
#
#
# Indices 1 2 3 4 5 6 
#
# 1 150.1047 11.4031 17.2754 -0.0004 -19.3362 -0.0001
# 2 11.4031 16.5759 14.5703 -0.0004 -11.4865 -0.0001
# 3 17.2754 14.5703 65.2597 -0.0017 -7.6298 -0.0003
# 4 -0.0004 -0.0004 -0.0017 4.2643 -0.0004 3.8522
# 5 -19.3362 -11.4865 -7.6298 -0.0004 31.8129 -0.0002
# 6 -0.0001 -0.0001 -0.0003 3.8522 -0.0002 8.5264
#
#
#
# Elastic Compliance Matrix: (Units=1/GPa)
#
#
# Indices 1 2 3 4 5 6 
#
# 1 0.007385 -0.001493 -0.001193 0.000001 0.003663 0.000000
# 2 -0.001493 0.098077 -0.017972 0.000009 0.030194 -0.000003
# 3 -0.001193 -0.017972 0.019351 0.000009 -0.002573 -0.000003
# 4 0.000001 0.000009 0.000009 0.396206 0.000010 -0.179003
# 5 0.003663 0.030194 -0.002573 0.000010 0.043945 -0.000003
# 6 0.000000 -0.000003 -0.000003 -0.179003 -0.000003 0.198154
#
#
# Mechanical properties :
#
#
# Convention : Reuss Voigt Hill
#
# Bulk Modulus (GPa) = 11.97657 35.38200 23.67929
# Shear Modulus (GPa) = 6.00770 21.50016 13.75393
#
# Velocity S-wave (km/s) = 1.71785 3.24976 2.59923
# Velocity P-wave (km/s) = 3.13331 5.60901 4.54305
#
# Compressibility (1/GPa) = 0.08349634
#
# Stress axis : x y z
#
# Youngs Moduli (GPa) = 135.41600 10.19612 51.67706
#
# Poissons Ratio (x) = 0.01522 0.06167
# Poissons Ratio (y) = 0.20214 0.92874
# Poissons Ratio (z) = 0.16159 0.18324
#
# Static dielectric constant tensor:
#      x y z
#    x 1.867710 0.000000 -0.016200 
#    y 0.000000 1.667980 0.000000 
#    z -0.016200 0.000000 1.716950 
# 
# From -- ./inp_files/336809.got.cif
#   From: 2010.05.17/outbox.cif.g08.bks.cpg/sg12_169_cif.got.tgz:336809.got - 2010.06.03 13:09:07.
