data_PCOD9205697
_publ_section_title
;
Structure prediction by ZEFSAII (Michael W. Deem and Ramdas Pophale) SiO2 
 PCOD9205697
Probable space group: C 2/M
;
_chemical_formula_sum "Si O2"
_cell_formula_units_Z 48
_cell_length_a 9.773009
_cell_length_b 29.911767
_cell_length_c 15.081724
_cell_angle_alpha 90.000000
_cell_angle_beta 147.491517
_cell_angle_gamma 90.000000
_cell_volume 2369.402242
_symmetry_space_group_name_H-M "C 2/M"
_symmetry_group_IT_number 12
_symmetry_cell_setting 'monoclinic'
loop_
_space_group_symop_operation_xyz
x,y,z
-x,y,-z
-x,-y,-z
x,-y,z
1/2+x,1/2+y,z
1/2-x,1/2+y,-z
1/2-x,1/2-y,-z
1/2+x,1/2-y,z
loop_
_atom_site_type_symbol
_atom_site_label
_atom_site_fract_x
_atom_site_fract_y
_atom_site_fract_z
Si Si1 0.247430 0.383859 0.196384
Si Si2 0.279614 0.232150 0.614939
Si Si3 0.170332 0.399192 0.702098
Si Si4 0.024275 0.823685 0.210145
Si Si5 0.410939 0.147428 0.167147
Si Si6 0.845000 0.947392 0.639544
O O1 0.416532 0.344456 0.243497
O O2 0.411840 0.428430 0.278009
O O3 0.138456 0.372792 0.232513
O O4 0.000000 0.388356 0.000000
O O5 0.250000 0.250000 0.500000
O O6 0.406036 0.272220 0.741045
O O7 0.463979 0.189756 0.716550
O O8 0.000000 0.221479 0.500000
O O9 0.232575 0.352241 0.687990
O O10 0.189959 0.388033 0.816281
O O11 0.358905 0.432284 0.750917
O O12 0.896270 0.420757 0.532430
O O13 0.810174 0.834820 0.019159
O O14 0.809289 0.000000 0.613181
#
# Coordination Sequence:
#
# PCOD9205697 Si02
#       6
#     8   8   8   8   8   8
#     4   9  21  39  63  87 122 166 207 243 312 375
#     4  12  26  36  59  93 129 165 215 256 300 350
#     4  10  21  35  66  87 118 155 215 248 311 366
#     4  10  22  42  60  85 127 176 207 248 302 365
#     4  11  23  40  61  90 127 167 209 257 303 359
#     4  10  22  41  65  91 125 158 197 259 332 386
#
# _framework density 20.258274
#
# number of rings (size 3 to 8) (size 9 to 14) (size 15 to 20)
#    0.000    1.667    0.000    4.000   14.000    0.333 
#    0.000    7.500    0.000   26.000    0.000    0.000 
#    0.000    0.000    0.000    0.000    0.000    0.000 
#
# Total GULP energy -134023.995717 kJ/mol
# GULP energy per Si atom -5584.333155 kJ/mol
# Density = 2.021217 g / cm^3
# Si number density = 20.258274 Si / 1000 Ang^3
#
#
#
# Elastic Constant Matrix: (Units=GPa)
#
#
# Indices 1 2 3 4 5 6 
#
# 1 100.8975 42.1385 41.6154 0.0000 -5.9834 0.0000
# 2 42.1385 104.6870 48.2712 0.0000 5.2604 0.0000
# 3 41.6154 48.2712 61.3648 0.0000 -1.7831 0.0000
# 4 0.0000 0.0000 0.0000 13.7733 0.0000 2.0082
# 5 -5.9834 5.2604 -1.7831 0.0000 30.9774 0.0000
# 6 0.0000 0.0000 0.0000 2.0082 0.0000 14.7123
#
#
#
# Elastic Compliance Matrix: (Units=1/GPa)
#
#
# Indices 1 2 3 4 5 6 
#
# 1 0.014231 -0.002274 -0.007784 0.000000 0.002687 0.000000
# 2 -0.002274 0.015682 -0.010902 0.000000 -0.003730 0.000000
# 3 -0.007784 -0.010902 0.030211 0.000000 0.002087 0.000000
# 4 0.000000 0.000000 0.000000 0.074079 0.000000 -0.010112
# 5 0.002687 -0.003730 0.002087 0.000000 0.033554 0.000000
# 6 0.000000 0.000000 0.000000 -0.010112 0.000000 0.069351
#
#
# Mechanical properties :
#
#
# Convention : Reuss Voigt Hill
#
# Bulk Modulus (GPa) = 54.93313 58.99995 56.96654
# Shear Modulus (GPa) = 17.53801 20.88753 19.21277
#
# Velocity S-wave (km/s) = 2.94551 3.21450 3.08294
# Velocity P-wave (km/s) = 6.22441 6.55473 6.39170
#
# Compressibility (1/GPa) = 0.01820395
#
# Stress axis : x y z
#
# Youngs Moduli (GPa) = 70.27149 63.76745 33.10029
#
# Poissons Ratio (x) = 0.14500 0.25765
# Poissons Ratio (y) = 0.15979 0.36086
# Poissons Ratio (z) = 0.54698 0.69520
#
# Static dielectric constant tensor:
#      x y z
#    x 1.754140 0.000000 -0.006470 
#    y 0.000000 1.687190 0.000000 
#    z -0.006470 0.000000 1.748810 
# 
# From -- ./inp_files/200221.got.cif
#   From: 2010.05.17/outbox.cif.g08.bks.cpg/sg12_101_cif.got.tgz:200221.got - 2010.06.03 13:09:07.
