data_PCOD9205324
_publ_section_title
;
Structure prediction by ZEFSAII (Michael W. Deem and Ramdas Pophale) SiO2 
 PCOD9205324
Probable space group: C 2/M
;
_chemical_formula_sum "Si O2"
_cell_formula_units_Z 44
_cell_length_a 15.232326
_cell_length_b 26.218951
_cell_length_c 8.586506
_cell_angle_alpha 90.000000
_cell_angle_beta 45.302426
_cell_angle_gamma 90.000000
_cell_volume 2437.604874
_symmetry_space_group_name_H-M "C 2/M"
_symmetry_group_IT_number 12
_symmetry_cell_setting 'monoclinic'
loop_
_space_group_symop_operation_xyz
x,y,z
-x,y,-z
-x,-y,-z
x,-y,z
1/2+x,1/2+y,z
1/2-x,1/2+y,-z
1/2-x,1/2-y,-z
1/2+x,1/2-y,z
loop_
_atom_site_type_symbol
_atom_site_label
_atom_site_fract_x
_atom_site_fract_y
_atom_site_fract_z
Si Si1 0.824988 0.439535 0.316915
Si Si2 0.715319 0.144464 0.179880
Si Si3 0.608897 0.607665 0.765441
Si Si4 0.000000 0.723624 0.500000
Si Si5 0.580219 0.938182 0.144185
Si Si6 0.960695 0.822960 0.717067
O O1 0.835651 0.500000 0.305313
O O2 0.691515 0.424030 0.543388
O O3 0.937621 0.422626 0.289368
O O4 0.853210 0.425204 0.103380
O O5 0.794621 0.128609 0.229957
O O6 0.618494 0.187789 0.346762
O O7 0.643689 0.095888 0.196763
O O8 0.817574 0.166056 0.931214
O O9 0.540613 0.651733 0.753261
O O10 0.500000 0.419602 0.000000
O O11 0.009735 0.763113 0.343156
O O12 0.587783 0.000000 0.162285
O O13 0.000000 0.845758 0.500000
#
# Coordination Sequence:
#
# PCOD9205324 Si02
#       6
#     8   8   8   4   8   8
#     4   9  18  35  56  82 112 144 183 218 261 325
#     4  11  20  36  58  82 113 140 179 226 278 319
#     4  10  21  35  54  79 111 148 176 224 273 320
#     4  10  22  36  59  80 105 144 186 228 270 320
#     4   9  19  35  59  85 110 142 180 222 267 321
#     4   9  21  38  55  75 108 145 186 222 264 320
#
# _framework density 18.050505000000001
#
# number of rings (size 3 to 8) (size 9 to 14) (size 15 to 20)
#    0.545    1.818    0.000    3.818    0.000    1.818 
#    0.000    5.000    8.000    9.818    0.000    0.000 
#    0.000    0.000    0.000    0.000    0.000    0.000 
#
# Total GULP energy -122522.955946 kJ/mol
# GULP energy per Si atom -5569.225270 kJ/mol
# Density = 1.800942 g / cm^3
# Si number density = 18.050505 Si / 1000 Ang^3
#
#
#
# Elastic Constant Matrix: (Units=GPa)
#
#
# Indices 1 2 3 4 5 6 
#
# 1 95.8354 34.6340 7.9102 0.0000 -7.9472 0.0000
# 2 34.6340 41.7432 11.6955 0.0000 -0.1673 0.0000
# 3 7.9102 11.6955 85.1753 0.0000 -17.5782 0.0000
# 4 0.0000 0.0000 0.0000 61.1152 0.0000 6.2140
# 5 -7.9472 -0.1673 -17.5782 0.0000 20.4937 0.0000
# 6 0.0000 0.0000 0.0000 6.2140 0.0000 5.2701
#
#
#
# Elastic Compliance Matrix: (Units=1/GPa)
#
#
# Indices 1 2 3 4 5 6 
#
# 1 0.015860 -0.013691 0.002009 0.000000 0.007762 0.000000
# 2 -0.013691 0.036920 -0.005871 0.000000 -0.010043 0.000000
# 3 0.002009 -0.005871 0.015202 0.000000 0.013770 0.000000
# 4 0.000000 0.000000 0.000000 0.018591 0.000000 -0.021922
# 5 0.007762 -0.010043 0.013770 0.000000 0.063535 0.000000
# 6 0.000000 0.000000 0.000000 -0.021922 0.000000 0.215600
#
#
# Mechanical properties :
#
#
# Convention : Reuss Voigt Hill
#
# Bulk Modulus (GPa) = 30.41696 36.80372 33.61034
# Shear Modulus (GPa) = 12.14266 28.61007 20.37637
#
# Velocity S-wave (km/s) = 2.59647 3.98553 3.36349
# Velocity P-wave (km/s) = 5.08689 6.45080 5.80901
#
# Compressibility (1/GPa) = 0.03287639
#
# Stress axis : x y z
#
# Youngs Moduli (GPa) = 63.05130 27.08581 65.78117
#
# Poissons Ratio (x) = 0.37082 -0.13214
# Poissons Ratio (y) = 0.86322 0.38618
# Poissons Ratio (z) = -0.12666 0.15901
#
# Static dielectric constant tensor:
#      x y z
#    x 1.604630 0.000000 0.014920 
#    y 0.000000 1.596460 0.000000 
#    z 0.014920 0.000000 1.704250 
# 
# From -- ./inp_files/66734.got.cif
#   From: 2010.05.17/outbox.cif.g08.bks.cpg/sg12_34_cif.got.tgz:66734.got - 2010.06.03 13:09:07.
