data_PCOD9205637
_publ_section_title
;
Structure prediction by ZEFSAII (Michael W. Deem and Ramdas Pophale) SiO2 
 PCOD9205637
Probable space group: C 2/M
;
_chemical_formula_sum "Si O2"
_cell_formula_units_Z 64
_cell_length_a 17.292405
_cell_length_b 16.805134
_cell_length_c 13.999312
_cell_angle_alpha 90.000000
_cell_angle_beta 54.390758
_cell_angle_gamma 90.000000
_cell_volume 3307.487997
_symmetry_space_group_name_H-M "C 2/M"
_symmetry_group_IT_number 12
_symmetry_cell_setting 'monoclinic'
loop_
_space_group_symop_operation_xyz
x,y,z
-x,y,-z
-x,-y,-z
x,-y,z
1/2+x,1/2+y,z
1/2-x,1/2+y,-z
1/2-x,1/2-y,-z
1/2+x,1/2-y,z
loop_
_atom_site_type_symbol
_atom_site_label
_atom_site_fract_x
_atom_site_fract_y
_atom_site_fract_z
Si Si1 0.111935 0.166764 0.711328
Si Si2 0.745120 0.699085 0.102021
Si Si3 0.651247 0.407785 0.886935
Si Si4 0.917404 0.907258 0.857808
Si Si5 0.189689 0.594707 0.459626
Si Si6 0.159635 0.336917 0.274291
Si Si7 0.572654 0.089995 0.034976
Si Si8 0.467342 0.160769 0.291770
O O1 0.128743 0.146289 0.811525
O O2 0.209472 0.137508 0.592905
O O3 0.079177 0.256018 0.710002
O O4 0.022415 0.112681 0.747987
O O5 0.659743 0.638236 0.147887
O O6 0.715942 0.755545 0.210513
O O7 0.750000 0.750000 0.000000
O O8 0.842909 0.652315 0.042174
O O9 0.627671 0.500000 0.881826
O O10 0.764772 0.400206 0.824815
O O11 0.596021 0.381649 0.021413
O O12 0.898521 0.000000 0.870494
O O13 0.203407 0.500000 0.434155
O O14 0.151833 0.636015 0.389295
O O15 0.113725 0.611203 0.596289
O O16 0.057707 0.328946 0.297794
O O17 0.512978 0.115362 0.170130
O O18 0.610440 0.000000 0.019090
O O19 0.500000 0.091511 0.000000
#
# Coordination Sequence:
#
# PCOD9205637 Si02
#       8
#     8   8   8   8   8   8   8   8
#     4  11  22  38  58  93 129 163 206 260 319 380
#     4  12  21  40  60  95 129 164 211 262 318 382
#     4  10  21  35  59  94 130 164 206 260 325 385
#     4  11  20  34  60  90 127 171 210 261 323 377
#     4  11  26  45  67  95 126 165 217 274 328 380
#     4  11  22  39  63  95 125 161 207 263 329 374
#     4  11  26  43  64  94 131 176 214 254 310 381
#     4  12  24  42  67  93 129 168 214 265 321 382
#
# _framework density 19.350031999999999
#
# number of rings (size 3 to 8) (size 9 to 14) (size 15 to 20)
#    0.000    0.875    3.750    4.125    3.500    4.500 
#    0.000    0.000    0.000    0.000    0.000    0.875 
#    0.000    0.000    0.000    0.000    0.000    0.000 
#
# Total GULP energy -178768.254669 kJ/mol
# GULP energy per Si atom -5586.507958 kJ/mol
# Density = 1.930599 g / cm^3
# Si number density = 19.350032 Si / 1000 Ang^3
#
#
#
# Elastic Constant Matrix: (Units=GPa)
#
#
# Indices 1 2 3 4 5 6 
#
# 1 92.0180 45.9355 33.7030 0.0000 -19.2435 0.0000
# 2 45.9355 93.2645 15.5553 0.0000 -2.6309 0.0000
# 3 33.7030 15.5553 71.5642 0.0000 -21.8159 0.0000
# 4 0.0000 0.0000 0.0000 28.1473 0.0000 9.1104
# 5 -19.2435 -2.6309 -21.8159 0.0000 26.2339 0.0000
# 6 0.0000 0.0000 0.0000 9.1104 0.0000 -13.5034
#
#
#
# Elastic Compliance Matrix: (Units=1/GPa)
#
#
# Indices 1 2 3 4 5 6 
#
# 1 0.018326 -0.008090 -0.004048 0.000000 0.009265 0.000000
# 2 -0.008090 0.014725 -0.001004 0.000000 -0.005292 0.000000
# 3 -0.004048 -0.001004 0.020311 0.000000 0.013821 0.000000
# 4 0.000000 0.000000 0.000000 0.029160 0.000000 0.019673
# 5 0.009265 -0.005292 0.013821 0.000000 0.055878 0.000000
# 6 0.000000 0.000000 0.000000 0.019673 0.000000 -0.060782
#
#
# Mechanical properties :
#
#
# Convention : Reuss Voigt Hill
#
# Bulk Modulus (GPa) = 36.92904 49.69271 43.31087
# Shear Modulus (GPa) = 44.27671 18.95242 31.61456
#
# Velocity S-wave (km/s) = 4.78870 3.13301 4.04645
# Velocity P-wave (km/s) = 7.04994 6.23092 6.65305
#
# Compressibility (1/GPa) = 0.02707896
#
# Stress axis : x y z
#
# Youngs Moduli (GPa) = 54.56733 67.91289 49.23396
#
# Poissons Ratio (x) = 0.54939 0.19928
# Poissons Ratio (y) = 0.44143 0.04944
# Poissons Ratio (z) = 0.22087 0.06820
#
# Static dielectric constant tensor:
#      x y z
#    x 1.703790 0.000000 0.010230 
#    y 0.000000 1.692180 0.000000 
#    z 0.010230 0.000000 1.704480 
# 
# From -- ./inp_files/225691.got.cif
#   From: 2010.05.17/outbox.cif.g08.bks.cpg/sg12_113_cif.got.tgz:225691.got - 2010.06.03 13:09:07.
