data_PCOD9205092
_publ_section_title
;
Structure prediction by ZEFSAII (Michael W. Deem and Ramdas Pophale) SiO2 
 PCOD9205092
Probable space group: C 2/M
;
_chemical_formula_sum "Si O2"
_cell_formula_units_Z 64
_cell_length_a 25.119895
_cell_length_b 20.329809
_cell_length_c 9.755991
_cell_angle_alpha 90.000000
_cell_angle_beta 124.717746
_cell_angle_gamma 90.000000
_cell_volume 4095.220126
_symmetry_space_group_name_H-M "C 2/M"
_symmetry_group_IT_number 12
_symmetry_cell_setting 'monoclinic'
loop_
_space_group_symop_operation_xyz
x,y,z
-x,y,-z
-x,-y,-z
x,-y,z
1/2+x,1/2+y,z
1/2-x,1/2+y,-z
1/2-x,1/2-y,-z
1/2+x,1/2-y,z
loop_
_atom_site_type_symbol
_atom_site_label
_atom_site_fract_x
_atom_site_fract_y
_atom_site_fract_z
Si Si1 0.250118 0.648077 0.094515
Si Si2 0.667461 0.077841 0.475295
Si Si3 0.658416 0.722083 0.964158
Si Si4 0.852986 0.422251 0.237446
Si Si5 0.238251 0.845572 0.575513
Si Si6 0.849638 0.232884 0.738338
Si Si7 0.544891 0.810501 0.691754
Si Si8 0.952602 0.660635 0.810398
O O1 0.310197 0.666840 0.085682
O O2 0.268179 0.630823 0.277269
O O3 0.207681 0.715448 0.039370
O O4 0.204344 0.595400 0.952354
O O5 0.668572 0.095702 0.638622
O O6 0.729324 0.103351 0.481966
O O7 0.603996 0.110592 0.315000
O O8 0.662946 0.000000 0.459459
O O9 0.593899 0.752985 0.805748
O O10 0.647931 0.701978 0.106603
O O11 0.868584 0.500000 0.256115
O O12 0.912876 0.375033 0.286196
O O13 0.172894 0.816742 0.413300
O O14 0.291691 0.786884 0.657898
O O15 0.914690 0.273395 0.802011
O O16 0.500000 0.791494 0.500000
O O17 0.498240 0.826481 0.748919
O O18 0.000000 0.636872 0.000000
#
# Coordination Sequence:
#
# PCOD9205092 Si02
#       8
#     8   8   8   8   8   8   8   8
#     4   9  18  30  48  70  89 114 157 204 247 284
#     4  10  21  35  49  66  94 132 169 202 237 280
#     4   9  17  30  47  67  91 121 154 195 245 288
#     4  10  21  35  49  66  94 132 169 203 237 279
#     4   9  18  30  48  70  88 116 156 203 250 282
#     4   9  17  30  48  65  92 122 152 196 244 291
#     4  11  21  32  48  70  98 133 165 200 232 280
#     4  11  21  34  47  69 100 131 165 197 236 281
#
# _framework density 15.627974999999999
#
# number of rings (size 3 to 8) (size 9 to 14) (size 15 to 20)
#    0.000    2.250    2.500    0.750    3.500    4.500 
#    0.000    0.000    0.000    0.000    0.000    0.000 
#    0.000    2.000    0.000    0.125    0.000    0.000 
#
# Total GULP energy -178308.164649 kJ/mol
# GULP energy per Si atom -5572.130145 kJ/mol
# Density = 1.559241 g / cm^3
# Si number density = 15.627975 Si / 1000 Ang^3
#
#
#
# Elastic Constant Matrix: (Units=GPa)
#
#
# Indices 1 2 3 4 5 6 
#
# 1 56.9476 27.1091 28.7824 0.0000 -20.9032 0.0000
# 2 27.1091 20.2320 26.3197 0.0000 1.2918 0.0000
# 3 28.7824 26.3197 118.1592 0.0000 -18.8224 0.0000
# 4 0.0000 0.0000 0.0000 17.2387 0.0000 -2.7015
# 5 -20.9032 1.2918 -18.8224 0.0000 26.4844 0.0000
# 6 0.0000 0.0000 0.0000 -2.7015 0.0000 17.2566
#
#
#
# Elastic Compliance Matrix: (Units=1/GPa)
#
#
# Indices 1 2 3 4 5 6 
#
# 1 -0.137109 0.256736 -0.048515 0.000000 -0.155216 0.000000
# 2 0.256736 -0.404335 0.070983 0.000000 0.272801 0.000000
# 3 -0.048515 0.070983 -0.002460 0.000000 -0.043501 0.000000
# 4 0.000000 0.000000 0.000000 0.059468 0.000000 0.009310
# 5 -0.155216 0.272801 -0.043501 0.000000 -0.128970 0.000000
# 6 0.000000 0.000000 0.000000 0.009310 0.000000 0.059406
#
#
# Mechanical properties :
#
#
# Convention : Reuss Voigt Hill
#
# Bulk Modulus (GPa) = 68.94493 39.97347 54.45920
# Shear Modulus (GPa) = -4.51437 19.73778 7.61171
#
# Velocity S-wave (km/s) = -1.70145 3.55770 2.20933
# Velocity P-wave (km/s) = 6.35234 6.51996 6.43670
#
# Compressibility (1/GPa) = 0.01450433
#
# Stress axis : x y z
#
# Youngs Moduli (GPa) = -7.29349 -2.47320 -406.47896
#
# Poissons Ratio (x) = 0.63496 -19.72016
# Poissons Ratio (y) = 1.87250 28.85311
# Poissons Ratio (z) = -0.35384 0.17555
#
# Static dielectric constant tensor:
#      x y z
#    x 1.515110 0.000000 -0.009290 
#    y 0.000000 1.500350 0.000000 
#    z -0.009290 0.000000 1.513440 
# 
# From -- ./inp_files/89561.got.cif
#   From: 2010.05.17/outbox.cif.g08.bks.cpg/sg12_45_cif.got.tgz:89561.got - 2010.06.03 13:09:07.
