data_PCOD9205368
_publ_section_title
;
Structure prediction by ZEFSAII (Michael W. Deem and Ramdas Pophale) SiO2 
 PCOD9205368
Probable space group: C 2/M
;
_chemical_formula_sum "Si O2"
_cell_formula_units_Z 48
_cell_length_a 16.449762
_cell_length_b 29.346588
_cell_length_c 16.801925
_cell_angle_alpha 90.000000
_cell_angle_beta 162.658415
_cell_angle_gamma 90.000000
_cell_volume 2417.638006
_symmetry_space_group_name_H-M "C 2/M"
_symmetry_group_IT_number 12
_symmetry_cell_setting 'monoclinic'
loop_
_space_group_symop_operation_xyz
x,y,z
-x,y,-z
-x,-y,-z
x,-y,z
1/2+x,1/2+y,z
1/2-x,1/2+y,-z
1/2-x,1/2-y,-z
1/2+x,1/2-y,z
loop_
_atom_site_type_symbol
_atom_site_label
_atom_site_fract_x
_atom_site_fract_y
_atom_site_fract_z
Si Si1 0.085027 0.446808 0.831123
Si Si2 0.415138 0.759347 0.572321
Si Si3 0.871440 0.891305 0.669578
Si Si4 0.484661 0.656738 0.355426
Si Si5 0.033244 0.186232 0.937094
Si Si6 0.556746 0.900309 0.140806
O O1 0.067494 0.500000 0.797698
O O2 0.914801 0.416848 0.608578
O O3 0.962567 0.435747 0.804489
O O4 0.393644 0.428937 0.122056
O O5 0.250000 0.750000 0.500000
O O6 0.520350 0.710578 0.640064
O O7 0.191269 0.778388 0.303366
O O8 0.669713 0.794734 0.813333
O O9 0.888815 0.855800 0.612471
O O10 0.948140 0.861591 0.817478
O O11 0.670596 0.628723 0.590696
O O12 0.184788 0.636134 0.074226
O O13 0.000000 0.182883 0.000000
O O14 0.500000 0.920220 0.000000
#
# Coordination Sequence:
#
# PCOD9205368 Si02
#       6
#     8   8   8   8   8   8
#     4  10  21  38  63  89 111 150 203 246 304 377
#     4  12  24  39  63  89 126 169 211 254 291 354
#     4  10  21  39  61  84 117 155 195 249 301 364
#     4  10  21  35  57  80 114 164 204 235 281 351
#     4  12  26  41  62  93 124 162 207 256 309 353
#     4  10  21  35  54  84 121 157 193 242 300 348
#
# _framework density 19.854089999999999
#
# number of rings (size 3 to 8) (size 9 to 14) (size 15 to 20)
#    0.000    1.333    1.667    4.000    4.667    4.333 
#    0.000    0.000    0.000    9.000    0.000    0.000 
#    0.000    0.000    0.000    0.000    0.000    0.000 
#
# Total GULP energy -134061.328485 kJ/mol
# GULP energy per Si atom -5585.888687 kJ/mol
# Density = 1.980890 g / cm^3
# Si number density = 19.854090 Si / 1000 Ang^3
#
#
#
# Elastic Constant Matrix: (Units=GPa)
#
#
# Indices 1 2 3 4 5 6 
#
# 1 60.3557 35.2593 27.9407 0.0166 -23.3917 -0.0147
# 2 35.2593 80.3610 19.6332 -0.0068 -10.8969 0.0066
# 3 27.9407 19.6332 105.4933 -0.0111 -11.7996 0.0046
# 4 0.0166 -0.0068 -0.0111 13.2320 0.0018 4.5494
# 5 -23.3917 -10.8969 -11.7996 0.0018 33.2402 -0.0058
# 6 -0.0147 0.0066 0.0046 4.5494 -0.0058 6.8231
#
#
#
# Elastic Compliance Matrix: (Units=1/GPa)
#
#
# Indices 1 2 3 4 5 6 
#
# 1 0.031260 -0.010318 -0.004454 -0.000108 0.017035 0.000167
# 2 -0.010318 0.016858 -0.000623 0.000045 -0.001956 -0.000070
# 3 -0.004454 -0.000623 0.010832 0.000026 0.000506 -0.000033
# 4 -0.000108 0.000045 0.000026 0.098052 -0.000069 -0.065378
# 5 0.017035 -0.001956 0.000506 -0.000069 0.041611 0.000120
# 6 0.000167 -0.000070 -0.000033 -0.065378 0.000120 0.190152
#
#
# Mechanical properties :
#
#
# Convention : Reuss Voigt Hill
#
# Bulk Modulus (GPa) = 35.51185 45.76405 40.63795
# Shear Modulus (GPa) = 11.65661 21.55085 16.60373
#
# Velocity S-wave (km/s) = 2.42567 3.29821 2.89500
# Velocity P-wave (km/s) = 5.07646 6.13225 5.62916
#
# Compressibility (1/GPa) = 0.02815961
#
# Stress axis : x y z
#
# Youngs Moduli (GPa) = 31.98981 59.31914 92.32257
#
# Poissons Ratio (x) = 0.61203 0.41119
# Poissons Ratio (y) = 0.33006 0.05756
# Poissons Ratio (z) = 0.14248 0.03698
#
# Static dielectric constant tensor:
#      x y z
#    x 1.767000 0.000000 -0.006200 
#    y 0.000000 1.669070 -0.000010 
#    z -0.006200 -0.000010 1.698590 
# 
# From -- ./inp_files/219517.got.cif
#   From: 2010.05.17/outbox.cif.g08.bks.cpg/sg12_110_cif.got.tgz:219517.got - 2010.06.03 13:09:07.
