data_PCOD9205079
_publ_section_title
;
Structure prediction by ZEFSAII (Michael W. Deem and Ramdas Pophale) SiO2 
 PCOD9205079
Probable space group: C 2/M
;
_chemical_formula_sum "Si O2"
_cell_formula_units_Z 64
_cell_length_a 20.870090
_cell_length_b 23.547364
_cell_length_c 8.049141
_cell_angle_alpha 90.000000
_cell_angle_beta 91.801842
_cell_angle_gamma 90.000000
_cell_volume 3953.678621
_symmetry_space_group_name_H-M "C 2/M"
_symmetry_group_IT_number 12
_symmetry_cell_setting 'monoclinic'
loop_
_space_group_symop_operation_xyz
x,y,z
-x,y,-z
-x,-y,-z
x,-y,z
1/2+x,1/2+y,z
1/2-x,1/2+y,-z
1/2-x,1/2-y,-z
1/2+x,1/2-y,z
loop_
_atom_site_type_symbol
_atom_site_label
_atom_site_fract_x
_atom_site_fract_y
_atom_site_fract_z
Si Si1 0.591382 0.123523 0.370826
Si Si2 0.849086 0.565071 0.326164
Si Si3 0.166276 0.218914 0.745739
Si Si4 0.637737 0.283042 0.123199
Si Si5 0.206120 0.660881 0.165255
Si Si6 0.264190 0.158763 0.204865
Si Si7 0.976655 0.434943 0.185707
Si Si8 0.071682 0.244859 0.443821
O O1 0.608647 0.076993 0.508363
O O2 0.652439 0.124670 0.252966
O O3 0.523726 0.107101 0.285498
O O4 0.585846 0.187275 0.441980
O O5 0.829184 0.500000 0.309531
O O6 0.791422 0.609469 0.321669
O O7 0.901681 0.580132 0.189469
O O8 0.226168 0.175093 0.740524
O O9 0.198021 0.282228 0.756647
O O10 0.120685 0.218071 0.582077
O O11 0.131031 0.208733 0.922705
O O12 0.673686 0.222555 0.138565
O O13 0.689137 0.327712 0.199283
O O14 0.581897 0.277557 0.255447
O O15 0.221343 0.639917 0.982565
O O16 0.982440 0.500000 0.249287
O O17 0.000000 0.434371 0.000000
O O18 0.000000 0.235616 0.500000
#
# Coordination Sequence:
#
# PCOD9205079 Si02
#       8
#     8   8   8   8   8   8   8   8
#     4  11  20  31  45  65  91 121 163 195 233 275
#     4  11  21  30  45  66  90 122 159 201 236 266
#     4   9  17  32  49  67  95 118 156 195 228 282
#     4   8  18  31  48  70  90 120 154 195 231 277
#     4   8  17  30  49  69  82 117 158 193 230 276
#     4   9  16  32  49  65  88 117 160 194 233 273
#     4  10  21  35  46  57  84 127 168 206 238 265
#     4  11  21  30  45  71  97 126 154 185 232 284
#
# _framework density 16.187456000000001
#
# number of rings (size 3 to 8) (size 9 to 14) (size 15 to 20)
#    0.000    2.375    1.250    3.750    1.750    3.000 
#    0.000    0.625    0.000    0.000    0.000    0.000 
#    0.000    0.500    0.000    3.500    0.000    0.000 
#
# Total GULP energy -178194.551322 kJ/mol
# GULP energy per Si atom -5568.579729 kJ/mol
# Density = 1.615061 g / cm^3
# Si number density = 16.187456 Si / 1000 Ang^3
#
#
#
# Elastic Constant Matrix: (Units=GPa)
#
#
# Indices 1 2 3 4 5 6 
#
# 1 39.4605 12.1555 9.8954 0.0000 -7.4052 0.0000
# 2 12.1555 31.4573 8.5101 0.0000 3.7198 0.0000
# 3 9.8954 8.5101 28.3736 0.0000 -5.1482 0.0000
# 4 0.0000 0.0000 0.0000 11.8396 0.0000 -2.2924
# 5 -7.4052 3.7198 -5.1482 0.0000 30.9589 0.0000
# 6 0.0000 0.0000 0.0000 -2.2924 0.0000 17.0302
#
#
#
# Elastic Compliance Matrix: (Units=1/GPa)
#
#
# Indices 1 2 3 4 5 6 
#
# 1 0.031985 -0.011626 -0.006214 0.000000 0.008014 0.000000
# 2 -0.011626 0.039963 -0.009597 0.000000 -0.009178 0.000000
# 3 -0.006214 -0.009597 0.041481 0.000000 0.006565 0.000000
# 4 0.000000 0.000000 0.000000 0.086722 0.000000 0.011673
# 5 0.008014 -0.009178 0.006565 0.000000 0.036412 0.000000
# 6 0.000000 0.000000 0.000000 0.011673 0.000000 0.060291
#
#
# Mechanical properties :
#
#
# Convention : Reuss Voigt Hill
#
# Bulk Modulus (GPa) = 17.07782 17.82369 17.45076
# Shear Modulus (GPa) = 13.46813 16.54776 15.00794
#
# Velocity S-wave (km/s) = 2.88759 3.20075 3.04819
# Velocity P-wave (km/s) = 4.65730 4.96935 4.81585
#
# Compressibility (1/GPa) = 0.05855548
#
# Stress axis : x y z
#
# Youngs Moduli (GPa) = 31.26429 25.02300 24.10760
#
# Poissons Ratio (x) = 0.29092 0.14980
# Poissons Ratio (y) = 0.36348 0.23136
# Poissons Ratio (z) = 0.19427 0.24014
#
# Static dielectric constant tensor:
#      x y z
#    x 1.560430 0.000000 -0.028540 
#    y 0.000000 1.536550 0.000000 
#    z -0.028540 0.000000 1.610040 
# 
# From -- ./inp_files/78769.got.cif
#   From: 2010.05.17/outbox.cif.g08.bks.cpg/sg12_40_cif.got.tgz:78769.got - 2010.06.03 13:09:07.
