data_PCOD9205890
_publ_section_title
;
Structure prediction by ZEFSAII (Michael W. Deem and Ramdas Pophale) SiO2 
 PCOD9205890
Probable space group: C 2/M
;
_chemical_formula_sum "Si O2"
_cell_formula_units_Z 56
_cell_length_a 18.314138
_cell_length_b 8.679998
_cell_length_c 29.454649
_cell_angle_alpha 90.000000
_cell_angle_beta 38.879616
_cell_angle_gamma 90.000000
_cell_volume 2939.019726
_symmetry_space_group_name_H-M "C 2/M"
_symmetry_group_IT_number 12
_symmetry_cell_setting 'monoclinic'
loop_
_space_group_symop_operation_xyz
x,y,z
-x,y,-z
-x,-y,-z
x,-y,z
1/2+x,1/2+y,z
1/2-x,1/2+y,-z
1/2-x,1/2-y,-z
1/2+x,1/2-y,z
loop_
_atom_site_type_symbol
_atom_site_label
_atom_site_fract_x
_atom_site_fract_y
_atom_site_fract_z
Si Si1 0.551191 0.313883 0.926639
Si Si2 0.482985 0.313652 0.781816
Si Si3 0.830496 0.316407 0.500928
Si Si4 0.587560 0.313922 0.361870
Si Si5 0.121690 0.185963 0.070212
Si Si6 0.807755 0.814189 0.786133
Si Si7 0.761112 0.684678 0.359754
O O1 0.555053 0.500000 0.924562
O O2 0.465503 0.264074 0.927599
O O3 0.680343 0.252241 0.856371
O O4 0.500000 0.263941 0.000000
O O5 0.493117 0.500000 0.776284
O O6 0.428767 0.267327 0.856426
O O7 0.396494 0.267715 0.783019
O O8 0.609593 0.242816 0.713399
O O9 0.825281 0.500000 0.502537
O O10 0.750000 0.250000 0.500000
O O11 0.784127 0.255983 0.571551
O O12 0.962062 0.259903 0.429936
O O13 0.574391 0.500000 0.368144
O O14 0.642106 0.267525 0.287137
O O15 0.674741 0.272417 0.360423
O O16 0.127160 0.000000 0.066868
O O17 0.250000 0.250000 0.000000
O O18 0.800288 0.000000 0.790207
O O19 0.760964 0.500000 0.363741
#
# Coordination Sequence:
#
# PCOD9205890 Si02
#       7
#     8   8   8   8   8   8   8
#     4  10  21  36  54  79 112 148 187 235 289 343
#     4  10  21  37  57  83 115 150 193 243 291 346
#     4  12  25  41  63  89 118 154 195 238 288 344
#     4  10  22  40  60  86 120 153 191 240 290 345
#     4  10  21  36  55  81 112 148 191 239 290 344
#     4  10  21  37  58  83 111 147 188 233 286 340
#     4  11  23  39  61  88 118 154 194 237 289 347
#
# _framework density 19.053972000000002
#
# number of rings (size 3 to 8) (size 9 to 14) (size 15 to 20)
#    0.000    1.571    0.000    4.714    0.000    6.571 
#    0.000    0.000    0.000    0.000    0.000    0.000 
#    0.000    0.000    0.000    0.000    0.000    0.000 
#
# Total GULP energy -156590.621595 kJ/mol
# GULP energy per Si atom -5592.522200 kJ/mol
# Density = 1.901060 g / cm^3
# Si number density = 19.053972 Si / 1000 Ang^3
#
#
#
# Elastic Constant Matrix: (Units=GPa)
#
#
# Indices 1 2 3 4 5 6 
#
# 1 238.8053 62.8841 149.4613 0.0001 0.7000 0.0005
# 2 62.8841 33.6688 59.2550 0.0001 -0.4324 0.0009
# 3 149.4613 59.2550 239.3351 0.0000 -0.0261 0.0000
# 4 0.0001 0.0001 0.0000 37.8104 0.0000 -12.3905
# 5 0.7000 -0.4324 -0.0261 0.0000 46.3345 0.0000
# 6 0.0005 0.0009 0.0000 -12.3905 0.0000 22.1875
#
#
#
# Elastic Compliance Matrix: (Units=1/GPa)
#
#
# Indices 1 2 3 4 5 6 
#
# 1 0.009076 -0.012370 -0.002606 0.000000 -0.000254 0.000000
# 2 -0.012370 0.069505 -0.009483 -0.000001 0.000830 -0.000003
# 3 -0.002606 -0.009483 0.008153 0.000000 -0.000045 0.000001
# 4 0.000000 -0.000001 0.000000 0.032372 0.000000 0.018078
# 5 -0.000254 0.000830 -0.000045 0.000000 0.021594 0.000000
# 6 0.000000 -0.000003 0.000001 0.018078 0.000000 0.055166
#
#
# Mechanical properties :
#
#
# Convention : Reuss Voigt Hill
#
# Bulk Modulus (GPa) = 26.44283 117.22332 71.83308
# Shear Modulus (GPa) = 19.42583 37.28042 28.35313
#
# Velocity S-wave (km/s) = 3.19645 4.42811 3.86170
# Velocity P-wave (km/s) = 5.24700 9.37014 7.59377
#
# Compressibility (1/GPa) = 0.03781743
#
# Stress axis : x y z
#
# Youngs Moduli (GPa) = 110.17772 14.38743 122.65033
#
# Poissons Ratio (x) = 0.17797 0.31957
# Poissons Ratio (y) = 1.36286 1.16314
# Poissons Ratio (z) = 0.28707 0.13644
#
# Static dielectric constant tensor:
#      x y z
#    x 1.637630 0.000000 0.021330 
#    y 0.000000 1.647270 0.000000 
#    z 0.021330 0.000000 1.614290 
# 
# From -- ./inp_files/275245.got.cif
#   From: 2010.05.17/outbox.cif.g08.bks.cpg/sg12_138_cif.got.tgz:275245.got - 2010.06.03 13:09:07.
