data_PCOD9205260
_publ_section_title
;
Structure prediction by ZEFSAII (Michael W. Deem and Ramdas Pophale) SiO2 
 PCOD9205260
Probable space group: C 2/M
;
_chemical_formula_sum "Si O2"
_cell_formula_units_Z 56
_cell_length_a 31.110729
_cell_length_b 8.761624
_cell_length_c 17.233717
_cell_angle_alpha 90.000000
_cell_angle_beta 45.250243
_cell_angle_gamma 90.000000
_cell_volume 3336.163352
_symmetry_space_group_name_H-M "C 2/M"
_symmetry_group_IT_number 12
_symmetry_cell_setting 'monoclinic'
loop_
_space_group_symop_operation_xyz
x,y,z
-x,y,-z
-x,-y,-z
x,-y,z
1/2+x,1/2+y,z
1/2-x,1/2+y,-z
1/2-x,1/2-y,-z
1/2+x,1/2-y,z
loop_
_atom_site_type_symbol
_atom_site_label
_atom_site_fract_x
_atom_site_fract_y
_atom_site_fract_z
Si Si1 0.774518 0.183980 0.850818
Si Si2 0.157785 0.184094 0.084733
Si Si3 0.924206 0.317804 0.232726
Si Si4 0.260401 0.682977 0.694351
Si Si5 0.125634 0.182049 0.860154
Si Si6 0.804787 0.317495 0.481078
Si Si7 0.948239 0.816625 0.888589
O O1 0.825786 0.229155 0.848069
O O2 0.783445 0.229979 0.750495
O O3 0.769880 0.000000 0.858230
O O4 0.711717 0.251274 0.962878
O O5 0.093676 0.231164 0.130586
O O6 0.160289 0.000000 0.076782
O O7 0.923882 0.500000 0.222203
O O8 0.912595 0.238063 0.164881
O O9 0.867980 0.276684 0.359855
O O10 0.987558 0.264161 0.187319
O O11 0.261964 0.500000 0.686317
O O12 0.190888 0.737677 0.775713
O O13 0.297757 0.754270 0.576550
O O14 0.134509 0.000000 0.844775
O O15 0.090252 0.216949 0.984577
O O16 0.799383 0.500000 0.488617
O O17 0.750000 0.250000 0.500000
O O18 0.957136 0.000000 0.874475
#
# Coordination Sequence:
#
# PCOD9205260 Si02
#       7
#     8   8   8   8   8   8   8
#     4   9  18  31  51  79 109 138 172 216 262 310
#     4   9  17  32  52  77 108 140 174 212 259 315
#     4  11  24  38  53  75 104 139 180 221 265 315
#     4  11  21  33  53  81 110 140 175 217 265 312
#     4  11  21  34  53  78 108 143 177 212 257 315
#     4  11  23  38  56  77 102 138 179 224 267 313
#     4  10  21  35  53  78 108 143 178 212 259 318
#
# _framework density 16.78575
#
# number of rings (size 3 to 8) (size 9 to 14) (size 15 to 20)
#    0.000    1.714    2.857    2.143    0.000    5.714 
#    0.000    0.000    0.000    0.857    0.000    6.000 
#    0.000    0.000    0.000    0.000    0.000    0.000 
#
# Total GULP energy -156329.611467 kJ/mol
# GULP energy per Si atom -5583.200410 kJ/mol
# Density = 1.674754 g / cm^3
# Si number density = 16.785750 Si / 1000 Ang^3
#
#
#
# Elastic Constant Matrix: (Units=GPa)
#
#
# Indices 1 2 3 4 5 6 
#
# 1 148.8344 29.4797 50.8198 -0.0001 7.5992 -0.0001
# 2 29.4797 25.5093 26.2112 0.0006 -0.9003 0.0000
# 3 50.8198 26.2112 57.2533 0.0001 -0.7337 0.0000
# 4 -0.0001 0.0006 0.0001 27.8101 0.0001 -1.9509
# 5 7.5992 -0.9003 -0.7337 0.0001 27.4727 0.0000
# 6 -0.0001 0.0000 0.0000 -1.9509 0.0000 21.7407
#
#
#
# Elastic Compliance Matrix: (Units=1/GPa)
#
#
# Indices 1 2 3 4 5 6 
#
# 1 0.010180 -0.004814 -0.006873 0.000000 -0.003157 0.000000
# 2 -0.004814 0.076362 -0.030647 -0.000002 0.003016 0.000000
# 3 -0.006873 -0.030647 0.037622 0.000000 0.001901 0.000000
# 4 0.000000 -0.000002 0.000000 0.036186 0.000000 0.003247
# 5 -0.003157 0.003016 0.001901 0.000000 0.037423 0.000000
# 6 0.000000 0.000000 0.000000 0.003247 0.000000 0.046288
#
#
# Mechanical properties :
#
#
# Convention : Reuss Voigt Hill
#
# Bulk Modulus (GPa) = 25.31956 49.40204 37.36080
# Shear Modulus (GPa) = 14.62438 23.74380 19.18409
#
# Velocity S-wave (km/s) = 2.95488 3.76509 3.38432
# Velocity P-wave (km/s) = 5.17286 6.95673 6.13003
#
# Compressibility (1/GPa) = 0.03949515
#
# Stress axis : x y z
#
# Youngs Moduli (GPa) = 98.22777 13.09553 26.58034
#
# Poissons Ratio (x) = 0.06305 0.18268
# Poissons Ratio (y) = 0.47291 0.81461
# Poissons Ratio (z) = 0.67510 0.40134
#
# Static dielectric constant tensor:
#      x y z
#    x 1.580610 0.000000 0.015070 
#    y 0.000000 1.566130 0.000000 
#    z 0.015070 0.000000 1.535680 
# 
# From -- ./inp_files/287394.got.cif
#   From: 2010.05.17/outbox.cif.g08.bks.cpg/sg12_144_cif.got.tgz:287394.got - 2010.06.03 13:09:07.
