data_PCOD9205007
_publ_section_title
;
Structure prediction by ZEFSAII (Michael W. Deem and Ramdas Pophale) SiO2 
 PCOD9205007
Probable space group: C 2/M
;
_chemical_formula_sum "Si O2"
_cell_formula_units_Z 52
_cell_length_a 22.532098
_cell_length_b 7.566136
_cell_length_c 16.500205
_cell_angle_alpha 90.000000
_cell_angle_beta 87.599813
_cell_angle_gamma 90.000000
_cell_volume 2810.502256
_symmetry_space_group_name_H-M "C 2/M"
_symmetry_group_IT_number 12
_symmetry_cell_setting 'monoclinic'
loop_
_space_group_symop_operation_xyz
x,y,z
-x,y,-z
-x,-y,-z
x,-y,z
1/2+x,1/2+y,z
1/2-x,1/2+y,-z
1/2-x,1/2-y,-z
1/2+x,1/2-y,z
loop_
_atom_site_type_symbol
_atom_site_label
_atom_site_fract_x
_atom_site_fract_y
_atom_site_fract_z
Si Si1 0.887412 0.294152 0.252124
Si Si2 0.586569 0.500000 0.139518
Si Si3 0.689488 0.286198 0.408303
Si Si4 0.331808 0.704559 0.767697
Si Si5 0.825218 0.707901 0.414254
Si Si6 0.656026 0.500000 0.970420
Si Si7 0.220049 0.293705 0.871251
Si Si8 0.549407 0.500000 0.847920
O O1 0.905423 0.500000 0.254442
O O2 0.868704 0.225095 0.342068
O O3 0.828238 0.284650 0.199166
O O4 0.935654 0.170971 0.207182
O O5 0.605653 0.670552 0.192179
O O6 0.518414 0.500000 0.120567
O O7 0.632031 0.500000 0.062321
O O8 0.688700 0.500000 0.411103
O O9 0.664899 0.223389 0.323131
O O10 0.757981 0.221409 0.409028
O O11 0.657766 0.229869 0.493041
O O12 0.309308 0.500000 0.757675
O O13 0.281627 0.778625 0.830015
O O14 0.820529 0.500000 0.397002
O O15 0.694242 0.671050 0.943351
O O16 0.596976 0.500000 0.917736
O O17 0.225347 0.500000 0.895609
#
# Coordination Sequence:
#
# PCOD9205007 Si02
#       8
#     8   4   8   8   8   4   8   4
#     4   9  17  31  54  76 105 135 173 224 262 306
#     4  10  21  36  55  72 105 142 176 216 269 315
#     4   9  15  26  44  70 103 134 165 201 256 318
#     4   8  16  31  51  68 102 145 163 205 255 325
#     4   9  16  25  42  74 107 132 160 213 261 298
#     4  10  21  34  56  84 102 129 178 235 261 312
#     4   9  16  33  53  77 107 135 167 209 278 317
#     4  10  21  36  55  78  99 143 184 222 260 304
#
# _framework density 18.502032
#
# number of rings (size 3 to 8) (size 9 to 14) (size 15 to 20)
#    0.462    2.462    1.538    0.231    1.077    0.615 
#    1.385    0.769    1.692    5.538    0.000    2.154 
#    0.000    0.000    0.000    0.000    0.000    0.000 
#
# Total GULP energy -144761.052073 kJ/mol
# GULP energy per Si atom -5567.732772 kJ/mol
# Density = 1.845992 g / cm^3
# Si number density = 18.502032 Si / 1000 Ang^3
#
#
#
# Elastic Constant Matrix: (Units=GPa)
#
#
# Indices 1 2 3 4 5 6 
#
# 1 48.0060 9.9271 12.1165 0.0000 0.4490 0.0000
# 2 9.9271 59.2238 14.8169 0.0000 -2.0275 0.0000
# 3 12.1165 14.8169 91.0571 0.0000 7.3465 0.0000
# 4 0.0000 0.0000 0.0000 21.3051 0.0000 -1.1592
# 5 0.4490 -2.0275 7.3465 0.0000 15.0717 0.0000
# 6 0.0000 0.0000 0.0000 -1.1592 0.0000 11.1555
#
#
#
# Elastic Compliance Matrix: (Units=1/GPa)
#
#
# Indices 1 2 3 4 5 6 
#
# 1 0.022085 -0.003086 -0.002446 0.000000 0.000119 0.000000
# 2 -0.003086 0.018258 -0.002879 0.000000 0.003951 0.000000
# 3 -0.002446 -0.002879 0.012285 0.000000 -0.006302 0.000000
# 4 0.000000 0.000000 0.000000 0.047204 0.000000 0.004905
# 5 0.000119 0.003951 -0.006302 0.000000 0.069950 0.000000
# 6 0.000000 0.000000 0.000000 0.004905 0.000000 0.090151
#
#
# Mechanical properties :
#
#
# Convention : Reuss Voigt Hill
#
# Bulk Modulus (GPa) = 27.92885 30.22309 29.07597
# Shear Modulus (GPa) = 17.31960 20.26822 18.79391
#
# Velocity S-wave (km/s) = 3.06288 3.31336 3.19058
# Velocity P-wave (km/s) = 5.25701 5.56851 5.41500
#
# Compressibility (1/GPa) = 0.03580527
#
# Stress axis : x y z
#
# Youngs Moduli (GPa) = 45.27928 54.77065 81.40272
#
# Poissons Ratio (x) = 0.16901 0.19913
# Poissons Ratio (y) = 0.13972 0.23437
# Poissons Ratio (z) = 0.11076 0.15769
#
# Static dielectric constant tensor:
#      x y z
#    x 1.607260 0.000000 0.023940 
#    y 0.000000 1.655360 0.000000 
#    z 0.023940 0.000000 1.679110 
# 
# From -- ./inp_files/280136.got.cif
#   From: 2010.05.17/outbox.cif.g08.bks.cpg/sg12_141_cif.got.tgz:280136.got - 2010.06.03 13:09:07.
