data_PCOD9205334
_publ_section_title
;
Structure prediction by ZEFSAII (Michael W. Deem and Ramdas Pophale) SiO2 
 PCOD9205334
Probable space group: C 2/M
;
_chemical_formula_sum "Si O2"
_cell_formula_units_Z 40
_cell_length_a 32.303435
_cell_length_b 7.537322
_cell_length_c 16.366387
_cell_angle_alpha 90.000000
_cell_angle_beta 26.850359
_cell_angle_gamma 90.000000
_cell_volume 1799.832277
_symmetry_space_group_name_H-M "C 2/M"
_symmetry_group_IT_number 12
_symmetry_cell_setting 'monoclinic'
loop_
_space_group_symop_operation_xyz
x,y,z
-x,y,-z
-x,-y,-z
x,-y,z
1/2+x,1/2+y,z
1/2-x,1/2+y,-z
1/2-x,1/2-y,-z
1/2+x,1/2-y,z
loop_
_atom_site_type_symbol
_atom_site_label
_atom_site_fract_x
_atom_site_fract_y
_atom_site_fract_z
Si Si1 0.407263 0.717943 0.910984
Si Si2 0.542033 0.702143 0.007159
Si Si3 0.755823 0.695771 0.583538
Si Si4 0.014248 0.208866 0.565315
Si Si5 0.702559 0.784311 0.318929
O O1 0.410055 0.500000 0.908816
O O2 0.463794 0.779145 0.891790
O O3 0.451013 0.780959 0.749739
O O4 0.301242 0.769868 0.109084
O O5 0.503402 0.500000 0.078676
O O6 0.500000 0.788086 0.000000
O O7 0.650553 0.690684 0.799140
O O8 0.796259 0.500000 0.508190
O O9 0.750000 0.750000 0.500000
O O10 0.805560 0.786089 0.573035
O O11 0.118226 0.227725 0.412359
O O12 0.000000 0.284859 0.500000
O O13 0.991480 0.000000 0.600550
O O14 0.703546 0.000000 0.320679
#
# Coordination Sequence:
#
# PCOD9205334 Si02
#       5
#     8   8   8   8   8
#     4   8  16  32  50  70 103 138 167 207 252 301
#     4   8  14  25  44  70  93 124 170 201 228 289
#     4   9  18  30  47  73 101 129 166 207 246 295
#     4  10  21  35  54  81 104 128 171 221 264 303
#     4   9  19  36  53  73 104 140 174 208 252 310
#
# _framework density 22.224295000000001
#
# number of rings (size 3 to 8) (size 9 to 14) (size 15 to 20)
#    0.000    3.200    0.000    2.400    2.800    2.000 
#    0.000    1.000    0.000    1.800    0.000    0.000 
#    0.000    0.000    0.000    0.000    0.000    0.000 
#
# Total GULP energy -111451.046821 kJ/mol
# GULP energy per Si atom -5572.552341 kJ/mol
# Density = 2.217371 g / cm^3
# Si number density = 22.224295 Si / 1000 Ang^3
#
#
#
# Elastic Constant Matrix: (Units=GPa)
#
#
# Indices 1 2 3 4 5 6 
#
# 1 236.8636 3.4457 87.6100 0.0000 44.5836 0.0000
# 2 3.4457 49.6815 -0.7135 0.0000 12.6802 0.0000
# 3 87.6100 -0.7135 104.9853 0.0000 34.6452 0.0000
# 4 0.0000 0.0000 0.0000 4.3738 0.0000 -8.0726
# 5 44.5836 12.6802 34.6452 0.0000 43.1493 0.0000
# 6 0.0000 0.0000 0.0000 -8.0726 0.0000 7.5109
#
#
#
# Elastic Compliance Matrix: (Units=1/GPa)
#
#
# Indices 1 2 3 4 5 6 
#
# 1 0.006415 0.000338 -0.004259 0.000000 -0.003308 0.000000
# 2 0.000338 0.022532 0.002954 0.000000 -0.009342 0.000000
# 3 -0.004259 0.002954 0.016236 0.000000 -0.009503 0.000000
# 4 0.000000 0.000000 0.000000 -0.232421 0.000000 -0.249804
# 5 -0.003308 -0.009342 -0.009503 0.000000 0.036968 0.000000
# 6 0.000000 0.000000 0.000000 -0.249804 0.000000 -0.135347
#
#
# Mechanical properties :
#
#
# Convention : Reuss Voigt Hill
#
# Bulk Modulus (GPa) = 23.12268 63.57943 43.35105
# Shear Modulus (GPa) = -18.56896 31.08602 6.25853
#
# Velocity S-wave (km/s) = -2.89368 3.74403 1.67994
# Velocity P-wave (km/s) = 0.85889 6.88190 4.82819
#
# Compressibility (1/GPa) = 0.04324759
#
# Stress axis : x y z
#
# Youngs Moduli (GPa) = 155.88553 44.38199 61.59270
#
# Poissons Ratio (x) = -0.01501 0.26235
# Poissons Ratio (y) = -0.05271 -0.18195
# Poissons Ratio (z) = 0.66399 -0.13110
#
# Static dielectric constant tensor:
#      x y z
#    x 1.848550 0.000000 0.040650 
#    y 0.000000 1.851920 0.000000 
#    z 0.040650 0.000000 1.801990 
# 
# From -- ./inp_files/141108.got.cif
#   From: 2010.05.17/outbox.cif.g08.bks.cpg/sg12_71_cif.got.tgz:141108.got - 2010.06.03 13:09:07.
