data_PCOD9205118
_publ_section_title
;
Structure prediction by ZEFSAII (Michael W. Deem and Ramdas Pophale) SiO2 
 PCOD9205118
Probable space group: C 2/M
;
_chemical_formula_sum "Si O2"
_cell_formula_units_Z 56
_cell_length_a 18.823488
_cell_length_b 8.905421
_cell_length_c 23.662791
_cell_angle_alpha 90.000000
_cell_angle_beta 126.554467
_cell_angle_gamma 90.000000
_cell_volume 3186.349781
_symmetry_space_group_name_H-M "C 2/M"
_symmetry_group_IT_number 12
_symmetry_cell_setting 'monoclinic'
loop_
_space_group_symop_operation_xyz
x,y,z
-x,y,-z
-x,-y,-z
x,-y,z
1/2+x,1/2+y,z
1/2-x,1/2+y,-z
1/2-x,1/2-y,-z
1/2+x,1/2-y,z
loop_
_atom_site_type_symbol
_atom_site_label
_atom_site_fract_x
_atom_site_fract_y
_atom_site_fract_z
Si Si1 0.083576 0.318837 0.002215
Si Si2 0.660021 0.319989 0.435513
Si Si3 0.112447 0.320152 0.712980
Si Si4 0.488827 0.319465 0.429485
Si Si5 0.264270 0.179794 0.131381
Si Si6 0.935611 0.319208 0.137068
Si Si7 0.540961 0.680129 0.281160
O O1 0.087016 0.500000 0.004563
O O2 0.071465 0.272289 0.931252
O O3 0.174492 0.257262 0.070488
O O4 0.000000 0.270290 0.000000
O O5 0.667559 0.500000 0.440507
O O6 0.750000 0.250000 0.500000
O O7 0.578564 0.278654 0.438308
O O8 0.629772 0.277300 0.357449
O O9 0.101704 0.500000 0.708913
O O10 0.092950 0.257651 0.641596
O O11 0.202629 0.284268 0.789268
O O12 0.036980 0.243899 0.715839
O O13 0.500000 0.277707 0.500000
O O14 0.478403 0.500000 0.420738
O O15 0.345048 0.221926 0.127378
O O16 0.254117 0.000000 0.122712
O O17 0.943336 0.500000 0.143788
O O18 0.018094 0.247836 0.209526
O O19 0.536025 0.500000 0.276886
#
# Coordination Sequence:
#
# PCOD9205118 Si02
#       7
#     8   8   8   8   8   8   8
#     4  10  21  35  50  71 100 131 161 195 239 291
#     4   9  18  31  48  71  97 126 160 198 240 286
#     4   9  17  30  49  74 100 125 159 202 245 287
#     4   9  18  33  51  72  99 130 166 204 240 284
#     4   9  18  32  51  74  96 122 160 203 243 285
#     4   9  18  33  52  74  97 122 160 205 242 283
#     4   9  17  30  49  73  97 124 162 202 241 285
#
# _framework density 17.57497
#
# number of rings (size 3 to 8) (size 9 to 14) (size 15 to 20)
#    0.000    2.857    0.000    3.000    0.000    6.857 
#    0.000    1.429    0.000    8.571    0.000    0.000 
#    0.000    0.000    0.000    0.000    0.000    0.000 
#
# Total GULP energy -155967.642756 kJ/mol
# GULP energy per Si atom -5570.272956 kJ/mol
# Density = 1.753497 g / cm^3
# Si number density = 17.574970 Si / 1000 Ang^3
#
#
#
# Elastic Constant Matrix: (Units=GPa)
#
#
# Indices 1 2 3 4 5 6 
#
# 1 55.8403 21.1423 72.5591 0.0000 -2.6192 0.0000
# 2 21.1423 21.5179 52.1862 0.0000 -0.3273 0.0000
# 3 72.5591 52.1862 224.1815 0.0000 -2.8971 0.0000
# 4 0.0000 0.0000 0.0000 39.3588 0.0000 3.3876
# 5 -2.6192 -0.3273 -2.8971 0.0000 24.9702 0.0000
# 6 0.0000 0.0000 0.0000 3.3876 0.0000 16.7848
#
#
#
# Elastic Compliance Matrix: (Units=1/GPa)
#
#
# Indices 1 2 3 4 5 6 
#
# 1 0.033013 -0.015071 -0.007146 0.000000 0.002436 0.000000
# 2 -0.015071 0.113661 -0.021615 0.000000 -0.002599 0.000000
# 3 -0.007146 -0.021615 0.011809 0.000000 0.000337 0.000000
# 4 0.000000 0.000000 0.000000 0.025856 0.000000 -0.005218
# 5 0.002436 -0.002599 0.000337 0.000000 0.040308 0.000000
# 6 0.000000 0.000000 0.000000 -0.005218 0.000000 0.060631
#
#
# Mechanical properties :
#
#
# Convention : Reuss Voigt Hill
#
# Bulk Modulus (GPa) = 14.11972 65.92389 40.02180
# Shear Modulus (GPa) = 12.60880 26.59958 19.60419
#
# Velocity S-wave (km/s) = 2.68139 3.89458 3.34347
# Velocity P-wave (km/s) = 4.19975 7.60363 6.14220
#
# Compressibility (1/GPa) = 0.07082295
#
# Stress axis : x y z
#
# Youngs Moduli (GPa) = 30.29067 8.79807 84.67890
#
# Poissons Ratio (x) = 0.13259 0.60508
# Poissons Ratio (y) = 0.45650 1.83029
# Poissons Ratio (z) = 0.21644 0.19017
#
# Static dielectric constant tensor:
#      x y z
#    x 1.594930 0.000000 -0.023210 
#    y 0.000000 1.590850 0.000000 
#    z -0.023210 0.000000 1.631400 
# 
# From -- ./inp_files/342498.got.cif
#   From: 2010.05.17/outbox.cif.g08.bks.cpg/sg12_172_cif.got.tgz:342498.got - 2010.06.03 13:09:07.
