data_PCOD9205384
_publ_section_title
;
Structure prediction by ZEFSAII (Michael W. Deem and Ramdas Pophale) SiO2 
 PCOD9205384
Probable space group: C 2/M
;
_chemical_formula_sum "Si O2"
_cell_formula_units_Z 64
_cell_length_a 11.461008
_cell_length_b 23.012804
_cell_length_c 12.575088
_cell_angle_alpha 90.000000
_cell_angle_beta 67.588788
_cell_angle_gamma 90.000000
_cell_volume 3066.174650
_symmetry_space_group_name_H-M "C 2/M"
_symmetry_group_IT_number 12
_symmetry_cell_setting 'monoclinic'
loop_
_space_group_symop_operation_xyz
x,y,z
-x,y,-z
-x,-y,-z
x,-y,z
1/2+x,1/2+y,z
1/2-x,1/2+y,-z
1/2-x,1/2-y,-z
1/2+x,1/2-y,z
loop_
_atom_site_type_symbol
_atom_site_label
_atom_site_fract_x
_atom_site_fract_y
_atom_site_fract_z
Si Si1 0.349696 0.155176 0.763929
Si Si2 0.833427 0.744449 0.223476
Si Si3 0.369406 0.432284 0.487529
Si Si4 0.369405 0.063751 0.111068
Si Si5 0.687619 0.822660 0.978299
Si Si6 0.872257 0.371670 0.331062
Si Si7 0.874942 0.067896 0.230041
Si Si8 0.966264 0.830934 0.888802
O O1 0.290349 0.215369 0.741706
O O2 0.486579 0.137250 0.671829
O O3 0.243624 0.105245 0.777498
O O4 0.366164 0.167099 0.885556
O O5 0.870601 0.714779 0.096900
O O6 0.827364 0.691249 0.305216
O O7 0.942867 0.790064 0.211265
O O8 0.500000 0.412007 0.500000
O O9 0.354204 0.500000 0.524882
O O10 0.242800 0.398147 0.563162
O O11 0.375781 0.429997 0.357776
O O12 0.293764 0.113171 0.077494
O O13 0.390054 0.085871 0.223194
O O14 0.311836 0.000000 0.130481
O O15 0.500000 0.062099 0.000000
O O16 0.830447 0.801993 0.933942
O O17 0.000779 0.103168 0.153994
O O18 0.870706 0.000000 0.198856
O O19 0.000000 0.829411 0.000000
#
# Coordination Sequence:
#
# PCOD9205384 Si02
#       8
#     8   8   8   8   8   8   8   8
#     4  11  22  39  60  96 131 165 209 256 314 381
#     4  10  23  36  62  92 129 171 212 252 303 375
#     4  10  24  48  72  92 119 161 216 269 319 380
#     4  10  21  35  54  89 128 157 200 257 314 377
#     4  11  21  35  57  87 128 174 204 247 306 373
#     4  11  23  40  66  92 121 167 213 264 317 373
#     4  10  24  43  64  92 127 165 211 266 317 380
#     4  11  22  38  59  93 130 170 206 251 308 383
#
# _framework density 20.872914000000002
#
# number of rings (size 3 to 8) (size 9 to 14) (size 15 to 20)
#    0.000    1.500    3.750    1.500    5.250    2.750 
#    0.000    3.750    0.000    0.000    0.000    0.000 
#    0.000    0.000    0.000    0.000    0.000    0.000 
#
# Total GULP energy -178479.722245 kJ/mol
# GULP energy per Si atom -5577.491320 kJ/mol
# Density = 2.082541 g / cm^3
# Si number density = 20.872914 Si / 1000 Ang^3
#
#
#
# Elastic Constant Matrix: (Units=GPa)
#
#
# Indices 1 2 3 4 5 6 
#
# 1 75.8293 3.0720 10.8200 0.0000 -19.3629 0.0000
# 2 3.0720 115.0577 11.9530 0.0000 -5.3211 0.0000
# 3 10.8200 11.9530 29.3821 0.0000 -10.2906 0.0000
# 4 0.0000 0.0000 0.0000 25.8104 0.0000 3.3871
# 5 -19.3629 -5.3211 -10.2906 0.0000 27.7372 0.0000
# 6 0.0000 0.0000 0.0000 3.3871 0.0000 3.3974
#
#
#
# Elastic Compliance Matrix: (Units=1/GPa)
#
#
# Indices 1 2 3 4 5 6 
#
# 1 0.016193 0.000303 -0.002422 0.000000 0.010464 0.000000
# 2 0.000303 0.009085 -0.003589 0.000000 0.000623 0.000000
# 3 -0.002422 -0.003589 0.040863 0.000000 0.012781 0.000000
# 4 0.000000 0.000000 0.000000 0.044576 0.000000 -0.044441
# 5 0.010464 0.000623 0.012781 0.000000 0.048219 0.000000
# 6 0.000000 0.000000 0.000000 -0.044441 0.000000 0.338645
#
#
# Mechanical properties :
#
#
# Convention : Reuss Voigt Hill
#
# Bulk Modulus (GPa) = 18.27330 30.21766 24.24548
# Shear Modulus (GPa) = 9.48340 24.35061 16.91701
#
# Velocity S-wave (km/s) = 2.13384 3.41928 2.84998
# Velocity P-wave (km/s) = 3.85287 5.48607 4.74034
#
# Compressibility (1/GPa) = 0.05472465
#
# Stress axis : x y z
#
# Youngs Moduli (GPa) = 61.75647 110.07288 24.47221
#
# Poissons Ratio (x) = -0.03337 0.05926
# Poissons Ratio (y) = -0.01872 0.08784
# Poissons Ratio (z) = 0.14955 0.39509
#
# Static dielectric constant tensor:
#      x y z
#    x 1.846640 0.000000 0.010550 
#    y 0.000000 1.798910 0.000000 
#    z 0.010550 0.000000 1.739690 
# 
# From -- ./inp_files/135925.got.cif
#   From: 2010.05.17/outbox.cif.g08.bks.cpg/sg12_68_cif.got.tgz:135925.got - 2010.06.03 13:09:07.
