data_PCOD9205318
_publ_section_title
;
Structure prediction by ZEFSAII (Michael W. Deem and Ramdas Pophale) SiO2 
 PCOD9205318
Probable space group: C 2/M
;
_chemical_formula_sum "Si O2"
_cell_formula_units_Z 56
_cell_length_a 19.611654
_cell_length_b 7.482595
_cell_length_c 18.473277
_cell_angle_alpha 90.000000
_cell_angle_beta 54.704210
_cell_angle_gamma 90.000000
_cell_volume 2212.566733
_symmetry_space_group_name_H-M "C 2/M"
_symmetry_group_IT_number 12
_symmetry_cell_setting 'monoclinic'
loop_
_space_group_symop_operation_xyz
x,y,z
-x,y,-z
-x,-y,-z
x,-y,z
1/2+x,1/2+y,z
1/2-x,1/2+y,-z
1/2-x,1/2-y,-z
1/2+x,1/2-y,z
loop_
_atom_site_type_symbol
_atom_site_label
_atom_site_fract_x
_atom_site_fract_y
_atom_site_fract_z
Si Si1 0.624846 0.214409 0.786376
Si Si2 0.813211 0.302430 0.523977
Si Si3 0.290254 0.220052 0.118234
Si Si4 0.087598 0.718294 0.408811
Si Si5 0.543642 0.797063 0.052227
Si Si6 0.392572 0.705575 0.771018
Si Si7 0.427140 0.712945 0.331534
O O1 0.684949 0.275269 0.814466
O O2 0.531449 0.291289 0.857814
O O3 0.637491 0.251379 0.694176
O O4 0.620751 0.000000 0.796649
O O5 0.788339 0.500000 0.559865
O O6 0.750000 0.250000 0.500000
O O7 0.838453 0.212439 0.583559
O O8 0.898148 0.299098 0.424137
O O9 0.197856 0.283014 0.154743
O O10 0.290626 0.000000 0.117574
O O11 0.364981 0.280191 0.019347
O O12 0.089366 0.500000 0.404794
O O13 0.099855 0.788641 0.320794
O O14 0.000000 0.769523 0.500000
O O15 0.556459 0.000000 0.071171
O O16 0.500000 0.809713 0.000000
O O17 0.391114 0.500000 0.796846
O O18 0.480294 0.783898 0.743520
O O19 0.430758 0.500000 0.340967
#
# Coordination Sequence:
#
# PCOD9205318 Si02
#       7
#     8   8   8   8   8   8   8
#     4   9  17  31  55  81 103 136 179 224 269 314
#     4  11  24  41  60  81 107 138 174 219 266 317
#     4   8  15  30  53  81 104 130 176 226 266 310
#     4  10  21  39  59  78 103 138 176 217 264 310
#     4   7  11  24  49  78 104 129 169 222 267 310
#     4  10  21  35  54  78 106 142 181 220 261 312
#     4  11  23  37  51  75 112 147 176 215 267 318
#
# _framework density 25.309971000000001
#
# number of rings (size 3 to 8) (size 9 to 14) (size 15 to 20)
#    0.000    2.571    1.429    2.571    2.000    2.000 
#    0.000    0.714    0.000    4.714    0.000    0.000 
#    0.000    0.000    0.000    0.000    0.000    0.000 
#
# Total GULP energy -156269.744247 kJ/mol
# GULP energy per Si atom -5581.062295 kJ/mol
# Density = 2.525236 g / cm^3
# Si number density = 25.309971 Si / 1000 Ang^3
#
#
#
# Elastic Constant Matrix: (Units=GPa)
#
#
# Indices 1 2 3 4 5 6 
#
# 1 109.9708 3.6311 -8.3466 -0.0006 -10.8502 0.0009
# 2 3.6311 79.7626 -10.5418 -0.0015 -3.4791 0.0028
# 3 -8.3466 -10.5418 33.3139 0.0005 -8.8723 -0.0006
# 4 -0.0006 -0.0015 0.0005 -11.8461 -0.0001 -2.3773
# 5 -10.8502 -3.4791 -8.8723 -0.0001 52.6288 -0.0002
# 6 0.0009 0.0028 -0.0006 -2.3773 -0.0002 5.8214
#
#
#
# Elastic Compliance Matrix: (Units=1/GPa)
#
#
# Indices 1 2 3 4 5 6 
#
# 1 0.009572 0.000082 0.003090 0.000000 0.002500 -0.000001
# 2 0.000082 0.013221 0.004650 0.000000 0.001675 -0.000006
# 3 0.003090 0.004650 0.034043 0.000000 0.006683 0.000001
# 4 0.000000 0.000000 0.000000 -0.078022 0.000000 -0.031862
# 5 0.002500 0.001675 0.006683 0.000000 0.020754 0.000000
# 6 -0.000001 -0.000006 0.000001 -0.031862 0.000000 0.158770
#
#
# Mechanical properties :
#
#
# Convention : Reuss Voigt Hill
#
# Bulk Modulus (GPa) = 13.79709 21.39251 17.59480
# Shear Modulus (GPa) = 29.96633 25.20780 27.58706
#
# Velocity S-wave (km/s) = 3.44462 3.15931 3.30505
# Velocity P-wave (km/s) = 4.61342 4.66679 4.64018
#
# Compressibility (1/GPa) = 0.07247903
#
# Stress axis : x y z
#
# Youngs Moduli (GPa) = 104.47404 75.63652 29.37451
#
# Poissons Ratio (x) = -0.00617 -0.09076
# Poissons Ratio (y) = -0.00853 -0.13660
# Poissons Ratio (z) = -0.32279 -0.35172
#
# Static dielectric constant tensor:
#      x y z
#    x 2.048420 0.000000 -0.065810 
#    y 0.000000 1.943710 0.000000 
#    z -0.065810 0.000000 2.040850 
# 
# From -- ./inp_files/313716.got.cif
#   From: 2010.05.17/outbox.cif.g08.bks.cpg/sg12_157_cif.got.tgz:313716.got - 2010.06.03 13:09:07.
