data_PCOD9205446
_publ_section_title
;
Structure prediction by ZEFSAII (Michael W. Deem and Ramdas Pophale) SiO2 
 PCOD9205446
Probable space group: C 2/M
;
_chemical_formula_sum "Si O2"
_cell_formula_units_Z 32
_cell_length_a 14.630905
_cell_length_b 20.534789
_cell_length_c 12.342312
_cell_angle_alpha 90.000000
_cell_angle_beta 159.330213
_cell_angle_gamma 90.000000
_cell_volume 1308.910418
_symmetry_space_group_name_H-M "C 2/M"
_symmetry_group_IT_number 12
_symmetry_cell_setting 'monoclinic'
loop_
_space_group_symop_operation_xyz
x,y,z
-x,y,-z
-x,-y,-z
x,-y,z
1/2+x,1/2+y,z
1/2-x,1/2+y,-z
1/2-x,1/2-y,-z
1/2+x,1/2-y,z
loop_
_atom_site_type_symbol
_atom_site_label
_atom_site_fract_x
_atom_site_fract_y
_atom_site_fract_z
Si Si1 0.290195 0.249104 0.357157
Si Si2 0.472498 0.859282 0.250789
Si Si3 0.735981 0.889978 0.212675
Si Si4 0.519590 0.423950 0.891277
O O1 0.500000 0.230320 0.500000
O O2 0.408734 0.211834 0.590839
O O3 0.280421 0.327409 0.341388
O O4 0.000000 0.228388 0.000000
O O5 0.731434 0.903472 0.534222
O O6 0.335326 0.861961 0.983297
O O7 0.255881 0.884133 0.097237
O O8 0.000000 0.927188 0.500000
O O9 0.500000 0.927702 0.000000
O O10 0.567655 0.500000 0.920508
O O11 0.500000 0.416490 0.000000
#
# Coordination Sequence:
#
# PCOD9205446 Si02
#       4
#     8   8   8   8
#     4  10  21  35  55  88 124 160 204 241 294 371
#     4  12  22  39  66  89 126 170 199 252 319 361
#     4  10  23  39  58  89 128 167 211 248 292 369
#     4  11  24  42  66  95 121 153 208 266 314 367
#
# _framework density 24.447814999999999
#
# number of rings (size 3 to 8) (size 9 to 14) (size 15 to 20)
#    0.000    1.250    0.000    6.750    0.000   10.000 
#    0.000    0.000    0.000   16.500    0.000    0.000 
#    0.000    0.000    0.000    0.000    0.000    0.000 
#
# Total GULP energy -89442.138327 kJ/mol
# GULP energy per Si atom -5590.133645 kJ/mol
# Density = 2.439217 g / cm^3
# Si number density = 24.447815 Si / 1000 Ang^3
#
#
#
# Elastic Constant Matrix: (Units=GPa)
#
#
# Indices 1 2 3 4 5 6 
#
# 1 140.2939 43.2188 79.0600 -0.0007 42.6994 0.0023
# 2 43.2188 130.3622 42.4655 -0.0011 7.9459 0.0042
# 3 79.0600 42.4655 202.1223 -0.0034 43.3477 0.0155
# 4 -0.0007 -0.0011 -0.0034 -27.2498 -0.0017 72.0250
# 5 42.6994 7.9459 43.3477 -0.0017 62.2754 0.0056
# 6 0.0023 0.0042 0.0155 72.0250 0.0056 -137.1711
#
#
#
# Elastic Compliance Matrix: (Units=1/GPa)
#
#
# Indices 1 2 3 4 5 6 
#
# 1 0.011016 -0.002465 -0.002631 0.000002 -0.005407 0.000000
# 2 -0.002465 0.008788 -0.001180 0.000000 0.001391 0.000000
# 3 -0.002631 -0.001180 0.006824 -0.000002 -0.002795 -0.000001
# 4 0.000002 0.000000 -0.000002 0.094619 -0.000001 0.049682
# 5 -0.005407 0.001391 -0.002795 -0.000001 0.021533 0.000000
# 6 0.000000 0.000000 -0.000001 0.049682 0.000000 0.018797
#
#
# Mechanical properties :
#
#
# Convention : Reuss Voigt Hill
#
# Bulk Modulus (GPa) = 71.05194 89.14077 80.09636
# Shear Modulus (GPa) = 27.96070 0.10650 14.03360
#
# Velocity S-wave (km/s) = 3.38552 0.20895 2.39848
# Velocity P-wave (km/s) = 6.66394 6.04971 6.36424
#
# Compressibility (1/GPa) = 0.01407421
#
# Stress axis : x y z
#
# Youngs Moduli (GPa) = 90.77859 113.79187 146.53760
#
# Poissons Ratio (x) = 0.28054 0.38558
# Poissons Ratio (y) = 0.22380 0.17295
# Poissons Ratio (z) = 0.23886 0.13430
#
# Static dielectric constant tensor:
#      x y z
#    x 2.024050 0.000000 0.005240 
#    y 0.000000 1.916440 0.000000 
#    z 0.005240 0.000000 1.990980 
# 
# From -- ./inp_files/6519.got.cif
#   From: 2010.05.17/outbox.cif.g08.bks.cpg/sg12_4_cif.got.tgz:6519.got - 2010.06.03 13:09:07.
