data_PCOD9205429
_publ_section_title
;
Structure prediction by ZEFSAII (Michael W. Deem and Ramdas Pophale) SiO2 
 PCOD9205429
Probable space group: C 2/M
;
_chemical_formula_sum "Si O2"
_cell_formula_units_Z 48
_cell_length_a 8.874262
_cell_length_b 13.163180
_cell_length_c 26.528557
_cell_angle_alpha 90.000000
_cell_angle_beta 41.316918
_cell_angle_gamma 90.000000
_cell_volume 2045.962418
_symmetry_space_group_name_H-M "C 2/M"
_symmetry_group_IT_number 12
_symmetry_cell_setting 'monoclinic'
loop_
_space_group_symop_operation_xyz
x,y,z
-x,y,-z
-x,-y,-z
x,-y,z
1/2+x,1/2+y,z
1/2-x,1/2+y,-z
1/2-x,1/2-y,-z
1/2+x,1/2-y,z
loop_
_atom_site_type_symbol
_atom_site_label
_atom_site_fract_x
_atom_site_fract_y
_atom_site_fract_z
Si Si1 0.993986 0.210675 0.055928
Si Si2 0.303042 0.879644 0.244910
Si Si3 0.663243 0.876318 0.548378
Si Si4 0.635236 0.623647 0.392944
Si Si5 0.461659 0.306906 0.847090
Si Si6 0.338538 0.378504 0.307088
O O1 0.954520 0.155153 0.119436
O O2 0.809625 0.302958 0.095715
O O3 0.250000 0.250000 0.000000
O O4 0.000000 0.156389 0.000000
O O5 0.483893 0.813588 0.169667
O O6 0.291704 0.848960 0.306343
O O7 0.056468 0.849253 0.285113
O O8 0.335636 0.000000 0.231587
O O9 0.867061 0.845776 0.459363
O O10 0.402344 0.840819 0.610269
O O11 0.753671 0.850866 0.581547
O O12 0.655564 0.000000 0.547089
O O13 0.628778 0.500000 0.392740
O O14 0.603926 0.353754 0.765455
O O15 0.326932 0.500000 0.313177
#
# Coordination Sequence:
#
# PCOD9205429 Si02
#       6
#     8   8   8   8   8   8
#     4   9  20  38  64  86 109 147 184 214 275 345
#     4  10  21  35  55  85 117 149 188 233 278 324
#     4   8  15  29  49  75 110 151 193 233 276 322
#     4   8  15  29  49  75 110 151 192 235 276 318
#     4  11  20  38  61  86 114 147 179 228 280 331
#     4  10  21  35  55  85 116 150 189 230 279 328
#
# _framework density 23.460840000000001
#
# number of rings (size 3 to 8) (size 9 to 14) (size 15 to 20)
#    0.000    2.667    1.667    1.000    2.333    0.667 
#    0.000    4.167    0.000   20.000    0.000    0.000 
#    0.000    0.000    0.000    0.000    0.000    0.000 
#
# Total GULP energy -133958.859563 kJ/mol
# GULP energy per Si atom -5581.619148 kJ/mol
# Density = 2.340744 g / cm^3
# Si number density = 23.460840 Si / 1000 Ang^3
#
#
#
# Elastic Constant Matrix: (Units=GPa)
#
#
# Indices 1 2 3 4 5 6 
#
# 1 74.4087 11.8524 25.5134 -0.0001 4.5980 0.0004
# 2 11.8524 39.1662 13.8075 -0.0003 -7.0729 0.0003
# 3 25.5134 13.8075 94.6341 -0.0007 -1.7037 0.0008
# 4 -0.0001 -0.0003 -0.0007 13.5734 0.0004 0.3687
# 5 4.5980 -7.0729 -1.7037 0.0004 46.7493 -0.0004
# 6 0.0004 0.0003 0.0008 0.3687 -0.0004 16.9260
#
#
#
# Elastic Compliance Matrix: (Units=1/GPa)
#
#
# Indices 1 2 3 4 5 6 
#
# 1 0.015430 -0.003785 -0.003648 0.000000 -0.002223 0.000000
# 2 -0.003785 0.028587 -0.003068 0.000000 0.004586 0.000000
# 3 -0.003648 -0.003068 0.012004 0.000000 0.000332 0.000000
# 4 0.000000 0.000000 0.000000 0.073717 -0.000001 -0.001606
# 5 -0.002223 0.004586 0.000332 -0.000001 0.022315 0.000001
# 6 0.000000 0.000000 0.000000 -0.001606 0.000001 0.059116
#
#
# Mechanical properties :
#
#
# Convention : Reuss Voigt Hill
#
# Bulk Modulus (GPa) = 28.55507 34.50619 31.53063
# Shear Modulus (GPa) = 20.50485 25.91878 23.21181
#
# Velocity S-wave (km/s) = 2.95956 3.32741 3.14886
# Velocity P-wave (km/s) = 4.88636 5.43159 5.16617
#
# Compressibility (1/GPa) = 0.03502005
#
# Stress axis : x y z
#
# Youngs Moduli (GPa) = 64.80732 34.98060 83.30498
#
# Poissons Ratio (x) = 0.13240 0.30388
# Poissons Ratio (y) = 0.24530 0.25558
# Poissons Ratio (z) = 0.23640 0.10732
#
# Static dielectric constant tensor:
#      x y z
#    x 1.896070 0.000000 -0.021120 
#    y 0.000000 1.935450 0.000000 
#    z -0.021120 0.000000 1.946610 
# 
# From -- ./inp_files/256131.got.cif
#   From: 2010.05.17/outbox.cif.g08.bks.cpg/sg12_129_cif.got.tgz:256131.got - 2010.06.03 13:09:07.
