data_PCOD9205572
_publ_section_title
;
Structure prediction by ZEFSAII (Michael W. Deem and Ramdas Pophale) SiO2 
 PCOD9205572
Probable space group: C 2/M
;
_chemical_formula_sum "Si O2"
_cell_formula_units_Z 56
_cell_length_a 17.337734
_cell_length_b 18.386008
_cell_length_c 9.440371
_cell_angle_alpha 90.000000
_cell_angle_beta 105.774352
_cell_angle_gamma 90.000000
_cell_volume 2895.991491
_symmetry_space_group_name_H-M "C 2/M"
_symmetry_group_IT_number 12
_symmetry_cell_setting 'monoclinic'
loop_
_space_group_symop_operation_xyz
x,y,z
-x,y,-z
-x,-y,-z
x,-y,z
1/2+x,1/2+y,z
1/2-x,1/2+y,-z
1/2-x,1/2-y,-z
1/2+x,1/2-y,z
loop_
_atom_site_type_symbol
_atom_site_label
_atom_site_fract_x
_atom_site_fract_y
_atom_site_fract_z
Si Si1 0.166116 0.812355 0.079586
Si Si2 0.362322 0.415455 0.178313
Si Si3 0.029430 0.153576 0.234162
Si Si4 0.068126 0.415145 0.650754
Si Si5 0.944749 0.700015 0.107253
Si Si6 0.205297 0.674894 0.613587
Si Si7 0.845128 0.831214 0.461851
O O1 0.089970 0.843461 0.131419
O O2 0.236893 0.804919 0.226655
O O3 0.183131 0.870025 0.965397
O O4 0.136435 0.736798 0.994972
O O5 0.342281 0.500000 0.168830
O O6 0.457256 0.403381 0.194364
O O7 0.345784 0.377155 0.319826
O O8 0.083180 0.144760 0.399861
O O9 0.987085 0.232485 0.209029
O O10 0.062095 0.500000 0.682556
O O11 0.063042 0.365275 0.787590
O O12 0.152694 0.394610 0.622481
O O13 0.000000 0.397935 0.500000
O O14 0.000000 0.680875 0.000000
O O15 0.148651 0.744805 0.563371
O O16 0.262007 0.662262 0.506949
#
# Coordination Sequence:
#
# PCOD9205572 Si02
#       7
#     8   8   8   8   8   8   8
#     4   9  20  36  57  84 111 144 182 219 270 326
#     4  11  22  34  52  84 121 150 178 214 259 321
#     4   9  18  35  57  83 111 145 183 220 265 319
#     4  11  24  39  56  79 108 146 186 224 274 329
#     4   9  18  35  60  85 109 135 177 231 272 316
#     4  10  21  40  60  79 107 141 183 232 275 323
#     4  10  21  35  58  84 106 141 187 229 272 312
#
# _framework density 19.337073
#
# number of rings (size 3 to 8) (size 9 to 14) (size 15 to 20)
#    0.000    2.143    0.000    4.286    0.000    7.143 
#    0.000    2.857    0.000    0.000    0.000    0.000 
#    0.000    0.000    0.000    0.000    0.000    0.000 
#
# Total GULP energy -156405.570266 kJ/mol
# GULP energy per Si atom -5585.913224 kJ/mol
# Density = 1.929306 g / cm^3
# Si number density = 19.337073 Si / 1000 Ang^3
#
#
#
# Elastic Constant Matrix: (Units=GPa)
#
#
# Indices 1 2 3 4 5 6 
#
# 1 38.1061 13.9856 17.1127 0.0000 -3.5433 0.0000
# 2 13.9856 72.3208 38.4727 0.0000 -11.1043 0.0000
# 3 17.1127 38.4727 98.4560 0.0000 -14.6476 0.0000
# 4 0.0000 0.0000 0.0000 -22.5387 0.0000 -4.9244
# 5 -3.5433 -11.1043 -14.6476 0.0000 23.1704 0.0000
# 6 0.0000 0.0000 0.0000 -4.9244 0.0000 11.8468
#
#
#
# Elastic Compliance Matrix: (Units=1/GPa)
#
#
# Indices 1 2 3 4 5 6 
#
# 1 0.029242 -0.003684 -0.003577 0.000000 0.000445 0.000000
# 2 -0.003684 0.018351 -0.005857 0.000000 0.004529 0.000000
# 3 -0.003577 -0.005857 0.013873 0.000000 0.005416 0.000000
# 4 0.000000 0.000000 0.000000 -0.040674 0.000000 -0.016907
# 5 0.000445 0.004529 0.005416 0.000000 0.048821 0.000000
# 6 0.000000 0.000000 0.000000 -0.016907 0.000000 0.077383
#
#
# Mechanical properties :
#
#
# Convention : Reuss Voigt Hill
#
# Bulk Modulus (GPa) = 28.38406 38.66943 33.52675
# Shear Modulus (GPa) = 27.03088 11.78319 19.40704
#
# Velocity S-wave (km/s) = 3.74288 2.47119 3.17143
# Velocity P-wave (km/s) = 5.77835 5.30880 5.54854
#
# Compressibility (1/GPa) = 0.03523104
#
# Stress axis : x y z
#
# Youngs Moduli (GPa) = 34.19715 54.49418 72.08327
#
# Poissons Ratio (x) = 0.20074 0.25783
# Poissons Ratio (y) = 0.12597 0.42217
# Poissons Ratio (z) = 0.12232 0.31915
#
# Static dielectric constant tensor:
#      x y z
#    x 1.715390 0.000000 -0.009280 
#    y 0.000000 1.634860 0.000000 
#    z -0.009280 0.000000 1.675350 
# 
# From -- ./inp_files/75976.got.cif
#   From: 2010.05.17/outbox.cif.g08.bks.cpg/sg12_38_cif.got.tgz:75976.got - 2010.06.03 13:09:07.
