data_PCOD9205930
_publ_section_title
;
Structure prediction by ZEFSAII (Michael W. Deem and Ramdas Pophale) SiO2 
 PCOD9205930
Probable space group: C 2/M
;
_chemical_formula_sum "Si O2"
_cell_formula_units_Z 60
_cell_length_a 14.893852
_cell_length_b 25.038557
_cell_length_c 8.760041
_cell_angle_alpha 90.000000
_cell_angle_beta 108.988327
_cell_angle_gamma 90.000000
_cell_volume 3089.036148
_symmetry_space_group_name_H-M "C 2/M"
_symmetry_group_IT_number 12
_symmetry_cell_setting 'monoclinic'
loop_
_space_group_symop_operation_xyz
x,y,z
-x,y,-z
-x,-y,-z
x,-y,z
1/2+x,1/2+y,z
1/2-x,1/2+y,-z
1/2-x,1/2-y,-z
1/2+x,1/2-y,z
loop_
_atom_site_type_symbol
_atom_site_label
_atom_site_fract_x
_atom_site_fract_y
_atom_site_fract_z
Si Si1 0.702282 0.707010 0.859490
Si Si2 0.607517 0.219408 0.586974
Si Si3 0.123472 0.273318 0.245740
Si Si4 0.108015 0.156267 0.082900
Si Si5 0.905684 0.439154 0.109097
Si Si6 0.422166 0.061551 0.581069
Si Si7 0.000000 0.649396 0.000000
Si Si8 0.214172 0.612573 0.691716
O O1 0.617549 0.733230 0.714055
O O2 0.785385 0.698958 0.782388
O O3 0.750000 0.750000 0.000000
O O4 0.661079 0.662260 0.948490
O O5 0.500000 0.202505 0.500000
O O6 0.640298 0.233519 0.434269
O O7 0.670748 0.171637 0.687900
O O8 0.107096 0.215444 0.159461
O O9 0.034879 0.311684 0.154855
O O10 0.174344 0.118388 0.222220
O O11 0.000000 0.139079 0.000000
O O12 0.888972 0.500000 0.044663
O O13 0.833553 0.425478 0.206567
O O14 0.014628 0.437658 0.233304
O O15 0.912561 0.388480 0.002430
O O16 0.500000 0.080177 0.500000
O O17 0.327693 0.094302 0.495194
O O18 0.399961 0.000000 0.535711
#
# Coordination Sequence:
#
# PCOD9205930 Si02
#       8
#     8   8   8   8   8   8   4   8
#     4  10  21  37  51  70 108 156 192 235 281 325
#     4  12  22  32  54  81 110 146 198 237 284 340
#     4  11  22  35  53  79 116 152 192 235 279 342
#     4  11  22  37  54  75 112 156 195 236 281 331
#     4  10  21  36  54  83 112 144 185 236 294 359
#     4   8  15  30  50  74 102 130 169 226 285 341
#     4  12  21  32  56  78 116 152 189 224 294 352
#     4  11  19  32  54  75 105 141 189 227 291 333
#
# _framework density 19.423534
#
# number of rings (size 3 to 8) (size 9 to 14) (size 15 to 20)
#    0.000    1.467    3.333    6.200    3.733    0.000 
#    0.000    0.000    0.000    1.600    0.000    0.000 
#    0.000    0.000    0.000   14.400    0.000    0.000 
#
# Total GULP energy -167292.579586 kJ/mol
# GULP energy per Si atom -5576.419320 kJ/mol
# Density = 1.937933 g / cm^3
# Si number density = 19.423534 Si / 1000 Ang^3
#
#
#
# Elastic Constant Matrix: (Units=GPa)
#
#
# Indices 1 2 3 4 5 6 
#
# 1 77.1801 2.9361 19.4937 0.0000 21.9648 0.0000
# 2 2.9361 57.5867 19.2043 0.0000 13.3807 0.0000
# 3 19.4937 19.2043 68.2570 0.0000 8.2097 0.0000
# 4 0.0000 0.0000 0.0000 27.5330 0.0000 0.5460
# 5 21.9648 13.3807 8.2097 0.0000 40.7886 0.0000
# 6 0.0000 0.0000 0.0000 0.5460 0.0000 3.7677
#
#
#
# Elastic Compliance Matrix: (Units=1/GPa)
#
#
# Indices 1 2 3 4 5 6 
#
# 1 0.016492 0.002689 -0.004399 0.000000 -0.008878 0.000000
# 2 0.002689 0.020803 -0.005766 0.000000 -0.007112 0.000000
# 3 -0.004399 -0.005766 0.017439 0.000000 0.000750 0.000000
# 4 0.000000 0.000000 0.000000 0.036425 0.000000 -0.005278
# 5 -0.008878 -0.007112 0.000750 0.000000 0.031479 0.000000
# 6 0.000000 0.000000 0.000000 -0.005278 0.000000 0.266179
#
#
# Mechanical properties :
#
#
# Convention : Reuss Voigt Hill
#
# Bulk Modulus (GPa) = 25.13636 31.81023 28.47330
# Shear Modulus (GPa) = 11.98956 25.17716 18.58336
#
# Velocity S-wave (km/s) = 2.48719 3.60421 3.09648
# Velocity P-wave (km/s) = 4.60624 5.80803 5.24169
#
# Compressibility (1/GPa) = 0.03978301
#
# Stress axis : x y z
#
# Youngs Moduli (GPa) = 60.63562 48.06932 57.34378
#
# Poissons Ratio (x) = -0.12925 0.25224
# Poissons Ratio (y) = -0.16304 0.33062
# Poissons Ratio (z) = 0.26672 0.27715
#
# Static dielectric constant tensor:
#      x y z
#    x 1.727770 0.000000 -0.016970 
#    y 0.000000 1.715130 0.000000 
#    z -0.016970 0.000000 1.758820 
# 
# From -- ./inp_files/67901.got.cif
#   From: 2010.05.17/outbox.cif.g08.bks.cpg/sg12_34_cif.got.tgz:67901.got - 2010.06.03 13:09:07.
