data_PCOD9205624
_publ_section_title
;
Structure prediction by ZEFSAII (Michael W. Deem and Ramdas Pophale) SiO2 
 PCOD9205624
Probable space group: C 2/M
;
_chemical_formula_sum "Si O2"
_cell_formula_units_Z 42
_cell_length_a 7.749539
_cell_length_b 31.123624
_cell_length_c 9.104713
_cell_angle_alpha 90.000000
_cell_angle_beta 130.923421
_cell_angle_gamma 90.000000
_cell_volume 1659.266161
_symmetry_space_group_name_H-M "C 2/M"
_symmetry_group_IT_number 12
_symmetry_cell_setting 'monoclinic'
loop_
_space_group_symop_operation_xyz
x,y,z
-x,y,-z
-x,-y,-z
x,-y,z
1/2+x,1/2+y,z
1/2-x,1/2+y,-z
1/2-x,1/2-y,-z
1/2+x,1/2-y,z
loop_
_atom_site_type_symbol
_atom_site_label
_atom_site_fract_x
_atom_site_fract_y
_atom_site_fract_z
Si Si1 0.196952 0.862225 0.738565
Si Si2 0.773662 0.812531 0.781979
Si Si3 0.000000 0.500000 0.000000
Si Si4 0.185157 0.904969 0.301343
Si Si5 0.005194 0.426449 0.251154
Si Si6 0.937948 0.771830 0.296659
O O1 0.422373 0.882620 0.793965
O O2 0.226506 0.813516 0.809647
O O3 0.000000 0.861108 0.500000
O O4 0.071085 0.892528 0.790225
O O5 0.705572 0.858778 0.684485
O O6 0.632151 0.776209 0.787943
O O7 0.849144 0.786839 0.679538
O O8 0.000000 0.820865 0.000000
O O9 0.032794 0.462854 0.146281
O O10 0.261241 0.930417 0.198045
O O11 0.310884 0.926531 0.511100
O O12 0.000000 0.770978 0.500000
#
# Coordination Sequence:
#
# PCOD9205624 Si02
#       6
#     8   8   2   8   8   8
#     4   8  17  38  62  91 125 173 220 259 311 382
#     4  11  23  37  57  96 136 173 233 274 305 370
#     4  12  28  46  68 112 124 146 220 292 338 418
#     4   9  21  40  68  92 128 184 216 252 331 406
#     4  10  22  43  68  93 131 164 212 274 340 400
#     4  10  21  35  59  89 133 181 229 268 307 377
#
# _framework density 25.312397000000001
#
# number of rings (size 3 to 8) (size 9 to 14) (size 15 to 20)
#    0.000    2.286    0.000    2.286    5.333    4.571 
#    1.714    6.190    0.000    0.000    0.000    0.000 
#    0.000    0.000    0.000    0.000    0.000    0.000 
#
# Total GULP energy -116937.370639 kJ/mol
# GULP energy per Si atom -5568.446221 kJ/mol
# Density = 2.525479 g / cm^3
# Si number density = 25.312397 Si / 1000 Ang^3
#
#
#
# Elastic Constant Matrix: (Units=GPa)
#
#
# Indices 1 2 3 4 5 6 
#
# 1 105.1465 19.3853 22.6746 0.0000 -17.4341 0.0000
# 2 19.3853 116.8956 43.3397 0.0000 -17.8095 0.0000
# 3 22.6746 43.3397 111.2320 0.0000 -19.8086 0.0000
# 4 0.0000 0.0000 0.0000 28.9605 0.0000 -19.1915
# 5 -17.4341 -17.8095 -19.8086 0.0000 39.2087 0.0000
# 6 0.0000 0.0000 0.0000 -19.1915 0.0000 -12.0991
#
#
#
# Elastic Compliance Matrix: (Units=1/GPa)
#
#
# Indices 1 2 3 4 5 6 
#
# 1 0.010524 -0.000732 -0.001193 0.000000 0.003744 0.000000
# 2 -0.000732 0.010344 -0.003409 0.000000 0.002650 0.000000
# 3 -0.001193 -0.003409 0.011199 0.000000 0.003579 0.000000
# 4 0.000000 0.000000 0.000000 0.016834 0.000000 -0.026703
# 5 0.003744 0.002650 0.003579 0.000000 0.030181 0.000000
# 6 0.000000 0.000000 0.000000 -0.026703 0.000000 -0.040295
#
#
# Mechanical properties :
#
#
# Convention : Reuss Voigt Hill
#
# Bulk Modulus (GPa) = 46.73469 56.00813 51.37141
# Shear Modulus (GPa) = 88.35726 27.73900 58.04813
#
# Velocity S-wave (km/s) = 5.91460 3.31398 4.79400
# Velocity P-wave (km/s) = 8.07134 6.06779 7.14019
#
# Compressibility (1/GPa) = 0.02139738
#
# Stress axis : x y z
#
# Youngs Moduli (GPa) = 95.02424 96.67619 89.29344
#
# Poissons Ratio (x) = 0.07081 0.10654
# Poissons Ratio (y) = 0.06960 0.30440
# Poissons Ratio (z) = 0.11338 0.32957
#
# Static dielectric constant tensor:
#      x y z
#    x 2.103790 0.000000 0.026820 
#    y 0.000000 2.020510 0.000000 
#    z 0.026820 0.000000 2.065410 
# 
# From -- ./inp_files/42385.got.cif
#   From: 2010.05.17/outbox.cif.g08.bks.cpg/sg12_22_cif.got.tgz:42385.got - 2010.06.03 13:09:07.
