data_PCOD9205685
_publ_section_title
;
Structure prediction by ZEFSAII (Michael W. Deem and Ramdas Pophale) SiO2 
 PCOD9205685
Probable space group: C 2/M
;
_chemical_formula_sum "Si O2"
_cell_formula_units_Z 36
_cell_length_a 5.764723
_cell_length_b 30.870338
_cell_length_c 10.890210
_cell_angle_alpha 90.000000
_cell_angle_beta 68.664325
_cell_angle_gamma 90.000000
_cell_volume 1805.188521
_symmetry_space_group_name_H-M "C 2/M"
_symmetry_group_IT_number 12
_symmetry_cell_setting 'monoclinic'
loop_
_space_group_symop_operation_xyz
x,y,z
-x,y,-z
-x,-y,-z
x,-y,z
1/2+x,1/2+y,z
1/2-x,1/2+y,-z
1/2-x,1/2-y,-z
1/2+x,1/2-y,z
loop_
_atom_site_type_symbol
_atom_site_label
_atom_site_fract_x
_atom_site_fract_y
_atom_site_fract_z
Si Si1 0.000000 0.331548 0.000000
Si Si2 0.471214 0.605483 0.874742
Si Si3 0.191253 0.087543 0.350795
Si Si4 0.000000 0.725502 0.500000
Si Si5 0.058980 0.667389 0.252696
Si Si6 0.309630 0.000000 0.422829
O O1 0.976138 0.308500 0.872303
O O2 0.234101 0.363421 0.939878
O O3 0.434763 0.579372 0.756860
O O4 0.699814 0.637507 0.807226
O O5 0.500000 0.581616 0.000000
O O6 0.337586 0.132720 0.314695
O O7 0.000000 0.091768 0.500000
O O8 0.357454 0.045432 0.345859
O O9 0.750000 0.750000 0.500000
O O10 0.921489 0.697237 0.632942
O O11 0.500000 0.000000 0.500000
O O12 0.000000 0.000000 0.500000
#
# Coordination Sequence:
#
# PCOD9205685 Si02
#       6
#     4   8   8   4   8   4
#     4   8  18  36  64  91 116 156 212 252 294 381
#     4   9  18  35  62  92 117 159 213 251 300 370
#     4  10  21  35  62  91 123 165 207 253 306 365
#     4  12  30  44  62  97 132 157 202 264 314 368
#     4  10  21  39  67  87 124 166 207 248 312 372
#     4  10  24  38  55  93 133 160 210 261 301 358
#
# _framework density 19.942516000000001
#
# number of rings (size 3 to 8) (size 9 to 14) (size 15 to 20)
#    0.000    2.222    0.000    1.333   15.556    0.000 
#    0.000    1.667    0.000   22.667    0.000    0.000 
#    0.000    0.000    0.000    0.000    0.000    0.000 
#
# Total GULP energy -100217.528113 kJ/mol
# GULP energy per Si atom -5567.640451 kJ/mol
# Density = 1.989713 g / cm^3
# Si number density = 19.942516 Si / 1000 Ang^3
#
#
#
# Elastic Constant Matrix: (Units=GPa)
#
#
# Indices 1 2 3 4 5 6 
#
# 1 96.3559 26.8193 64.3386 0.0000 31.1405 0.0000
# 2 26.8193 52.6954 51.4976 0.0000 26.4742 0.0000
# 3 64.3386 51.4976 186.7371 0.0000 51.2120 0.0000
# 4 0.0000 0.0000 0.0000 -12.4746 0.0000 11.2955
# 5 31.1405 26.4742 51.2120 0.0000 59.0902 0.0000
# 6 0.0000 0.0000 0.0000 11.2955 0.0000 30.5555
#
#
#
# Elastic Compliance Matrix: (Units=1/GPa)
#
#
# Indices 1 2 3 4 5 6 
#
# 1 0.014425 -0.002209 -0.003342 0.000000 -0.003716 0.000000
# 2 -0.002209 0.028823 -0.005202 0.000000 -0.007241 0.000000
# 3 -0.003342 -0.005202 0.008945 0.000000 -0.003661 0.000000
# 4 0.000000 0.000000 0.000000 -0.060059 0.000000 0.022202
# 5 -0.003716 -0.007241 -0.003661 0.000000 0.025299 0.000000
# 6 0.000000 0.000000 0.000000 0.022202 0.000000 0.024520
#
#
# Mechanical properties :
#
#
# Convention : Reuss Voigt Hill
#
# Bulk Modulus (GPa) = 32.58581 69.01105 50.79843
# Shear Modulus (GPa) = 67.85514 28.30976 48.08245
#
# Velocity S-wave (km/s) = 5.83945 3.77180 4.91557
# Velocity P-wave (km/s) = 7.86390 7.32453 7.59901
#
# Compressibility (1/GPa) = 0.03068821
#
# Stress axis : x y z
#
# Youngs Moduli (GPa) = 69.32204 34.69501 111.79494
#
# Poissons Ratio (x) = 0.07664 0.37360
# Poissons Ratio (y) = 0.15313 0.58152
# Poissons Ratio (z) = 0.23166 0.18047
#
# Static dielectric constant tensor:
#      x y z
#    x 1.780410 0.000000 0.036320 
#    y 0.000000 1.680670 0.000000 
#    z 0.036320 0.000000 1.752130 
# 
# From -- ./inp_files/115419.got.cif
#   From: 2010.05.17/outbox.cif.g08.bks.cpg/sg12_58_cif.got.tgz:115419.got - 2010.06.03 13:09:07.
