data_PCOD9205247
_publ_section_title
;
Structure prediction by ZEFSAII (Michael W. Deem and Ramdas Pophale) SiO2 
 PCOD9205247
Probable space group: C 2/M
;
_chemical_formula_sum "Si O2"
_cell_formula_units_Z 32
_cell_length_a 5.059978
_cell_length_b 17.313956
_cell_length_c 18.881040
_cell_angle_alpha 90.000000
_cell_angle_beta 87.917116
_cell_angle_gamma 90.000000
_cell_volume 1653.041723
_symmetry_space_group_name_H-M "C 2/M"
_symmetry_group_IT_number 12
_symmetry_cell_setting 'monoclinic'
loop_
_space_group_symop_operation_xyz
x,y,z
-x,y,-z
-x,-y,-z
x,-y,z
1/2+x,1/2+y,z
1/2-x,1/2+y,-z
1/2-x,1/2-y,-z
1/2+x,1/2-y,z
loop_
_atom_site_type_symbol
_atom_site_label
_atom_site_fract_x
_atom_site_fract_y
_atom_site_fract_z
Si Si1 0.000000 0.806883 0.500000
Si Si2 0.437016 0.696642 0.349864
Si Si3 0.160252 0.088780 0.923851
Si Si4 0.500000 0.807011 0.000000
Si Si5 0.055014 0.195128 0.195549
O O1 0.750000 0.750000 0.500000
O O2 0.990021 0.847491 0.423347
O O3 0.639088 0.770213 0.350419
O O4 0.505338 0.659001 0.274024
O O5 0.003853 0.134795 0.865427
O O6 0.207112 0.000000 0.904855
O O7 0.431324 0.134776 0.936951
O O8 0.000000 0.090525 0.000000
O O9 0.250000 0.750000 0.000000
O O10 0.338501 0.236145 0.190261
#
# Coordination Sequence:
#
# PCOD9205247 Si02
#       5
#     4   8   8   4   8
#     4   8  12  20  38  62  93 126 151 194 250 294
#     4   8  14  25  41  66  96 124 160 201 248 296
#     4  11  25  41  56  79 108 139 176 220 268 316
#     4  12  23  40  61  80 100 130 174 218 263 312
#     4  10  21  35  53  76 101 134 174 215 255 307
#
# _framework density 19.358252
#
# number of rings (size 3 to 8) (size 9 to 14) (size 15 to 20)
#    0.000    2.250    1.250    1.875    3.500    0.000 
#    0.000    0.000    0.000    0.000    0.000    0.875 
#    0.000    0.000    0.000   57.750    0.000    0.500 
#
# Total GULP energy -89153.367497 kJ/mol
# GULP energy per Si atom -5572.085469 kJ/mol
# Density = 1.931419 g / cm^3
# Si number density = 19.358252 Si / 1000 Ang^3
#
#
#
# Elastic Constant Matrix: (Units=GPa)
#
#
# Indices 1 2 3 4 5 6 
#
# 1 111.6159 12.9872 6.7676 0.0000 8.4698 0.0000
# 2 12.9872 66.2667 35.4027 0.0000 3.7743 0.0000
# 3 6.7676 35.4027 175.6546 0.0000 15.5222 0.0000
# 4 0.0000 0.0000 0.0000 4.6341 0.0000 -6.0372
# 5 8.4698 3.7743 15.5222 0.0000 27.5909 0.0000
# 6 0.0000 0.0000 0.0000 -6.0372 0.0000 7.8764
#
#
#
# Elastic Compliance Matrix: (Units=1/GPa)
#
#
# Indices 1 2 3 4 5 6 
#
# 1 0.009365 -0.001811 0.000249 0.000000 -0.002767 0.000000
# 2 -0.001811 0.017266 -0.003421 0.000000 0.000118 0.000000
# 3 0.000249 -0.003421 0.006670 0.000000 -0.003361 0.000000
# 4 0.000000 0.000000 0.000000149.822106 0.000000114.836543
# 5 -0.002767 0.000118 -0.003361 0.000000 0.038968 0.000000
# 6 0.000000 0.000000 0.000000114.836543 0.000000 88.147562
#
#
# Mechanical properties :
#
#
# Convention : Reuss Voigt Hill
#
# Bulk Modulus (GPa) = 42.85301 51.53914 47.19608
# Shear Modulus (GPa) = 0.02100 27.91226 13.96663
#
# Velocity S-wave (km/s) = 0.10427 3.80133 2.68896
# Velocity P-wave (km/s) = 4.71162 6.77853 5.83729
#
# Compressibility (1/GPa) = 0.02333558
#
# Stress axis : x y z
#
# Youngs Moduli (GPa) = 106.78213 57.91696 149.92926
#
# Poissons Ratio (x) = 0.10486 -0.03728
# Poissons Ratio (y) = 0.19334 0.51285
# Poissons Ratio (z) = -0.02655 0.19811
#
# Static dielectric constant tensor:
#      x y z
#    x 1.725490 0.000000 -0.043200 
#    y 0.000000 1.615170 0.000000 
#    z -0.043200 0.000000 1.830640 
# 
# From -- ./inp_files/297478.got.cif
#   From: 2010.05.17/outbox.cif.g08.bks.cpg/sg12_149_cif.got.tgz:297478.got - 2010.06.03 13:09:07.
