data_PCOD9205359
_publ_section_title
;
Structure prediction by ZEFSAII (Michael W. Deem and Ramdas Pophale) SiO2 
 PCOD9205359
Probable space group: C 2/M
;
_chemical_formula_sum "Si O2"
_cell_formula_units_Z 64
_cell_length_a 17.285671
_cell_length_b 13.465265
_cell_length_c 12.703962
_cell_angle_alpha 90.000000
_cell_angle_beta 78.757833
_cell_angle_gamma 90.000000
_cell_volume 2900.187516
_symmetry_space_group_name_H-M "C 2/M"
_symmetry_group_IT_number 12
_symmetry_cell_setting 'monoclinic'
loop_
_space_group_symop_operation_xyz
x,y,z
-x,y,-z
-x,-y,-z
x,-y,z
1/2+x,1/2+y,z
1/2-x,1/2+y,-z
1/2-x,1/2-y,-z
1/2+x,1/2-y,z
loop_
_atom_site_type_symbol
_atom_site_label
_atom_site_fract_x
_atom_site_fract_y
_atom_site_fract_z
Si Si1 0.182159 0.180437 0.568467
Si Si2 0.751406 0.118796 0.059353
Si Si3 0.288530 0.885508 0.170846
Si Si4 0.708618 0.804929 0.286442
Si Si5 0.972562 0.796647 0.268761
Si Si6 0.922807 0.115027 0.073630
Si Si7 0.079897 0.813009 0.416187
Si Si8 0.522310 0.888512 0.871011
O O1 0.250000 0.250000 0.500000
O O2 0.230509 0.135131 0.654472
O O3 0.104770 0.231360 0.641371
O O4 0.138791 0.128369 0.479708
O O5 0.699687 0.152712 0.172072
O O6 0.839669 0.157686 0.060390
O O7 0.751802 0.000000 0.064180
O O8 0.728868 0.142239 0.946195
O O9 0.246619 0.804874 0.255883
O O10 0.382487 0.883568 0.160113
O O11 0.261917 0.000000 0.195284
O O12 0.628276 0.784566 0.369491
O O13 0.937333 0.870809 0.192161
O O14 0.004309 0.700247 0.198170
O O15 0.042175 0.849597 0.316343
O O16 0.920036 0.000000 0.044750
O O17 0.000000 0.160033 0.000000
O O18 0.000000 0.791369 0.500000
O O19 0.496311 0.000000 0.846188
O O20 0.500000 0.877860 0.000000
#
# Coordination Sequence:
#
# PCOD9205359 Si02
#       8
#     8   8   8   8   8   8   8   8
#     4   9  18  36  58  78 103 136 180 235 277 306
#     4  10  21  35  54  85 116 142 179 220 262 323
#     4  10  21  35  54  85 116 142 179 220 262 323
#     4  11  19  36  62  80 105 150 180 219 276 327
#     4  11  19  36  58  80 107 148 180 217 272 334
#     4  10  21  35  54  83 117 146 176 217 264 324
#     4   9  22  36  58  84 105 138 188 233 277 316
#     4  10  21  35  54  83 117 146 176 217 264 324
#
# _framework density 22.067539
#
# number of rings (size 3 to 8) (size 9 to 14) (size 15 to 20)
#    0.000    2.000    2.500    0.750    3.500    0.000 
#    0.000    0.000    0.000   30.000    0.000    0.000 
#    0.000    0.000    0.000    0.000    0.000    0.000 
#
# Total GULP energy -178209.262614 kJ/mol
# GULP energy per Si atom -5569.039457 kJ/mol
# Density = 2.201731 g / cm^3
# Si number density = 22.067539 Si / 1000 Ang^3
#
#
#
# Elastic Constant Matrix: (Units=GPa)
#
#
# Indices 1 2 3 4 5 6 
#
# 1 59.5651 -6.1251 3.2058 0.0000 15.7766 0.0000
# 2 -6.1251 53.9852 -4.3284 0.0000 -2.2035 0.0000
# 3 3.2058 -4.3284 68.6770 0.0000 13.4292 0.0000
# 4 0.0000 0.0000 0.0000 -5.6046 0.0000 -1.8278
# 5 15.7766 -2.2035 13.4292 0.0000 45.8176 0.0000
# 6 0.0000 0.0000 0.0000 -1.8278 0.0000 8.2286
#
#
#
# Elastic Compliance Matrix: (Units=1/GPa)
#
#
# Indices 1 2 3 4 5 6 
#
# 1 0.018675 0.001895 0.000517 0.000000 -0.006491 0.000000
# 2 0.001895 0.018825 0.001112 0.000000 -0.000073 0.000000
# 3 0.000517 0.001112 0.015521 0.000000 -0.004674 0.000000
# 4 0.000000 0.000000 0.000000 -0.166373 0.000000 -0.036957
# 5 -0.006491 -0.000073 -0.004674 0.000000 0.025427 0.000000
# 6 0.000000 0.000000 0.000000 -0.036957 0.000000 0.113318
#
#
# Mechanical properties :
#
#
# Convention : Reuss Voigt Hill
#
# Bulk Modulus (GPa) = 16.64745 18.63687 17.64216
# Shear Modulus (GPa) = 130.32479 22.32000 76.32239
#
# Velocity S-wave (km/s) = 7.69321 3.18376 5.88735
# Velocity P-wave (km/s) = 9.29915 4.68816 7.36387
#
# Compressibility (1/GPa) = 0.06006926
#
# Stress axis : x y z
#
# Youngs Moduli (GPa) = 53.54880 53.12133 64.42974
#
# Poissons Ratio (x) = -0.10068 -0.03331
# Poissons Ratio (y) = -0.10149 -0.07167
# Poissons Ratio (z) = -0.02768 -0.05909
#
# Static dielectric constant tensor:
#      x y z
#    x 1.846570 0.000000 0.023310 
#    y 0.000000 1.817890 0.000000 
#    z 0.023310 0.000000 1.900860 
# 
# From -- ./inp_files/156625.got.cif
#   From: 2010.05.17/outbox.cif.g08.bks.cpg/sg12_79_cif.got.tgz:156625.got - 2010.06.03 13:09:07.
