data_PCOD9205304
_publ_section_title
;
Structure prediction by ZEFSAII (Michael W. Deem and Ramdas Pophale) SiO2 
 PCOD9205304
Probable space group: C 2/M
;
_chemical_formula_sum "Si O2"
_cell_formula_units_Z 64
_cell_length_a 30.157720
_cell_length_b 19.579028
_cell_length_c 14.499803
_cell_angle_alpha 90.000000
_cell_angle_beta 159.805721
_cell_angle_gamma 90.000000
_cell_volume 2955.480974
_symmetry_space_group_name_H-M "C 2/M"
_symmetry_group_IT_number 12
_symmetry_cell_setting 'monoclinic'
loop_
_space_group_symop_operation_xyz
x,y,z
-x,y,-z
-x,-y,-z
x,-y,z
1/2+x,1/2+y,z
1/2-x,1/2+y,-z
1/2-x,1/2-y,-z
1/2+x,1/2-y,z
loop_
_atom_site_type_symbol
_atom_site_label
_atom_site_fract_x
_atom_site_fract_y
_atom_site_fract_z
Si Si1 0.069121 0.843146 0.869686
Si Si2 0.920552 0.245407 0.440549
Si Si3 0.485095 0.925560 0.680326
Si Si4 0.768109 0.611567 0.127441
Si Si5 0.862664 0.581684 0.764654
Si Si6 0.731378 0.117778 0.078737
Si Si7 0.830503 0.923449 0.460562
Si Si8 0.734298 0.918342 0.619997
O O1 0.012455 0.775318 0.707633
O O2 0.952250 0.874708 0.698930
O O3 0.125481 0.884882 0.891116
O O4 0.186735 0.860323 0.170137
O O5 0.834676 0.313794 0.270380
O O6 0.813387 0.186229 0.230704
O O7 0.000000 0.244037 0.500000
O O8 0.364183 0.931204 0.376655
O O9 0.414329 0.910117 0.637496
O O10 0.547988 0.000000 0.811027
O O11 0.586301 0.874897 0.832444
O O12 0.771967 0.588668 0.030064
O O13 0.881789 0.500000 0.814057
O O14 0.789853 0.604274 0.715317
O O15 0.765598 0.591145 0.489205
O O16 0.000000 0.610754 0.000000
O O17 0.797243 0.075489 0.287797
O O18 0.861163 0.000000 0.553024
O O19 0.767849 0.000000 0.704266
#
# Coordination Sequence:
#
# PCOD9205304 Si02
#       8
#     8   8   8   8   8   8   8   8
#     4  10  22  37  54  84 117 147 196 243 299 350
#     4  11  22  38  59  79 110 149 204 262 289 333
#     4  10  21  35  53  84 119 151 190 235 294 360
#     4  11  23  37  58  79 113 152 198 248 296 340
#     4   9  17  32  58  89 119 155 196 239 286 340
#     4  11  21  34  55  81 115 153 191 242 289 342
#     4  10  21  35  54  84 123 158 192 237 287 353
#     4   9  18  35  58  84 122 159 191 241 294 351
#
# _framework density 21.654681
#
# number of rings (size 3 to 8) (size 9 to 14) (size 15 to 20)
#    0.000    1.875    1.250    3.000    1.750    4.500 
#    0.000    2.500    0.000    0.000    0.000   21.875 
#    0.000    0.000    0.000    0.000    0.000    0.000 
#
# Total GULP energy -178196.572767 kJ/mol
# GULP energy per Si atom -5568.642899 kJ/mol
# Density = 2.160539 g / cm^3
# Si number density = 21.654681 Si / 1000 Ang^3
#
#
#
# Elastic Constant Matrix: (Units=GPa)
#
#
# Indices 1 2 3 4 5 6 
#
# 1 114.8831 29.4907 28.5188 0.0000 4.8544 0.0000
# 2 29.4907 60.3790 15.1054 0.0000 13.5251 0.0000
# 3 28.5188 15.1054 65.6226 0.0000 19.2748 0.0000
# 4 0.0000 0.0000 0.0000 27.4913 0.0000 -5.6753
# 5 4.8544 13.5251 19.2748 0.0000 45.0661 0.0000
# 6 0.0000 0.0000 0.0000 -5.6753 0.0000 32.4886
#
#
#
# Elastic Compliance Matrix: (Units=1/GPa)
#
#
# Indices 1 2 3 4 5 6 
#
# 1 0.010882 -0.004714 -0.004249 0.000000 0.002060 0.000000
# 2 -0.004714 0.020288 -0.001123 0.000000 -0.005101 0.000000
# 3 -0.004249 -0.001123 0.019569 0.000000 -0.007575 0.000000
# 4 0.000000 0.000000 0.000000 0.037736 0.000000 0.006592
# 5 0.002060 -0.005101 -0.007575 0.000000 0.026738 0.000000
# 6 0.000000 0.000000 0.000000 0.006592 0.000000 0.031932
#
#
# Mechanical properties :
#
#
# Convention : Reuss Voigt Hill
#
# Bulk Modulus (GPa) = 32.71564 43.01271 37.86418
# Shear Modulus (GPa) = 28.16804 32.19384 30.18094
#
# Velocity S-wave (km/s) = 3.61055 3.85995 3.73733
# Velocity P-wave (km/s) = 5.70282 6.30648 6.01223
#
# Compressibility (1/GPa) = 0.03056642
#
# Stress axis : x y z
#
# Youngs Moduli (GPa) = 91.89239 49.29063 51.10169
#
# Poissons Ratio (x) = 0.23233 0.21715
# Poissons Ratio (y) = 0.43314 0.05741
# Poissons Ratio (z) = 0.39048 0.05537
#
# Static dielectric constant tensor:
#      x y z
#    x 1.803270 0.000000 -0.020330 
#    y 0.000000 1.822300 0.000000 
#    z -0.020330 0.000000 1.870150 
# 
# From -- ./inp_files/251934.got.cif
#   From: 2010.05.17/outbox.cif.g08.bks.cpg/sg12_126_cif.got.tgz:251934.got - 2010.06.03 13:09:07.
