data_PCOD9205811
_publ_section_title
;
Structure prediction by ZEFSAII (Michael W. Deem and Ramdas Pophale) SiO2 
 PCOD9205811
Probable space group: C 2/M
;
_chemical_formula_sum "Si O2"
_cell_formula_units_Z 56
_cell_length_a 9.501691
_cell_length_b 29.343194
_cell_length_c 10.474238
_cell_angle_alpha 90.000000
_cell_angle_beta 61.961287
_cell_angle_gamma 90.000000
_cell_volume 2577.564257
_symmetry_space_group_name_H-M "C 2/M"
_symmetry_group_IT_number 12
_symmetry_cell_setting 'monoclinic'
loop_
_space_group_symop_operation_xyz
x,y,z
-x,y,-z
-x,-y,-z
x,-y,z
1/2+x,1/2+y,z
1/2-x,1/2+y,-z
1/2-x,1/2-y,-z
1/2+x,1/2-y,z
loop_
_atom_site_type_symbol
_atom_site_label
_atom_site_fract_x
_atom_site_fract_y
_atom_site_fract_z
Si Si1 0.107579 0.361920 0.561407
Si Si2 0.319272 0.839110 0.833241
Si Si3 0.704660 0.450112 0.554018
Si Si4 0.225249 0.148456 0.156459
Si Si5 0.953494 0.729680 0.156046
Si Si6 0.838758 0.050747 0.733127
Si Si7 0.372946 0.683482 0.332232
O O1 0.172358 0.409541 0.480077
O O2 0.265389 0.330964 0.499328
O O3 0.000000 0.337581 0.500000
O O4 0.981240 0.366692 0.728284
O O5 0.390545 0.789181 0.837377
O O6 0.203569 0.839967 0.761775
O O7 0.237172 0.853501 0.998387
O O8 0.761215 0.500000 0.571686
O O9 0.677760 0.451007 0.412821
O O10 0.527025 0.442612 0.685001
O O11 0.349085 0.186245 0.155677
O O12 0.250842 0.096514 0.188974
O O13 0.051326 0.165698 0.272151
O O14 0.873443 0.764120 0.288726
O O15 0.000000 0.752842 0.000000
O O16 0.791194 0.000000 0.801099
#
# Coordination Sequence:
#
# PCOD9205811 Si02
#       7
#     8   8   8   8   8   8   8
#     4  10  21  36  53  79 113 149 182 225 285 331
#     4  10  22  37  53  78 119 147 177 232 287 328
#     4   9  17  34  57  82 110 140 184 232 276 328
#     4  11  20  36  62  84 108 152 190 226 279 335
#     4  10  21  36  56  83 112 146 189 234 280 332
#     4   9  18  33  59  88 109 136 184 239 277 320
#     4  11  21  36  57  80 108 150 199 228 267 333
#
# _framework density 21.725936999999998
#
# number of rings (size 3 to 8) (size 9 to 14) (size 15 to 20)
#    0.000    2.000    1.429    3.857    0.000    3.143 
#    0.000    2.143    0.000    8.143    0.000    0.000 
#    0.000    0.000    0.000    0.000    0.000    0.000 
#
# Total GULP energy -156134.358582 kJ/mol
# GULP energy per Si atom -5576.227092 kJ/mol
# Density = 2.167649 g / cm^3
# Si number density = 21.725937 Si / 1000 Ang^3
#
#
#
# Elastic Constant Matrix: (Units=GPa)
#
#
# Indices 1 2 3 4 5 6 
#
# 1 65.1887 -4.8193 4.1844 0.0000 -5.7218 0.0000
# 2 -4.8193 111.6910 12.7765 0.0000 -6.8845 0.0000
# 3 4.1844 12.7765 31.5675 0.0000 -16.5946 0.0000
# 4 0.0000 0.0000 0.0000 17.1964 0.0000 -2.2338
# 5 -5.7218 -6.8845 -16.5946 0.0000 25.8064 0.0000
# 6 0.0000 0.0000 0.0000 -2.2338 0.0000 22.3116
#
#
#
# Elastic Compliance Matrix: (Units=1/GPa)
#
#
# Indices 1 2 3 4 5 6 
#
# 1 0.015747 0.000968 -0.000767 0.000000 0.003256 0.000000
# 2 0.000968 0.009448 -0.003798 0.000000 0.000293 0.000000
# 3 -0.000767 -0.003798 0.049391 0.000000 0.030577 0.000000
# 4 0.000000 0.000000 0.000000 0.058918 0.000000 0.005899
# 5 0.003256 0.000293 0.030577 0.000000 0.059212 0.000000
# 6 0.000000 0.000000 0.000000 0.005899 0.000000 0.045410
#
#
# Mechanical properties :
#
#
# Convention : Reuss Voigt Hill
#
# Bulk Modulus (GPa) = 14.83900 25.85893 20.34897
# Shear Modulus (GPa) = 18.67171 26.14992 22.41082
#
# Velocity S-wave (km/s) = 2.93477 3.47310 3.21522
# Velocity P-wave (km/s) = 4.28121 5.29258 4.81353
#
# Compressibility (1/GPa) = 0.06738998
#
# Stress axis : x y z
#
# Youngs Moduli (GPa) = 63.50539 105.84741 20.24657
#
# Poissons Ratio (x) = -0.10245 0.01554
# Poissons Ratio (y) = -0.06147 0.07690
# Poissons Ratio (z) = 0.04873 0.40204
#
# Static dielectric constant tensor:
#      x y z
#    x 1.817920 0.000000 -0.000090 
#    y 0.000000 1.840170 0.000000 
#    z -0.000090 0.000000 1.838190 
# 
# From -- ./inp_files/53298.got.cif
#   From: 2010.05.17/outbox.cif.g08.bks.cpg/sg12_27_cif.got.tgz:53298.got - 2010.06.03 13:09:07.
