data_PCOD9205734
_publ_section_title
;
Structure prediction by ZEFSAII (Michael W. Deem and Ramdas Pophale) SiO2 
 PCOD9205734
Probable space group: C 2/M
;
_chemical_formula_sum "Si O2"
_cell_formula_units_Z 32
_cell_length_a 14.122572
_cell_length_b 30.150957
_cell_length_c 10.973240
_cell_angle_alpha 90.000000
_cell_angle_beta 162.208155
_cell_angle_gamma 90.000000
_cell_volume 1427.729624
_symmetry_space_group_name_H-M "C 2/M"
_symmetry_group_IT_number 12
_symmetry_cell_setting 'monoclinic'
loop_
_space_group_symop_operation_xyz
x,y,z
-x,y,-z
-x,-y,-z
x,-y,z
1/2+x,1/2+y,z
1/2-x,1/2+y,-z
1/2-x,1/2-y,-z
1/2+x,1/2-y,z
loop_
_atom_site_type_symbol
_atom_site_label
_atom_site_fract_x
_atom_site_fract_y
_atom_site_fract_z
Si Si1 0.752962 0.361641 0.086834
Si Si2 0.867065 0.048946 0.970748
Si Si3 0.165907 0.768056 0.027756
Si Si4 0.125357 0.326417 0.027950
O O1 0.581174 0.408886 0.878856
O O2 0.548676 0.318474 0.873432
O O3 0.000000 0.365308 0.500000
O O4 0.901699 0.350399 0.137232
O O5 0.500000 0.044758 0.500000
O O6 0.982937 0.000000 0.152010
O O7 0.000000 0.058969 0.000000
O O8 0.500000 0.773382 0.500000
O O9 0.996003 0.724726 0.870630
O O10 0.250000 0.750000 0.000000
O O11 0.500000 0.322849 0.500000
O O12 0.000000 0.347621 0.000000
#
# Coordination Sequence:
#
# PCOD9205734 Si02
#       4
#     8   8   8   8
#     4   9  18  34  56  80 103 135 179 218 253 305
#     4   9  18  32  51  77 105 130 163 214 266 303
#     4   8  15  30  48  71 100 134 170 207 248 297
#     4  10  21  36  52  74 109 144 171 208 261 310
#
# _framework density 22.413207
#
# number of rings (size 3 to 8) (size 9 to 14) (size 15 to 20)
#    0.000    3.000    0.000    0.000    0.000    5.000 
#    0.000   42.500    0.000    1.500    0.000    0.000 
#    0.000    0.000    0.000    0.000    0.000    0.000 
#
# Total GULP energy -89115.733904 kJ/mol
# GULP energy per Si atom -5569.733369 kJ/mol
# Density = 2.236219 g / cm^3
# Si number density = 22.413207 Si / 1000 Ang^3
#
#
#
# Elastic Constant Matrix: (Units=GPa)
#
#
# Indices 1 2 3 4 5 6 
#
# 1 171.2493 67.1401 35.4205 0.0003 -17.2308 -0.0001
# 2 67.1401 223.2414 19.1991 0.0027 -15.1183 0.0006
# 3 35.4205 19.1991 40.1498 0.0118 -4.8475 -0.0029
# 4 0.0003 0.0027 0.0118 12.9532 -0.0012 -5.5942
# 5 -17.2308 -15.1183 -4.8475 -0.0012 44.4837 -0.0046
# 6 -0.0001 0.0006 -0.0029 -5.5942 -0.0046 33.9935
#
#
#
# Elastic Compliance Matrix: (Units=1/GPa)
#
#
# Indices 1 2 3 4 5 6 
#
# 1 0.007941 -0.001753 -0.005946 0.000006 0.001832 0.000001
# 2 -0.001753 0.005141 -0.000794 0.000000 0.000982 0.000000
# 3 -0.005946 -0.000794 0.030624 -0.000028 0.000764 -0.000002
# 4 0.000006 0.000000 -0.000028 0.083108 0.000003 0.013677
# 5 0.001832 0.000982 0.000764 0.000003 0.023607 0.000004
# 6 0.000001 0.000000 -0.000002 0.013677 0.000004 0.031668
#
#
# Mechanical properties :
#
#
# Convention : Reuss Voigt Hill
#
# Bulk Modulus (GPa) = 37.42327 75.35110 56.38718
# Shear Modulus (GPa) = 24.04059 39.14479 31.59269
#
# Velocity S-wave (km/s) = 3.27862 4.18366 3.75848
# Velocity P-wave (km/s) = 5.57366 7.55178 6.63683
#
# Compressibility (1/GPa) = 0.02672134
#
# Stress axis : x y z
#
# Youngs Moduli (GPa) = 125.93090 194.50125 32.65382
#
# Poissons Ratio (x) = 0.34091 0.19416
# Poissons Ratio (y) = 0.22073 0.02592
# Poissons Ratio (z) = 0.74880 0.15437
#
# Static dielectric constant tensor:
#      x y z
#    x 1.827550 0.000010 -0.018890 
#    y 0.000010 1.961860 0.000020 
#    z -0.018890 0.000020 1.919170 
# 
# From -- ./inp_files/7986.got.cif
#   From: 2010.05.17/outbox.cif.g08.bks.cpg/sg12_4_cif.got.tgz:7986.got - 2010.06.03 13:09:07.
