data_PCOD9205917
_publ_section_title
;
Structure prediction by ZEFSAII (Michael W. Deem and Ramdas Pophale) SiO2 
 PCOD9205917
Probable space group: C 2/M
;
_chemical_formula_sum "Si O2"
_cell_formula_units_Z 60
_cell_length_a 14.743169
_cell_length_b 7.426002
_cell_length_c 23.724940
_cell_angle_alpha 90.000000
_cell_angle_beta 70.220363
_cell_angle_gamma 90.000000
_cell_volume 2444.224868
_symmetry_space_group_name_H-M "C 2/M"
_symmetry_group_IT_number 12
_symmetry_cell_setting 'monoclinic'
loop_
_space_group_symop_operation_xyz
x,y,z
-x,y,-z
-x,-y,-z
x,-y,z
1/2+x,1/2+y,z
1/2-x,1/2+y,-z
1/2-x,1/2-y,-z
1/2+x,1/2-y,z
loop_
_atom_site_type_symbol
_atom_site_label
_atom_site_fract_x
_atom_site_fract_y
_atom_site_fract_z
Si Si1 0.475567 0.720306 0.331676
Si Si2 0.187581 0.221382 0.903092
Si Si3 0.256663 0.717130 0.353435
Si Si4 0.946156 0.788229 0.565878
Si Si5 0.000000 0.246297 0.000000
Si Si6 0.869813 0.705496 0.931810
Si Si7 0.285524 0.712401 0.226138
Si Si8 0.985731 0.212244 0.797932
O O1 0.478098 0.500000 0.329614
O O2 0.363023 0.773602 0.350530
O O3 0.519507 0.785645 0.380956
O O4 0.528465 0.779680 0.262965
O O5 0.264187 0.264753 0.935220
O O6 0.228990 0.281762 0.833891
O O7 0.175000 0.000000 0.903654
O O8 0.084452 0.305837 0.938929
O O9 0.259234 0.500000 0.350095
O O10 0.168885 0.769739 0.411591
O O11 0.238317 0.786211 0.293212
O O12 0.000000 0.712255 0.500000
O O13 0.970075 0.000000 0.562777
O O14 0.074109 0.182150 0.033079
O O15 0.869309 0.500000 0.953399
O O16 0.927062 0.703059 0.860758
O O17 0.262865 0.500000 0.228615
O O18 0.400311 0.730331 0.213388
O O19 0.963738 0.000000 0.804065
#
# Coordination Sequence:
#
# PCOD9205917 Si02
#       8
#     8   8   8   8   4   8   8   8
#     4   8  17  35  57  80 111 148 184 225 276 325
#     4  10  21  36  58  85 107 140 190 232 270 327
#     4   9  18  34  58  81 108 146 188 232 273 319
#     4  10  21  36  54  81 119 155 183 220 275 332
#     4  12  22  40  58  74 111 156 185 218 271 346
#     4  11  24  38  55  82 116 144 174 228 290 330
#     4   8  15  32  56  81 106 135 179 232 275 312
#     4   9  17  35  61  83 105 142 190 228 265 330
#
# _framework density 24.547657999999998
#
# number of rings (size 3 to 8) (size 9 to 14) (size 15 to 20)
#    0.000    2.533    1.333    2.400    1.867    1.333 
#    0.000    4.667    0.000    0.000    0.000    0.000 
#    0.000    0.000    0.000    0.000    0.000    0.000 
#
# Total GULP energy -167447.911163 kJ/mol
# GULP energy per Si atom -5581.597039 kJ/mol
# Density = 2.449179 g / cm^3
# Si number density = 24.547658 Si / 1000 Ang^3
#
#
#
# Elastic Constant Matrix: (Units=GPa)
#
#
# Indices 1 2 3 4 5 6 
#
# 1 94.8462 13.1878 28.5077 0.0000 0.5857 0.0000
# 2 13.1878 91.0011 14.4428 0.0000 8.0991 0.0000
# 3 28.5077 14.4428 129.8127 0.0000 -13.8346 0.0000
# 4 0.0000 0.0000 0.0000 -0.3999 0.0000 -2.3003
# 5 0.5857 8.0991 -13.8346 0.0000 45.1644 0.0000
# 6 0.0000 0.0000 0.0000 -2.3003 0.0000 -6.5624
#
#
#
# Elastic Compliance Matrix: (Units=1/GPa)
#
#
# Indices 1 2 3 4 5 6 
#
# 1 0.011453 -0.001210 -0.002453 0.000000 -0.000683 0.000000
# 2 -0.001210 0.011587 -0.001285 0.000000 -0.002456 0.000000
# 3 -0.002453 -0.001285 0.008697 0.000000 0.002926 0.000000
# 4 0.000000 0.000000 0.000000 2.460569 0.000000 -0.862488
# 5 -0.000683 -0.002456 0.002926 0.000000 0.023487 0.000000
# 6 0.000000 0.000000 0.000000 -0.862488 0.000000 0.149939
#
#
# Mechanical properties :
#
#
# Convention : Reuss Voigt Hill
#
# Bulk Modulus (GPa) = 45.78651 47.54853 46.66752
# Shear Modulus (GPa) = 1.86365 24.94187 13.40276
#
# Velocity S-wave (km/s) = 0.87226 3.19103 2.33918
# Velocity P-wave (km/s) = 4.43926 5.74359 5.13302
#
# Compressibility (1/GPa) = 0.02184049
#
# Stress axis : x y z
#
# Youngs Moduli (GPa) = 87.31176 86.30581 114.98144
#
# Poissons Ratio (x) = 0.10440 0.28210
# Poissons Ratio (y) = 0.10561 0.14777
# Poissons Ratio (z) = 0.21421 0.11092
#
# Static dielectric constant tensor:
#      x y z
#    x 1.913270 0.000000 0.007490 
#    y 0.000000 2.006900 0.000000 
#    z 0.007490 0.000000 1.945750 
# 
# From -- ./inp_files/338639.got.cif
#   From: 2010.05.17/outbox.cif.g08.bks.cpg/sg12_170_cif.got.tgz:338639.got - 2010.06.03 13:09:07.
