data_PCOD9205238
_publ_section_title
;
Structure prediction by ZEFSAII (Michael W. Deem and Ramdas Pophale) SiO2 
 PCOD9205238
Probable space group: C 2/M
;
_chemical_formula_sum "Si O2"
_cell_formula_units_Z 64
_cell_length_a 20.754755
_cell_length_b 7.606491
_cell_length_c 19.515365
_cell_angle_alpha 90.000000
_cell_angle_beta 87.227999
_cell_angle_gamma 90.000000
_cell_volume 3077.302398
_symmetry_space_group_name_H-M "C 2/M"
_symmetry_group_IT_number 12
_symmetry_cell_setting 'monoclinic'
loop_
_space_group_symop_operation_xyz
x,y,z
-x,y,-z
-x,-y,-z
x,-y,z
1/2+x,1/2+y,z
1/2-x,1/2+y,-z
1/2-x,1/2-y,-z
1/2+x,1/2-y,z
loop_
_atom_site_type_symbol
_atom_site_label
_atom_site_fract_x
_atom_site_fract_y
_atom_site_fract_z
Si Si1 0.240604 0.796013 0.709028
Si Si2 0.117488 0.784561 0.800876
Si Si3 0.946884 0.293977 0.450977
Si Si4 0.994616 0.786249 0.297045
Si Si5 0.129021 0.203436 0.232527
Si Si6 0.196830 0.290102 0.559646
Si Si7 0.162268 0.793120 0.940351
Si Si8 0.187991 0.785497 0.088465
O O1 0.182597 0.725376 0.758978
O O2 0.308819 0.709747 0.721846
O O3 0.219042 0.781624 0.631793
O O4 0.249055 0.000000 0.726338
O O5 0.056584 0.732657 0.758509
O O6 0.120523 0.722663 0.879258
O O7 0.118364 0.000000 0.801181
O O8 0.940508 0.500000 0.469601
O O9 0.972302 0.278999 0.372241
O O10 0.874190 0.220420 0.456728
O O11 0.000000 0.216702 0.500000
O O12 0.065557 0.722489 0.271772
O O13 0.993976 0.000000 0.301346
O O14 0.151286 0.277951 0.158012
O O15 0.113002 0.000000 0.219382
O O16 0.192003 0.500000 0.567872
O O17 0.250000 0.250000 0.500000
O O18 0.237404 0.772302 0.915419
O O19 0.147880 0.000000 0.945846
O O20 0.157692 0.723080 0.017954
O O21 0.188925 0.000000 0.088580
#
# Coordination Sequence:
#
# PCOD9205238 Si02
#       8
#     8   8   8   8   8   8   8   8
#     4  11  21  36  59  82 109 145 186 232 272 319
#     4   9  17  32  54  79 104 138 185 226 264 319
#     4  10  23  42  60  81 110 143 179 221 267 319
#     4  10  21  38  57  78 109 146 182 222 270 331
#     4  10  21  35  52  81 115 146 181 229 281 326
#     4  11  24  41  61  87 117 145 178 226 273 324
#     4   9  16  29  50  75 103 141 183 224 271 323
#     4   9  17  29  47  75 110 140 176 226 277 323
#
# _framework density 20.797436000000001
#
# number of rings (size 3 to 8) (size 9 to 14) (size 15 to 20)
#    0.000    2.125    2.500    0.750    1.750    1.250 
#    0.000    1.250    0.000    3.750    0.000    0.000 
#    0.000    6.000    0.000    0.000    0.000    0.000 
#
# Total GULP energy -178648.286074 kJ/mol
# GULP energy per Si atom -5582.758940 kJ/mol
# Density = 2.075010 g / cm^3
# Si number density = 20.797436 Si / 1000 Ang^3
#
#
#
# Elastic Constant Matrix: (Units=GPa)
#
#
# Indices 1 2 3 4 5 6 
#
# 1 151.0067 -9.8518 74.8571 0.0000 8.5596 0.0000
# 2 -9.8518 41.4290 -12.7116 0.0000 -0.8874 0.0000
# 3 74.8571 -12.7116 135.0736 0.0000 23.6778 0.0000
# 4 0.0000 0.0000 0.0000 10.0652 0.0000 -5.5290
# 5 8.5596 -0.8874 23.6778 0.0000 35.4641 0.0000
# 6 0.0000 0.0000 0.0000 -5.5290 0.0000 4.7896
#
#
#
# Elastic Compliance Matrix: (Units=1/GPa)
#
#
# Indices 1 2 3 4 5 6 
#
# 1 0.009201 0.000598 -0.005273 0.000000 0.001315 0.000000
# 2 0.000598 0.024930 0.002186 0.000000 -0.000980 0.000000
# 3 -0.005273 0.002186 0.011664 0.000000 -0.006460 0.000000
# 4 0.000000 0.000000 0.000000 0.271549 0.000000 0.313472
# 5 0.001315 -0.000980 -0.006460 0.000000 0.032169 0.000000
# 6 0.000000 0.000000 0.000000 0.313472 0.000000 0.570653
#
#
# Mechanical properties :
#
#
# Convention : Reuss Voigt Hill
#
# Bulk Modulus (GPa) = 24.49944 48.01074 36.25509
# Shear Modulus (GPa) = 5.32624 28.41150 16.86887
#
# Velocity S-wave (km/s) = 1.60205 3.70010 2.85108
# Velocity P-wave (km/s) = 3.90227 6.43345 5.32057
#
# Compressibility (1/GPa) = 0.04081726
#
# Stress axis : x y z
#
# Youngs Moduli (GPa) = 108.68668 40.11265 85.73428
#
# Poissons Ratio (x) = -0.02399 0.45210
# Poissons Ratio (y) = -0.06501 -0.18746
# Poissons Ratio (z) = 0.57313 -0.08771
#
# Static dielectric constant tensor:
#      x y z
#    x 1.722380 0.000000 0.009600 
#    y 0.000000 1.781250 0.000000 
#    z 0.009600 0.000000 1.728880 
# 
# From -- ./inp_files/281374.got.cif
#   From: 2010.05.17/outbox.cif.g08.bks.cpg/sg12_141_cif.got.tgz:281374.got - 2010.06.03 13:09:07.
