data_PCOD9205355
_publ_section_title
;
Structure prediction by ZEFSAII (Michael W. Deem and Ramdas Pophale) SiO2 
 PCOD9205355
Probable space group: C 2/M
;
_chemical_formula_sum "Si O2"
_cell_formula_units_Z 56
_cell_length_a 15.168622
_cell_length_b 16.227174
_cell_length_c 22.516666
_cell_angle_alpha 90.000000
_cell_angle_beta 30.713556
_cell_angle_gamma 90.000000
_cell_volume 2830.729511
_symmetry_space_group_name_H-M "C 2/M"
_symmetry_group_IT_number 12
_symmetry_cell_setting 'monoclinic'
loop_
_space_group_symop_operation_xyz
x,y,z
-x,y,-z
-x,-y,-z
x,-y,z
1/2+x,1/2+y,z
1/2-x,1/2+y,-z
1/2-x,1/2-y,-z
1/2+x,1/2-y,z
loop_
_atom_site_type_symbol
_atom_site_label
_atom_site_fract_x
_atom_site_fract_y
_atom_site_fract_z
Si Si1 0.441764 0.903972 0.597917
Si Si2 0.391552 0.401764 0.504681
Si Si3 0.468968 0.591332 0.149884
Si Si4 0.760275 0.409028 0.074432
Si Si5 0.602846 0.805500 0.614903
Si Si6 0.006467 0.261241 0.924899
Si Si7 0.143672 0.167752 0.258899
O O1 0.500000 0.869488 0.500000
O O2 0.235018 0.900994 0.721451
O O3 0.523434 0.859632 0.607516
O O4 0.496253 0.000000 0.568161
O O5 0.500000 0.376327 0.500000
O O6 0.368903 0.500000 0.519156
O O7 0.205182 0.358569 0.604314
O O8 0.509494 0.376178 0.380070
O O9 0.499999 0.500000 0.104505
O O10 0.576455 0.592605 0.148319
O O11 0.529774 0.670702 0.078370
O O12 0.837656 0.500000 0.019997
O O13 0.727248 0.393442 0.163006
O O14 0.876445 0.334370 0.983153
O O15 0.750000 0.750000 0.500000
O O16 0.454754 0.741200 0.719578
O O17 0.199804 0.289848 0.796299
O O18 0.000000 0.256667 0.000000
#
# Coordination Sequence:
#
# PCOD9205355 Si02
#       7
#     8   8   8   8   8   8   8
#     4  10  21  36  59  88 119 154 196 244 294 352
#     4  10  22  38  56  81 117 158 196 235 286 353
#     4  10  21  38  60  89 121 153 196 242 296 358
#     4  10  22  38  62  90 115 151 198 251 302 349
#     4  10  21  35  54  82 116 153 190 235 287 353
#     4  10  21  39  61  85 116 152 197 244 299 356
#     4  10  21  37  58  85 116 151 195 243 295 349
#
# _framework density 19.782886000000001
#
# number of rings (size 3 to 8) (size 9 to 14) (size 15 to 20)
#    0.000    2.000    1.429    1.286    4.000    6.857 
#    0.000    0.000    0.000    3.429    0.000    0.000 
#    0.000    0.000    0.000    0.000    0.000    0.000 
#
# Total GULP energy -156173.465251 kJ/mol
# GULP energy per Si atom -5577.623759 kJ/mol
# Density = 1.973786 g / cm^3
# Si number density = 19.782886 Si / 1000 Ang^3
#
#
#
# Elastic Constant Matrix: (Units=GPa)
#
#
# Indices 1 2 3 4 5 6 
#
# 1 81.4354 48.5837 6.7346 -0.0008 -22.1414 0.0001
# 2 48.5837 132.2663 27.2773 -0.0007 -12.6037 0.0002
# 3 6.7346 27.2773 40.1968 -0.0037 -16.7345 0.0007
# 4 -0.0008 -0.0007 -0.0037 18.9842 0.0009 -13.2332
# 5 -22.1414 -12.6037 -16.7345 0.0009 25.1690 -0.0001
# 6 0.0001 0.0002 0.0007 -13.2332 -0.0001 27.9141
#
#
#
# Elastic Compliance Matrix: (Units=1/GPa)
#
#
# Indices 1 2 3 4 5 6 
#
# 1 0.022867 -0.008587 0.011865 0.000003 0.023704 0.000001
# 2 -0.008587 0.012022 -0.010174 -0.000002 -0.008299 -0.000001
# 3 0.011865 -0.010174 0.044273 0.000010 0.034779 0.000004
# 4 0.000003 -0.000002 0.000010 0.078673 0.000005 0.037296
# 5 0.023704 -0.008299 0.034779 0.000005 0.079553 0.000002
# 6 0.000001 -0.000001 0.000004 0.037296 0.000002 0.053505
#
#
# Mechanical properties :
#
#
# Convention : Reuss Voigt Hill
#
# Bulk Modulus (GPa) = 15.29807 46.56551 30.93179
# Shear Modulus (GPa) = 15.31504 25.83365 20.57434
#
# Velocity S-wave (km/s) = 2.78538 3.61759 3.22841
# Velocity P-wave (km/s) = 4.25373 6.40614 5.43750
#
# Compressibility (1/GPa) = 0.06536772
#
# Stress axis : x y z
#
# Youngs Moduli (GPa) = 43.73200 83.17914 22.58709
#
# Poissons Ratio (x) = 0.71429 -0.26799
# Poissons Ratio (y) = 0.37554 0.22981
# Poissons Ratio (z) = -0.51887 0.84630
#
# Static dielectric constant tensor:
#      x y z
#    x 1.697150 0.000000 -0.019140 
#    y 0.000000 1.735560 0.000000 
#    z -0.019140 0.000000 1.689610 
# 
# From -- ./inp_files/340299.got.cif
#   From: 2010.05.17/outbox.cif.g08.bks.cpg/sg12_171_cif.got.tgz:340299.got - 2010.06.03 13:09:07.
