data_PCOD9205138
_publ_section_title
;
Structure prediction by ZEFSAII (Michael W. Deem and Ramdas Pophale) SiO2 
 PCOD9205138
Probable space group: C 2/M
;
_chemical_formula_sum "Si O2"
_cell_formula_units_Z 42
_cell_length_a 19.628042
_cell_length_b 7.084205
_cell_length_c 15.441055
_cell_angle_alpha 90.000000
_cell_angle_beta 42.235103
_cell_angle_gamma 90.000000
_cell_volume 1443.201560
_symmetry_space_group_name_H-M "C 2/M"
_symmetry_group_IT_number 12
_symmetry_cell_setting 'monoclinic'
loop_
_space_group_symop_operation_xyz
x,y,z
-x,y,-z
-x,-y,-z
x,-y,z
1/2+x,1/2+y,z
1/2-x,1/2+y,-z
1/2-x,1/2-y,-z
1/2+x,1/2-y,z
loop_
_atom_site_type_symbol
_atom_site_label
_atom_site_fract_x
_atom_site_fract_y
_atom_site_fract_z
Si Si1 0.291629 0.227123 0.566015
Si Si2 0.009141 0.726286 0.387905
Si Si3 0.070553 0.770185 0.775726
Si Si4 0.500000 0.000000 0.000000
Si Si5 0.227240 0.728957 0.214367
Si Si6 0.356802 0.721731 0.946414
O O1 0.405706 0.299889 0.442804
O O2 0.181422 0.284952 0.632600
O O3 0.276280 0.277966 0.682455
O O4 0.295811 0.000000 0.557974
O O5 0.009469 0.500000 0.379528
O O6 0.000000 0.763351 0.500000
O O7 0.123847 0.791927 0.262940
O O8 0.074848 0.000000 0.782873
O O9 0.047384 0.665042 0.887645
O O10 0.969170 0.712355 0.816565
O O11 0.227002 0.500000 0.211296
O O12 0.325600 0.797212 0.070891
O O13 0.369076 0.500000 0.940012
O O14 0.250000 0.750000 0.000000
#
# Coordination Sequence:
#
# PCOD9205138 Si02
#       6
#     8   8   8   2   8   8
#     4   8  13  25  46  72 103 126 152 206 263 315
#     4   7  10  18  38  69  98 123 154 195 252 314
#     4  10  21  35  51  78 107 136 174 217 265 316
#     4  12  22  32  56  82 110 140 166 214 270 328
#     4   8  13  23  42  71  98 125 163 206 253 306
#     4  10  21  35  51  69 100 141 181 223 254 301
#
# _framework density 29.101965
#
# number of rings (size 3 to 8) (size 9 to 14) (size 15 to 20)
#    0.000    3.238    0.000    3.714    1.333    3.048 
#    0.000    0.000    0.000    1.143    2.476    3.333 
#    0.000    0.000    0.000    0.000    0.000    0.000 
#
# Total GULP energy -117129.324604 kJ/mol
# GULP energy per Si atom -5577.586886 kJ/mol
# Density = 2.903573 g / cm^3
# Si number density = 29.101965 Si / 1000 Ang^3
#
#
#
# Elastic Constant Matrix: (Units=GPa)
#
#
# Indices 1 2 3 4 5 6 
#
# 1 142.3407 -0.7685 42.6562 0.0003 -54.7013 -0.0002
# 2 -0.7685 210.9813 17.3075 0.0016 2.0993 -0.0022
# 3 42.6562 17.3075 285.2678 0.0003 -53.9861 -0.0005
# 4 0.0003 0.0016 0.0003 -4.9144 -0.0002 3.6900
# 5 -54.7013 2.0993 -53.9861 -0.0002 67.4810 0.0003
# 6 -0.0002 -0.0022 -0.0005 3.6900 0.0003 8.7671
#
#
#
# Elastic Compliance Matrix: (Units=1/GPa)
#
#
# Indices 1 2 3 4 5 6 
#
# 1 0.010205 -0.000050 0.000051 0.000000 0.008315 0.000000
# 2 -0.000050 0.004775 -0.000375 0.000002 -0.000489 0.000000
# 3 0.000051 -0.000375 0.004161 0.000000 0.003381 0.000000
# 4 0.000000 0.000002 0.000000 -0.154620 -0.000001 0.065078
# 5 0.008315 -0.000489 0.003381 -0.000001 0.024279 0.000000
# 6 0.000000 0.000000 0.000000 0.065078 0.000000 0.086672
#
#
# Mechanical properties :
#
#
# Convention : Reuss Voigt Hill
#
# Bulk Modulus (GPa) = 54.36832 84.10892 69.23862
# Shear Modulus (GPa) = -283.29259 52.89306 -115.19976
#
# Velocity S-wave (km/s) = -9.87705 4.26785 -6.29848
# Velocity P-wave (km/s) = 10.55236 7.29728 5.38990
#
# Compressibility (1/GPa) = 0.01839307
#
# Stress axis : x y z
#
# Youngs Moduli (GPa) = 97.98880 209.41614 240.35429
#
# Poissons Ratio (x) = 0.01041 -0.01214
# Poissons Ratio (y) = 0.00487 0.09008
# Poissons Ratio (z) = -0.00495 0.07848
#
# Static dielectric constant tensor:
#      x y z
#    x 2.493120 0.000000 -0.047150 
#    y 0.000000 2.105390 0.000000 
#    z -0.047150 0.000000 2.366800 
# 
# From -- ./inp_files/348419.got.cif
#   From: 2010.05.17/outbox.cif.g08.bks.cpg/sg12_175_cif.got.tgz:348419.got - 2010.06.03 13:09:07.
