data_PCOD9205496
_publ_section_title
;
Structure prediction by ZEFSAII (Michael W. Deem and Ramdas Pophale) SiO2 
 PCOD9205496
Probable space group: C 2/M
;
_chemical_formula_sum "Si O2"
_cell_formula_units_Z 64
_cell_length_a 19.687189
_cell_length_b 13.832279
_cell_length_c 13.092192
_cell_angle_alpha 90.000000
_cell_angle_beta 111.460409
_cell_angle_gamma 90.000000
_cell_volume 3318.072027
_symmetry_space_group_name_H-M "C 2/M"
_symmetry_group_IT_number 12
_symmetry_cell_setting 'monoclinic'
loop_
_space_group_symop_operation_xyz
x,y,z
-x,y,-z
-x,-y,-z
x,-y,z
1/2+x,1/2+y,z
1/2-x,1/2+y,-z
1/2-x,1/2-y,-z
1/2+x,1/2-y,z
loop_
_atom_site_type_symbol
_atom_site_label
_atom_site_fract_x
_atom_site_fract_y
_atom_site_fract_z
Si Si1 0.350055 0.110132 0.050987
Si Si2 0.162234 0.728538 0.759907
Si Si3 0.507168 0.780341 0.385189
Si Si4 0.371211 0.387054 0.562428
Si Si5 0.138170 0.714641 0.156582
Si Si6 0.478504 0.106936 0.802099
Si Si7 0.232690 0.112878 0.689428
Si Si8 0.716053 0.386915 0.273585
O O1 0.318564 0.176121 0.123932
O O2 0.435963 0.103687 0.126570
O O3 0.321550 0.000000 0.033660
O O4 0.345352 0.161760 0.939909
O O5 0.076109 0.737639 0.696065
O O6 0.194388 0.834900 0.763734
O O7 0.205010 0.663906 0.698191
O O8 0.500000 0.807038 0.500000
O O9 0.561613 0.688487 0.403207
O O10 0.533467 0.863668 0.322218
O O11 0.396118 0.500000 0.572544
O O12 0.319214 0.370177 0.436193
O O13 0.320665 0.376670 0.635042
O O14 0.057575 0.688708 0.147772
O O15 0.189327 0.664955 0.271580
O O16 0.161984 0.825652 0.170746
O O17 0.448123 0.000000 0.808903
O O18 0.242400 0.000000 0.708170
O O19 0.721506 0.500000 0.252787
#
# Coordination Sequence:
#
# PCOD9205496 Si02
#       8
#     8   8   8   8   8   8   8   8
#     4  10  21  38  60  87 120 159 203 249 305 361
#     4  10  22  37  58  85 122 160 197 250 304 356
#     4  11  21  37  59  89 120 158 202 247 299 359
#     4  10  21  39  62  88 123 166 204 245 299 362
#     4  11  21  37  63  86 115 156 205 256 295 353
#     4  10  21  37  58  87 121 157 198 247 303 363
#     4  10  21  35  56  88 119 151 200 247 295 354
#     4  10  22  40  62  88 122 164 201 242 306 369
#
# _framework density 19.288309000000002
#
# number of rings (size 3 to 8) (size 9 to 14) (size 15 to 20)
#    0.000    1.750    2.500    1.875    0.000    7.500 
#    0.000    3.125    0.000    2.250    0.000    0.000 
#    0.000    0.000    0.000    0.000    0.000    0.000 
#
# Total GULP energy -178419.433675 kJ/mol
# GULP energy per Si atom -5575.607302 kJ/mol
# Density = 1.924441 g / cm^3
# Si number density = 19.288309 Si / 1000 Ang^3
#
#
#
# Elastic Constant Matrix: (Units=GPa)
#
#
# Indices 1 2 3 4 5 6 
#
# 1 63.1363 16.9850 9.8758 0.0000 -5.2952 0.0000
# 2 16.9850 98.0695 31.4329 0.0000 4.5276 0.0000
# 3 9.8758 31.4329 78.3620 0.0000 -11.2450 0.0000
# 4 0.0000 0.0000 0.0000 27.5309 0.0000 0.1685
# 5 -5.2952 4.5276 -11.2450 0.0000 19.1292 0.0000
# 6 0.0000 0.0000 0.0000 0.1685 0.0000 29.7002
#
#
#
# Elastic Compliance Matrix: (Units=1/GPa)
#
#
# Indices 1 2 3 4 5 6 
#
# 1 0.017171 -0.003193 -0.000101 0.000000 0.005449 0.000000
# 2 -0.003193 0.012970 -0.005862 0.000000 -0.007400 0.000000
# 3 -0.000101 -0.005862 0.016732 0.000000 0.011195 0.000000
# 4 0.000000 0.000000 0.000000 0.036324 0.000000 -0.000206
# 5 0.005449 -0.007400 0.011195 0.000000 0.062117 0.000000
# 6 0.000000 0.000000 0.000000 -0.000206 0.000000 0.033671
#
#
# Mechanical properties :
#
#
# Convention : Reuss Voigt Hill
#
# Bulk Modulus (GPa) = 35.01373 39.57280 37.29326
# Shear Modulus (GPa) = 24.17585 27.35701 25.76643
#
# Velocity S-wave (km/s) = 3.54417 3.77015 3.65890
# Velocity P-wave (km/s) = 5.91104 6.28594 6.10137
#
# Compressibility (1/GPa) = 0.02856022
#
# Stress axis : x y z
#
# Youngs Moduli (GPa) = 58.23922 77.09850 59.76547
#
# Poissons Ratio (x) = 0.24617 0.00605
# Poissons Ratio (y) = 0.18595 0.35036
# Poissons Ratio (z) = 0.00590 0.45197
#
# Static dielectric constant tensor:
#      x y z
#    x 1.705980 0.000000 -0.003110 
#    y 0.000000 1.684790 0.000000 
#    z -0.003110 0.000000 1.678910 
# 
# From -- ./inp_files/167278.got.cif
#   From: 2010.05.17/outbox.cif.g08.bks.cpg/sg12_84_cif.got.tgz:167278.got - 2010.06.03 13:09:07.
