data_PCOD9205422
_publ_section_title
;
Structure prediction by ZEFSAII (Michael W. Deem and Ramdas Pophale) SiO2 
 PCOD9205422
Probable space group: C 2/M
;
_chemical_formula_sum "Si O2"
_cell_formula_units_Z 56
_cell_length_a 12.373718
_cell_length_b 14.162529
_cell_length_c 18.497342
_cell_angle_alpha 90.000000
_cell_angle_beta 57.521668
_cell_angle_gamma 90.000000
_cell_volume 2734.539075
_symmetry_space_group_name_H-M "C 2/M"
_symmetry_group_IT_number 12
_symmetry_cell_setting 'monoclinic'
loop_
_space_group_symop_operation_xyz
x,y,z
-x,y,-z
-x,-y,-z
x,-y,z
1/2+x,1/2+y,z
1/2-x,1/2+y,-z
1/2-x,1/2-y,-z
1/2+x,1/2-y,z
loop_
_atom_site_type_symbol
_atom_site_label
_atom_site_fract_x
_atom_site_fract_y
_atom_site_fract_z
Si Si1 0.542391 0.891660 0.902633
Si Si2 0.727197 0.889704 0.308348
Si Si3 0.539454 0.257449 0.785976
Si Si4 0.520353 0.393188 0.415049
Si Si5 0.452163 0.897130 0.335412
Si Si6 0.738507 0.146233 0.471222
Si Si7 0.846231 0.111144 0.772122
O O1 0.493030 0.811684 0.866046
O O2 0.696312 0.885065 0.840843
O O3 0.504931 0.000000 0.897337
O O4 0.500000 0.874988 0.000000
O O5 0.839814 0.823234 0.238500
O O6 0.597598 0.883070 0.309096
O O7 0.701112 0.861608 0.401236
O O8 0.766867 0.000000 0.294262
O O9 0.581953 0.187436 0.705752
O O10 0.428762 0.325984 0.796530
O O11 0.500000 0.344896 0.500000
O O12 0.567229 0.500000 0.413732
O O13 0.381456 0.395358 0.427926
O O14 0.618308 0.353110 0.321579
O O15 0.363759 0.898741 0.438007
O O16 0.438730 0.000000 0.303931
O O17 0.750000 0.250000 0.500000
O O18 0.885232 0.000000 0.761252
#
# Coordination Sequence:
#
# PCOD9205422 Si02
#       7
#     8   8   8   8   8   8   8
#     4  10  24  45  68  94 124 157 196 250 318 384
#     4  11  23  41  60  84 125 171 210 250 305 362
#     4  12  22  39  66  93 121 155 205 257 308 367
#     4  10  21  35  55  84 120 162 209 252 291 345
#     4  11  24  38  57  87 122 167 211 256 302 353
#     4  12  22  36  55  81 121 170 215 253 295 354
#     4  10  21  40  64  91 124 165 207 252 308 363
#
# _framework density 20.478771999999999
#
# number of rings (size 3 to 8) (size 9 to 14) (size 15 to 20)
#    0.000    1.143    2.857    3.429    2.000    4.000 
#    0.000    0.000    0.000    1.714    0.000    0.000 
#    0.000    0.000    0.000    0.000    0.000    0.000 
#
# Total GULP energy -156580.989396 kJ/mol
# GULP energy per Si atom -5592.178193 kJ/mol
# Density = 2.043216 g / cm^3
# Si number density = 20.478772 Si / 1000 Ang^3
#
#
#
# Elastic Constant Matrix: (Units=GPa)
#
#
# Indices 1 2 3 4 5 6 
#
# 1 48.4520 20.3612 17.7641 0.0000 -4.2116 0.0000
# 2 20.3612 131.4019 28.3278 0.0000 10.3358 0.0000
# 3 17.7641 28.3278 113.1261 0.0000 12.9240 0.0000
# 4 0.0000 0.0000 0.0000 31.0779 0.0000 7.3737
# 5 -4.2116 10.3358 12.9240 0.0000 19.6953 0.0000
# 6 0.0000 0.0000 0.0000 7.3737 0.0000 27.8915
#
#
#
# Elastic Compliance Matrix: (Units=1/GPa)
#
#
# Indices 1 2 3 4 5 6 
#
# 1 0.024536 -0.003703 -0.004051 0.000000 0.009848 0.000000
# 2 -0.003703 0.008787 -0.001083 0.000000 -0.004693 0.000000
# 3 -0.004051 -0.001083 0.010574 0.000000 -0.007236 0.000000
# 4 0.000000 0.000000 0.000000 0.034331 0.000000 -0.009076
# 5 0.009848 -0.004693 -0.007236 0.000000 0.060091 0.000000
# 6 0.000000 0.000000 0.000000 -0.009076 0.000000 0.038253
#
#
# Mechanical properties :
#
#
# Convention : Reuss Voigt Hill
#
# Bulk Modulus (GPa) = 38.13411 47.32068 42.72739
# Shear Modulus (GPa) = 24.63237 30.83474 27.73355
#
# Velocity S-wave (km/s) = 3.47194 3.88454 3.68402
# Velocity P-wave (km/s) = 5.89357 6.57851 6.24544
#
# Compressibility (1/GPa) = 0.02622324
#
# Stress axis : x y z
#
# Youngs Moduli (GPa) = 40.75565 113.80976 94.57539
#
# Poissons Ratio (x) = 0.42148 0.38310
# Poissons Ratio (y) = 0.15094 0.10239
# Poissons Ratio (z) = 0.16509 0.12321
#
# Static dielectric constant tensor:
#      x y z
#    x 1.724150 0.000000 0.009990 
#    y 0.000000 1.765660 0.000000 
#    z 0.009990 0.000000 1.709370 
# 
# From -- ./inp_files/263264.got.cif
#   From: 2010.05.17/outbox.cif.g08.bks.cpg/sg12_132_cif.got.tgz:263264.got - 2010.06.03 13:09:07.
