data_PCOD9205338
_publ_section_title
;
Structure prediction by ZEFSAII (Michael W. Deem and Ramdas Pophale) SiO2 
 PCOD9205338
Probable space group: C 2/M
;
_chemical_formula_sum "Si O2"
_cell_formula_units_Z 56
_cell_length_a 17.714920
_cell_length_b 17.909087
_cell_length_c 10.141476
_cell_angle_alpha 90.000000
_cell_angle_beta 113.319919
_cell_angle_gamma 90.000000
_cell_volume 2954.626314
_symmetry_space_group_name_H-M "C 2/M"
_symmetry_group_IT_number 12
_symmetry_cell_setting 'monoclinic'
loop_
_space_group_symop_operation_xyz
x,y,z
-x,y,-z
-x,-y,-z
x,-y,z
1/2+x,1/2+y,z
1/2-x,1/2+y,-z
1/2-x,1/2-y,-z
1/2+x,1/2-y,z
loop_
_atom_site_type_symbol
_atom_site_label
_atom_site_fract_x
_atom_site_fract_y
_atom_site_fract_z
Si Si1 0.793098 0.916958 0.492040
Si Si2 0.679711 0.692661 0.898092
Si Si3 0.402147 0.706987 0.449544
Si Si4 0.043190 0.582834 0.731658
Si Si5 0.788289 0.416575 0.852286
Si Si6 0.123937 0.621836 0.509814
Si Si7 0.416915 0.201590 0.019840
O O1 0.862107 0.853788 0.520220
O O2 0.753283 0.919853 0.318806
O O3 0.716666 0.898372 0.535150
O O4 0.825354 0.000000 0.545683
O O5 0.643389 0.705765 0.725506
O O6 0.722064 0.611990 0.915125
O O7 0.610075 0.716165 0.952830
O O8 0.750000 0.750000 0.000000
O O9 0.500000 0.695333 0.500000
O O10 0.387039 0.789243 0.495668
O O11 0.057479 0.500000 0.795128
O O12 0.093694 0.591914 0.630744
O O13 0.071007 0.649814 0.843405
O O14 0.945825 0.590425 0.636344
O O15 0.819344 0.500000 0.901797
O O16 0.852572 0.348425 0.892968
O O17 0.500000 0.205711 0.000000
#
# Coordination Sequence:
#
# PCOD9205338 Si02
#       7
#     8   8   8   8   8   8   8
#     4  10  21  35  54  81 109 144 186 229 275 322
#     4   9  19  37  56  77 107 145 184 219 272 328
#     4  11  20  36  58  82 112 146 186 228 275 328
#     4  11  21  32  52  79 114 149 173 219 285 338
#     4   9  19  34  54  77 104 139 180 224 268 319
#     4  11  19  35  52  77 113 144 180 216 277 339
#     4  11  20  32  52  80 108 138 178 224 270 328
#
# _framework density 18.953327000000002
#
# number of rings (size 3 to 8) (size 9 to 14) (size 15 to 20)
#    0.000    1.714    2.857    3.429    0.000    2.571 
#    0.000    1.429    0.000    0.429    0.000    0.000 
#    0.000    0.000    0.000    0.000    0.000    0.000 
#
# Total GULP energy -156021.877034 kJ/mol
# GULP energy per Si atom -5572.209894 kJ/mol
# Density = 1.891019 g / cm^3
# Si number density = 18.953327 Si / 1000 Ang^3
#
#
#
# Elastic Constant Matrix: (Units=GPa)
#
#
# Indices 1 2 3 4 5 6 
#
# 1 101.4037 63.9343 -0.5183 0.0000 -2.5365 0.0000
# 2 63.9343 71.7340 -14.2542 0.0000 -6.4517 0.0000
# 3 -0.5183 -14.2542 31.5479 0.0000 9.4372 0.0000
# 4 0.0000 0.0000 0.0000 0.2642 0.0000 13.3550
# 5 -2.5365 -6.4517 9.4372 0.0000 15.9004 0.0000
# 6 0.0000 0.0000 0.0000 13.3550 0.0000 8.3717
#
#
#
# Elastic Compliance Matrix: (Units=1/GPa)
#
#
# Indices 1 2 3 4 5 6 
#
# 1 0.025481 -0.024843 -0.010951 0.000000 0.000484 0.000000
# 2 -0.024843 0.039623 0.016865 0.000000 0.002104 0.000000
# 3 -0.010951 0.016865 0.045733 0.000000 -0.022047 0.000000
# 4 0.000000 0.000000 0.000000 -0.047527 0.000000 0.075819
# 5 0.000484 0.002104 -0.022047 0.000000 0.076908 0.000000
# 6 0.000000 0.000000 0.000000 0.075819 0.000000 -0.001500
#
#
# Mechanical properties :
#
#
# Convention : Reuss Voigt Hill
#
# Bulk Modulus (GPa) = 13.70259 33.66770 23.68515
# Shear Modulus (GPa) = 24.88774 15.27550 20.08162
#
# Velocity S-wave (km/s) = 3.62761 2.84201 3.25857
# Velocity P-wave (km/s) = 4.97910 5.34522 5.16541
#
# Compressibility (1/GPa) = 0.07297891
#
# Stress axis : x y z
#
# Youngs Moduli (GPa) = 39.24486 25.23806 21.86596
#
# Poissons Ratio (x) = 0.62699 0.23945
# Poissons Ratio (y) = 0.97496 -0.36877
# Poissons Ratio (z) = 0.42977 -0.42564
#
# Static dielectric constant tensor:
#      x y z
#    x 1.689290 0.000000 0.013870 
#    y 0.000000 1.667110 0.000000 
#    z 0.013870 0.000000 1.695990 
# 
# From -- ./inp_files/145648.got.cif
#   From: 2010.05.17/outbox.cif.g08.bks.cpg/sg12_73_cif.got.tgz:145648.got - 2010.06.03 13:09:07.
