data_PCOD9205145
_publ_section_title
;
Structure prediction by ZEFSAII (Michael W. Deem and Ramdas Pophale) SiO2 
 PCOD9205145
Probable space group: C 2/M
;
_chemical_formula_sum "Si O2"
_cell_formula_units_Z 64
_cell_length_a 16.240226
_cell_length_b 9.579100
_cell_length_c 19.812785
_cell_angle_alpha 90.000000
_cell_angle_beta 106.352521
_cell_angle_gamma 90.000000
_cell_volume 2957.527770
_symmetry_space_group_name_H-M "C 2/M"
_symmetry_group_IT_number 12
_symmetry_cell_setting 'monoclinic'
loop_
_space_group_symop_operation_xyz
x,y,z
-x,y,-z
-x,-y,-z
x,-y,z
1/2+x,1/2+y,z
1/2-x,1/2+y,-z
1/2-x,1/2-y,-z
1/2+x,1/2-y,z
loop_
_atom_site_type_symbol
_atom_site_label
_atom_site_fract_x
_atom_site_fract_y
_atom_site_fract_z
Si Si1 0.331371 0.662193 0.595123
Si Si2 0.034230 0.834954 0.267504
Si Si3 0.213034 0.657096 0.789470
Si Si4 0.625404 0.839299 0.015309
Si Si5 0.584818 0.663544 0.133455
Si Si6 0.577553 0.836793 0.652981
Si Si7 0.369397 0.165660 0.477727
Si Si8 0.829779 0.159365 0.098531
O O1 0.345459 0.500000 0.580866
O O2 0.371173 0.684037 0.677937
O O3 0.378888 0.755939 0.550342
O O4 0.230308 0.688248 0.565978
O O5 0.033443 0.794012 0.188864
O O6 0.976259 0.749819 0.305787
O O7 0.014545 0.000000 0.265904
O O8 0.191043 0.500000 0.808682
O O9 0.314970 0.669922 0.820246
O O10 0.174108 0.669392 0.706055
O O11 0.169060 0.767569 0.828864
O O12 0.579519 0.762719 0.067355
O O13 0.728043 0.841229 0.055845
O O14 0.599060 0.000000 0.000402
O O15 0.621102 0.747303 0.946860
O O16 0.567627 0.500000 0.112884
O O17 0.577191 0.788246 0.575493
O O18 0.552134 0.000000 0.648069
O O19 0.382983 0.000000 0.489584
O O20 0.859291 0.000000 0.106825
#
# Coordination Sequence:
#
# PCOD9205145 Si02
#       8
#     8   8   8   8   8   8   8   8
#     4   9  18  34  55  77 100 128 164 204 245 290
#     4  10  21  35  51  72 100 133 166 202 245 293
#     4   9  17  31  51  72  95 127 166 205 245 290
#     4   9  16  26  43  70 101 129 159 199 246 293
#     4   9  17  31  51  72  95 127 166 205 245 290
#     4  10  21  35  51  72 100 133 166 202 245 293
#     4   9  18  34  55  77 100 128 164 204 245 290
#     4   9  16  26  43  70 101 129 159 199 246 293
#
# _framework density 21.639695
#
# number of rings (size 3 to 8) (size 9 to 14) (size 15 to 20)
#    0.000    2.750    0.000    1.500    0.000    8.500 
#    0.000    2.500    0.000    8.250    0.000    5.250 
#    0.000    0.000    0.000    0.000    0.000    0.000 
#
# Total GULP energy -178775.896728 kJ/mol
# GULP energy per Si atom -5586.746773 kJ/mol
# Density = 2.159044 g / cm^3
# Si number density = 21.639695 Si / 1000 Ang^3
#
#
#
# Elastic Constant Matrix: (Units=GPa)
#
#
# Indices 1 2 3 4 5 6 
#
# 1 69.8733 28.5143 28.8658 0.0000 -14.8729 0.0000
# 2 28.5143 91.6011 75.1534 0.0000 -30.6035 0.0000
# 3 28.8658 75.1534 148.1365 0.0000 -33.1887 0.0000
# 4 0.0000 0.0000 0.0000 32.0333 0.0000 -7.1517
# 5 -14.8729 -30.6035 -33.1887 0.0000 46.4744 0.0000
# 6 0.0000 0.0000 0.0000 -7.1517 0.0000 18.8555
#
#
#
# Elastic Compliance Matrix: (Units=1/GPa)
#
#
# Indices 1 2 3 4 5 6 
#
# 1 0.016669 -0.003739 -0.000842 0.000000 0.002271 0.000000
# 2 -0.003739 0.021407 -0.008621 0.000000 0.006743 0.000000
# 3 -0.000842 -0.008621 0.011852 0.000000 0.002518 0.000000
# 4 0.000000 0.000000 0.000000 0.034106 0.000000 0.012936
# 5 0.002271 0.006743 0.002518 0.000000 0.028482 0.000000
# 6 0.000000 0.000000 0.000000 0.012936 0.000000 0.057941
#
#
# Mechanical properties :
#
#
# Convention : Reuss Voigt Hill
#
# Bulk Modulus (GPa) = 42.51111 63.85312 53.18212
# Shear Modulus (GPa) = 24.42571 31.27780 27.85175
#
# Velocity S-wave (km/s) = 3.36333 3.80595 3.59146
# Velocity P-wave (km/s) = 5.89663 6.99179 6.46743
#
# Compressibility (1/GPa) = 0.02352326
#
# Stress axis : x y z
#
# Youngs Moduli (GPa) = 59.99231 46.71474 84.37211
#
# Poissons Ratio (x) = 0.17467 0.07108
# Poissons Ratio (y) = 0.22431 0.72735
# Poissons Ratio (z) = 0.05054 0.40271
#
# Static dielectric constant tensor:
#      x y z
#    x 1.863060 0.000000 0.044530 
#    y 0.000000 1.727730 0.000000 
#    z 0.044530 0.000000 1.748790 
# 
# From -- ./inp_files/314136.got.cif
#   From: 2010.05.17/outbox.cif.g08.bks.cpg/sg12_158_cif.got.tgz:314136.got - 2010.06.03 13:09:07.
