data_PCOD9205354
_publ_section_title
;
Structure prediction by ZEFSAII (Michael W. Deem and Ramdas Pophale) SiO2 
 PCOD9205354
Probable space group: C 2/M
;
_chemical_formula_sum "Si O2"
_cell_formula_units_Z 48
_cell_length_a 26.957565
_cell_length_b 7.419834
_cell_length_c 14.697485
_cell_angle_alpha 90.000000
_cell_angle_beta 137.488954
_cell_angle_gamma 90.000000
_cell_volume 1986.518329
_symmetry_space_group_name_H-M "C 2/M"
_symmetry_group_IT_number 12
_symmetry_cell_setting 'monoclinic'
loop_
_space_group_symop_operation_xyz
x,y,z
-x,y,-z
-x,-y,-z
x,-y,z
1/2+x,1/2+y,z
1/2-x,1/2+y,-z
1/2-x,1/2-y,-z
1/2+x,1/2-y,z
loop_
_atom_site_type_symbol
_atom_site_label
_atom_site_fract_x
_atom_site_fract_y
_atom_site_fract_z
Si Si1 0.221991 0.281075 0.806657
Si Si2 0.259606 0.718344 0.652587
Si Si3 0.516866 0.218094 0.920742
Si Si4 0.369058 0.207323 0.650405
Si Si5 0.628080 0.711842 0.922315
Si Si6 0.940609 0.207230 0.349041
O O1 0.218822 0.500000 0.806574
O O2 0.245461 0.230084 0.736390
O O3 0.141057 0.212349 0.718990
O O4 0.289099 0.215857 0.960745
O O5 0.263095 0.500000 0.652408
O O6 0.332302 0.787058 0.700796
O O7 0.191044 0.785357 0.498920
O O8 0.449520 0.286103 0.767426
O O9 0.591124 0.271652 0.971186
O O10 0.515078 0.000000 0.920312
O O11 0.500000 0.280822 0.000000
O O12 0.377652 0.000000 0.633895
O O13 0.635002 0.500000 0.911282
O O14 0.575027 0.789148 0.772223
O O15 0.000000 0.287138 0.500000
O O16 0.965006 0.000000 0.367939
#
# Coordination Sequence:
#
# PCOD9205354 Si02
#       6
#     8   8   8   8   8   8
#     4  10  21  37  59  84 110 143 186 232 280 333
#     4   9  18  32  51  77 107 140 181 227 273 323
#     4  10  21  35  54  82 115 149 187 228 275 331
#     4   9  18  32  49  74 109 144 182 225 268 322
#     4  10  22  39  58  83 115 149 188 232 279 333
#     4  10  23  41  59  83 114 146 186 235 283 334
#
# _framework density 24.162879
#
# number of rings (size 3 to 8) (size 9 to 14) (size 15 to 20)
#    0.000    2.333    0.000    1.500    2.333    3.333 
#    0.000    0.000    0.000    0.000    0.000    0.000 
#    0.000    0.000    0.000    0.000    0.000    0.000 
#
# Total GULP energy -134088.737401 kJ/mol
# GULP energy per Si atom -5587.030725 kJ/mol
# Density = 2.410788 g / cm^3
# Si number density = 24.162879 Si / 1000 Ang^3
#
#
#
# Elastic Constant Matrix: (Units=GPa)
#
#
# Indices 1 2 3 4 5 6 
#
# 1 106.4650 -19.2491 55.0300 0.0000 -0.4101 0.0000
# 2 -19.2491 83.0831 3.4560 0.0000 -3.6257 0.0000
# 3 55.0300 3.4560 145.4995 0.0000 8.7028 0.0000
# 4 0.0000 0.0000 0.0000 -4.4892 0.0000 8.0852
# 5 -0.4101 -3.6257 8.7028 0.0000 43.3959 0.0000
# 6 0.0000 0.0000 0.0000 8.0852 0.0000 3.7525
#
#
#
# Elastic Compliance Matrix: (Units=1/GPa)
#
#
# Indices 1 2 3 4 5 6 
#
# 1 0.012492 0.003156 -0.004881 0.000000 0.001361 0.000000
# 2 0.003156 0.012896 -0.001585 0.000000 0.001425 0.000000
# 3 -0.004881 -0.001585 0.008874 0.000000 -0.001958 0.000000
# 4 0.000000 0.000000 0.000000 -0.045642 0.000000 0.098340
# 5 0.001361 0.001425 -0.001958 0.000000 0.023568 0.000000
# 6 0.000000 0.000000 0.000000 0.098340 0.000000 0.054602
#
#
# Mechanical properties :
#
#
# Convention : Reuss Voigt Hill
#
# Bulk Modulus (GPa) = 36.17770 45.94683 41.06226
# Shear Modulus (GPa) = 60.51639 28.25256 44.38447
#
# Velocity S-wave (km/s) = 5.00995 3.42315 4.29054
# Velocity P-wave (km/s) = 6.96211 5.88903 6.44793
#
# Compressibility (1/GPa) = 0.02764134
#
# Stress axis : x y z
#
# Youngs Moduli (GPa) = 80.05428 77.54588 112.69308
#
# Poissons Ratio (x) = -0.24477 0.55004
# Poissons Ratio (y) = -0.25269 0.17866
# Poissons Ratio (z) = 0.39073 0.12294
#
# Static dielectric constant tensor:
#      x y z
#    x 1.892320 0.000000 -0.027840 
#    y 0.000000 1.915470 0.000000 
#    z -0.027840 0.000000 1.960800 
# 
# From -- ./inp_files/244891.got.cif
#   From: 2010.05.17/outbox.cif.g08.bks.cpg/sg12_123_cif.got.tgz:244891.got - 2010.06.03 13:09:07.
