data_PCOD9205038
_publ_section_title
;
Structure prediction by ZEFSAII (Michael W. Deem and Ramdas Pophale) SiO2 
 PCOD9205038
Probable space group: C 2/M
;
_chemical_formula_sum "Si O2"
_cell_formula_units_Z 36
_cell_length_a 14.777576
_cell_length_b 27.028637
_cell_length_c 7.888388
_cell_angle_alpha 90.000000
_cell_angle_beta 147.054233
_cell_angle_gamma 90.000000
_cell_volume 1713.526057
_symmetry_space_group_name_H-M "C 2/M"
_symmetry_group_IT_number 12
_symmetry_cell_setting 'monoclinic'
loop_
_space_group_symop_operation_xyz
x,y,z
-x,y,-z
-x,-y,-z
x,-y,z
1/2+x,1/2+y,z
1/2-x,1/2+y,-z
1/2-x,1/2-y,-z
1/2+x,1/2-y,z
loop_
_atom_site_type_symbol
_atom_site_label
_atom_site_fract_x
_atom_site_fract_y
_atom_site_fract_z
Si Si1 0.805946 0.626164 0.676186
Si Si2 0.983511 0.944481 0.768166
Si Si3 0.191220 0.148374 0.109156
Si Si4 0.000000 0.703447 0.500000
Si Si5 0.875713 0.780901 0.577672
O O1 0.696576 0.578748 0.553406
O O2 0.761677 0.638216 0.409115
O O3 0.741085 0.674692 0.673611
O O4 0.000000 0.619029 0.000000
O O5 0.007709 0.000000 0.742461
O O6 0.114597 0.902644 0.919442
O O7 0.000000 0.945904 0.000000
O O8 0.338161 0.169504 0.225941
O O9 0.041367 0.188090 0.890895
O O10 0.949600 0.739919 0.570895
O O11 0.750000 0.750000 0.500000
#
# Coordination Sequence:
#
# PCOD9205038 Si02
#       5
#     8   8   8   4   8
#     4  10  21  34  58  86 120 157 198 250 294 356
#     4   8  16  35  61  83 113 154 197 250 308 353
#     4  10  22  40  55  89 121 156 205 244 298 363
#     4  12  24  34  61  88 123 164 204 242 298 356
#     4  11  23  38  60  82 123 164 200 243 298 350
#
# _framework density 21.009309999999999
#
# number of rings (size 3 to 8) (size 9 to 14) (size 15 to 20)
#    0.000    2.000    2.222    2.667    3.111    2.222 
#    0.000    0.556    0.000    0.000    0.000   26.444 
#    0.000    0.000    0.000    0.000    0.000    0.000 
#
# Total GULP energy -100460.798380 kJ/mol
# GULP energy per Si atom -5581.155466 kJ/mol
# Density = 2.096149 g / cm^3
# Si number density = 21.009310 Si / 1000 Ang^3
#
#
#
# Elastic Constant Matrix: (Units=GPa)
#
#
# Indices 1 2 3 4 5 6 
#
# 1 99.5211 59.6839 47.4104 0.0000 37.1576 0.0000
# 2 59.6839 210.7837 91.0492 0.0000 39.0972 0.0000
# 3 47.4104 91.0492 158.9592 0.0000 41.6391 0.0000
# 4 0.0000 0.0000 0.0000 9.1100 0.0000 -3.8782
# 5 37.1576 39.0972 41.6391 0.0000 35.7811 0.0000
# 6 0.0000 0.0000 0.0000 -3.8782 0.0000 2.3816
#
#
#
# Elastic Compliance Matrix: (Units=1/GPa)
#
#
# Indices 1 2 3 4 5 6 
#
# 1 0.017019 -0.001980 0.000174 0.000000 -0.015713 0.000000
# 2 -0.001980 0.006929 -0.002781 0.000000 -0.002278 0.000000
# 3 0.000174 -0.002781 0.010190 0.000000 -0.008999 0.000000
# 4 0.000000 0.000000 0.000000 0.357809 0.000000 0.582656
# 5 -0.015713 -0.002278 -0.008999 0.000000 0.057227 0.000000
# 6 0.000000 0.000000 0.000000 0.582656 0.000000 1.368687
#
#
# Mechanical properties :
#
#
# Convention : Reuss Voigt Hill
#
# Bulk Modulus (GPa) = 40.05901 96.17234 68.11568
# Shear Modulus (GPa) = 2.72427 27.52922 15.12674
#
# Velocity S-wave (km/s) = 1.13996 3.62378 2.68620
# Velocity P-wave (km/s) = 4.56523 7.96144 6.48945
#
# Compressibility (1/GPa) = 0.02496317
#
# Stress axis : x y z
#
# Youngs Moduli (GPa) = 58.75709 144.32536 98.13991
#
# Poissons Ratio (x) = 0.28570 -0.01706
# Poissons Ratio (y) = 0.11631 0.27297
# Poissons Ratio (z) = -0.01021 0.40144
#
# Static dielectric constant tensor:
#      x y z
#    x 1.809210 0.000000 -0.051980 
#    y 0.000000 1.755000 0.000000 
#    z -0.051980 0.000000 1.647380 
# 
# From -- ./inp_files/40172.got.cif
#   From: 2010.05.17/outbox.cif.g08.bks.cpg/sg12_21_cif.got.tgz:40172.got - 2010.06.03 13:09:07.
