data_PCOD9205719
_publ_section_title
;
Structure prediction by ZEFSAII (Michael W. Deem and Ramdas Pophale) SiO2 
 PCOD9205719
Probable space group: C 2/M
;
_chemical_formula_sum "Si O2"
_cell_formula_units_Z 50
_cell_length_a 19.989199
_cell_length_b 17.856327
_cell_length_c 7.169891
_cell_angle_alpha 90.000000
_cell_angle_beta 137.413040
_cell_angle_gamma 90.000000
_cell_volume 1731.815641
_symmetry_space_group_name_H-M "C 2/M"
_symmetry_group_IT_number 12
_symmetry_cell_setting 'monoclinic'
loop_
_space_group_symop_operation_xyz
x,y,z
-x,y,-z
-x,-y,-z
x,-y,z
1/2+x,1/2+y,z
1/2-x,1/2+y,-z
1/2-x,1/2-y,-z
1/2+x,1/2-y,z
loop_
_atom_site_type_symbol
_atom_site_label
_atom_site_fract_x
_atom_site_fract_y
_atom_site_fract_z
Si Si1 0.858953 0.919901 0.180407
Si Si2 0.636536 0.738213 0.838818
Si Si3 0.598167 0.415150 0.322914
Si Si4 0.500000 0.000000 0.500000
Si Si5 0.113064 0.580946 0.307218
Si Si6 0.839884 0.394107 0.989409
Si Si7 0.089686 0.251119 0.331906
O O1 0.871655 0.844223 0.092800
O O2 0.925818 0.919373 0.503584
O O3 0.862766 0.000000 0.092023
O O4 0.751504 0.911272 0.062544
O O5 0.628605 0.807760 0.957686
O O6 0.572120 0.742015 0.517744
O O7 0.750000 0.750000 0.000000
O O8 0.637702 0.500000 0.365467
O O9 0.643771 0.329436 0.399453
O O10 0.500000 0.410826 0.000000
O O11 0.567353 0.064082 0.737524
O O12 0.122373 0.500000 0.434664
O O13 0.133759 0.663682 0.427930
O O14 0.178061 0.578237 0.255175
O O15 0.000000 0.581221 0.000000
O O16 0.000000 0.253551 0.000000
#
# Coordination Sequence:
#
# PCOD9205719 Si02
#       7
#     8   8   8   2   8   8   8
#     4   9  16  34  57  84 117 150 193 243 301 358
#     4   9  20  36  56  83 117 157 197 245 304 361
#     4   8  14  27  52  79 102 136 184 236 291 355
#     4  12  24  32  58  88 116 160 210 246 292 360
#     4  10  21  36  51  77 115 157 202 247 296 346
#     4  11  22  36  55  85 120 162 204 248 296 363
#     4   9  18  32  51  79 109 142 189 242 294 345
#
# _framework density 28.871434000000001
#
# number of rings (size 3 to 8) (size 9 to 14) (size 15 to 20)
#    0.000    2.560    1.600    0.000    4.480    0.000 
#    0.000    7.200    0.000    0.960    0.000    0.560 
#    0.000    0.000    0.000    0.000    0.000    0.000 
#
# Total GULP energy -139499.263989 kJ/mol
# GULP energy per Si atom -5579.970560 kJ/mol
# Density = 2.880572 g / cm^3
# Si number density = 28.871434 Si / 1000 Ang^3
#
#
#
# Elastic Constant Matrix: (Units=GPa)
#
#
# Indices 1 2 3 4 5 6 
#
# 1 81.1047 44.3380 32.3705 0.0000 -3.0479 0.0000
# 2 44.3380 421.3836 27.8944 0.0000 3.5993 0.0000
# 3 32.3705 27.8944 94.9190 0.0000 -6.4414 0.0000
# 4 0.0000 0.0000 0.0000 43.4263 0.0000 -3.4864
# 5 -3.0479 3.5993 -6.4414 0.0000 25.3739 0.0000
# 6 0.0000 0.0000 0.0000 -3.4864 0.0000 40.0949
#
#
#
# Elastic Compliance Matrix: (Units=1/GPa)
#
#
# Indices 1 2 3 4 5 6 
#
# 1 0.014912 -0.001267 -0.004660 0.000000 0.000788 0.000000
# 2 -0.001267 0.002535 -0.000354 0.000000 -0.000602 0.000000
# 3 -0.004660 -0.000354 0.012407 0.000000 0.002640 0.000000
# 4 0.000000 0.000000 0.000000 0.023189 0.000000 0.002016
# 5 0.000788 -0.000602 0.002640 0.000000 0.040261 0.000000
# 6 0.000000 0.000000 0.000000 0.002016 0.000000 0.025116
#
#
# Mechanical properties :
#
#
# Convention : Reuss Voigt Hill
#
# Bulk Modulus (GPa) = 57.82539 89.62368 73.72453
# Shear Modulus (GPa) = 36.56412 54.63265 45.59838
#
# Velocity S-wave (km/s) = 3.56258 4.35475 3.97843
# Velocity P-wave (km/s) = 6.08232 7.50965 6.83336
#
# Compressibility (1/GPa) = 0.01729344
#
# Stress axis : x y z
#
# Youngs Moduli (GPa) = 67.06064 394.47302 80.59689
#
# Poissons Ratio (x) = 0.49992 0.37554
# Poissons Ratio (y) = 0.08499 0.02850
# Poissons Ratio (z) = 0.31247 0.13949
#
# Static dielectric constant tensor:
#      x y z
#    x 2.184240 0.000000 0.113170 
#    y 0.000000 2.204300 0.000000 
#    z 0.113170 0.000000 2.175080 
# 
# From -- ./inp_files/105861.got.cif
#   From: 2010.05.17/outbox.cif.g08.bks.cpg/sg12_53_cif.got.tgz:105861.got - 2010.06.03 13:09:07.
