data_PCOD9205775
_publ_section_title
;
Structure prediction by ZEFSAII (Michael W. Deem and Ramdas Pophale) SiO2 
 PCOD9205775
Probable space group: C 2/M
;
_chemical_formula_sum "Si O2"
_cell_formula_units_Z 48
_cell_length_a 12.701729
_cell_length_b 29.456108
_cell_length_c 7.318457
_cell_angle_alpha 90.000000
_cell_angle_beta 125.080952
_cell_angle_gamma 90.000000
_cell_volume 2240.742509
_symmetry_space_group_name_H-M "C 2/M"
_symmetry_group_IT_number 12
_symmetry_cell_setting 'monoclinic'
loop_
_space_group_symop_operation_xyz
x,y,z
-x,y,-z
-x,-y,-z
x,-y,z
1/2+x,1/2+y,z
1/2-x,1/2+y,-z
1/2-x,1/2-y,-z
1/2+x,1/2-y,z
loop_
_atom_site_type_symbol
_atom_site_label
_atom_site_fract_x
_atom_site_fract_y
_atom_site_fract_z
Si Si1 0.250320 0.551304 0.039774
Si Si2 0.496315 0.392433 0.272368
Si Si3 0.250467 0.946625 0.515733
Si Si4 0.504475 0.892304 0.780516
Si Si5 0.101132 0.200338 0.764377
Si Si6 0.898787 0.299535 0.062300
O O1 0.249624 0.500000 0.978061
O O2 0.377431 0.576213 0.103188
O O3 0.249967 0.551741 0.261685
O O4 0.124114 0.576654 0.849819
O O5 0.500000 0.391018 0.500000
O O6 0.625960 0.416928 0.339368
O O7 0.459709 0.341138 0.180320
O O8 0.375411 0.917092 0.588891
O O9 0.250370 0.000000 0.458788
O O10 0.540397 0.840961 0.760801
O O11 0.500000 0.890896 0.000000
O O12 0.107578 0.249943 0.857379
O O13 0.000000 0.205083 0.500000
O O14 0.250086 0.187445 0.862588
O O15 0.000000 0.294758 0.000000
#
# Coordination Sequence:
#
# PCOD9205775 Si02
#       6
#     8   8   8   8   8   8
#     4   9  14  22  37  58  87 123 159 189 236 297
#     4   9  16  26  40  62  91 128 158 198 244 291
#     4   9  16  24  37  60  93 127 161 195 236 295
#     4   9  16  26  40  62  91 128 158 198 244 291
#     4  10  21  36  53  75 103 134 171 212 253 300
#     4  10  21  36  53  75 103 134 171 212 253 300
#
# _framework density 21.421469999999999
#
# number of rings (size 3 to 8) (size 9 to 14) (size 15 to 20)
#    0.000    2.667    1.667    1.000    7.000    4.667 
#    0.000    0.000    0.000    0.000    0.000    0.000 
#    0.000    8.000    0.000    0.000    0.000    0.000 
#
# Total GULP energy -133835.243640 kJ/mol
# GULP energy per Si atom -5576.468485 kJ/mol
# Density = 2.137271 g / cm^3
# Si number density = 21.421470 Si / 1000 Ang^3
#
#
#
# Elastic Constant Matrix: (Units=GPa)
#
#
# Indices 1 2 3 4 5 6 
#
# 1 85.9770 62.7254 82.4691 0.0000 45.9488 0.0000
# 2 62.7254 221.4566 61.3611 0.0000 51.2930 0.0000
# 3 82.4691 61.3611 83.6539 0.0000 41.3013 0.0000
# 4 0.0000 0.0000 0.0000 20.4825 0.0000 18.8702
# 5 45.9488 51.2930 41.3013 0.0000 62.4525 0.0000
# 6 0.0000 0.0000 0.0000 18.8702 0.0000 21.9169
#
#
#
# Elastic Compliance Matrix: (Units=1/GPa)
#
#
# Indices 1 2 3 4 5 6 
#
# 1 0.248497 0.000567 -0.229992 0.000000 -0.031196 0.000000
# 2 0.000567 0.006027 -0.003459 0.000000 -0.003079 0.000000
# 3 -0.229992 -0.003459 0.232042 0.000000 0.018600 0.000000
# 4 0.000000 0.000000 0.000000 0.236094 0.000000 -0.203273
# 5 -0.031196 -0.003079 0.018600 0.000000 0.029193 0.000000
# 6 0.000000 0.000000 0.000000 -0.203273 0.000000 0.220642
#
#
# Mechanical properties :
#
#
# Convention : Reuss Voigt Hill
#
# Bulk Modulus (GPa) = 48.08011 89.35540 68.71776
# Shear Modulus (GPa) = 3.45974 33.27251 18.36612
#
# Velocity S-wave (km/s) = 1.27224 3.94538 2.93126
# Velocity P-wave (km/s) = 4.96504 7.90938 6.60341
#
# Compressibility (1/GPa) = 0.02079862
#
# Stress axis : x y z
#
# Youngs Moduli (GPa) = 4.02419 165.92915 4.30956
#
# Poissons Ratio (x) = -0.09409 0.99116
# Poissons Ratio (y) = -0.00228 0.01491
# Poissons Ratio (z) = 0.92553 0.57402
#
# Static dielectric constant tensor:
#      x y z
#    x 1.818440 0.000000 -0.041390 
#    y 0.000000 1.780270 0.000000 
#    z -0.041390 0.000000 1.823660 
# 
# From -- ./inp_files/68027.got.cif
#   From: 2010.05.17/outbox.cif.g08.bks.cpg/sg12_35_cif.got.tgz:68027.got - 2010.06.03 13:09:07.
