data_PCOD9205770
_publ_section_title
;
Structure prediction by ZEFSAII (Michael W. Deem and Ramdas Pophale) SiO2 
 PCOD9205770
Probable space group: C 2/M
;
_chemical_formula_sum "Si O2"
_cell_formula_units_Z 58
_cell_length_a 16.375097
_cell_length_b 12.659791
_cell_length_c 27.396889
_cell_angle_alpha 90.000000
_cell_angle_beta 147.630629
_cell_angle_gamma 90.000000
_cell_volume 3040.675305
_symmetry_space_group_name_H-M "C 2/M"
_symmetry_group_IT_number 12
_symmetry_cell_setting 'monoclinic'
loop_
_space_group_symop_operation_xyz
x,y,z
-x,y,-z
-x,-y,-z
x,-y,z
1/2+x,1/2+y,z
1/2-x,1/2+y,-z
1/2-x,1/2-y,-z
1/2+x,1/2-y,z
loop_
_atom_site_type_symbol
_atom_site_label
_atom_site_fract_x
_atom_site_fract_y
_atom_site_fract_z
Si Si1 0.641032 0.234216 0.317609
Si Si2 0.269899 0.691546 0.219134
Si Si3 0.006477 0.377597 0.668871
Si Si4 0.115456 0.684774 0.491220
Si Si5 0.545028 0.122152 0.965290
Si Si6 0.603070 0.379547 0.617462
Si Si7 0.500000 0.000000 0.500000
Si Si8 0.628842 0.374847 0.838900
O O1 0.556076 0.151240 0.309482
O O2 0.728209 0.312152 0.399603
O O3 0.762015 0.174406 0.345374
O O4 0.518782 0.303626 0.226466
O O5 0.343454 0.806688 0.263106
O O6 0.341431 0.623768 0.298607
O O7 0.325366 0.647412 0.194681
O O8 0.086867 0.687447 0.127661
O O9 0.036730 0.500000 0.679465
O O10 0.884546 0.341958 0.566023
O O11 0.039113 0.799891 0.458999
O O12 0.015139 0.593656 0.465745
O O13 0.533151 0.000000 0.943101
O O14 0.500000 0.123543 0.000000
O O15 0.721895 0.154568 0.053878
O O16 0.571769 0.500000 0.587529
O O17 0.601300 0.500000 0.830681
#
# Coordination Sequence:
#
# PCOD9205770 Si02
#       8
#     8   8   8   8   8   8   2   8
#     4  11  22  35  49  78 106 141 172 203 263 305
#     4   9  18  33  55  79 101 132 174 214 261 299
#     4  10  21  36  53  74 106 137 173 213 257 311
#     4  11  23  38  57  77 100 142 174 222 260 301
#     4   8  13  27  52  79 102 127 162 215 263 298
#     4  11  22  36  54  78 105 138 178 211 253 310
#     4  12  20  40  58  76 104 128 182 226 264 296
#     4   9  18  31  54  81 104 130 170 217 261 305
#
# _framework density 19.07471
#
# number of rings (size 3 to 8) (size 9 to 14) (size 15 to 20)
#    0.000    2.069    2.069    2.897    0.966    1.655 
#    0.000    0.690    0.000   11.172    0.000    0.000 
#    0.000    0.000    0.000    0.000    0.000    0.000 
#
# Total GULP energy -161529.843468 kJ/mol
# GULP energy per Si atom -5569.994602 kJ/mol
# Density = 1.903130 g / cm^3
# Si number density = 19.074710 Si / 1000 Ang^3
#
#
#
# Elastic Constant Matrix: (Units=GPa)
#
#
# Indices 1 2 3 4 5 6 
#
# 1 21.9772 4.4220 -6.2457 0.0000 1.2555 0.0000
# 2 4.4220 113.3719 28.5143 0.0000 15.6140 0.0000
# 3 -6.2457 28.5143 84.7874 0.0001 15.4404 0.0000
# 4 0.0000 0.0000 0.0001 11.7757 0.0000 -4.9323
# 5 1.2555 15.6140 15.4404 0.0000 17.2524 0.0000
# 6 0.0000 0.0000 0.0000 -4.9323 0.0000 8.9175
#
#
#
# Elastic Compliance Matrix: (Units=1/GPa)
#
#
# Indices 1 2 3 4 5 6 
#
# 1 0.047889 -0.002386 0.005462 0.000000 -0.006214 0.000000
# 2 -0.002386 0.010507 -0.002400 0.000000 -0.007187 0.000000
# 3 0.005462 -0.002400 0.015150 0.000000 -0.011784 0.000000
# 4 0.000000 0.000000 0.000000 0.110527 0.000000 0.061133
# 5 -0.006214 -0.007187 -0.011784 0.000000 0.075466 0.000000
# 6 0.000000 0.000000 0.000000 0.061133 0.000000 0.145952
#
#
# Mechanical properties :
#
#
# Convention : Reuss Voigt Hill
#
# Bulk Modulus (GPa) = 13.35176 30.39085 21.87130
# Shear Modulus (GPa) = 11.65214 20.48550 16.06882
#
# Velocity S-wave (km/s) = 2.47426 3.28069 2.90559
# Velocity P-wave (km/s) = 3.89583 5.50615 4.76944
#
# Compressibility (1/GPa) = 0.07489651
#
# Stress axis : x y z
#
# Youngs Moduli (GPa) = 20.88167 95.17274 66.00799
#
# Poissons Ratio (x) = 0.22706 -0.36051
# Poissons Ratio (y) = 0.04982 0.15845
# Poissons Ratio (z) = -0.11405 0.22846
#
# Static dielectric constant tensor:
#      x y z
#    x 1.721490 0.000000 0.013730 
#    y 0.000000 1.639420 0.000000 
#    z 0.013730 0.000000 1.695620 
# 
# From -- ./inp_files/378883.got.cif
#   From: 2010.05.17/outbox.cif.g08.bks.cpg/sg12_190_cif.got.tgz:378883.got - 2010.06.03 13:09:07.
