data_PCOD9205688
_publ_section_title
;
Structure prediction by ZEFSAII (Michael W. Deem and Ramdas Pophale) SiO2 
 PCOD9205688
Probable space group: C 2/M
;
_chemical_formula_sum "Si O2"
_cell_formula_units_Z 44
_cell_length_a 14.626712
_cell_length_b 21.988376
_cell_length_c 8.038371
_cell_angle_alpha 90.000000
_cell_angle_beta 130.753840
_cell_angle_gamma 90.000000
_cell_volume 1958.405963
_symmetry_space_group_name_H-M "C 2/M"
_symmetry_group_IT_number 12
_symmetry_cell_setting 'monoclinic'
loop_
_space_group_symop_operation_xyz
x,y,z
-x,y,-z
-x,-y,-z
x,-y,z
1/2+x,1/2+y,z
1/2-x,1/2+y,-z
1/2-x,1/2-y,-z
1/2+x,1/2-y,z
loop_
_atom_site_type_symbol
_atom_site_label
_atom_site_fract_x
_atom_site_fract_y
_atom_site_fract_z
Si Si1 0.500000 0.876955 0.000000
Si Si2 0.016868 0.840707 0.206852
Si Si3 0.342380 0.430751 0.178079
Si Si4 0.109850 0.742000 0.756895
Si Si5 0.754605 0.172251 0.316228
Si Si6 0.407730 0.097267 0.240885
O O1 0.614547 0.835702 0.188167
O O2 0.464989 0.914095 0.125408
O O3 0.153403 0.823524 0.420595
O O4 0.957147 0.893885 0.246680
O O5 0.933571 0.782021 0.140460
O O6 0.000000 0.860441 0.000000
O O7 0.369539 0.500000 0.251209
O O8 0.293516 0.390526 0.272510
O O9 0.227017 0.429773 0.914650
O O10 0.218260 0.775024 0.787079
O O11 0.114539 0.670197 0.781728
O O12 0.000000 0.753807 0.500000
O O13 0.500000 0.081522 0.500000
#
# Coordination Sequence:
#
# PCOD9205688 Si02
#       6
#     4   8   8   8   8   8
#     4  10  22  36  61  90 118 164 205 238 306 376
#     4  10  21  35  62  94 123 154 200 257 308 364
#     4  10  22  40  62  85 115 166 211 251 310 356
#     4   8  17  38  59  87 122 162 199 248 309 365
#     4   9  20  40  60  88 126 154 208 247 305 380
#     4  10  22  40  63  88 128 164 205 256 307 367
#
# _framework density 22.467251000000001
#
# number of rings (size 3 to 8) (size 9 to 14) (size 15 to 20)
#    0.000    2.545    0.000    1.636    3.818    8.727 
#    0.000   10.000    0.000    0.000    0.000    0.000 
#    0.000    0.000    0.000    0.000    0.000    0.000 
#
# Total GULP energy -122886.823693 kJ/mol
# GULP energy per Si atom -5585.764713 kJ/mol
# Density = 2.241611 g / cm^3
# Si number density = 22.467251 Si / 1000 Ang^3
#
#
#
# Elastic Constant Matrix: (Units=GPa)
#
#
# Indices 1 2 3 4 5 6 
#
# 1 77.9072 9.9778 36.4636 0.0000 16.8323 0.0000
# 2 9.9778 104.4817 -8.8796 0.0000 7.0122 0.0000
# 3 36.4636 -8.8796 130.9007 0.0000 27.9479 0.0000
# 4 0.0000 0.0000 0.0000 12.5921 0.0000 -1.3828
# 5 16.8323 7.0122 27.9479 0.0000 44.4426 0.0000
# 6 0.0000 0.0000 0.0000 -1.3828 0.0000 -1.6589
#
#
#
# Elastic Compliance Matrix: (Units=1/GPa)
#
#
# Indices 1 2 3 4 5 6 
#
# 1 0.015487 -0.001575 -0.003721 0.000000 -0.003277 0.000000
# 2 -0.001575 0.009982 0.001530 0.000000 -0.001941 0.000000
# 3 -0.003721 0.001530 0.009853 0.000000 -0.005028 0.000000
# 4 0.000000 0.000000 0.000000 0.072755 0.000000 -0.060649
# 5 -0.003277 -0.001941 -0.005028 0.000000 0.027210 0.000000
# 6 0.000000 0.000000 0.000000 -0.060649 0.000000 -0.552269
#
#
# Mechanical properties :
#
#
# Convention : Reuss Voigt Hill
#
# Bulk Modulus (GPa) = 35.98469 43.15702 39.57086
# Shear Modulus (GPa) = -12.49421 29.45702 8.48140
#
# Velocity S-wave (km/s) = -2.36075 3.62485 1.94505
# Velocity P-wave (km/s) = 2.93605 6.06382 4.76395
#
# Compressibility (1/GPa) = 0.02778959
#
# Stress axis : x y z
#
# Youngs Moduli (GPa) = 64.56912 100.18247 101.48811
#
# Poissons Ratio (x) = 0.15782 0.37767
# Poissons Ratio (y) = 0.10172 -0.15530
# Poissons Ratio (z) = 0.24028 -0.15331
#
# Static dielectric constant tensor:
#      x y z
#    x 1.850100 0.000000 0.026890 
#    y 0.000000 1.801430 0.000000 
#    z 0.026890 0.000000 1.938290 
# 
# From -- ./inp_files/65567.got.cif
#   From: 2010.05.17/outbox.cif.g08.bks.cpg/sg12_33_cif.got.tgz:65567.got - 2010.06.03 13:09:07.
