data_PCOD9205385
_publ_section_title
;
Structure prediction by ZEFSAII (Michael W. Deem and Ramdas Pophale) SiO2 
 PCOD9205385
Probable space group: C 2/M
;
_chemical_formula_sum "Si O2"
_cell_formula_units_Z 44
_cell_length_a 5.617148
_cell_length_b 29.137534
_cell_length_c 19.215228
_cell_angle_alpha 90.000000
_cell_angle_beta 45.455477
_cell_angle_gamma 90.000000
_cell_volume 2241.425760
_symmetry_space_group_name_H-M "C 2/M"
_symmetry_group_IT_number 12
_symmetry_cell_setting 'monoclinic'
loop_
_space_group_symop_operation_xyz
x,y,z
-x,y,-z
-x,-y,-z
x,-y,z
1/2+x,1/2+y,z
1/2-x,1/2+y,-z
1/2-x,1/2-y,-z
1/2+x,1/2-y,z
loop_
_atom_site_type_symbol
_atom_site_label
_atom_site_fract_x
_atom_site_fract_y
_atom_site_fract_z
Si Si1 0.538939 0.375993 0.299193
Si Si2 0.962407 0.050079 0.590203
Si Si3 0.671979 0.448334 0.771073
Si Si4 0.894930 0.500000 0.940903
Si Si5 0.279807 0.090786 0.890421
Si Si6 0.277344 0.724390 0.382397
O O1 0.430282 0.405169 0.389707
O O2 0.394558 0.407382 0.267683
O O3 0.399936 0.325246 0.332337
O O4 0.938578 0.376722 0.201165
O O5 0.573372 0.047140 0.688672
O O6 0.000000 0.055040 0.500000
O O7 0.111007 0.000000 0.580383
O O8 0.549007 0.500000 0.779877
O O9 0.584566 0.432725 0.866610
O O10 0.978805 0.549553 0.888984
O O11 0.500000 0.500000 0.000000
O O12 0.000000 0.500000 0.000000
O O13 0.000000 0.110375 0.000000
O O14 0.588138 0.750021 0.357219
O O15 0.000000 0.719101 0.500000
#
# Coordination Sequence:
#
# PCOD9205385 Si02
#       6
#     8   8   8   4   8   8
#     4  11  24  35  65  90 122 168 215 270 325 388
#     4   9  20  36  52  83 131 173 212 255 307 386
#     4  10  21  35  54  89 128 172 220 258 308 377
#     4  10  22  36  58  86 128 181 224 263 306 356
#     4  10  23  37  56  88 129 176 219 265 309 371
#     4  10  25  47  72  98 125 158 209 276 341 398
#
# _framework density 19.630362999999999
#
# number of rings (size 3 to 8) (size 9 to 14) (size 15 to 20)
#    0.000    2.000    0.909    0.545   15.273    0.727 
#    0.000    2.727    0.000    1.091    0.000    0.000 
#    0.000    0.000    0.000    0.000    0.000    0.000 
#
# Total GULP energy -122675.539638 kJ/mol
# GULP energy per Si atom -5576.160893 kJ/mol
# Density = 1.958568 g / cm^3
# Si number density = 19.630363 Si / 1000 Ang^3
#
#
#
# Elastic Constant Matrix: (Units=GPa)
#
#
# Indices 1 2 3 4 5 6 
#
# 1 96.3262 73.6969 22.5291 0.0000 14.0983 0.0000
# 2 73.6969 169.8039 47.1947 0.0000 8.5229 0.0000
# 3 22.5291 47.1947 80.4582 0.0000 13.5193 0.0000
# 4 0.0000 0.0000 0.0000 30.1957 0.0000 -9.7322
# 5 14.0983 8.5229 13.5193 0.0000 33.8553 0.0000
# 6 0.0000 0.0000 0.0000 -9.7322 0.0000 24.0408
#
#
#
# Elastic Compliance Matrix: (Units=1/GPa)
#
#
# Indices 1 2 3 4 5 6 
#
# 1 0.016374 -0.006946 0.000366 0.000000 -0.005216 0.000000
# 2 -0.006946 0.009984 -0.004261 0.000000 0.002081 0.000000
# 3 0.000366 -0.004261 0.015726 0.000000 -0.005360 0.000000
# 4 0.000000 0.000000 0.000000 0.038087 0.000000 0.015418
# 5 -0.005216 0.002081 -0.005360 0.000000 0.033326 0.000000
# 6 0.000000 0.000000 0.000000 0.015418 0.000000 0.047838
#
#
# Mechanical properties :
#
#
# Convention : Reuss Voigt Hill
#
# Bulk Modulus (GPa) = 49.01565 70.38109 59.69837
# Shear Modulus (GPa) = 26.34126 31.16284 28.75205
#
# Velocity S-wave (km/s) = 3.66712 3.98864 3.83126
# Velocity P-wave (km/s) = 6.55392 7.55932 7.07451
#
# Compressibility (1/GPa) = 0.02040165
#
# Stress axis : x y z
#
# Youngs Moduli (GPa) = 61.07388 100.16314 63.58842
#
# Poissons Ratio (x) = 0.69576 -0.02328
# Poissons Ratio (y) = 0.42424 0.27094
# Poissons Ratio (z) = -0.02236 0.42677
#
# Static dielectric constant tensor:
#      x y z
#    x 1.835280 0.000000 -0.039200 
#    y 0.000000 1.663900 0.000000 
#    z -0.039200 0.000000 1.761170 
# 
# From -- ./inp_files/253549.got.cif
#   From: 2010.05.17/outbox.cif.g08.bks.cpg/sg12_127_cif.got.tgz:253549.got - 2010.06.03 13:09:07.
