data_PCOD9205219
_publ_section_title
;
Structure prediction by ZEFSAII (Michael W. Deem and Ramdas Pophale) SiO2 
 PCOD9205219
Probable space group: C 2/M
;
_chemical_formula_sum "Si O2"
_cell_formula_units_Z 64
_cell_length_a 15.010219
_cell_length_b 7.527558
_cell_length_c 21.947923
_cell_angle_alpha 90.000000
_cell_angle_beta 86.251053
_cell_angle_gamma 90.000000
_cell_volume 2474.595594
_symmetry_space_group_name_H-M "C 2/M"
_symmetry_group_IT_number 12
_symmetry_cell_setting 'monoclinic'
loop_
_space_group_symop_operation_xyz
x,y,z
-x,y,-z
-x,-y,-z
x,-y,z
1/2+x,1/2+y,z
1/2-x,1/2+y,-z
1/2-x,1/2-y,-z
1/2+x,1/2-y,z
loop_
_atom_site_type_symbol
_atom_site_label
_atom_site_fract_x
_atom_site_fract_y
_atom_site_fract_z
Si Si1 0.337906 0.779249 0.352447
Si Si2 0.709462 0.792665 0.770747
Si Si3 0.189814 0.792160 0.444833
Si Si4 0.918977 0.704820 0.041107
Si Si5 0.007207 0.695477 0.405968
Si Si6 0.757207 0.781879 0.901641
Si Si7 0.083046 0.208340 0.273769
Si Si8 0.455942 0.284323 0.860025
O O1 0.349235 0.719098 0.282099
O O2 0.244533 0.717753 0.384943
O O3 0.413868 0.711785 0.395202
O O4 0.339949 0.000000 0.350070
O O5 0.719430 0.717654 0.837735
O O6 0.810455 0.784745 0.740293
O O7 0.685918 0.000000 0.779554
O O8 0.250000 0.750000 0.500000
O O9 0.085706 0.748404 0.447869
O O10 0.191877 0.000000 0.436358
O O11 0.911064 0.500000 0.021358
O O12 0.818750 0.779913 0.047476
O O13 0.961003 0.709853 0.106798
O O14 0.000000 0.792311 0.000000
O O15 0.981041 0.500000 0.426232
O O16 0.050973 0.697737 0.336198
O O17 0.861655 0.731577 0.896793
O O18 0.756422 0.000000 0.902106
O O19 0.045486 0.272484 0.210386
O O20 0.060808 0.000000 0.282620
O O21 0.458796 0.500000 0.860205
#
# Coordination Sequence:
#
# PCOD9205219 Si02
#       8
#     8   8   8   8   8   8   8   8
#     4   9  19  34  56  83 111 147 185 217 263 332
#     4   8  13  28  54  78 101 141 186 214 256 329
#     4  11  23  43  64  81 111 151 188 228 271 320
#     4  10  21  35  52  78 110 143 182 230 280 325
#     4  11  22  35  57  90 116 143 186 227 269 325
#     4   8  16  31  52  75 105 144 183 218 265 336
#     4   9  17  33  56  80 111 145 180 225 277 327
#     4   9  19  35  55  78 104 143 189 226 269 329
#
# _framework density 25.862812999999999
#
# number of rings (size 3 to 8) (size 9 to 14) (size 15 to 20)
#    0.000    2.625    1.250    2.250    1.750    1.750 
#    0.000    5.625    0.000    0.750    0.000    0.000 
#    0.000    0.000    0.000    0.000    0.000    0.000 
#
# Total GULP energy -178704.033550 kJ/mol
# GULP energy per Si atom -5584.501048 kJ/mol
# Density = 2.580395 g / cm^3
# Si number density = 25.862813 Si / 1000 Ang^3
#
#
#
# Elastic Constant Matrix: (Units=GPa)
#
#
# Indices 1 2 3 4 5 6 
#
# 1 135.5630 2.5569 23.2528 0.0000 11.3450 0.0000
# 2 2.5569 68.5737 -2.7330 0.0000 1.5049 0.0000
# 3 23.2528 -2.7330 57.5786 0.0000 13.6351 0.0000
# 4 0.0000 0.0000 0.0000 12.8428 0.0000 4.6987
# 5 11.3450 1.5049 13.6351 0.0000 53.9611 0.0000
# 6 0.0000 0.0000 0.0000 4.6987 0.0000 10.0206
#
#
#
# Elastic Compliance Matrix: (Units=1/GPa)
#
#
# Indices 1 2 3 4 5 6 
#
# 1 0.007979 -0.000398 -0.003028 0.000000 -0.000901 0.000000
# 2 -0.000398 0.014650 0.000993 0.000000 -0.000576 0.000000
# 3 -0.003028 0.000993 0.019670 0.000000 -0.004361 0.000000
# 4 0.000000 0.000000 0.000000 0.093989 0.000000 -0.044072
# 5 -0.000901 -0.000576 -0.004361 0.000000 0.019839 0.000000
# 6 0.000000 0.000000 0.000000 -0.044072 0.000000 0.120460
#
#
# Mechanical properties :
#
#
# Convention : Reuss Voigt Hill
#
# Bulk Modulus (GPa) = 26.71511 34.20763 30.46137
# Shear Modulus (GPa) = 17.01072 31.27413 24.14243
#
# Velocity S-wave (km/s) = 2.56741 3.48117 3.05861
# Velocity P-wave (km/s) = 4.37501 5.42341 4.92717
#
# Compressibility (1/GPa) = 0.03743200
#
# Stress axis : x y z
#
# Youngs Moduli (GPa) = 125.33014 68.25984 50.83821
#
# Poissons Ratio (x) = 0.02720 0.15392
# Poissons Ratio (y) = 0.04993 -0.05046
# Poissons Ratio (z) = 0.37946 -0.06775
#
# Static dielectric constant tensor:
#      x y z
#    x 2.045980 0.000000 -0.006770 
#    y 0.000000 1.960080 0.000000 
#    z -0.006770 0.000000 2.084750 
# 
# From -- ./inp_files/338686.got.cif
#   From: 2010.05.17/outbox.cif.g08.bks.cpg/sg12_170_cif.got.tgz:338686.got - 2010.06.03 13:09:07.
