data_PCOD9205749
_publ_section_title
;
Structure prediction by ZEFSAII (Michael W. Deem and Ramdas Pophale) SiO2 
 PCOD9205749
Probable space group: C 2/M
;
_chemical_formula_sum "Si O2"
_cell_formula_units_Z 44
_cell_length_a 13.131448
_cell_length_b 19.674678
_cell_length_c 8.121419
_cell_angle_alpha 90.000000
_cell_angle_beta 94.874012
_cell_angle_gamma 90.000000
_cell_volume 2090.638222
_symmetry_space_group_name_H-M "C 2/M"
_symmetry_group_IT_number 12
_symmetry_cell_setting 'monoclinic'
loop_
_space_group_symop_operation_xyz
x,y,z
-x,y,-z
-x,-y,-z
x,-y,z
1/2+x,1/2+y,z
1/2-x,1/2+y,-z
1/2-x,1/2-y,-z
1/2+x,1/2-y,z
loop_
_atom_site_type_symbol
_atom_site_label
_atom_site_fract_x
_atom_site_fract_y
_atom_site_fract_z
Si Si1 0.000000 0.832185 0.500000
Si Si2 0.579558 0.921875 0.872588
Si Si3 0.895856 0.921636 0.750270
Si Si4 0.195399 0.345260 0.637504
Si Si5 0.801508 0.076738 0.077680
Si Si6 0.712365 0.699293 0.672020
O O1 0.973069 0.876997 0.656225
O O2 0.896630 0.793924 0.437673
O O3 0.596311 0.875350 0.714008
O O4 0.551825 0.000000 0.824823
O O5 0.500000 0.897258 0.000000
O O6 0.690261 0.923731 0.975614
O O7 0.783834 0.901774 0.665812
O O8 0.917827 0.000000 0.723827
O O9 0.883485 0.911626 0.943790
O O10 0.201977 0.324170 0.447397
O O11 0.231360 0.275945 0.736040
O O12 0.799860 0.139028 0.201338
O O13 0.817736 0.000000 0.148929
#
# Coordination Sequence:
#
# PCOD9205749 Si02
#       6
#     4   8   8   8   8   8
#     4  10  21  36  52  78 113 148 182 226 265 322
#     4   9  18  36  57  82 109 137 180 227 273 326
#     4   9  18  34  57  81 107 141 179 224 275 325
#     4   9  19  37  54  77 105 150 176 219 274 328
#     4   9  19  35  56  81 109 140 178 226 269 319
#     4  10  21  37  53  78 111 145 184 223 269 322
#
# _framework density 21.046205
#
# number of rings (size 3 to 8) (size 9 to 14) (size 15 to 20)
#    0.000    2.727    0.000    1.909    0.000    8.000 
#   13.091    1.818    0.000    3.273    0.000    0.000 
#    0.000    0.000    0.000    0.000    0.000    0.000 
#
# Total GULP energy -122604.831740 kJ/mol
# GULP energy per Si atom -5572.946897 kJ/mol
# Density = 2.099830 g / cm^3
# Si number density = 21.046205 Si / 1000 Ang^3
#
#
#
# Elastic Constant Matrix: (Units=GPa)
#
#
# Indices 1 2 3 4 5 6 
#
# 1 76.3692 2.7199 20.3167 0.0000 -32.2730 0.0000
# 2 2.7199 37.8491 21.6684 0.0000 -8.5091 0.0000
# 3 20.3167 21.6684 40.8232 0.0000 -26.4160 0.0000
# 4 0.0000 0.0000 0.0000 38.3776 0.0000 -14.1975
# 5 -32.2730 -8.5091 -26.4160 0.0000 38.2386 0.0000
# 6 0.0000 0.0000 0.0000 -14.1975 0.0000 29.2775
#
#
#
# Elastic Compliance Matrix: (Units=1/GPa)
#
#
# Indices 1 2 3 4 5 6 
#
# 1 0.020586 0.002544 0.000025 0.000000 0.017957 0.000000
# 2 0.002544 0.040457 -0.028076 0.000000 -0.008246 0.000000
# 3 0.000025 -0.028076 0.063938 0.000000 0.037943 0.000000
# 4 0.000000 0.000000 0.000000 0.031753 0.000000 0.015398
# 5 0.017957 -0.008246 0.037943 0.000000 0.065684 0.000000
# 6 0.000000 0.000000 0.000000 0.015398 0.000000 0.041623
#
#
# Mechanical properties :
#
#
# Convention : Reuss Voigt Hill
#
# Bulk Modulus (GPa) = 13.51963 27.16126 20.34045
# Shear Modulus (GPa) = 14.71833 28.53448 21.62641
#
# Velocity S-wave (km/s) = 2.64736 3.68612 3.20905
# Velocity P-wave (km/s) = 3.97271 5.57227 4.83904
#
# Compressibility (1/GPa) = 0.07396651
#
# Stress axis : x y z
#
# Youngs Moduli (GPa) = 48.57734 24.71734 15.64011
#
# Poissons Ratio (x) = -0.06287 -0.00039
# Poissons Ratio (y) = -0.12356 0.43911
# Poissons Ratio (z) = -0.00120 0.69396
#
# Static dielectric constant tensor:
#      x y z
#    x 1.780430 0.000000 0.011140 
#    y 0.000000 1.756440 0.000000 
#    z 0.011140 0.000000 1.790020 
# 
# From -- ./inp_files/61148.got.cif
#   From: 2010.05.17/outbox.cif.g08.bks.cpg/sg12_31_cif.got.tgz:61148.got - 2010.06.03 13:09:07.
