data_PCOD9205095
_publ_section_title
;
Structure prediction by ZEFSAII (Michael W. Deem and Ramdas Pophale) SiO2 
 PCOD9205095
Probable space group: C 2/M
;
_chemical_formula_sum "Si O2"
_cell_formula_units_Z 56
_cell_length_a 8.768218
_cell_length_b 19.704926
_cell_length_c 20.870198
_cell_angle_alpha 90.000000
_cell_angle_beta 123.019351
_cell_angle_gamma 90.000000
_cell_volume 3023.492041
_symmetry_space_group_name_H-M "C 2/M"
_symmetry_group_IT_number 12
_symmetry_cell_setting 'monoclinic'
loop_
_space_group_symop_operation_xyz
x,y,z
-x,y,-z
-x,-y,-z
x,-y,z
1/2+x,1/2+y,z
1/2-x,1/2+y,-z
1/2-x,1/2-y,-z
1/2+x,1/2-y,z
loop_
_atom_site_type_symbol
_atom_site_label
_atom_site_fract_x
_atom_site_fract_y
_atom_site_fract_z
Si Si1 0.405989 0.306401 0.545400
Si Si2 0.913788 0.841774 0.102917
Si Si3 0.907616 0.765356 0.286841
Si Si4 0.366621 0.923114 0.032209
Si Si5 0.203139 0.421920 0.574354
Si Si6 0.596790 0.801650 0.126372
Si Si7 0.694681 0.648659 0.272324
O O1 0.500000 0.319845 0.500000
O O2 0.250000 0.250000 0.500000
O O3 0.549370 0.278974 0.629686
O O4 0.323530 0.372939 0.558562
O O5 0.736661 0.814572 0.100557
O O6 0.007467 0.772731 0.099042
O O7 0.052467 0.875838 0.185795
O O8 0.830512 0.895406 0.034552
O O9 0.727200 0.801053 0.218105
O O10 0.858834 0.686009 0.273075
O O11 0.074168 0.794459 0.283324
O O12 0.454780 0.863306 0.094974
O O13 0.360728 0.000000 0.056832
O O14 0.500000 0.926296 0.000000
O O15 0.256048 0.500000 0.580355
O O16 0.230320 0.399532 0.654694
O O17 0.000000 0.413946 0.500000
#
# Coordination Sequence:
#
# PCOD9205095 Si02
#       7
#     8   8   8   8   8   8   8
#     4  11  20  32  53  76  99 127 164 206 245 288
#     4   9  17  29  49  72  94 122 158 196 238 280
#     4   9  17  29  46  72  95 117 154 194 237 282
#     4   9  17  29  46  69  95 123 157 194 234 281
#     4  10  21  35  49  69 100 135 167 200 245 295
#     4   9  17  30  47  69  95 122 154 194 236 279
#     4   9  17  30  48  71  96 122 155 200 242 283
#
# _framework density 18.521630999999999
#
# number of rings (size 3 to 8) (size 9 to 14) (size 15 to 20)
#    0.000    2.571    0.000    3.429    0.000    0.857 
#    0.000    7.143    0.000    1.714    0.000   10.000 
#    0.000    0.000    0.000    0.000    0.000    0.000 
#
# Total GULP energy -155989.856319 kJ/mol
# GULP energy per Si atom -5571.066297 kJ/mol
# Density = 1.847947 g / cm^3
# Si number density = 18.521631 Si / 1000 Ang^3
#
#
#
# Elastic Constant Matrix: (Units=GPa)
#
#
# Indices 1 2 3 4 5 6 
#
# 1 10.4521 19.0084 13.4309 0.0000 11.8810 0.0000
# 2 19.0084 94.1241 43.1798 0.0000 22.8212 0.0000
# 3 13.4309 43.1798 71.2214 0.0000 17.3907 0.0000
# 4 0.0000 0.0000 0.0000 20.4576 0.0000 0.0603
# 5 11.8810 22.8212 17.3907 0.0000 19.6141 0.0000
# 6 0.0000 0.0000 0.0000 0.0603 0.0000 12.7317
#
#
#
# Elastic Compliance Matrix: (Units=1/GPa)
#
#
# Indices 1 2 3 4 5 6 
#
# 1 0.353274 -0.024268 -0.008360 0.000000 -0.178343 0.000000
# 2 -0.024268 0.018868 -0.006499 0.000000 -0.001491 0.000000
# 3 -0.008360 -0.006499 0.021027 0.000000 -0.006018 0.000000
# 4 0.000000 0.000000 0.000000 0.048882 0.000000 -0.000232
# 5 -0.178343 -0.001491 -0.006018 0.000000 0.166084 0.000000
# 6 0.000000 0.000000 0.000000 -0.000232 0.000000 0.078545
#
#
# Mechanical properties :
#
#
# Convention : Reuss Voigt Hill
#
# Bulk Modulus (GPa) = 3.17545 36.33730 19.75637
# Shear Modulus (GPa) = 5.74775 17.23923 11.49349
#
# Velocity S-wave (km/s) = 1.76352 3.05415 2.49377
# Velocity P-wave (km/s) = 2.42174 5.66556 4.35680
#
# Compressibility (1/GPa) = 0.31491620
#
# Stress axis : x y z
#
# Youngs Moduli (GPa) = 2.83066 52.99965 47.55868
#
# Poissons Ratio (x) = 1.28620 0.39758
# Poissons Ratio (y) = 0.06869 0.30907
# Poissons Ratio (z) = 0.02366 0.34443
#
# Static dielectric constant tensor:
#      x y z
#    x 1.670550 0.000000 -0.019960 
#    y 0.000000 1.634970 0.000000 
#    z -0.019960 0.000000 1.772690 
# 
# From -- ./inp_files/300890.got.cif
#   From: 2010.05.17/outbox.cif.g08.bks.cpg/sg12_151_cif.got.tgz:300890.got - 2010.06.03 13:09:07.
