data_PCOD9205471
_publ_section_title
;
Structure prediction by ZEFSAII (Michael W. Deem and Ramdas Pophale) SiO2 
 PCOD9205471
Probable space group: C 2/M
;
_chemical_formula_sum "Si O2"
_cell_formula_units_Z 64
_cell_length_a 19.252801
_cell_length_b 12.329860
_cell_length_c 28.147320
_cell_angle_alpha 90.000000
_cell_angle_beta 150.309199
_cell_angle_gamma 90.000000
_cell_volume 3309.590653
_symmetry_space_group_name_H-M "C 2/M"
_symmetry_group_IT_number 12
_symmetry_cell_setting 'monoclinic'
loop_
_space_group_symop_operation_xyz
x,y,z
-x,y,-z
-x,-y,-z
x,-y,z
1/2+x,1/2+y,z
1/2-x,1/2+y,-z
1/2-x,1/2-y,-z
1/2+x,1/2-y,z
loop_
_atom_site_type_symbol
_atom_site_label
_atom_site_fract_x
_atom_site_fract_y
_atom_site_fract_z
Si Si1 0.098274 0.883846 0.390859
Si Si2 0.729216 0.712524 0.557024
Si Si3 0.330107 0.724928 0.118689
Si Si4 0.096799 0.372179 0.256602
Si Si5 0.522628 0.126530 0.570479
Si Si6 0.684849 0.731108 0.220088
Si Si7 0.277804 0.624500 0.191089
Si Si8 0.101357 0.878882 0.938243
O O1 0.140888 0.785324 0.382941
O O2 0.189335 0.871062 0.492260
O O3 0.935197 0.879159 0.305970
O O4 0.125849 0.000000 0.383539
O O5 0.773609 0.655348 0.631597
O O6 0.600996 0.796877 0.483804
O O7 0.459171 0.810229 0.194461
O O8 0.299115 0.667865 0.150235
O O9 0.369967 0.640258 0.100763
O O10 0.193758 0.790417 0.020470
O O11 0.072945 0.500000 0.239856
O O12 0.136046 0.321443 0.229203
O O13 0.500000 0.128917 0.500000
O O14 0.670317 0.176711 0.675712
O O15 0.512120 0.000000 0.579137
O O16 0.697896 0.790951 0.177215
O O17 0.561145 0.643132 0.147521
O O18 0.223372 0.500000 0.159002
O O19 0.142723 0.000000 0.976240
#
# Coordination Sequence:
#
# PCOD9205471 Si02
#       8
#     8   8   8   8   8   8   8   8
#     4  10  21  35  56  83 119 159 199 248 297 350
#     4  11  20  37  55  87 119 155 208 245 296 349
#     4  10  22  42  66  95 118 150 205 252 300 360
#     4  11  22  38  61  89 122 161 202 250 299 350
#     4  11  22  37  57  83 118 158 201 248 294 345
#     4  11  23  41  59  92 126 160 201 244 298 367
#     4  11  22  40  63  90 123 161 197 245 304 357
#     4  10  22  43  69  91 119 156 198 252 303 357
#
# _framework density 19.33774
#
# number of rings (size 3 to 8) (size 9 to 14) (size 15 to 20)
#    0.000    1.375    3.750    2.250    0.000    0.500 
#    0.000    7.500    0.000    0.000    0.000    0.000 
#    0.000    0.000    0.000    0.000    0.000    0.000 
#
# Total GULP energy -178627.411367 kJ/mol
# GULP energy per Si atom -5582.106605 kJ/mol
# Density = 1.929373 g / cm^3
# Si number density = 19.337740 Si / 1000 Ang^3
#
#
#
# Elastic Constant Matrix: (Units=GPa)
#
#
# Indices 1 2 3 4 5 6 
#
# 1 70.2250 12.9064 5.6237 -0.0001 -6.1703 -0.0001
# 2 12.9064 79.3106 1.0070 -0.0001 -2.3890 0.0000
# 3 5.6237 1.0070 53.9667 -0.0001 4.9836 0.0000
# 4 -0.0001 -0.0001 -0.0001 5.1204 0.0000 4.1233
# 5 -6.1703 -2.3890 4.9836 0.0000 25.3946 0.0000
# 6 -0.0001 0.0000 0.0000 4.1233 0.0000 -3.6684
#
#
#
# Elastic Compliance Matrix: (Units=1/GPa)
#
#
# Indices 1 2 3 4 5 6 
#
# 1 0.015156 -0.002327 -0.001890 0.000000 0.003835 0.000000
# 2 -0.002327 0.013008 -0.000062 0.000000 0.000671 0.000000
# 3 -0.001890 -0.000062 0.019117 0.000000 -0.004217 0.000000
# 4 0.000000 0.000000 0.000000 0.102511 0.000000 0.115223
# 5 0.003835 0.000671 -0.004217 0.000000 0.041201 0.000000
# 6 0.000000 0.000000 0.000000 0.115223 0.000000 -0.143088
#
#
# Mechanical properties :
#
#
# Convention : Reuss Voigt Hill
#
# Bulk Modulus (GPa) = 25.82409 26.95292 26.38851
# Shear Modulus (GPa) = 72.07571 17.63370 44.85470
#
# Velocity S-wave (km/s) = 6.11171 3.02301 4.82139
# Velocity P-wave (km/s) = 7.94904 5.11400 6.68357
#
# Compressibility (1/GPa) = 0.03872353
#
# Stress axis : x y z
#
# Youngs Moduli (GPa) = 65.98110 76.87403 52.30819
#
# Poissons Ratio (x) = 0.17887 0.09886
# Poissons Ratio (y) = 0.15353 0.00325
# Poissons Ratio (z) = 0.12471 0.00478
#
# Static dielectric constant tensor:
#      x y z
#    x 1.665010 0.000000 0.003630 
#    y 0.000000 1.646720 0.000000 
#    z 0.003630 0.000000 1.674210 
# 
# From -- ./inp_files/250851.got.cif
#   From: 2010.05.17/outbox.cif.g08.bks.cpg/sg12_126_cif.got.tgz:250851.got - 2010.06.03 13:09:07.
