data_PCOD9205434
_publ_section_title
;
Structure prediction by ZEFSAII (Michael W. Deem and Ramdas Pophale) SiO2 
 PCOD9205434
Probable space group: C 2/M
;
_chemical_formula_sum "Si O2"
_cell_formula_units_Z 56
_cell_length_a 13.208010
_cell_length_b 17.524531
_cell_length_c 18.097645
_cell_angle_alpha 90.000000
_cell_angle_beta 45.066347
_cell_angle_gamma 90.000000
_cell_volume 2965.467575
_symmetry_space_group_name_H-M "C 2/M"
_symmetry_group_IT_number 12
_symmetry_cell_setting 'monoclinic'
loop_
_space_group_symop_operation_xyz
x,y,z
-x,y,-z
-x,-y,-z
x,-y,z
1/2+x,1/2+y,z
1/2-x,1/2+y,-z
1/2-x,1/2-y,-z
1/2+x,1/2-y,z
loop_
_atom_site_type_symbol
_atom_site_label
_atom_site_fract_x
_atom_site_fract_y
_atom_site_fract_z
Si Si1 0.357507 0.913197 0.524972
Si Si2 0.344331 0.587705 0.614927
Si Si3 0.726459 0.194540 0.786913
Si Si4 0.837830 0.309025 0.403501
Si Si5 0.118144 0.186230 0.732355
Si Si6 0.531142 0.916380 0.071475
Si Si7 0.704495 0.319252 0.076837
O O1 0.500000 0.914302 0.500000
O O2 0.402979 0.865846 0.429227
O O3 0.224241 0.872453 0.635918
O O4 0.315941 0.000000 0.527649
O O5 0.500000 0.584517 0.500000
O O6 0.296591 0.500000 0.651206
O O7 0.343027 0.638180 0.690142
O O8 0.252761 0.636815 0.604039
O O9 0.708421 0.272823 0.751215
O O10 0.579234 0.148149 0.846411
O O11 0.752707 0.201372 0.860366
O O12 0.750000 0.250000 0.500000
O O13 0.922272 0.253055 0.305795
O O14 0.963183 0.159802 0.840450
O O15 0.506134 0.000000 0.116994
O O16 0.500000 0.921470 0.000000
O O17 0.692557 0.889123 0.997972
O O18 0.750000 0.250000 0.000000
#
# Coordination Sequence:
#
# PCOD9205434 Si02
#       7
#     8   8   8   8   8   8   8
#     4  10  22  39  58  84 120 160 197 237 287 348
#     4  10  21  35  55  85 120 153 186 235 295 353
#     4  10  21  36  58  83 119 153 191 244 293 358
#     4   9  20  35  55  83 116 152 194 236 282 348
#     4  10  22  36  60  88 112 154 199 242 294 347
#     4   9  18  35  56  81 113 148 188 239 297 349
#     4  11  22  37  60  88 114 151 200 248 303 349
#
# _framework density 18.884038
#
# number of rings (size 3 to 8) (size 9 to 14) (size 15 to 20)
#    0.000    2.143    1.429    0.857    6.000    5.143 
#    0.000    0.000    0.000    0.857    0.000    2.000 
#    0.000    0.000    0.000    0.000    0.000    0.000 
#
# Total GULP energy -156000.434593 kJ/mol
# GULP energy per Si atom -5571.444093 kJ/mol
# Density = 1.884106 g / cm^3
# Si number density = 18.884038 Si / 1000 Ang^3
#
#
#
# Elastic Constant Matrix: (Units=GPa)
#
#
# Indices 1 2 3 4 5 6 
#
# 1 44.4801 29.1114 22.2931 0.0001 8.0068 0.0000
# 2 29.1114 89.4007 22.5823 0.0001 -0.0829 0.0000
# 3 22.2931 22.5823 86.3112 0.0003 -7.7936 0.0000
# 4 0.0001 0.0001 0.0003 -26.2308 -0.0002 -21.3738
# 5 8.0068 -0.0829 -7.7936 -0.0002 43.0862 0.0000
# 6 0.0000 0.0000 0.0000 -21.3738 0.0000 9.7527
#
#
#
# Elastic Compliance Matrix: (Units=1/GPa)
#
#
# Indices 1 2 3 4 5 6 
#
# 1 0.033210 -0.009085 -0.006872 0.000000 -0.007432 0.000000
# 2 -0.009085 0.014476 -0.001307 0.000000 0.001480 0.000000
# 3 -0.006872 -0.001307 0.014047 0.000000 0.003815 0.000000
# 4 0.000000 0.000000 0.000000 -0.013685 0.000000 -0.029992
# 5 -0.007432 0.001480 0.003815 0.000000 0.025283 0.000000
# 6 0.000000 0.000000 0.000000 -0.029992 0.000000 0.036807
#
#
# Mechanical properties :
#
#
# Convention : Reuss Voigt Hill
#
# Bulk Modulus (GPa) = 36.75838 40.90727 38.83283
# Shear Modulus (GPa) = 32.52356 15.06863 23.79610
#
# Velocity S-wave (km/s) = 4.15454 2.82788 3.55366
# Velocity P-wave (km/s) = 6.52082 5.68963 6.11936
#
# Compressibility (1/GPa) = 0.02720468
#
# Stress axis : x y z
#
# Youngs Moduli (GPa) = 30.11144 69.08197 71.18761
#
# Poissons Ratio (x) = 0.62762 0.48918
# Poissons Ratio (y) = 0.27357 0.09305
# Poissons Ratio (z) = 0.20692 0.09030
#
# Static dielectric constant tensor:
#      x y z
#    x 1.657080 0.000000 0.001830 
#    y 0.000000 1.674650 0.000000 
#    z 0.001830 0.000000 1.696920 
# 
# From -- ./inp_files/264199.got.cif
#   From: 2010.05.17/outbox.cif.g08.bks.cpg/sg12_133_cif.got.tgz:264199.got - 2010.06.03 13:09:07.
