data_PCOD9205768
_publ_section_title
;
Structure prediction by ZEFSAII (Michael W. Deem and Ramdas Pophale) SiO2 
 PCOD9205768
Probable space group: C 2/M
;
_chemical_formula_sum "Si O2"
_cell_formula_units_Z 56
_cell_length_a 20.366395
_cell_length_b 8.007384
_cell_length_c 24.054949
_cell_angle_alpha 90.000000
_cell_angle_beta 50.832236
_cell_angle_gamma 90.000000
_cell_volume 3041.438374
_symmetry_space_group_name_H-M "C 2/M"
_symmetry_group_IT_number 12
_symmetry_cell_setting 'monoclinic'
loop_
_space_group_symop_operation_xyz
x,y,z
-x,y,-z
-x,-y,-z
x,-y,z
1/2+x,1/2+y,z
1/2-x,1/2+y,-z
1/2-x,1/2-y,-z
1/2+x,1/2-y,z
loop_
_atom_site_type_symbol
_atom_site_label
_atom_site_fract_x
_atom_site_fract_y
_atom_site_fract_z
Si Si1 0.615335 0.699482 0.776132
Si Si2 0.420455 0.807107 0.499581
Si Si3 0.346763 0.699669 0.941164
Si Si4 0.805683 0.294375 0.656667
Si Si5 0.997934 0.301899 0.938307
Si Si6 0.964384 0.201669 0.779416
Si Si7 0.457127 0.798874 0.655732
O O1 0.620010 0.500000 0.766925
O O2 0.710700 0.763609 0.719230
O O3 0.570756 0.732494 0.858948
O O4 0.550192 0.762574 0.763883
O O5 0.500000 0.809490 0.500000
O O6 0.343660 0.735758 0.577014
O O7 0.460713 0.732401 0.422144
O O8 0.397661 0.000000 0.499760
O O9 0.352608 0.500000 0.939540
O O10 0.408516 0.766129 0.956313
O O11 0.387516 0.756768 0.860697
O O12 0.250000 0.750000 0.000000
O O13 0.806519 0.500000 0.655348
O O14 0.872370 0.242732 0.668689
O O15 0.010286 0.500000 0.934103
O O16 0.000000 0.234678 0.000000
O O17 0.956890 0.256316 0.720238
O O18 0.965499 0.000000 0.779489
O O19 0.459321 0.000000 0.648969
#
# Coordination Sequence:
#
# PCOD9205768 Si02
#       7
#     8   8   8   8   8   8   8
#     4   9  18  33  51  69  92 127 166 198 236 288
#     4   7  11  22  42  68  94 117 149 198 244 276
#     4  10  21  37  56  76  99 130 166 202 244 293
#     4   8  14  27  48  71  92 118 159 205 240 275
#     4  10  21  36  53  74 101 131 162 201 250 296
#     4   9  19  33  46  65  97 130 153 184 236 289
#     4   9  16  27  48  74  93 118 160 202 237 278
#
# _framework density 18.41234
#
# number of rings (size 3 to 8) (size 9 to 14) (size 15 to 20)
#    0.000    3.143    0.000    3.429    0.000    5.143 
#    0.000    4.286    0.000    4.714    0.000    0.000 
#    0.000    0.000    0.000    0.000    0.000    0.000 
#
# Total GULP energy -155950.191494 kJ/mol
# GULP energy per Si atom -5569.649696 kJ/mol
# Density = 1.837043 g / cm^3
# Si number density = 18.412340 Si / 1000 Ang^3
#
#
#
# Elastic Constant Matrix: (Units=GPa)
#
#
# Indices 1 2 3 4 5 6 
#
# 1 100.0529 1.3768 117.7977 0.0000 -1.1835 0.0010
# 2 1.3768 5.5876 -3.0375 0.0000 -1.0756 0.0008
# 3 117.7977 -3.0375 182.2898 0.0000 -2.5913 0.0001
# 4 0.0000 0.0000 0.0000 15.0225 0.0000 7.3451
# 5 -1.1835 -1.0756 -2.5913 0.0000 37.6955 0.0001
# 6 0.0010 0.0008 0.0001 7.3451 0.0001 15.8896
#
#
#
# Elastic Compliance Matrix: (Units=1/GPa)
#
#
# Indices 1 2 3 4 5 6 
#
# 1 0.045704 -0.027854 -0.030019 0.000001 -0.001424 -0.000002
# 2 -0.027854 0.198669 0.021399 0.000006 0.006265 -0.000011
# 3 -0.030019 0.021399 0.025261 0.000000 0.001405 0.000001
# 4 0.000001 0.000006 0.000000 0.086005 0.000000 -0.039757
# 5 -0.001424 0.006265 0.001405 0.000000 0.026759 0.000000
# 6 -0.000002 -0.000011 0.000001 -0.039757 0.000000 0.081312
#
#
# Mechanical properties :
#
#
# Convention : Reuss Voigt Hill
#
# Bulk Modulus (GPa) = 5.08425 57.80048 31.44237
# Shear Modulus (GPa) = 8.30262 25.17441 16.73851
#
# Velocity S-wave (km/s) = 2.12581 3.70166 3.01839
# Velocity P-wave (km/s) = 2.96525 7.05196 5.40938
#
# Compressibility (1/GPa) = 0.19668575
#
# Stress axis : x y z
#
# Youngs Moduli (GPa) = 21.88002 5.03351 39.58713
#
# Poissons Ratio (x) = 0.14021 1.18835
# Poissons Ratio (y) = 0.60945 -0.84714
# Poissons Ratio (z) = 0.65681 -0.10771
#
# Static dielectric constant tensor:
#      x y z
#    x 1.606540 0.000000 0.005490 
#    y 0.000000 1.668810 0.000000 
#    z 0.005490 0.000000 1.634560 
# 
# From -- ./inp_files/348461.got.cif
#   From: 2010.05.17/outbox.cif.g08.bks.cpg/sg12_175_cif.got.tgz:348461.got - 2010.06.03 13:09:07.
