data_PCOD9205883
_publ_section_title
;
Structure prediction by ZEFSAII (Michael W. Deem and Ramdas Pophale) SiO2 
 PCOD9205883
Probable space group: C 2/M
;
_chemical_formula_sum "Si O2"
_cell_formula_units_Z 48
_cell_length_a 26.589132
_cell_length_b 10.974748
_cell_length_c 14.506689
_cell_angle_alpha 90.000000
_cell_angle_beta 36.206180
_cell_angle_gamma 90.000000
_cell_volume 2500.510164
_symmetry_space_group_name_H-M "C 2/M"
_symmetry_group_IT_number 12
_symmetry_cell_setting 'monoclinic'
loop_
_space_group_symop_operation_xyz
x,y,z
-x,y,-z
-x,-y,-z
x,-y,z
1/2+x,1/2+y,z
1/2-x,1/2+y,-z
1/2-x,1/2-y,-z
1/2+x,1/2-y,z
loop_
_atom_site_type_symbol
_atom_site_label
_atom_site_fract_x
_atom_site_fract_y
_atom_site_fract_z
Si Si1 0.752979 0.195828 0.892039
Si Si2 0.432687 0.371131 0.680743
Si Si3 0.239970 0.359062 0.297414
Si Si4 0.403861 0.358775 0.180225
Si Si5 0.107371 0.642086 0.657002
Si Si6 0.565583 0.132590 0.196161
O O1 0.840569 0.124515 0.769575
O O2 0.765071 0.287711 0.790088
O O3 0.750000 0.250000 0.000000
O O4 0.660939 0.135518 0.014484
O O5 0.500000 0.364222 0.500000
O O6 0.444549 0.500000 0.715702
O O7 0.441139 0.250900 0.729646
O O8 0.225428 0.500000 0.297483
O O9 0.333247 0.346184 0.204733
O O10 0.169874 0.327133 0.478881
O O11 0.395296 0.500000 0.228650
O O12 0.385266 0.249472 0.279148
O O13 0.500000 0.346489 0.000000
O O14 0.127210 0.500000 0.656396
O O15 0.010022 0.641382 0.765632
O O16 0.555073 0.000000 0.259445
#
# Coordination Sequence:
#
# PCOD9205883 Si02
#       6
#     8   8   8   8   8   8
#     4  10  21  36  57  83 112 148 192 239 286 335
#     4  10  21  36  54  79 110 144 186 235 285 337
#     4  10  21  38  60  85 116 155 195 236 287 346
#     4  10  21  38  61  89 118 152 193 234 284 345
#     4  10  21  38  60  88 119 152 192 237 287 342
#     4  10  21  36  55  80 110 146 188 231 280 339
#
# _framework density 19.196083000000002
#
# number of rings (size 3 to 8) (size 9 to 14) (size 15 to 20)
#    0.000    2.000    0.000    3.000    0.000    6.667 
#    0.000    3.333    0.000    0.000    0.000    0.000 
#    0.000    0.000    0.000    0.000    0.000    0.000 
#
# Total GULP energy -133688.596234 kJ/mol
# GULP energy per Si atom -5570.358176 kJ/mol
# Density = 1.915239 g / cm^3
# Si number density = 19.196083 Si / 1000 Ang^3
#
#
#
# Elastic Constant Matrix: (Units=GPa)
#
#
# Indices 1 2 3 4 5 6 
#
# 1 54.9994 50.4100 23.0013 0.0000 8.6934 0.0000
# 2 50.4100 169.9901 43.7969 0.0000 40.1761 0.0000
# 3 23.0013 43.7969 87.2013 0.0000 1.4075 0.0000
# 4 0.0000 0.0000 0.0000 -86.3789 0.0000 172.8481
# 5 8.6934 40.1761 1.4075 0.0000 33.5375 0.0000
# 6 0.0000 0.0000 0.0000 172.8481 0.0000 -158.8743
#
#
#
# Elastic Compliance Matrix: (Units=1/GPa)
#
#
# Indices 1 2 3 4 5 6 
#
# 1 0.025941 -0.007426 -0.003150 0.000000 0.002303 0.000000
# 2 -0.007426 0.011977 -0.003859 0.000000 -0.012261 0.000000
# 3 -0.003150 -0.003859 0.014159 0.000000 0.004845 0.000000
# 4 0.000000 0.000000 0.000000 0.009836 0.000000 0.010701
# 5 0.002303 -0.012261 0.004845 0.000000 0.043705 0.000000
# 6 0.000000 0.000000 0.000000 0.010701 0.000000 0.005348
#
#
# Mechanical properties :
#
#
# Convention : Reuss Voigt Hill
#
# Bulk Modulus (GPa) = 43.08976 60.73413 51.91195
# Shear Modulus (GPa) = 33.88246 -29.34432 2.26907
#
# Velocity S-wave (km/s) = 4.20583 -3.91405 1.08840
# Velocity P-wave (km/s) = 6.78832 3.35873 5.35548
#
# Compressibility (1/GPa) = 0.02320737
#
# Stress axis : x y z
#
# Youngs Moduli (GPa) = 38.54849 83.49619 70.62882
#
# Poissons Ratio (x) = 0.62000 0.22250
# Poissons Ratio (y) = 0.28624 0.27254
# Poissons Ratio (z) = 0.12144 0.32219
#
# Static dielectric constant tensor:
#      x y z
#    x 1.634510 0.000000 -0.043380 
#    y 0.000000 1.709050 0.000000 
#    z -0.043380 0.000000 1.647630 
# 
# From -- ./inp_files/244610.got.cif
#   From: 2010.05.17/outbox.cif.g08.bks.cpg/sg12_123_cif.got.tgz:244610.got - 2010.06.03 13:09:07.
