data_PCOD9205100
_publ_section_title
;
Structure prediction by ZEFSAII (Michael W. Deem and Ramdas Pophale) SiO2 
 PCOD9205100
Probable space group: C 2/M
;
_chemical_formula_sum "Si O2"
_cell_formula_units_Z 64
_cell_length_a 16.182706
_cell_length_b 9.253227
_cell_length_c 20.068872
_cell_angle_alpha 90.000000
_cell_angle_beta 107.199369
_cell_angle_gamma 90.000000
_cell_volume 2870.772285
_symmetry_space_group_name_H-M "C 2/M"
_symmetry_group_IT_number 12
_symmetry_cell_setting 'monoclinic'
loop_
_space_group_symop_operation_xyz
x,y,z
-x,y,-z
-x,-y,-z
x,-y,z
1/2+x,1/2+y,z
1/2-x,1/2+y,-z
1/2-x,1/2-y,-z
1/2+x,1/2-y,z
loop_
_atom_site_type_symbol
_atom_site_label
_atom_site_fract_x
_atom_site_fract_y
_atom_site_fract_z
Si Si1 0.356198 0.173055 0.329503
Si Si2 0.398419 0.667495 0.708088
Si Si3 0.812740 0.328275 0.962214
Si Si4 0.105020 0.165523 0.788902
Si Si5 0.442816 0.667994 0.074893
Si Si6 0.147096 0.830312 0.157772
Si Si7 0.693263 0.172408 0.541810
Si Si8 0.945748 0.329210 0.592437
O O1 0.346675 0.237855 0.253818
O O2 0.300322 0.221081 0.379961
O O3 0.454491 0.211500 0.374887
O O4 0.349085 0.000000 0.323473
O O5 0.375094 0.500000 0.692717
O O6 0.501599 0.672855 0.748857
O O7 0.350526 0.716975 0.764153
O O8 0.391631 0.751697 0.637699
O O9 0.801897 0.500000 0.960592
O O10 0.805084 0.265032 0.885851
O O11 0.750000 0.250000 0.000000
O O12 0.906475 0.277501 0.012104
O O13 0.106861 0.200046 0.867502
O O14 0.132358 0.000000 0.786715
O O15 0.424430 0.500000 0.051219
O O16 0.544662 0.675841 0.114243
O O17 0.172362 0.000000 0.159897
O O18 0.750000 0.250000 0.500000
O O19 0.596585 0.196543 0.489320
O O20 0.708966 0.000000 0.544004
O O21 0.941039 0.500000 0.603585
#
# Coordination Sequence:
#
# PCOD9205100 Si02
#       8
#     8   8   8   8   8   8   8   8
#     4   9  17  31  52  75  99 129 166 208 250 293
#     4   8  15  29  51  79 106 130 160 201 249 300
#     4  12  25  38  53  75 105 139 177 218 257 302
#     4   8  15  29  51  79 106 130 160 201 249 300
#     4   9  18  35  58  81 107 138 169 206 256 309
#     4   9  18  35  58  81 107 138 169 206 256 309
#     4  10  21  35  49  69  99 134 170 206 250 300
#     4   9  17  31  52  75  99 129 166 208 250 293
#
# _framework density 22.293652000000002
#
# number of rings (size 3 to 8) (size 9 to 14) (size 15 to 20)
#    0.000    2.750    0.000    3.375    0.000    5.500 
#    0.000    3.750    0.000    6.750    0.000    0.000 
#    0.000    0.000    0.000    0.000    0.000    0.000 
#
# Total GULP energy -178752.076873 kJ/mol
# GULP energy per Si atom -5586.002402 kJ/mol
# Density = 2.224291 g / cm^3
# Si number density = 22.293652 Si / 1000 Ang^3
#
#
#
# Elastic Constant Matrix: (Units=GPa)
#
#
# Indices 1 2 3 4 5 6 
#
# 1 79.9663 25.3039 32.0860 0.0000 -22.4731 0.0000
# 2 25.3039 53.2475 63.8705 0.0000 -24.8169 0.0000
# 3 32.0860 63.8705 166.4955 0.0000 -36.5656 0.0000
# 4 0.0000 0.0000 0.0000 34.5447 0.0000 -8.3526
# 5 -22.4731 -24.8169 -36.5656 0.0000 49.9975 0.0000
# 6 0.0000 0.0000 0.0000 -8.3526 0.0000 20.5490
#
#
#
# Elastic Compliance Matrix: (Units=1/GPa)
#
#
# Indices 1 2 3 4 5 6 
#
# 1 0.015391 -0.005351 0.000027 0.000000 0.004282 0.000000
# 2 -0.005351 0.040364 -0.012606 0.000000 0.008411 0.000000
# 3 0.000027 -0.012606 0.011276 0.000000 0.002002 0.000000
# 4 0.000000 0.000000 0.000000 0.032103 0.000000 0.013049
# 5 0.004282 0.008411 0.002002 0.000000 0.027565 0.000000
# 6 0.000000 0.000000 0.000000 0.013049 0.000000 0.053968
#
#
# Mechanical properties :
#
#
# Convention : Reuss Voigt Hill
#
# Bulk Modulus (GPa) = 32.08024 60.24778 46.16401
# Shear Modulus (GPa) = 22.03454 32.91485 27.47470
#
# Velocity S-wave (km/s) = 3.14726 3.84659 3.51436
# Velocity P-wave (km/s) = 5.25624 6.84191 6.10081
#
# Compressibility (1/GPa) = 0.03117184
#
# Stress axis : x y z
#
# Youngs Moduli (GPa) = 64.97338 24.77480 88.68004
#
# Poissons Ratio (x) = 0.13256 -0.00239
# Poissons Ratio (y) = 0.34765 1.11789
# Poissons Ratio (z) = -0.00175 0.31231
#
# Static dielectric constant tensor:
#      x y z
#    x 1.934280 0.000000 0.041250 
#    y 0.000000 1.737830 0.000000 
#    z 0.041250 0.000000 1.840810 
# 
# From -- ./inp_files/314025.got.cif
#   From: 2010.05.17/outbox.cif.g08.bks.cpg/sg12_158_cif.got.tgz:314025.got - 2010.06.03 13:09:07.
