data_PCOD9205418
_publ_section_title
;
Structure prediction by ZEFSAII (Michael W. Deem and Ramdas Pophale) SiO2 
 PCOD9205418
Probable space group: C 2/M
;
_chemical_formula_sum "Si O2"
_cell_formula_units_Z 42
_cell_length_a 26.594710
_cell_length_b 10.294299
_cell_length_c 7.442740
_cell_angle_alpha 90.000000
_cell_angle_beta 120.246327
_cell_angle_gamma 90.000000
_cell_volume 1760.241154
_symmetry_space_group_name_H-M "C 2/M"
_symmetry_group_IT_number 12
_symmetry_cell_setting 'monoclinic'
loop_
_space_group_symop_operation_xyz
x,y,z
-x,y,-z
-x,-y,-z
x,-y,z
1/2+x,1/2+y,z
1/2-x,1/2+y,-z
1/2-x,1/2-y,-z
1/2+x,1/2-y,z
loop_
_atom_site_type_symbol
_atom_site_label
_atom_site_fract_x
_atom_site_fract_y
_atom_site_fract_z
Si Si1 0.000000 0.500000 0.500000
Si Si2 0.161687 0.651764 0.849505
Si Si3 0.366150 0.642914 0.692111
Si Si4 0.731828 0.647742 0.732877
Si Si5 0.421971 0.640523 0.179610
Si Si6 0.973536 0.288030 0.758903
O O1 0.014934 0.390209 0.373430
O O2 0.150651 0.500000 0.785131
O O3 0.201957 0.733772 0.786160
O O4 0.199627 0.653387 0.103238
O O5 0.103735 0.736269 0.763159
O O6 0.384222 0.500000 0.656101
O O7 0.298624 0.655264 0.516117
O O8 0.382074 0.640345 0.928935
O O9 0.406969 0.749575 0.673710
O O10 0.716829 0.500000 0.776120
O O11 0.416320 0.500000 0.258704
O O12 0.487298 0.664898 0.230864
O O13 0.000000 0.329612 0.000000
#
# Coordination Sequence:
#
# PCOD9205418 Si02
#       6
#     2   8   8   8   8   8
#     4  12  26  40  62  90 128 172 192 244 308 376
#     4  10  21  35  55  84 119 153 195 249 303 356
#     4   9  19  39  62  82 112 154 200 252 299 352
#     4   9  19  37  58  82 113 155 200 248 298 356
#     4  10  21  38  61  85 116 157 198 246 304 361
#     4  10  23  41  61  91 125 158 202 251 301 360
#
# _framework density 23.860368000000001
#
# number of rings (size 3 to 8) (size 9 to 14) (size 15 to 20)
#    0.000    2.286    0.000    1.429    4.000    3.810 
#    1.714    0.952    0.000    0.000    0.000    0.000 
#    0.000    0.000    0.000    0.000    0.000    0.000 
#
# Total GULP energy -116934.531378 kJ/mol
# GULP energy per Si atom -5568.311018 kJ/mol
# Density = 2.380606 g / cm^3
# Si number density = 23.860368 Si / 1000 Ang^3
#
#
#
# Elastic Constant Matrix: (Units=GPa)
#
#
# Indices 1 2 3 4 5 6 
#
# 1 52.0156 50.4966 1.6339 0.0000 5.5437 0.0000
# 2 50.4966 186.5647 28.5121 0.0000 -4.7930 0.0000
# 3 1.6339 28.5121 84.0666 0.0000 4.2665 0.0000
# 4 0.0000 0.0000 0.0000 27.2996 0.0000 3.1837
# 5 5.5437 -4.7930 4.2665 0.0000 34.1234 0.0000
# 6 0.0000 0.0000 0.0000 3.1837 0.0000 35.4051
#
#
#
# Elastic Compliance Matrix: (Units=1/GPa)
#
#
# Indices 1 2 3 4 5 6 
#
# 1 0.027522 -0.007978 0.002470 0.000000 -0.005901 0.000000
# 2 -0.007978 0.008003 -0.002699 0.000000 0.002758 0.000000
# 3 0.002470 -0.002699 0.012884 0.000000 -0.002391 0.000000
# 4 0.000000 0.000000 0.000000 0.037019 0.000000 -0.003329
# 5 -0.005901 0.002758 -0.002391 0.000000 0.030950 0.000000
# 6 0.000000 0.000000 0.000000 -0.003329 0.000000 0.028544
#
#
# Mechanical properties :
#
#
# Convention : Reuss Voigt Hill
#
# Bulk Modulus (GPa) = 31.25523 53.77021 42.51272
# Shear Modulus (GPa) = 29.06971 35.49923 32.28447
#
# Velocity S-wave (km/s) = 3.49424 3.86137 3.68238
# Velocity P-wave (km/s) = 5.42285 6.51648 5.99466
#
# Compressibility (1/GPa) = 0.03199464
#
# Stress axis : x y z
#
# Youngs Moduli (GPa) = 36.33520 124.95538 77.61485
#
# Poissons Ratio (x) = 0.99693 -0.19175
# Poissons Ratio (y) = 0.28989 0.20949
# Poissons Ratio (z) = -0.08977 0.33727
#
# Static dielectric constant tensor:
#      x y z
#    x 1.879360 0.000000 0.024860 
#    y 0.000000 1.894220 0.000000 
#    z 0.024860 0.000000 1.975530 
# 
# From -- ./inp_files/108911.got.cif
#   From: 2010.05.17/outbox.cif.g08.bks.cpg/sg12_55_cif.got.tgz:108911.got - 2010.06.03 13:09:07.
