data_PCOD9205316
_publ_section_title
;
Structure prediction by ZEFSAII (Michael W. Deem and Ramdas Pophale) SiO2 
 PCOD9205316
Probable space group: C 2/M
;
_chemical_formula_sum "Si O2"
_cell_formula_units_Z 56
_cell_length_a 31.251459
_cell_length_b 8.847473
_cell_length_c 19.977767
_cell_angle_alpha 90.000000
_cell_angle_beta 36.147462
_cell_angle_gamma 90.000000
_cell_volume 3258.287931
_symmetry_space_group_name_H-M "C 2/M"
_symmetry_group_IT_number 12
_symmetry_cell_setting 'monoclinic'
loop_
_space_group_symop_operation_xyz
x,y,z
-x,y,-z
-x,-y,-z
x,-y,z
1/2+x,1/2+y,z
1/2-x,1/2+y,-z
1/2-x,1/2-y,-z
1/2+x,1/2-y,z
loop_
_atom_site_type_symbol
_atom_site_label
_atom_site_fract_x
_atom_site_fract_y
_atom_site_fract_z
Si Si1 0.494884 0.820798 0.845106
Si Si2 0.645687 0.316832 0.904934
Si Si3 0.947689 0.817986 0.505110
Si Si4 0.823431 0.318606 0.877806
Si Si5 0.425885 0.326724 0.137496
Si Si6 0.307565 0.181314 0.742186
Si Si7 0.526245 0.318514 0.268258
O O1 0.556481 0.773225 0.820649
O O2 0.506863 0.745909 0.758015
O O3 0.490500 0.000000 0.844943
O O4 0.418656 0.757097 0.970820
O O5 0.637891 0.500000 0.919965
O O6 0.633407 0.277256 0.842176
O O7 0.725207 0.272839 0.829506
O O8 0.868047 0.754101 0.618891
O O9 0.000000 0.766878 0.500000
O O10 0.981692 0.773688 0.390962
O O11 0.945128 0.000000 0.510514
O O12 0.823419 0.500000 0.884803
O O13 0.825944 0.280134 0.795780
O O14 0.893078 0.247986 0.825581
O O15 0.750000 0.250000 0.000000
O O16 0.411891 0.500000 0.175750
O O17 0.500000 0.327390 0.000000
O O18 0.310834 0.000000 0.731534
O O19 0.529922 0.500000 0.260615
#
# Coordination Sequence:
#
# PCOD9205316 Si02
#       7
#     8   8   8   8   8   8   8
#     4  11  21  32  51  81 111 138 174 219 266 314
#     4   9  18  34  54  79 110 144 177 208 258 321
#     4  10  21  38  57  76  98 134 181 222 264 311
#     4  11  22  34  51  78 109 141 173 209 259 312
#     4   8  15  30  52  75 105 143 176 208 254 317
#     4  10  21  35  54  78 105 136 172 217 261 307
#     4  11  22  37  55  73 102 140 178 220 262 312
#
# _framework density 17.18694
#
# number of rings (size 3 to 8) (size 9 to 14) (size 15 to 20)
#    0.000    2.000    1.429    3.857    0.000    6.286 
#    0.000    0.000    0.000    0.857    0.000    0.000 
#    0.000    0.000    0.000    0.000    0.000    0.000 
#
# Total GULP energy -156280.079578 kJ/mol
# GULP energy per Si atom -5581.431413 kJ/mol
# Density = 1.714782 g / cm^3
# Si number density = 17.186940 Si / 1000 Ang^3
#
#
#
# Elastic Constant Matrix: (Units=GPa)
#
#
# Indices 1 2 3 4 5 6 
#
# 1 77.3830 25.9012 9.6536 0.0015 26.4446 -0.0013
# 2 25.9012 46.2403 26.8001 -0.0023 16.4987 0.0012
# 3 9.6536 26.8001 70.2692 -0.0063 23.0218 0.0035
# 4 0.0015 -0.0023 -0.0063 26.4938 0.0006 -2.4506
# 5 26.4446 16.4987 23.0218 0.0006 24.3488 0.0004
# 6 -0.0013 0.0012 0.0035 -2.4506 0.0004 21.9731
#
#
#
# Elastic Compliance Matrix: (Units=1/GPa)
#
#
# Indices 1 2 3 4 5 6 
#
# 1 0.025181 -0.008938 0.010033 0.000001 -0.030778 0.000001
# 2 -0.008938 0.033966 -0.010673 0.000001 -0.003217 0.000000
# 3 0.010033 -0.010673 0.026258 0.000005 -0.028492 -0.000002
# 4 0.000001 0.000001 0.000005 0.038138 -0.000008 0.004253
# 5 -0.030778 -0.003217 -0.028492 -0.000008 0.103616 0.000000
# 6 0.000001 0.000000 -0.000002 0.004253 0.000000 0.045985
#
#
# Mechanical properties :
#
#
# Convention : Reuss Voigt Hill
#
# Bulk Modulus (GPa) = 15.09440 35.40026 25.24733
# Shear Modulus (GPa) = 15.90421 23.33231 19.61826
#
# Velocity S-wave (km/s) = 3.04528 3.68851 3.38222
# Velocity P-wave (km/s) = 4.60071 6.22752 5.47488
#
# Compressibility (1/GPa) = 0.06624973
#
# Stress axis : x y z
#
# Youngs Moduli (GPa) = 39.71257 29.44093 38.08408
#
# Poissons Ratio (x) = 0.26315 -0.38211
# Poissons Ratio (y) = 0.35496 0.40646
# Poissons Ratio (z) = -0.39845 0.31421
#
# Static dielectric constant tensor:
#      x y z
#    x 1.598490 0.000000 0.013880 
#    y 0.000000 1.573940 0.000000 
#    z 0.013880 0.000000 1.553010 
# 
# From -- ./inp_files/287311.got.cif
#   From: 2010.05.17/outbox.cif.g08.bks.cpg/sg12_144_cif.got.tgz:287311.got - 2010.06.03 13:09:07.
