data_PCOD9205944
_publ_section_title
;
Structure prediction by ZEFSAII (Michael W. Deem and Ramdas Pophale) SiO2 
 PCOD9205944
Probable space group: C 2/M
;
_chemical_formula_sum "Si O2"
_cell_formula_units_Z 60
_cell_length_a 5.731841
_cell_length_b 31.314737
_cell_length_c 15.234055
_cell_angle_alpha 90.000000
_cell_angle_beta 61.563758
_cell_angle_gamma 90.000000
_cell_volume 2404.467867
_symmetry_space_group_name_H-M "C 2/M"
_symmetry_group_IT_number 12
_symmetry_cell_setting 'monoclinic'
loop_
_space_group_symop_operation_xyz
x,y,z
-x,y,-z
-x,-y,-z
x,-y,z
1/2+x,1/2+y,z
1/2-x,1/2+y,-z
1/2-x,1/2-y,-z
1/2+x,1/2-y,z
loop_
_atom_site_type_symbol
_atom_site_label
_atom_site_fract_x
_atom_site_fract_y
_atom_site_fract_z
Si Si1 0.500000 0.886678 0.000000
Si Si2 0.622292 0.273406 0.637177
Si Si3 0.296095 0.244369 0.859049
Si Si4 0.751093 0.651070 0.889231
Si Si5 0.954842 0.413518 0.255053
Si Si6 0.697268 0.546719 0.140830
Si Si7 0.440930 0.630346 0.407265
Si Si8 0.295726 0.048166 0.638696
O O1 0.517070 0.858367 0.082442
O O2 0.252491 0.918229 0.057235
O O3 0.907343 0.250153 0.608950
O O4 0.450150 0.271291 0.757868
O O5 0.663904 0.322838 0.602055
O O6 0.485973 0.245346 0.909515
O O7 0.298762 0.194867 0.832740
O O8 0.784065 0.614271 0.811760
O O9 0.500000 0.654017 0.000000
O O10 0.955173 0.440404 0.344480
O O11 0.913803 0.443566 0.178303
O O12 0.716296 0.379801 0.307654
O O13 0.723465 0.500000 0.097277
O O14 0.433806 0.547540 0.245974
O O15 0.500000 0.631447 0.500000
O O16 0.267296 0.588428 0.412178
O O17 0.299848 0.000000 0.600835
#
# Coordination Sequence:
#
# PCOD9205944 Si02
#       8
#     4   8   8   8   8   8   8   8
#     4  10  21  36  54  90 126 170 220 278 341 402
#     4  10  23  45  72 105 140 184 236 295 361 428
#     4  10  23  40  64  91 128 176 226 281 344 410
#     4  11  24  38  61  91 130 173 225 277 338 415
#     4  10  21  40  64  93 131 179 223 285 345 416
#     4   9  18  35  59  89 126 170 223 279 342 408
#     4  11  26  44  70 101 136 179 230 291 361 430
#     4  10  22  40  67  98 134 180 230 284 351 428
#
# _framework density 24.953548000000001
#
# number of rings (size 3 to 8) (size 9 to 14) (size 15 to 20)
#    0.000    1.867    0.000    3.000    7.467    2.400 
#    0.000    0.667    0.000    6.400    0.000    0.000 
#    0.000    0.000    0.000    0.000    0.000    0.000 
#
# Total GULP energy -167400.665275 kJ/mol
# GULP energy per Si atom -5580.022176 kJ/mol
# Density = 2.489675 g / cm^3
# Si number density = 24.953548 Si / 1000 Ang^3
#
#
#
# Elastic Constant Matrix: (Units=GPa)
#
#
# Indices 1 2 3 4 5 6 
#
# 1 106.0846 54.7849 17.0528 0.0000 16.3754 0.0000
# 2 54.7849 186.2015 23.0803 0.0000 20.2946 0.0000
# 3 17.0528 23.0803 100.4148 0.0000 9.3832 0.0000
# 4 0.0000 0.0000 0.0000 -11.2797 0.0000 16.4427
# 5 16.3754 20.2946 9.3832 0.0000 32.4937 0.0000
# 6 0.0000 0.0000 0.0000 16.4427 0.0000 17.2553
#
#
#
# Elastic Compliance Matrix: (Units=1/GPa)
#
#
# Indices 1 2 3 4 5 6 
#
# 1 0.011663 -0.002900 -0.000960 0.000000 -0.003789 0.000000
# 2 -0.002900 0.006586 -0.000795 0.000000 -0.002423 0.000000
# 3 -0.000960 -0.000795 0.010496 0.000000 -0.002051 0.000000
# 4 0.000000 0.000000 0.000000 -0.037108 0.000000 0.035361
# 5 -0.003789 -0.002423 -0.002051 0.000000 0.034790 0.000000
# 6 0.000000 0.000000 0.000000 0.035361 0.000000 0.024258
#
#
# Mechanical properties :
#
#
# Convention : Reuss Voigt Hill
#
# Bulk Modulus (GPa) = 51.45069 64.72634 58.08852
# Shear Modulus (GPa) = 75.21844 27.54605 51.38225
#
# Velocity S-wave (km/s) = 5.49626 3.32609 4.54267
# Velocity P-wave (km/s) = 7.80652 6.38323 7.13048
#
# Compressibility (1/GPa) = 0.01943609
#
# Stress axis : x y z
#
# Youngs Moduli (GPa) = 85.74036 151.83152 95.27359
#
# Poissons Ratio (x) = 0.44024 0.09147
# Poissons Ratio (y) = 0.24861 0.07575
# Poissons Ratio (z) = 0.08232 0.12071
#
# Static dielectric constant tensor:
#      x y z
#    x 2.139150 0.000000 0.009970 
#    y 0.000000 1.941870 0.000000 
#    z 0.009970 0.000000 1.969140 
# 
# From -- ./inp_files/253993.got.cif
#   From: 2010.05.17/outbox.cif.g08.bks.cpg/sg12_127_cif.got.tgz:253993.got - 2010.06.03 13:09:07.
