data_PCOD9205474
_publ_section_title
;
Structure prediction by ZEFSAII (Michael W. Deem and Ramdas Pophale) SiO2 
 PCOD9205474
Probable space group: C 2/M
;
_chemical_formula_sum "Si O2"
_cell_formula_units_Z 36
_cell_length_a 22.142780
_cell_length_b 14.093653
_cell_length_c 5.671097
_cell_angle_alpha 90.000000
_cell_angle_beta 52.170400
_cell_angle_gamma 90.000000
_cell_volume 1397.851276
_symmetry_space_group_name_H-M "C 2/M"
_symmetry_group_IT_number 12
_symmetry_cell_setting 'monoclinic'
loop_
_space_group_symop_operation_xyz
x,y,z
-x,y,-z
-x,-y,-z
x,-y,z
1/2+x,1/2+y,z
1/2-x,1/2+y,-z
1/2-x,1/2-y,-z
1/2+x,1/2-y,z
loop_
_atom_site_type_symbol
_atom_site_label
_atom_site_fract_x
_atom_site_fract_y
_atom_site_fract_z
Si Si1 0.454744 0.789102 0.861204
Si Si2 0.876432 0.895647 0.883267
Si Si3 0.789117 0.604991 0.489677
Si Si4 0.451646 0.000000 0.865901
Si Si5 0.306133 0.705297 0.672343
O O1 0.500000 0.787477 0.500000
O O2 0.410109 0.689510 0.954888
O O3 0.414241 0.893945 0.943022
O O4 0.500000 0.790618 0.000000
O O5 0.873777 0.855103 0.624272
O O6 0.911122 0.000000 0.824659
O O7 0.787329 0.903727 0.164378
O O8 0.824512 0.500000 0.416312
O O9 0.747357 0.636228 0.349831
O O10 0.832238 0.698706 0.478179
O O11 0.500000 0.000000 0.500000
O O12 0.500000 0.000000 0.000000
O O13 0.250000 0.750000 0.000000
#
# Coordination Sequence:
#
# PCOD9205474 Si02
#       5
#     8   8   8   4   8
#     4  10  22  39  61  86 119 155 202 247 294 350
#     4  10  21  35  56  84 116 155 191 236 297 353
#     4   9  18  34  57  81 113 151 189 238 294 350
#     4   8  16  36  60  78 104 152 190 240 296 338
#     4   9  18  34  55  78 110 147 191 233 286 350
#
# _framework density 25.753816
#
# number of rings (size 3 to 8) (size 9 to 14) (size 15 to 20)
#    0.000    2.667    0.000    0.667    3.111    1.778 
#    2.000    0.000   12.222    0.000    0.000    0.000 
#    0.000    0.000    0.000    0.000    0.000    0.000 
#
# Total GULP energy -100413.325599 kJ/mol
# GULP energy per Si atom -5578.518089 kJ/mol
# Density = 2.569520 g / cm^3
# Si number density = 25.753816 Si / 1000 Ang^3
#
#
#
# Elastic Constant Matrix: (Units=GPa)
#
#
# Indices 1 2 3 4 5 6 
#
# 1 68.7562 76.2774 15.3861 0.0000 13.8371 0.0000
# 2 76.2774 317.8686 46.3841 0.0000 4.4710 0.0000
# 3 15.3861 46.3841 78.9847 0.0000 27.4934 0.0000
# 4 0.0000 0.0000 0.0000 -164.2139 0.0000 -217.7318
# 5 13.8371 4.4710 27.4934 0.0000 31.7781 0.0000
# 6 0.0000 0.0000 0.0000 -217.7318 0.0000 -177.2509
#
#
#
# Elastic Compliance Matrix: (Units=1/GPa)
#
#
# Indices 1 2 3 4 5 6 
#
# 1 0.022498 -0.005670 0.002976 0.000000 -0.011573 0.000000
# 2 -0.005670 0.004944 -0.003457 0.000000 0.004764 0.000000
# 3 0.002976 -0.003457 0.020595 0.000000 -0.018628 0.000000
# 4 0.000000 0.000000 0.000000 0.009686 0.000000 -0.011898
# 5 -0.011573 0.004764 -0.018628 0.000000 0.051953 0.000000
# 6 0.000000 0.000000 0.000000 -0.011898 0.000000 0.008973
#
#
# Mechanical properties :
#
#
# Convention : Reuss Voigt Hill
#
# Bulk Modulus (GPa) = 27.98503 82.41162 55.19832
# Shear Modulus (GPa) = 34.99826 -40.09989 -2.55081
#
# Velocity S-wave (km/s) = 3.69040 -3.95022 -0.99630
# Velocity P-wave (km/s) = 5.38968 3.35612 4.48956
#
# Compressibility (1/GPa) = 0.03573339
#
# Stress axis : x y z
#
# Youngs Moduli (GPa) = 44.44924 202.26286 48.55440
#
# Poissons Ratio (x) = 1.14684 -0.14448
# Poissons Ratio (y) = 0.25203 0.16787
# Poissons Ratio (z) = -0.13226 0.69929
#
# Static dielectric constant tensor:
#      x y z
#    x 2.079410 0.000000 -0.100990 
#    y 0.000000 2.042330 0.000000 
#    z -0.100990 0.000000 2.296570 
# 
# From -- ./inp_files/27337.got.cif
#   From: 2010.05.17/outbox.cif.g08.bks.cpg/sg12_14_cif.got.tgz:27337.got - 2010.06.03 13:09:07.
