data_PCOD9205563
_publ_section_title
;
Structure prediction by ZEFSAII (Michael W. Deem and Ramdas Pophale) SiO2 
 PCOD9205563
Probable space group: C 2/M
;
_chemical_formula_sum "Si O2"
_cell_formula_units_Z 40
_cell_length_a 13.707934
_cell_length_b 26.310270
_cell_length_c 5.165511
_cell_angle_alpha 90.000000
_cell_angle_beta 81.943300
_cell_angle_gamma 90.000000
_cell_volume 1844.602350
_symmetry_space_group_name_H-M "C 2/M"
_symmetry_group_IT_number 12
_symmetry_cell_setting 'monoclinic'
loop_
_space_group_symop_operation_xyz
x,y,z
-x,y,-z
-x,-y,-z
x,-y,z
1/2+x,1/2+y,z
1/2-x,1/2+y,-z
1/2-x,1/2-y,-z
1/2+x,1/2-y,z
loop_
_atom_site_type_symbol
_atom_site_label
_atom_site_fract_x
_atom_site_fract_y
_atom_site_fract_z
Si Si1 0.608493 0.652641 0.511801
Si Si2 0.892665 0.059235 0.169568
Si Si3 0.931333 0.558034 0.278359
Si Si4 0.231492 0.375933 0.938549
Si Si5 0.744825 0.713840 0.758841
O O1 0.500000 0.670931 0.500000
O O2 0.605721 0.593026 0.575524
O O3 0.643756 0.683786 0.746696
O O4 0.691930 0.655950 0.265313
O O5 0.882478 0.000000 0.219977
O O6 0.798815 0.080692 0.046963
O O7 0.000000 0.068564 0.000000
O O8 0.892899 0.500000 0.341154
O O9 0.846919 0.597601 0.223339
O O10 0.000000 0.571540 0.500000
O O11 0.000000 0.555607 0.000000
O O12 0.190212 0.336110 0.172281
O O13 0.750000 0.750000 0.500000
O O14 0.750000 0.750000 0.000000
#
# Coordination Sequence:
#
# PCOD9205563 Si02
#       5
#     8   8   8   8   8
#     4  11  23  41  68 100 139 183 220 275 344 423
#     4  10  21  35  58 101 148 187 226 265 324 414
#     4  10  24  44  67  97 135 182 235 283 337 400
#     4  11  23  42  71  94 140 179 228 286 347 407
#     4  11  24  45  69  94 130 171 228 285 344 408
#
# _framework density 21.684892999999999
#
# number of rings (size 3 to 8) (size 9 to 14) (size 15 to 20)
#    0.000    1.400    4.000    0.600    5.600    2.000 
#    0.000    3.000    0.000    0.000    0.000    0.000 
#    0.000    0.000    0.000    0.000    0.000    0.000 
#
# Total GULP energy -111367.939846 kJ/mol
# GULP energy per Si atom -5568.396992 kJ/mol
# Density = 2.163554 g / cm^3
# Si number density = 21.684893 Si / 1000 Ang^3
#
#
#
# Elastic Constant Matrix: (Units=GPa)
#
#
# Indices 1 2 3 4 5 6 
#
# 1 79.6268 41.5770 47.1582 0.0000 28.1738 0.0000
# 2 41.5770 133.5560 57.7127 0.0000 10.5126 0.0000
# 3 47.1582 57.7127 141.3016 0.0000 28.3372 0.0000
# 4 0.0000 0.0000 0.0000 47.9450 0.0000 1.1385
# 5 28.1738 10.5126 28.3372 0.0000 43.0818 0.0000
# 6 0.0000 0.0000 0.0000 1.1385 0.0000 1.4126
#
#
#
# Elastic Compliance Matrix: (Units=1/GPa)
#
#
# Indices 1 2 3 4 5 6 
#
# 1 0.020091 -0.004175 -0.002960 0.000000 -0.010173 0.000000
# 2 -0.004175 0.009962 -0.003151 0.000000 0.002372 0.000000
# 3 -0.002960 -0.003151 0.010148 0.000000 -0.003970 0.000000
# 4 0.000000 0.000000 0.000000 0.021264 0.000000 -0.017138
# 5 -0.010173 0.002372 -0.003970 0.000000 0.031897 0.000000
# 6 0.000000 0.000000 0.000000 -0.017138 0.000000 0.721725
#
#
# Mechanical properties :
#
#
# Convention : Reuss Voigt Hill
#
# Bulk Modulus (GPa) = 50.94386 71.93114 61.43750
# Shear Modulus (GPa) = 5.93682 32.35698 19.14690
#
# Velocity S-wave (km/s) = 1.65641 3.86702 2.97469
# Velocity P-wave (km/s) = 5.21556 7.29257 6.33970
#
# Compressibility (1/GPa) = 0.01962945
#
# Stress axis : x y z
#
# Youngs Moduli (GPa) = 49.77410 100.37989 98.53885
#
# Poissons Ratio (x) = 0.41905 0.29167
# Poissons Ratio (y) = 0.20779 0.31053
# Poissons Ratio (z) = 0.14733 0.31633
#
# Static dielectric constant tensor:
#      x y z
#    x 1.801170 0.000000 -0.007560 
#    y 0.000000 1.856910 0.000000 
#    z -0.007560 0.000000 1.896970 
# 
# From -- ./inp_files/11920.got.cif
#   From: 2010.05.17/outbox.cif.g08.bks.cpg/sg12_6_cif.got.tgz:11920.got - 2010.06.03 13:09:07.
