data_PCOD9205125
_publ_section_title
;
Structure prediction by ZEFSAII (Michael W. Deem and Ramdas Pophale) SiO2 
 PCOD9205125
Probable space group: C 2/M
;
_chemical_formula_sum "Si O2"
_cell_formula_units_Z 44
_cell_length_a 28.232413
_cell_length_b 13.092602
_cell_length_c 16.221252
_cell_angle_alpha 90.000000
_cell_angle_beta 22.470272
_cell_angle_gamma 90.000000
_cell_volume 2291.677979
_symmetry_space_group_name_H-M "C 2/M"
_symmetry_group_IT_number 12
_symmetry_cell_setting 'monoclinic'
loop_
_space_group_symop_operation_xyz
x,y,z
-x,y,-z
-x,-y,-z
x,-y,z
1/2+x,1/2+y,z
1/2-x,1/2+y,-z
1/2-x,1/2-y,-z
1/2+x,1/2-y,z
loop_
_atom_site_type_symbol
_atom_site_label
_atom_site_fract_x
_atom_site_fract_y
_atom_site_fract_z
Si Si1 0.295638 0.884298 0.259889
Si Si2 0.374772 0.817758 0.737354
Si Si3 0.600803 0.675762 0.159557
Si Si4 0.636311 0.614033 0.356481
Si Si5 0.000000 0.767844 0.000000
Si Si6 0.961259 0.118402 0.228957
O O1 0.244995 0.870314 0.248462
O O2 0.393424 0.803360 0.133892
O O3 0.173477 0.876280 0.512871
O O4 0.344554 0.000000 0.187707
O O5 0.500000 0.867343 0.500000
O O6 0.393200 0.784801 0.802694
O O7 0.364546 0.708995 0.704194
O O8 0.240325 0.867663 0.941998
O O9 0.492139 0.617867 0.384520
O O10 0.554947 0.676926 0.139623
O O11 0.647579 0.500000 0.301889
O O12 0.044339 0.836507 0.852803
O O13 0.000187 0.000000 0.165069
#
# Coordination Sequence:
#
# PCOD9205125 Si02
#       6
#     8   8   8   8   4   8
#     4   9  19  34  51  75 102 126 158 203 249 293
#     4   9  17  28  47  75  98 121 157 198 239 287
#     4   9  17  30  47  68  97 127 155 195 240 279
#     4   9  17  30  49  72  96 122 156 193 232 285
#     4  12  20  32  54  74  96 130 166 204 250 288
#     4  10  21  35  50  71  99 131 169 204 238 288
#
# _framework density 19.199905000000001
#
# number of rings (size 3 to 8) (size 9 to 14) (size 15 to 20)
#    0.000    2.545    0.000    3.818    0.000    4.000 
#    0.000    0.000    0.000    2.182    0.000   34.364 
#    0.000    0.000    0.000    0.000    0.000    0.000 
#
# Total GULP energy -122676.072034 kJ/mol
# GULP energy per Si atom -5576.185092 kJ/mol
# Density = 1.915620 g / cm^3
# Si number density = 19.199905 Si / 1000 Ang^3
#
#
#
# Elastic Constant Matrix: (Units=GPa)
#
#
# Indices 1 2 3 4 5 6 
#
# 1 93.8265 30.9057 3.3819 0.0000 -3.8230 0.0000
# 2 30.9057 52.0505 12.2406 0.0000 -0.5119 0.0000
# 3 3.3819 12.2406 72.2961 0.0000 -13.8152 0.0000
# 4 0.0000 0.0000 0.0000 30.4265 0.0000 -22.7016
# 5 -3.8230 -0.5119 -13.8152 0.0000 27.8106 0.0000
# 6 0.0000 0.0000 0.0000 -22.7016 0.0000 41.7082
#
#
#
# Elastic Compliance Matrix: (Units=1/GPa)
#
#
# Indices 1 2 3 4 5 6 
#
# 1 0.013418 -0.008228 0.001203 0.000000 0.002291 0.000000
# 2 -0.008228 0.025107 -0.004413 0.000000 -0.002861 0.000000
# 3 0.001203 -0.004413 0.016064 0.000000 0.008064 0.000000
# 4 0.000000 0.000000 0.000000 0.055340 0.000000 0.030121
# 5 0.002291 -0.002861 0.008064 0.000000 0.040226 0.000000
# 6 0.000000 0.000000 0.000000 0.030121 0.000000 0.040371
#
#
# Mechanical properties :
#
#
# Convention : Reuss Voigt Hill
#
# Bulk Modulus (GPa) = 31.53141 34.58106 33.05624
# Shear Modulus (GPa) = 22.32432 31.43206 26.87819
#
# Velocity S-wave (km/s) = 3.41358 4.05049 3.74560
# Velocity P-wave (km/s) = 5.65642 6.31866 5.99669
#
# Compressibility (1/GPa) = 0.03171440
#
# Stress axis : x y z
#
# Youngs Moduli (GPa) = 74.52660 39.82960 62.25163
#
# Poissons Ratio (x) = 0.32770 -0.07489
# Poissons Ratio (y) = 0.61317 0.27470
# Poissons Ratio (z) = -0.08966 0.17576
#
# Static dielectric constant tensor:
#      x y z
#    x 1.672470 0.000000 0.001510 
#    y 0.000000 1.669500 0.000000 
#    z 0.001510 0.000000 1.698910 
# 
# From -- ./inp_files/296636.got.cif
#   From: 2010.05.17/outbox.cif.g08.bks.cpg/sg12_149_cif.got.tgz:296636.got - 2010.06.03 13:09:07.
