data_PCOD9205390
_publ_section_title
;
Structure prediction by ZEFSAII (Michael W. Deem and Ramdas Pophale) SiO2 
 PCOD9205390
Probable space group: C 2/M
;
_chemical_formula_sum "Si O2"
_cell_formula_units_Z 36
_cell_length_a 14.316983
_cell_length_b 30.550740
_cell_length_c 5.235807
_cell_angle_alpha 90.000000
_cell_angle_beta 70.795219
_cell_angle_gamma 90.000000
_cell_volume 2162.665554
_symmetry_space_group_name_H-M "C 2/M"
_symmetry_group_IT_number 12
_symmetry_cell_setting 'monoclinic'
loop_
_space_group_symop_operation_xyz
x,y,z
-x,y,-z
-x,-y,-z
x,-y,z
1/2+x,1/2+y,z
1/2-x,1/2+y,-z
1/2-x,1/2-y,-z
1/2+x,1/2-y,z
loop_
_atom_site_type_symbol
_atom_site_label
_atom_site_fract_x
_atom_site_fract_y
_atom_site_fract_z
Si Si1 0.500000 0.740930 0.000000
Si Si2 0.294726 0.705986 0.335766
Si Si3 0.931322 0.549541 0.312861
Si Si4 0.886132 0.313481 0.794491
Si Si5 0.157630 0.639511 0.664920
O O1 0.590098 0.713051 0.807764
O O2 0.449535 0.772525 0.833518
O O3 0.250000 0.750000 0.500000
O O4 0.229327 0.700618 0.137865
O O5 0.262896 0.663474 0.529342
O O6 0.890680 0.500000 0.356372
O O7 0.851717 0.588315 0.375659
O O8 0.000000 0.555360 0.500000
O O9 0.000000 0.553162 0.000000
O O10 0.904041 0.334879 0.500611
O O11 0.885865 0.348622 0.021154
#
# Coordination Sequence:
#
# PCOD9205390 Si02
#       5
#     4   8   8   8   8
#     4  12  20  36  54  72 108 152 180 224 260 302
#     4  10  23  36  50  77 107 141 190 217 262 315
#     4  10  21  35  55  81 105 136 177 217 268 332
#     4  10  23  35  50  77 103 144 181 215 254 321
#     4  10  22  36  50  72 111 134 175 218 258 315
#
# _framework density 16.646122999999999
#
# number of rings (size 3 to 8) (size 9 to 14) (size 15 to 20)
#    1.333    0.444    2.222    2.000    4.667    2.667 
#    0.000    0.000    0.000    0.000    0.000    0.778 
#    0.000    1.778    0.000    0.000    0.000    0.000 
#
# Total GULP energy -100287.950159 kJ/mol
# GULP energy per Si atom -5571.552787 kJ/mol
# Density = 1.660824 g / cm^3
# Si number density = 16.646123 Si / 1000 Ang^3
#
#
#
# Elastic Constant Matrix: (Units=GPa)
#
#
# Indices 1 2 3 4 5 6 
#
# 1 73.6271 29.6701 15.5806 0.0000 -9.3235 0.0000
# 2 29.6701 130.7023 21.6908 0.0000 -12.7497 0.0000
# 3 15.5806 21.6908 83.0270 0.0000 14.8936 0.0000
# 4 0.0000 0.0000 0.0000 -55.0821 0.0000 10.9098
# 5 -9.3235 -12.7497 14.8936 0.0000 32.2148 0.0000
# 6 0.0000 0.0000 0.0000 10.9098 0.0000 21.9923
#
#
#
# Elastic Compliance Matrix: (Units=1/GPa)
#
#
# Indices 1 2 3 4 5 6 
#
# 1 0.015953 -0.002589 -0.003229 0.000000 0.005085 0.000000
# 2 -0.002589 0.009066 -0.002608 0.000000 0.004044 0.000000
# 3 -0.003229 -0.002608 0.014922 0.000000 -0.008866 0.000000
# 4 0.000000 0.000000 0.000000 -0.016531 0.000000 0.008200
# 5 0.005085 0.004044 -0.008866 0.000000 0.038213 0.000000
# 6 0.000000 0.000000 0.000000 0.008200 0.000000 0.041403
#
#
# Mechanical properties :
#
#
# Convention : Reuss Voigt Hill
#
# Bulk Modulus (GPa) = 43.31415 46.80437 45.05926
# Shear Modulus (GPa) = 39.19256 14.51932 26.85594
#
# Velocity S-wave (km/s) = 4.85754 2.95657 4.02100
# Velocity P-wave (km/s) = 7.58538 6.31137 6.97751
#
# Compressibility (1/GPa) = 0.02308714
#
# Stress axis : x y z
#
# Youngs Moduli (GPa) = 62.68513 110.30050 67.01515
#
# Poissons Ratio (x) = 0.28561 0.21642
# Poissons Ratio (y) = 0.16232 0.17478
# Poissons Ratio (z) = 0.20243 0.28768
#
# Static dielectric constant tensor:
#      x y z
#    x 1.611590 0.000000 -0.010590 
#    y 0.000000 1.569550 0.000000 
#    z -0.010590 0.000000 1.625330 
# 
# From -- ./inp_files/7942.got.cif
#   From: 2010.05.17/outbox.cif.g08.bks.cpg/sg12_4_cif.got.tgz:7942.got - 2010.06.03 13:09:07.
