data_PCOD9205089
_publ_section_title
;
Structure prediction by ZEFSAII (Michael W. Deem and Ramdas Pophale) SiO2 
 PCOD9205089
Probable space group: C 2/M
;
_chemical_formula_sum "Si O2"
_cell_formula_units_Z 48
_cell_length_a 15.780915
_cell_length_b 7.494490
_cell_length_c 17.017456
_cell_angle_alpha 90.000000
_cell_angle_beta 58.243611
_cell_angle_gamma 90.000000
_cell_volume 1711.345835
_symmetry_space_group_name_H-M "C 2/M"
_symmetry_group_IT_number 12
_symmetry_cell_setting 'monoclinic'
loop_
_space_group_symop_operation_xyz
x,y,z
-x,y,-z
-x,-y,-z
x,-y,z
1/2+x,1/2+y,z
1/2-x,1/2+y,-z
1/2-x,1/2-y,-z
1/2+x,1/2-y,z
loop_
_atom_site_type_symbol
_atom_site_label
_atom_site_fract_x
_atom_site_fract_y
_atom_site_fract_z
Si Si1 0.008019 0.787850 0.108143
Si Si2 0.099490 0.283764 0.608226
Si Si3 0.805003 0.285998 0.274048
Si Si4 0.892169 0.792000 0.565518
Si Si5 0.103793 0.708476 0.230717
Si Si6 0.298564 0.285493 0.062408
O O1 0.050124 0.719432 0.170924
O O2 0.889019 0.758960 0.168917
O O3 0.019796 0.000000 0.100689
O O4 0.087970 0.719348 0.004977
O O5 0.100150 0.500000 0.607408
O O6 0.149196 0.223297 0.664881
O O7 0.148174 0.216418 0.504595
O O8 0.983457 0.219936 0.670396
O O9 0.800420 0.500000 0.278564
O O10 0.691391 0.217724 0.334870
O O11 0.000000 0.703634 0.500000
O O12 0.904816 0.000000 0.577560
O O13 0.114492 0.500000 0.241472
O O14 0.213865 0.789596 0.162952
O O15 0.301105 0.500000 0.073489
O O16 0.250000 0.250000 0.000000
#
# Coordination Sequence:
#
# PCOD9205089 Si02
#       6
#     8   8   8   8   8   8
#     4   9  15  22  37  63  89 114 146 180 212 248
#     4   9  17  29  47  69  90 115 145 177 216 261
#     4   9  18  32  47  64  89 119 147 177 220 267
#     4  10  21  35  49  65  86 114 147 183 224 267
#     4   8  14  25  39  58  88 121 146 171 212 260
#     4   8  13  21  34  55  86 118 143 171 208 251
#
# _framework density 28.048100000000002
#
# number of rings (size 3 to 8) (size 9 to 14) (size 15 to 20)
#    0.000    3.167    0.000    2.000    0.000    4.333 
#    0.000    0.000    0.000    0.000    0.000    1.167 
#    0.000    9.333    0.000    0.000    0.000    0.000 
#
# Total GULP energy -134207.402347 kJ/mol
# GULP energy per Si atom -5591.975098 kJ/mol
# Density = 2.798426 g / cm^3
# Si number density = 28.048100 Si / 1000 Ang^3
#
#
#
# Elastic Constant Matrix: (Units=GPa)
#
#
# Indices 1 2 3 4 5 6 
#
# 1 120.8460 20.0783 58.4569 0.0000 -44.1437 0.0005
# 2 20.0783 112.2576 13.2468 0.0001 -7.8977 0.0013
# 3 58.4569 13.2468 296.7966 0.0000 -38.6620 0.0000
# 4 0.0000 0.0001 0.0000 12.0890 0.0000 -2.0563
# 5 -44.1437 -7.8977 -38.6620 0.0000 65.6849 0.0000
# 6 0.0005 0.0013 0.0000 -2.0563 0.0000 21.0599
#
#
#
# Elastic Compliance Matrix: (Units=1/GPa)
#
#
# Indices 1 2 3 4 5 6 
#
# 1 0.011678 -0.001446 -0.001339 0.000000 0.006887 0.000000
# 2 -0.001446 0.009185 -0.000117 0.000000 0.000064 -0.000001
# 3 -0.001339 -0.000117 0.003811 0.000000 0.001330 0.000000
# 4 0.000000 0.000000 0.000000 0.084117 0.000000 0.008213
# 5 0.006887 0.000064 0.001330 0.000000 0.020643 0.000000
# 6 0.000000 -0.000001 0.000000 0.008213 0.000000 0.048286
#
#
# Mechanical properties :
#
#
# Convention : Reuss Voigt Hill
#
# Bulk Modulus (GPa) = 52.98985 79.27380 66.13183
# Shear Modulus (GPa) = 26.34155 48.97462 37.65809
#
# Velocity S-wave (km/s) = 3.06789 4.18316 3.66816
# Velocity P-wave (km/s) = 5.61095 7.18726 6.44746
#
# Compressibility (1/GPa) = 0.01887154
#
# Stress axis : x y z
#
# Youngs Moduli (GPa) = 85.62786 108.87279 262.37217
#
# Poissons Ratio (x) = 0.15747 0.35119
# Poissons Ratio (y) = 0.12385 0.03064
# Poissons Ratio (z) = 0.11462 0.01272
#
# Static dielectric constant tensor:
#      x y z
#    x 2.366480 0.000000 -0.011870 
#    y 0.000000 1.990910 0.000000 
#    z -0.011870 0.000000 2.190310 
# 
# From -- ./inp_files/229307.got.cif
#   From: 2010.05.17/outbox.cif.g08.bks.cpg/sg12_115_cif.got.tgz:229307.got - 2010.06.03 13:09:07.
