data_PCOD9205166
_publ_section_title
;
Structure prediction by ZEFSAII (Michael W. Deem and Ramdas Pophale) SiO2 
 PCOD9205166
Probable space group: C 2/M
;
_chemical_formula_sum "Si O2"
_cell_formula_units_Z 48
_cell_length_a 19.057995
_cell_length_b 8.882859
_cell_length_c 15.787755
_cell_angle_alpha 90.000000
_cell_angle_beta 89.804270
_cell_angle_gamma 90.000000
_cell_volume 2672.685277
_symmetry_space_group_name_H-M "C 2/M"
_symmetry_group_IT_number 12
_symmetry_cell_setting 'monoclinic'
loop_
_space_group_symop_operation_xyz
x,y,z
-x,y,-z
-x,-y,-z
x,-y,z
1/2+x,1/2+y,z
1/2-x,1/2+y,-z
1/2-x,1/2-y,-z
1/2+x,1/2-y,z
loop_
_atom_site_type_symbol
_atom_site_label
_atom_site_fract_x
_atom_site_fract_y
_atom_site_fract_z
Si Si1 0.294318 0.821248 0.924156
Si Si2 0.706527 0.818146 0.577608
Si Si3 0.044247 0.318429 0.581803
Si Si4 0.206667 0.818786 0.256250
Si Si5 0.053612 0.820263 0.074955
Si Si6 0.042905 0.179496 0.266707
O O1 0.272697 0.757253 0.832224
O O2 0.374773 0.770230 0.935617
O O3 0.287806 0.000000 0.925059
O O4 0.250000 0.750000 0.000000
O O5 0.750000 0.750000 0.500000
O O6 0.625290 0.769450 0.576163
O O7 0.743835 0.776445 0.665862
O O8 0.708466 0.000000 0.571352
O O9 0.043874 0.500000 0.582780
O O10 0.000000 0.267774 0.500000
O O11 0.005910 0.260515 0.665818
O O12 0.125310 0.778827 0.276283
O O13 0.208858 0.000000 0.245392
O O14 0.024195 0.787050 0.168930
O O15 0.069780 0.000000 0.073667
O O16 0.000000 0.788001 0.000000
O O17 0.037554 0.000000 0.279298
#
# Coordination Sequence:
#
# PCOD9205166 Si02
#       6
#     8   8   8   8   8   8
#     4  11  22  36  56  81 110 145 185 228 276 329
#     4  10  21  36  55  79 107 140 177 220 267 318
#     4  10  21  35  51  75 107 138 169 211 264 317
#     4   9  19  37  56  76 105 140 181 226 270 318
#     4   9  19  37  58  81 112 145 178 220 270 325
#     4   9  18  33  54  77 101 134 174 215 258 306
#
# _framework density 17.959465999999999
#
# number of rings (size 3 to 8) (size 9 to 14) (size 15 to 20)
#    0.000    2.333    0.000    3.500    0.000    6.000 
#    0.000    3.333    0.000    0.000    0.000    0.000 
#    0.000    0.000    0.000    0.000    0.000    0.000 
#
# Total GULP energy -133971.357966 kJ/mol
# GULP energy per Si atom -5582.139915 kJ/mol
# Density = 1.791859 g / cm^3
# Si number density = 17.959466 Si / 1000 Ang^3
#
#
#
# Elastic Constant Matrix: (Units=GPa)
#
#
# Indices 1 2 3 4 5 6 
#
# 1 125.6018 45.5660 119.4349 0.0000 -0.5916 0.0000
# 2 45.5660 40.0612 63.0296 0.0000 -2.7006 0.0000
# 3 119.4349 63.0296 188.4188 0.0000 -0.9462 0.0000
# 4 0.0000 0.0000 0.0000 33.0439 0.0000 -10.2176
# 5 -0.5916 -2.7006 -0.9462 0.0000 40.7936 0.0000
# 6 0.0000 0.0000 0.0000 -10.2176 0.0000 22.9383
#
#
#
# Elastic Compliance Matrix: (Units=1/GPa)
#
#
# Indices 1 2 3 4 5 6 
#
# 1 0.020738 -0.006180 -0.011080 0.000000 -0.000365 0.000000
# 2 -0.006180 0.054928 -0.014441 0.000000 0.003212 0.000000
# 3 -0.011080 -0.014441 0.017158 0.000000 -0.000719 0.000000
# 4 0.000000 0.000000 0.000000 0.035097 0.000000 0.015633
# 5 -0.000365 0.003212 -0.000719 0.000000 0.024704 0.000000
# 6 0.000000 0.000000 0.000000 0.015633 0.000000 0.050559
#
#
# Mechanical properties :
#
#
# Convention : Reuss Voigt Hill
#
# Bulk Modulus (GPa) = 33.98806 90.01587 62.00197
# Shear Modulus (GPa) = 18.09030 27.75857 22.92444
#
# Velocity S-wave (km/s) = 3.17722 3.93571 3.57663
# Velocity P-wave (km/s) = 5.69435 8.41924 7.18711
#
# Compressibility (1/GPa) = 0.02942210
#
# Stress axis : x y z
#
# Youngs Moduli (GPa) = 48.22169 18.20580 58.28255
#
# Poissons Ratio (x) = 0.11250 0.64576
# Poissons Ratio (y) = 0.29799 0.84166
# Poissons Ratio (z) = 0.53429 0.26291
#
# Static dielectric constant tensor:
#      x y z
#    x 1.597230 0.000000 0.019490 
#    y 0.000000 1.603210 0.000000 
#    z 0.019490 0.000000 1.595290 
# 
# From -- ./inp_files/221574.got.cif
#   From: 2010.05.17/outbox.cif.g08.bks.cpg/sg12_111_cif.got.tgz:221574.got - 2010.06.03 13:09:07.
