data_PCOD9205076
_publ_section_title
;
Structure prediction by ZEFSAII (Michael W. Deem and Ramdas Pophale) SiO2 
 PCOD9205076
Probable space group: C 2/M
;
_chemical_formula_sum "Si O2"
_cell_formula_units_Z 32
_cell_length_a 9.233364
_cell_length_b 24.445174
_cell_length_c 6.588722
_cell_angle_alpha 90.000000
_cell_angle_beta 129.349126
_cell_angle_gamma 90.000000
_cell_volume 1150.007093
_symmetry_space_group_name_H-M "C 2/M"
_symmetry_group_IT_number 12
_symmetry_cell_setting 'monoclinic'
loop_
_space_group_symop_operation_xyz
x,y,z
-x,y,-z
-x,-y,-z
x,-y,z
1/2+x,1/2+y,z
1/2-x,1/2+y,-z
1/2-x,1/2-y,-z
1/2+x,1/2-y,z
loop_
_atom_site_type_symbol
_atom_site_label
_atom_site_fract_x
_atom_site_fract_y
_atom_site_fract_z
Si Si1 0.705207 0.061135 0.201896
Si Si2 0.245810 0.180248 0.095751
Si Si3 0.000000 0.726210 0.000000
Si Si4 0.222469 0.439619 0.748857
Si Si5 0.500000 0.357959 0.500000
O O1 0.842709 0.099696 0.443057
O O2 0.685310 0.000000 0.262570
O O3 0.500000 0.085222 0.000000
O O4 0.770582 0.056650 0.030778
O O5 0.101845 0.172776 0.774769
O O6 0.175610 0.231755 0.163856
O O7 0.442074 0.192462 0.151548
O O8 0.237442 0.125873 0.224258
O O9 0.296469 0.500000 0.741602
O O10 0.000000 0.441912 0.500000
#
# Coordination Sequence:
#
# PCOD9205076 Si02
#       5
#     8   8   4   8   4
#     4   9  18  33  56  89 130 171 212 264 327 397
#     4  10  23  44  66  96 131 176 223 282 332 400
#     4  10  24  48  62  92 134 176 234 272 334 394
#     4   9  19  37  62  96 131 170 214 266 336 404
#     4  10  21  34  62  94 124 168 217 278 328 394
#
# _framework density 27.825917
#
# number of rings (size 3 to 8) (size 9 to 14) (size 15 to 20)
#    0.000    2.500    0.000    0.375    7.000    4.000 
#    9.000    0.625    0.000    0.000    0.000    0.000 
#    0.000    0.000    0.000    0.000    0.000    0.000 
#
# Total GULP energy -89133.189015 kJ/mol
# GULP energy per Si atom -5570.824313 kJ/mol
# Density = 2.776258 g / cm^3
# Si number density = 27.825917 Si / 1000 Ang^3
#
#
#
# Elastic Constant Matrix: (Units=GPa)
#
#
# Indices 1 2 3 4 5 6 
#
# 1 121.8441 72.0140 38.6278 0.0000 1.7149 0.0000
# 2 72.0140 203.0462 39.7030 0.0000 5.0268 0.0000
# 3 38.6278 39.7030 147.7014 0.0000 2.9620 0.0000
# 4 0.0000 0.0000 0.0000 30.5021 0.0000 20.7269
# 5 1.7149 5.0268 2.9620 0.0000 50.6162 0.0000
# 6 0.0000 0.0000 0.0000 20.7269 0.0000 6.4919
#
#
#
# Elastic Compliance Matrix: (Units=1/GPa)
#
#
# Indices 1 2 3 4 5 6 
#
# 1 0.010870 -0.003484 -0.001908 0.000000 0.000089 0.000000
# 2 -0.003484 0.006325 -0.000780 0.000000 -0.000464 0.000000
# 3 -0.001908 -0.000780 0.007485 0.000000 -0.000296 0.000000
# 4 0.000000 0.000000 0.000000 -0.028032 0.000000 0.089499
# 5 0.000089 -0.000464 -0.000296 0.000000 0.019817 0.000000
# 6 0.000000 0.000000 0.000000 0.089499 0.000000 -0.131708
#
#
# Mechanical properties :
#
#
# Convention : Reuss Voigt Hill
#
# Bulk Modulus (GPa) = 81.06430 85.92013 83.49222
# Shear Modulus (GPa) = -50.61364 39.00517 -5.80424
#
# Velocity S-wave (km/s) = -4.26953 3.74807 -1.44583
# Velocity P-wave (km/s) = 2.21150 7.04808 5.22332
#
# Compressibility (1/GPa) = 0.01233589
#
# Stress axis : x y z
#
# Youngs Moduli (GPa) = 91.99392 158.10919 133.60247
#
# Poissons Ratio (x) = 0.55093 0.25492
# Poissons Ratio (y) = 0.32055 0.10415
# Poissons Ratio (z) = 0.17553 0.12325
#
# Static dielectric constant tensor:
#      x y z
#    x 2.644090 0.000000 0.037940 
#    y 0.000000 2.261670 0.000000 
#    z 0.037940 0.000000 2.078050 
# 
# From -- ./inp_files/52189.got.cif
#   From: 2010.05.17/outbox.cif.g08.bks.cpg/sg12_27_cif.got.tgz:52189.got - 2010.06.03 13:09:07.
