data_PCOD9205700
_publ_section_title
;
Structure prediction by ZEFSAII (Michael W. Deem and Ramdas Pophale) SiO2 
 PCOD9205700
Probable space group: C 2/M
;
_chemical_formula_sum "Si O2"
_cell_formula_units_Z 28
_cell_length_a 17.247054
_cell_length_b 16.424116
_cell_length_c 5.230879
_cell_angle_alpha 90.000000
_cell_angle_beta 81.232715
_cell_angle_gamma 90.000000
_cell_volume 1464.425355
_symmetry_space_group_name_H-M "C 2/M"
_symmetry_group_IT_number 12
_symmetry_cell_setting 'monoclinic'
loop_
_space_group_symop_operation_xyz
x,y,z
-x,y,-z
-x,-y,-z
x,-y,z
1/2+x,1/2+y,z
1/2-x,1/2+y,-z
1/2-x,1/2-y,-z
1/2+x,1/2-y,z
loop_
_atom_site_type_symbol
_atom_site_label
_atom_site_fract_x
_atom_site_fract_y
_atom_site_fract_z
Si Si1 0.924640 0.588075 0.354852
Si Si2 0.709922 0.000000 0.345501
Si Si3 0.187550 0.000000 0.204434
Si Si4 0.452280 0.620413 0.778193
Si Si5 0.000000 0.721326 0.000000
O O1 0.926157 0.500000 0.212295
O O2 0.846966 0.577193 0.565473
O O3 0.000000 0.590853 0.500000
O O4 0.935862 0.663595 0.164252
O O5 0.775957 0.000000 0.531638
O O6 0.746348 0.000000 0.047519
O O7 0.131677 0.921562 0.194640
O O8 0.500000 0.600939 0.500000
O O9 0.500000 0.589043 0.000000
O O10 0.456837 0.717737 0.823861
#
# Coordination Sequence:
#
# PCOD9205700 Si02
#       5
#     8   4   4   8   4
#     4   9  20  38  65  90 118 160 215 244 295 359
#     4  10  25  36  66  90 125 159 200 248 312 362
#     4  12  22  43  60  94 127 159 200 248 311 362
#     4  10  22  39  66  91 118 162 209 249 292 359
#     4  10  21  35  68  90 120 152 220 247 297 342
#
# _framework density 19.120127
#
# number of rings (size 3 to 8) (size 9 to 14) (size 15 to 20)
#    1.714    0.286    0.000    3.857    4.000    0.000 
#    0.000    2.857    0.000    0.000    0.000    0.000 
#    0.000    0.000    0.000    0.000    0.000    0.000 
#
# Total GULP energy -77949.540088 kJ/mol
# GULP energy per Si atom -5567.824292 kJ/mol
# Density = 1.907661 g / cm^3
# Si number density = 19.120127 Si / 1000 Ang^3
#
#
#
# Elastic Constant Matrix: (Units=GPa)
#
#
# Indices 1 2 3 4 5 6 
#
# 1 72.9172 15.5376 13.6598 0.0000 -1.5827 0.0000
# 2 15.5376 113.6680 23.4220 0.0000 -16.0898 0.0000
# 3 13.6598 23.4220 92.5229 0.0000 -14.6083 0.0000
# 4 0.0000 0.0000 0.0000 -106.7100 0.0000 14.2550
# 5 -1.5827 -16.0898 -14.6083 0.0000 43.3153 0.0000
# 6 0.0000 0.0000 0.0000 14.2550 0.0000 -9.1398
#
#
#
# Elastic Compliance Matrix: (Units=1/GPa)
#
#
# Indices 1 2 3 4 5 6 
#
# 1 0.014399 -0.001697 -0.001809 0.000000 -0.000714 0.000000
# 2 -0.001697 0.009816 -0.001762 0.000000 0.002990 0.000000
# 3 -0.001809 -0.001762 0.012049 0.000000 0.003343 0.000000
# 4 0.000000 0.000000 0.000000 -0.011838 0.000000 -0.018462
# 5 -0.000714 0.002990 0.003343 0.000000 0.025298 0.000000
# 6 0.000000 0.000000 0.000000 -0.018462 0.000000 -0.138207
#
#
# Mechanical properties :
#
#
# Convention : Reuss Voigt Hill
#
# Bulk Modulus (GPa) = 38.86806 42.70519 40.78663
# Shear Modulus (GPa) = -72.07774 0.59236 -35.74269
#
# Velocity S-wave (km/s) = -6.14647 0.55721 -4.32832
# Velocity P-wave (km/s) = 5.47720 4.77469 1.89764
#
# Compressibility (1/GPa) = 0.02572806
#
# Stress axis : x y z
#
# Youngs Moduli (GPa) = 69.44874 101.87644 82.99335
#
# Poissons Ratio (x) = 0.17284 0.15015
# Poissons Ratio (y) = 0.11782 0.14626
# Poissons Ratio (z) = 0.12564 0.17954
#
# Static dielectric constant tensor:
#      x y z
#    x 1.646940 0.000000 0.001850 
#    y 0.000000 1.704130 0.000000 
#    z 0.001850 0.000000 1.686280 
# 
# From -- ./inp_files/14703.got.cif
#   From: 2010.05.17/outbox.cif.g08.bks.cpg/sg12_8_cif.got.tgz:14703.got - 2010.06.03 13:09:07.
