data_PCOD9205106
_publ_section_title
;
Structure prediction by ZEFSAII (Michael W. Deem and Ramdas Pophale) SiO2 
 PCOD9205106
Probable space group: C 2/M
;
_chemical_formula_sum "Si O2"
_cell_formula_units_Z 48
_cell_length_a 15.896767
_cell_length_b 7.748625
_cell_length_c 14.453925
_cell_angle_alpha 90.000000
_cell_angle_beta 85.753816
_cell_angle_gamma 90.000000
_cell_volume 1775.519814
_symmetry_space_group_name_H-M "C 2/M"
_symmetry_group_IT_number 12
_symmetry_cell_setting 'monoclinic'
loop_
_space_group_symop_operation_xyz
x,y,z
-x,y,-z
-x,-y,-z
x,-y,z
1/2+x,1/2+y,z
1/2-x,1/2+y,-z
1/2-x,1/2-y,-z
1/2+x,1/2-y,z
loop_
_atom_site_type_symbol
_atom_site_label
_atom_site_fract_x
_atom_site_fract_y
_atom_site_fract_z
Si Si1 0.421001 0.707419 0.942811
Si Si2 0.194146 0.794873 0.278669
Si Si3 0.073758 0.799597 0.433572
Si Si4 0.850657 0.291464 0.393923
Si Si5 0.457907 0.205577 0.218540
Si Si6 0.199892 0.200006 0.898350
O O1 0.416589 0.500000 0.949258
O O2 0.453957 0.747775 0.837400
O O3 0.500000 0.768214 0.000000
O O4 0.337015 0.775197 0.001843
O O5 0.112927 0.718402 0.337985
O O6 0.272919 0.737848 0.335721
O O7 0.224900 0.772505 0.170895
O O8 0.185614 0.000000 0.290367
O O9 0.146846 0.794143 0.506458
O O10 0.000000 0.711884 0.500000
O O11 0.051236 0.000000 0.419226
O O12 0.848798 0.500000 0.403445
O O13 0.933071 0.241754 0.324699
O O14 0.383664 0.282870 0.160246
O O15 0.448560 0.000000 0.215223
O O16 0.217036 0.000000 0.908639
#
# Coordination Sequence:
#
# PCOD9205106 Si02
#       6
#     8   8   8   8   8   8
#     4   8  14  23  35  57  90 122 150 182 221 267
#     4   9  18  32  48  68  94 121 153 191 228 272
#     4  10  21  35  50  69  92 119 152 190 233 279
#     4   9  18  31  47  69  94 121 154 189 225 268
#     4   9  16  25  39  62  91 121 153 186 223 268
#     4   9  16  25  39  62  91 121 153 186 223 268
#
# _framework density 27.034337000000001
#
# number of rings (size 3 to 8) (size 9 to 14) (size 15 to 20)
#    0.000    3.000    0.000    3.500    0.000    8.000 
#    0.000    0.000    0.000    0.000    0.000    1.167 
#    0.000    0.000    0.000    0.000    0.000    0.000 
#
# Total GULP energy -134146.662219 kJ/mol
# GULP energy per Si atom -5589.444259 kJ/mol
# Density = 2.697281 g / cm^3
# Si number density = 27.034337 Si / 1000 Ang^3
#
#
#
# Elastic Constant Matrix: (Units=GPa)
#
#
# Indices 1 2 3 4 5 6 
#
# 1 97.5034 12.5634 73.3453 0.0000 -45.0027 0.0000
# 2 12.5634 75.5461 1.6576 0.0000 -9.9470 0.0000
# 3 73.3453 1.6576 271.9361 0.0000 -41.6554 0.0000
# 4 0.0000 0.0000 0.0000 29.1943 0.0000 5.9693
# 5 -45.0027 -9.9470 -41.6554 0.0000 72.5537 0.0000
# 6 0.0000 0.0000 0.0000 5.9693 0.0000 17.7274
#
#
#
# Elastic Compliance Matrix: (Units=1/GPa)
#
#
# Indices 1 2 3 4 5 6 
#
# 1 0.016724 -0.001618 -0.003230 0.000000 0.008297 0.000000
# 2 -0.001618 0.013649 0.000533 0.000000 0.001174 0.000000
# 3 -0.003230 0.000533 0.004659 0.000000 0.000745 0.000000
# 4 0.000000 0.000000 0.000000 0.036786 0.000000 -0.012387
# 5 0.008297 0.001174 0.000745 0.000000 0.019518 0.000000
# 6 0.000000 0.000000 0.000000 -0.012387 0.000000 0.060581
#
#
# Mechanical properties :
#
#
# Convention : Reuss Voigt Hill
#
# Bulk Modulus (GPa) = 37.87547 68.90201 53.38874
# Shear Modulus (GPa) = 29.52526 47.72301 38.62414
#
# Velocity S-wave (km/s) = 3.30834 4.20607 3.78392
# Velocity P-wave (km/s) = 5.35108 7.00930 6.23555
#
# Compressibility (1/GPa) = 0.02640231
#
# Stress axis : x y z
#
# Youngs Moduli (GPa) = 59.79599 73.26626 214.62470
#
# Poissons Ratio (x) = 0.11853 0.69319
# Poissons Ratio (y) = 0.09674 -0.11438
# Poissons Ratio (z) = 0.19313 -0.03905
#
# Static dielectric constant tensor:
#      x y z
#    x 2.263790 0.000000 -0.017320 
#    y 0.000000 1.934190 0.000000 
#    z -0.017320 0.000000 2.165740 
# 
# From -- ./inp_files/274621.got.cif
#   From: 2010.05.17/outbox.cif.g08.bks.cpg/sg12_138_cif.got.tgz:274621.got - 2010.06.03 13:09:07.
