data_PCOD9205323
_publ_section_title
;
Structure prediction by ZEFSAII (Michael W. Deem and Ramdas Pophale) SiO2 
 PCOD9205323
Probable space group: C 2/M
;
_chemical_formula_sum "Si O2"
_cell_formula_units_Z 56
_cell_length_a 14.838560
_cell_length_b 8.229487
_cell_length_c 25.476074
_cell_angle_alpha 90.000000
_cell_angle_beta 117.282250
_cell_angle_gamma 90.000000
_cell_volume 2764.911085
_symmetry_space_group_name_H-M "C 2/M"
_symmetry_group_IT_number 12
_symmetry_cell_setting 'monoclinic'
loop_
_space_group_symop_operation_xyz
x,y,z
-x,y,-z
-x,-y,-z
x,-y,z
1/2+x,1/2+y,z
1/2-x,1/2+y,-z
1/2-x,1/2-y,-z
1/2+x,1/2-y,z
loop_
_atom_site_type_symbol
_atom_site_label
_atom_site_fract_x
_atom_site_fract_y
_atom_site_fract_z
Si Si1 0.257310 0.306231 0.061392
Si Si2 0.677117 0.694296 0.408291
Si Si3 0.392122 0.187542 0.723531
Si Si4 0.064962 0.814563 0.064512
Si Si5 0.687506 0.693058 0.189755
Si Si6 0.899407 0.304252 0.502954
Si Si7 0.892427 0.189549 0.190375
O O1 0.233841 0.500000 0.059513
O O2 0.176346 0.195196 0.069490
O O3 0.361033 0.281939 0.121164
O O4 0.250000 0.250000 0.000000
O O5 0.677963 0.500000 0.411239
O O6 0.637380 0.747395 0.341318
O O7 0.792966 0.753312 0.449100
O O8 0.608698 0.757562 0.438116
O O9 0.334891 0.277167 0.755637
O O10 0.511914 0.209731 0.765321
O O11 0.364486 0.000000 0.719416
O O12 0.090865 0.745489 0.128896
O O13 0.026039 0.000000 0.060531
O O14 0.000000 0.735189 0.000000
O O15 0.694720 0.500000 0.182019
O O16 0.790988 0.774553 0.197032
O O17 0.900322 0.500000 0.499832
O O18 0.000000 0.243816 0.500000
O O19 0.918916 0.000000 0.202704
#
# Coordination Sequence:
#
# PCOD9205323 Si02
#       7
#     8   8   8   8   8   8   8
#     4  10  21  35  54  79 108 141 182 236 295 360
#     4  10  21  38  60  90 125 159 202 250 294 348
#     4  12  25  40  61  87 121 164 207 252 303 358
#     4   9  19  35  55  79 107 141 183 234 294 357
#     4  10  21  39  60  84 117 153 195 247 304 367
#     4   9  19  38  64  92 125 162 199 241 291 348
#     4  10  22  41  60  82 114 152 198 250 304 363
#
# _framework density 20.253817000000002
#
# number of rings (size 3 to 8) (size 9 to 14) (size 15 to 20)
#    0.000    2.000    0.000    3.000    2.000    4.571 
#    0.000    4.286    0.000    0.000    0.000    0.000 
#    0.000    0.000    0.000    0.000    0.000    0.000 
#
# Total GULP energy -156197.635521 kJ/mol
# GULP energy per Si atom -5578.486983 kJ/mol
# Density = 2.020772 g / cm^3
# Si number density = 20.253817 Si / 1000 Ang^3
#
#
#
# Elastic Constant Matrix: (Units=GPa)
#
#
# Indices 1 2 3 4 5 6 
#
# 1 84.5532 15.1375 50.4771 0.0000 -13.1555 0.0000
# 2 15.1375 23.0985 4.2028 0.0000 -3.4088 0.0000
# 3 50.4771 4.2028 143.2798 0.0000 -26.5248 0.0000
# 4 0.0000 0.0000 0.0000 21.2692 0.0000 -2.9772
# 5 -13.1555 -3.4088 -26.5248 0.0000 22.4128 0.0000
# 6 0.0000 0.0000 0.0000 -2.9772 0.0000 24.7067
#
#
#
# Elastic Compliance Matrix: (Units=1/GPa)
#
#
# Indices 1 2 3 4 5 6 
#
# 1 0.017135 -0.009929 -0.005331 0.000000 0.002239 0.000000
# 2 -0.009929 0.050041 0.003022 0.000000 0.005360 0.000000
# 3 -0.005331 0.003022 0.010596 0.000000 0.009871 0.000000
# 4 0.000000 0.000000 0.000000 0.047823 0.000000 0.005763
# 5 0.002239 0.005360 0.009871 0.000000 0.058428 0.000000
# 6 0.000000 0.000000 0.000000 0.005763 0.000000 0.041169
#
#
# Mechanical properties :
#
#
# Convention : Reuss Voigt Hill
#
# Bulk Modulus (GPa) = 18.76292 43.39627 31.07960
# Shear Modulus (GPa) = 18.69616 25.75200 22.22408
#
# Velocity S-wave (km/s) = 3.04154 3.56963 3.31611
# Velocity P-wave (km/s) = 4.64958 6.20181 5.48092
#
# Compressibility (1/GPa) = 0.05329661
#
# Stress axis : x y z
#
# Youngs Moduli (GPa) = 58.35873 19.98361 94.37388
#
# Poissons Ratio (x) = 0.19842 0.50312
# Poissons Ratio (y) = 0.57946 -0.28524
# Poissons Ratio (z) = 0.31112 -0.06040
#
# Static dielectric constant tensor:
#      x y z
#    x 1.710490 0.000000 0.009350 
#    y 0.000000 1.719530 0.000000 
#    z 0.009350 0.000000 1.757550 
# 
# From -- ./inp_files/339086.got.cif
#   From: 2010.05.17/outbox.cif.g08.bks.cpg/sg12_170_cif.got.tgz:339086.got - 2010.06.03 13:09:07.
