data_PCOD9205227
_publ_section_title
;
Structure prediction by ZEFSAII (Michael W. Deem and Ramdas Pophale) SiO2 
 PCOD9205227
Probable space group: C 2/M
;
_chemical_formula_sum "Si O2"
_cell_formula_units_Z 58
_cell_length_a 17.823590
_cell_length_b 16.245908
_cell_length_c 12.504622
_cell_angle_alpha 90.000000
_cell_angle_beta 67.375709
_cell_angle_gamma 90.000000
_cell_volume 3342.209386
_symmetry_space_group_name_H-M "C 2/M"
_symmetry_group_IT_number 12
_symmetry_cell_setting 'monoclinic'
loop_
_space_group_symop_operation_xyz
x,y,z
-x,y,-z
-x,-y,-z
x,-y,z
1/2+x,1/2+y,z
1/2-x,1/2+y,-z
1/2-x,1/2-y,-z
1/2+x,1/2-y,z
loop_
_atom_site_type_symbol
_atom_site_label
_atom_site_fract_x
_atom_site_fract_y
_atom_site_fract_z
Si Si1 0.422306 0.305375 0.490747
Si Si2 0.647302 0.096681 0.185248
Si Si3 0.220172 0.708280 0.322075
Si Si4 0.218500 0.093266 0.524433
Si Si5 0.000000 0.500000 0.500000
Si Si6 0.329859 0.137050 0.270022
Si Si7 0.588168 0.095793 0.989190
Si Si8 0.468342 0.134232 0.364679
O O1 0.500000 0.348580 0.500000
O O2 0.358834 0.264580 0.609520
O O3 0.368629 0.364674 0.447253
O O4 0.459735 0.227438 0.407559
O O5 0.705327 0.153019 0.225823
O O6 0.558483 0.102958 0.288404
O O7 0.671862 0.000000 0.171806
O O8 0.630060 0.128543 0.074325
O O9 0.234026 0.651154 0.418353
O O10 0.296581 0.770106 0.273972
O O11 0.264090 0.095918 0.384831
O O12 0.213462 0.000000 0.565332
O O13 0.055461 0.572158 0.528061
O O14 0.349621 0.101748 0.143234
O O15 0.412595 0.127481 0.291552
O O16 0.571910 0.000000 0.024336
O O17 0.500000 0.131009 0.000000
#
# Coordination Sequence:
#
# PCOD9205227 Si02
#       8
#     8   8   8   8   2   8   8   8
#     4  11  20  36  53  76 114 142 176 225 265 327
#     4  11  22  34  54  83 111 139 183 230 270 321
#     4  11  21  36  54  81 110 145 175 224 283 320
#     4  11  23  35  54  80 109 146 181 219 276 330
#     4  12  24  24  52  94 106 144 174 212 290 324
#     4  11  22  36  55  76 114 148 176 220 276 334
#     4  10  21  35  52  79 110 144 181 223 274 324
#     4  12  20  32  52  83 113 140 174 220 275 325
#
# _framework density 17.35379
#
# number of rings (size 3 to 8) (size 9 to 14) (size 15 to 20)
#    0.000    0.966    6.897    1.655    1.931    0.828 
#    0.000    0.000    0.000    0.000    0.000    0.000 
#    0.000    2.483    0.000    0.000    0.000    0.000 
#
# Total GULP energy -161469.571111 kJ/mol
# GULP energy per Si atom -5567.916245 kJ/mol
# Density = 1.731429 g / cm^3
# Si number density = 17.353790 Si / 1000 Ang^3
#
#
#
# Elastic Constant Matrix: (Units=GPa)
#
#
# Indices 1 2 3 4 5 6 
#
# 1 88.6497 26.2362 23.9557 0.0000 21.6753 0.0000
# 2 26.2362 59.9854 4.5247 0.0000 7.3032 0.0000
# 3 23.9557 4.5247 69.7253 0.0000 23.1194 0.0000
# 4 0.0000 0.0000 0.0000 20.0909 0.0000 11.8047
# 5 21.6753 7.3032 23.1194 0.0000 23.3919 0.0000
# 6 0.0000 0.0000 0.0000 11.8047 0.0000 20.0454
#
#
#
# Elastic Compliance Matrix: (Units=1/GPa)
#
#
# Indices 1 2 3 4 5 6 
#
# 1 0.016196 -0.005520 -0.001192 0.000000 -0.012106 0.000000
# 2 -0.005520 0.019257 0.001405 0.000000 -0.002286 0.000000
# 3 -0.001192 0.001405 0.021478 0.000000 -0.020562 0.000000
# 4 0.000000 0.000000 0.000000 0.076108 0.000000 -0.044820
# 5 -0.012106 -0.002286 -0.020562 0.000000 0.075003 0.000000
# 6 0.000000 0.000000 0.000000 -0.044820 0.000000 0.076281
#
#
# Mechanical properties :
#
#
# Convention : Reuss Voigt Hill
#
# Bulk Modulus (GPa) = 21.59043 36.42151 29.00597
# Shear Modulus (GPa) = 16.10939 23.61524 19.86232
#
# Velocity S-wave (km/s) = 3.05009 3.69292 3.38679
# Velocity P-wave (km/s) = 4.98723 6.26233 5.66079
#
# Compressibility (1/GPa) = 0.04631681
#
# Stress axis : x y z
#
# Youngs Moduli (GPa) = 61.74324 51.92818 46.55847
#
# Poissons Ratio (x) = 0.28664 0.05551
# Poissons Ratio (y) = 0.34082 -0.06541
# Poissons Ratio (z) = 0.07362 -0.07295
#
# Static dielectric constant tensor:
#      x y z
#    x 1.628310 0.000000 0.016120 
#    y 0.000000 1.594270 0.000000 
#    z 0.016120 0.000000 1.650660 
# 
# From -- ./inp_files/157784.got.cif
#   From: 2010.05.17/outbox.cif.g08.bks.cpg/sg12_79_cif.got.tgz:157784.got - 2010.06.03 13:09:07.
