data_PCOD9205098
_publ_section_title
;
Structure prediction by ZEFSAII (Michael W. Deem and Ramdas Pophale) SiO2 
 PCOD9205098
Probable space group: C 2/M
;
_chemical_formula_sum "Si O2"
_cell_formula_units_Z 50
_cell_length_a 9.672434
_cell_length_b 28.896821
_cell_length_c 15.011342
_cell_angle_alpha 90.000000
_cell_angle_beta 130.116338
_cell_angle_gamma 90.000000
_cell_volume 3208.616858
_symmetry_space_group_name_H-M "C 2/M"
_symmetry_group_IT_number 12
_symmetry_cell_setting 'monoclinic'
loop_
_space_group_symop_operation_xyz
x,y,z
-x,y,-z
-x,-y,-z
x,-y,z
1/2+x,1/2+y,z
1/2-x,1/2+y,-z
1/2-x,1/2-y,-z
1/2+x,1/2-y,z
loop_
_atom_site_type_symbol
_atom_site_label
_atom_site_fract_x
_atom_site_fract_y
_atom_site_fract_z
Si Si1 0.362321 0.829713 0.362321
Si Si2 0.006653 0.656876 0.235445
Si Si3 0.964237 0.843124 0.235445
Si Si4 0.858461 0.779801 0.358461
Si Si5 0.835724 0.203201 0.000000
Si Si6 0.000000 0.500000 0.000000
Si Si7 0.869584 0.595446 0.869584
O O1 0.500000 0.830842 0.500000
O O2 0.452662 0.852682 0.314080
O O3 0.328615 0.774777 0.328615
O O4 0.175498 0.852682 0.314080
O O5 0.169047 0.694663 0.301307
O O6 0.068500 0.613918 0.200662
O O7 0.825451 0.676457 0.115504
O O8 0.933568 0.805337 0.301307
O O9 0.905557 0.823543 0.115504
O O10 0.832824 0.886082 0.200662
O O11 0.000000 0.784436 0.500000
O O12 0.750000 0.250000 0.000000
O O13 0.000000 0.211132 0.000000
O O14 0.900107 0.541528 0.900107
O O15 0.000000 0.618644 0.000000
#
# Coordination Sequence:
#
# PCOD9205098 Si02
#       7
#     8   8   8   8   8   2   8
#     4  11  21  34  49  71 108 154 193 216 242 285
#     4  11  21  33  49  77 104 138 175 225 258 299
#     4  11  21  33  49  77 104 138 175 225 258 299
#     4  10  21  35  49  69 105 154 200 224 238 274
#     4  12  23  30  45  69 102 144 178 212 256 305
#     4   8  16  40  64  82  98 128 152 206 268 354
#     4   9  19  35  58  79 104 118 159 207 268 331
#
# _framework density 15.583038999999999
#
# number of rings (size 3 to 8) (size 9 to 14) (size 15 to 20)
#    0.480    0.960    3.200    3.840    4.480    2.560 
#    0.000    0.000    0.000    1.920    0.000   21.280 
#    0.000    0.000    0.000    0.000    0.000    0.000 
#
# Total GULP energy -139181.112079 kJ/mol
# GULP energy per Si atom -5567.244483 kJ/mol
# Density = 1.554757 g / cm^3
# Si number density = 15.583039 Si / 1000 Ang^3
#
#
#
# Elastic Constant Matrix: (Units=GPa)
#
#
# Indices 1 2 3 4 5 6 
#
# 1 150.2499 52.8628 46.9447 0.0000 1.4312 0.0000
# 2 52.8628 94.4930 33.9592 0.0000 0.5476 0.0000
# 3 46.9447 33.9592 86.1373 0.0000 0.4260 0.0000
# 4 0.0000 0.0000 0.0000 13.1700 0.0000 -0.2965
# 5 1.4312 0.5476 0.4260 0.0000 26.9787 0.0000
# 6 0.0000 0.0000 0.0000 -0.2965 0.0000 2.9385
#
#
#
# Elastic Compliance Matrix: (Units=1/GPa)
#
#
# Indices 1 2 3 4 5 6 
#
# 1 0.009085 -0.003847 -0.003433 0.000000 -0.000350 0.000000
# 2 -0.003847 0.013959 -0.003407 0.000000 -0.000025 0.000000
# 3 -0.003433 -0.003407 0.014823 0.000000 0.000017 0.000000
# 4 0.000000 0.000000 0.000000 0.076103 0.000000 0.007678
# 5 -0.000350 -0.000025 0.000017 0.000000 0.037085 0.000000
# 6 0.000000 0.000000 0.000000 0.007678 0.000000 0.341082
#
#
# Mechanical properties :
#
#
# Convention : Reuss Voigt Hill
#
# Bulk Modulus (GPa) = 60.62591 66.49042 63.55816
# Shear Modulus (GPa) = 9.63374 21.75832 15.69603
#
# Velocity S-wave (km/s) = 2.48910 3.74074 3.17716
# Velocity P-wave (km/s) = 6.87389 7.83700 7.37119
#
# Compressibility (1/GPa) = 0.01649460
#
# Stress axis : x y z
#
# Youngs Moduli (GPa) = 110.07267 71.63707 67.46084
#
# Poissons Ratio (x) = 0.27556 0.23159
# Poissons Ratio (y) = 0.42341 0.22983
# Poissons Ratio (z) = 0.37788 0.24406
#
# Static dielectric constant tensor:
#      x y z
#    x 1.529570 0.000000 0.001620 
#    y 0.000000 1.479810 0.000000 
#    z 0.001620 0.000000 1.473500 
# 
# From -- ./inp_files/199973.got.cif
#   From: 2010.05.17/outbox.cif.g08.bks.cpg/sg12_100_cif.got.tgz:199973.got - 2010.06.03 13:09:07.
