data_PCOD9205771
_publ_section_title
;
Structure prediction by ZEFSAII (Michael W. Deem and Ramdas Pophale) SiO2 
 PCOD9205771
Probable space group: C 2/M
;
_chemical_formula_sum "Si O2"
_cell_formula_units_Z 64
_cell_length_a 8.707628
_cell_length_b 13.060050
_cell_length_c 25.623413
_cell_angle_alpha 90.000000
_cell_angle_beta 68.112645
_cell_angle_gamma 90.000000
_cell_volume 2703.905689
_symmetry_space_group_name_H-M "C 2/M"
_symmetry_group_IT_number 12
_symmetry_cell_setting 'monoclinic'
loop_
_space_group_symop_operation_xyz
x,y,z
-x,y,-z
-x,-y,-z
x,-y,z
1/2+x,1/2+y,z
1/2-x,1/2+y,-z
1/2-x,1/2-y,-z
1/2+x,1/2-y,z
loop_
_atom_site_type_symbol
_atom_site_label
_atom_site_fract_x
_atom_site_fract_y
_atom_site_fract_z
Si Si1 0.432610 0.625038 0.911784
Si Si2 0.140236 0.375334 0.022276
Si Si3 0.511768 0.201558 0.383494
Si Si4 0.639528 0.308290 0.688144
Si Si5 0.311752 0.124830 0.868250
Si Si6 0.671268 0.314351 0.461728
Si Si7 0.632691 0.378108 0.196641
Si Si8 0.413120 0.121191 0.241694
O O1 0.431421 0.500000 0.911702
O O2 0.316027 0.653630 0.974750
O O3 0.621923 0.655561 0.893326
O O4 0.369863 0.658443 0.862571
O O5 0.137196 0.500000 0.023036
O O6 0.111141 0.345602 0.085732
O O7 0.000000 0.342331 0.000000
O O8 0.453360 0.300171 0.355881
O O9 0.672856 0.151165 0.335992
O O10 0.596444 0.240495 0.426385
O O11 0.342572 0.139534 0.416740
O O12 0.528401 0.356522 0.747561
O O13 0.641797 0.187832 0.702805
O O14 0.407279 0.151978 0.803093
O O15 0.318083 0.000000 0.866813
O O16 0.500000 0.371519 0.500000
O O17 0.750000 0.250000 0.500000
O O18 0.645175 0.500000 0.190724
O O19 0.790961 0.347814 0.210279
O O20 0.403850 0.000000 0.251914
#
# Coordination Sequence:
#
# PCOD9205771 Si02
#       8
#     8   8   8   8   8   8   8   8
#     4   9  17  28  45  70  97 129 175 228 278 331
#     4   9  15  25  43  66  95 128 168 223 282 335
#     4   9  18  29  50  80 116 147 185 225 270 314
#     4  11  20  35  52  79 114 149 181 232 268 315
#     4   9  17  28  45  70  97 129 175 228 277 332
#     4   8  14  28  50  80 118 149 179 229 270 308
#     4  10  21  36  53  74 106 148 187 223 275 335
#     4  10  21  36  53  74 106 148 188 222 274 337
#
# _framework density 23.669463
#
# number of rings (size 3 to 8) (size 9 to 14) (size 15 to 20)
#    0.000    2.625    1.250    1.125    1.750    4.500 
#    0.000    0.000    0.000    0.750    0.000    0.000 
#    0.000  252.000    0.000    0.000    0.000    0.000 
#
# Total GULP energy -178621.023429 kJ/mol
# GULP energy per Si atom -5581.906982 kJ/mol
# Density = 2.361559 g / cm^3
# Si number density = 23.669463 Si / 1000 Ang^3
#
#
#
# Elastic Constant Matrix: (Units=GPa)
#
#
# Indices 1 2 3 4 5 6 
#
# 1 128.3241 13.5434 49.2183 0.0000 -21.4870 0.0000
# 2 13.5434 46.5507 12.1108 0.0000 7.4332 0.0000
# 3 49.2183 12.1108 108.1309 0.0000 -7.9425 0.0000
# 4 0.0000 0.0000 0.0000 -2.9639 0.0000 2.1328
# 5 -21.4870 7.4332 -7.9425 0.0000 53.6495 0.0000
# 6 0.0000 0.0000 0.0000 2.1328 0.0000 18.6146
#
#
#
# Elastic Compliance Matrix: (Units=1/GPa)
#
#
# Indices 1 2 3 4 5 6 
#
# 1 0.010285 -0.002539 -0.004113 0.000000 0.003862 0.000000
# 2 -0.002539 0.023411 -0.001799 0.000000 -0.004527 0.000000
# 3 -0.004113 -0.001799 0.011343 0.000000 0.000281 0.000000
# 4 0.000000 0.000000 0.000000 -0.311691 0.000000 0.035712
# 5 0.003862 -0.004527 0.000281 0.000000 0.020855 0.000000
# 6 0.000000 0.000000 0.000000 0.035712 0.000000 0.049630
#
#
# Mechanical properties :
#
#
# Convention : Reuss Voigt Hill
#
# Bulk Modulus (GPa) = 35.54111 48.08342 41.81227
# Shear Modulus (GPa) = -29.43156 27.73559 -0.84799
#
# Velocity S-wave (km/s) = -3.53007 3.42685 -0.59920
# Velocity P-wave (km/s) = 1.25180 6.00137 4.15026
#
# Compressibility (1/GPa) = 0.02813643
#
# Stress axis : x y z
#
# Youngs Moduli (GPa) = 97.22798 42.71408 88.16377
#
# Poissons Ratio (x) = 0.10845 0.36266
# Poissons Ratio (y) = 0.24685 0.15861
# Poissons Ratio (z) = 0.39994 0.07684
#
# Static dielectric constant tensor:
#      x y z
#    x 1.902300 0.000000 -0.007080 
#    y 0.000000 1.978700 0.000000 
#    z -0.007080 0.000000 1.961410 
# 
# From -- ./inp_files/356149.got.cif
#   From: 2010.05.17/outbox.cif.g08.bks.cpg/sg12_179_cif.got.tgz:356149.got - 2010.06.03 13:09:07.
