data_PCOD9205696
_publ_section_title
;
Structure prediction by ZEFSAII (Michael W. Deem and Ramdas Pophale) SiO2 
 PCOD9205696
Probable space group: C 2/M
;
_chemical_formula_sum "Si O2"
_cell_formula_units_Z 44
_cell_length_a 10.565934
_cell_length_b 28.255331
_cell_length_c 7.517077
_cell_angle_alpha 90.000000
_cell_angle_beta 58.495703
_cell_angle_gamma 90.000000
_cell_volume 1913.388314
_symmetry_space_group_name_H-M "C 2/M"
_symmetry_group_IT_number 12
_symmetry_cell_setting 'monoclinic'
loop_
_space_group_symop_operation_xyz
x,y,z
-x,y,-z
-x,-y,-z
x,-y,z
1/2+x,1/2+y,z
1/2-x,1/2+y,-z
1/2-x,1/2-y,-z
1/2+x,1/2-y,z
loop_
_atom_site_type_symbol
_atom_site_label
_atom_site_fract_x
_atom_site_fract_y
_atom_site_fract_z
Si Si1 0.662783 0.945084 0.855232
Si Si2 0.079877 0.194876 0.131561
Si Si3 0.063678 0.301250 0.152564
Si Si4 0.000000 0.627795 0.500000
Si Si5 0.742669 0.053746 0.375940
Si Si6 0.963153 0.092677 0.725764
O O1 0.698892 0.943982 0.618444
O O2 0.792151 0.920906 0.873154
O O3 0.658548 0.000000 0.913056
O O4 0.500000 0.923895 0.000000
O O5 0.042582 0.246895 0.232661
O O6 0.022771 0.149047 0.276353
O O7 0.258245 0.191320 0.981512
O O8 0.000000 0.192310 0.000000
O O9 0.985353 0.337990 0.341307
O O10 0.000000 0.304746 0.000000
O O11 0.861452 0.593131 0.632727
O O12 0.914610 0.068375 0.240664
O O13 0.717131 0.000000 0.333133
O O14 0.000000 0.075357 0.500000
#
# Coordination Sequence:
#
# PCOD9205696 Si02
#       6
#     8   8   8   4   8   8
#     4   9  19  36  61  92 127 170 221 276 332 396
#     4  10  22  44  63  94 136 172 215 285 332 391
#     4  10  25  44  67  98 137 173 220 280 336 392
#     4  12  25  40  72  98 126 184 227 268 332 410
#     4  10  22  40  60  93 133 170 219 277 331 389
#     4  10  21  35  65  94 126 175 218 267 334 399
#
# _framework density 22.995853
#
# number of rings (size 3 to 8) (size 9 to 14) (size 15 to 20)
#    0.000    2.000    0.000    1.909    8.909    2.182 
#    0.000    3.636    0.000    3.818    0.000    0.000 
#    0.000    0.000    0.000    0.000    0.000    0.000 
#
# Total GULP energy -123071.409959 kJ/mol
# GULP energy per Si atom -5594.154998 kJ/mol
# Density = 2.294351 g / cm^3
# Si number density = 22.995853 Si / 1000 Ang^3
#
#
#
# Elastic Constant Matrix: (Units=GPa)
#
#
# Indices 1 2 3 4 5 6 
#
# 1 133.6594 31.5202 33.8643 0.0000 -24.9479 0.0000
# 2 31.5202 140.1429 27.6992 0.0000 -5.3681 0.0000
# 3 33.8643 27.6992 74.1773 0.0000 -6.6552 0.0000
# 4 0.0000 0.0000 0.0000 1.7442 0.0000 -20.2296
# 5 -24.9479 -5.3681 -6.6552 0.0000 27.6230 0.0000
# 6 0.0000 0.0000 0.0000 -20.2296 0.0000 30.5023
#
#
#
# Elastic Compliance Matrix: (Units=1/GPa)
#
#
# Indices 1 2 3 4 5 6 
#
# 1 0.010170 -0.001299 -0.003431 0.000000 0.008106 0.000000
# 2 -0.001299 0.007888 -0.002372 0.000000 -0.000212 0.000000
# 3 -0.003431 -0.002372 0.015959 0.000000 0.000286 0.000000
# 4 0.000000 0.000000 0.000000 -0.085672 0.000000 -0.056819
# 5 0.008106 -0.000212 0.000286 0.000000 0.043551 0.000000
# 6 0.000000 0.000000 0.000000 -0.056819 0.000000 -0.004899
#
#
# Mechanical properties :
#
#
# Convention : Reuss Voigt Hill
#
# Bulk Modulus (GPa) = 50.46725 59.34965 54.90845
# Shear Modulus (GPa) = 640.65374 28.96696 334.81035
#
# Velocity S-wave (km/s) = 16.70928 3.55302 12.07941
# Velocity P-wave (km/s) = 19.85600 6.53428 14.78103
#
# Compressibility (1/GPa) = 0.01981483
#
# Stress axis : x y z
#
# Youngs Moduli (GPa) = 98.32537 126.76899 62.66179
#
# Poissons Ratio (x) = 0.16466 0.21498
# Poissons Ratio (y) = 0.12771 0.14861
# Poissons Ratio (z) = 0.33733 0.30065
#
# Static dielectric constant tensor:
#      x y z
#    x 1.569290 0.000000 -0.180920 
#    y 0.000000 1.848470 0.000000 
#    z -0.180920 0.000000 1.768240 
# 
# From -- ./inp_files/53020.got.cif
#   From: 2010.05.17/outbox.cif.g08.bks.cpg/sg12_27_cif.got.tgz:53020.got - 2010.06.03 13:09:07.
