data_PCOD9205598
_publ_section_title
;
Structure prediction by ZEFSAII (Michael W. Deem and Ramdas Pophale) SiO2 
 PCOD9205598
Probable space group: C 2/M
;
_chemical_formula_sum "Si O2"
_cell_formula_units_Z 64
_cell_length_a 15.666112
_cell_length_b 18.195971
_cell_length_c 10.903886
_cell_angle_alpha 90.000000
_cell_angle_beta 92.244489
_cell_angle_gamma 90.000000
_cell_volume 3105.878413
_symmetry_space_group_name_H-M "C 2/M"
_symmetry_group_IT_number 12
_symmetry_cell_setting 'monoclinic'
loop_
_space_group_symop_operation_xyz
x,y,z
-x,y,-z
-x,-y,-z
x,-y,z
1/2+x,1/2+y,z
1/2-x,1/2+y,-z
1/2-x,1/2-y,-z
1/2+x,1/2-y,z
loop_
_atom_site_type_symbol
_atom_site_label
_atom_site_fract_x
_atom_site_fract_y
_atom_site_fract_z
Si Si1 0.838540 0.582676 0.293955
Si Si2 0.856339 0.183128 0.440386
Si Si3 0.815460 0.587674 0.573477
Si Si4 0.158047 0.134530 0.199564
Si Si5 0.592471 0.774001 0.776547
Si Si6 0.406995 0.641027 0.057133
Si Si7 0.477999 0.583185 0.303465
Si Si8 0.893980 0.726205 0.690041
O O1 0.859490 0.500000 0.262034
O O2 0.857214 0.592686 0.439981
O O3 0.738393 0.598124 0.268074
O O4 0.886125 0.641382 0.213491
O O5 0.776515 0.128052 0.443090
O O6 0.848318 0.241112 0.328728
O O7 0.936310 0.134270 0.403018
O O8 0.872434 0.230762 0.562174
O O9 0.809344 0.500000 0.603021
O O10 0.866350 0.641806 0.668545
O O11 0.155216 0.223098 0.214018
O O12 0.071640 0.106775 0.261947
O O13 0.154590 0.116392 0.055040
O O14 0.608030 0.723197 0.894377
O O15 0.493899 0.767694 0.728816
O O16 0.416373 0.593039 0.180532
O O17 0.500000 0.639852 0.000000
O O18 0.480155 0.500000 0.344048
#
# Coordination Sequence:
#
# PCOD9205598 Si02
#       8
#     8   8   8   8   8   8   8   8
#     4  11  24  38  55  86 123 158 195 244 298 348
#     4  11  20  37  58  88 119 154 193 239 295 357
#     4  11  24  38  57  87 127 163 193 240 297 356
#     4  11  21  38  61  87 116 157 202 239 293 356
#     4  11  22  38  63  87 116 151 203 249 290 347
#     4   9  19  38  61  86 111 148 201 247 290 352
#     4  10  21  35  58  88 122 156 188 241 300 355
#     4  12  21  37  63  87 116 157 202 242 294 351
#
# _framework density 20.606088
#
# number of rings (size 3 to 8) (size 9 to 14) (size 15 to 20)
#    0.000    1.250    6.250    2.250    0.000    3.750 
#    0.000    1.875    0.000    4.125    0.000    0.000 
#    0.000    0.000    0.000    0.000    0.000    0.000 
#
# Total GULP energy -178695.369504 kJ/mol
# GULP energy per Si atom -5584.230297 kJ/mol
# Density = 2.055919 g / cm^3
# Si number density = 20.606088 Si / 1000 Ang^3
#
#
#
# Elastic Constant Matrix: (Units=GPa)
#
#
# Indices 1 2 3 4 5 6 
#
# 1 23.8895 5.7926 -7.1324 0.0000 -1.9292 0.0000
# 2 5.7926 129.8097 -10.6209 0.0000 -1.0001 0.0000
# 3 -7.1324 -10.6209 42.7311 0.0000 1.1308 0.0000
# 4 0.0000 0.0000 0.0000 13.9101 0.0000 -1.9576
# 5 -1.9292 -1.0001 1.1308 0.0000 8.3591 0.0000
# 6 0.0000 0.0000 0.0000 -1.9576 0.0000 20.0034
#
#
#
# Elastic Compliance Matrix: (Units=1/GPa)
#
#
# Indices 1 2 3 4 5 6 
#
# 1 0.045010 -0.001370 0.006926 0.000000 0.009287 0.000000
# 2 -0.001370 0.007909 0.001727 0.000000 0.000396 0.000000
# 3 0.006926 0.001727 0.025029 0.000000 -0.001581 0.000000
# 4 0.000000 0.000000 0.000000 0.072894 0.000000 0.007134
# 5 0.009287 0.000396 -0.001581 0.000000 0.122034 0.000000
# 6 0.000000 0.000000 0.000000 0.007134 0.000000 0.050690
#
#
# Mechanical properties :
#
#
# Convention : Reuss Voigt Hill
#
# Bulk Modulus (GPa) = 10.80924 19.16763 14.98844
# Shear Modulus (GPa) = 14.71288 22.34725 18.53007
#
# Velocity S-wave (km/s) = 2.67499 3.29674 3.00201
# Velocity P-wave (km/s) = 3.84679 4.87991 4.39382
#
# Compressibility (1/GPa) = 0.09251348
#
# Stress axis : x y z
#
# Youngs Moduli (GPa) = 22.21750 126.43736 39.95322
#
# Poissons Ratio (x) = 0.17325 -0.27673
# Poissons Ratio (y) = 0.03044 -0.06898
# Poissons Ratio (z) = -0.15389 -0.21831
#
# Static dielectric constant tensor:
#      x y z
#    x 1.758270 0.000000 0.023220 
#    y 0.000000 1.756500 0.000000 
#    z 0.023220 0.000000 1.749630 
# 
# From -- ./inp_files/157878.got.cif
#   From: 2010.05.17/outbox.cif.g08.bks.cpg/sg12_79_cif.got.tgz:157878.got - 2010.06.03 13:09:07.
