data_PCOD9205360
_publ_section_title
;
Structure prediction by ZEFSAII (Michael W. Deem and Ramdas Pophale) SiO2 
 PCOD9205360
Probable space group: C 2/M
;
_chemical_formula_sum "Si O2"
_cell_formula_units_Z 40
_cell_length_a 22.525478
_cell_length_b 11.600764
_cell_length_c 13.116747
_cell_angle_alpha 90.000000
_cell_angle_beta 32.961450
_cell_angle_gamma 90.000000
_cell_volume 1864.855680
_symmetry_space_group_name_H-M "C 2/M"
_symmetry_group_IT_number 12
_symmetry_cell_setting 'monoclinic'
loop_
_space_group_symop_operation_xyz
x,y,z
-x,y,-z
-x,-y,-z
x,-y,z
1/2+x,1/2+y,z
1/2-x,1/2+y,-z
1/2-x,1/2-y,-z
1/2+x,1/2-y,z
loop_
_atom_site_type_symbol
_atom_site_label
_atom_site_fract_x
_atom_site_fract_y
_atom_site_fract_z
Si Si1 0.138815 0.131931 0.572001
Si Si2 0.896654 0.232990 0.596482
Si Si3 0.823651 0.129487 0.115962
Si Si4 0.889288 0.299150 0.197490
Si Si5 0.312125 0.627177 0.911442
O O1 0.095506 0.173764 0.524504
O O2 0.104172 0.224705 0.707745
O O3 0.272774 0.136069 0.372482
O O4 0.107456 0.000000 0.641031
O O5 0.798421 0.323189 0.726154
O O6 0.871940 0.136035 0.717496
O O7 0.000000 0.293667 0.500000
O O8 0.875557 0.209060 0.125094
O O9 0.822118 0.000000 0.156016
O O10 0.874816 0.132079 0.929047
O O11 0.000000 0.362796 0.000000
O O12 0.255974 0.500000 0.995454
O O13 0.250000 0.750000 0.000000
#
# Coordination Sequence:
#
# PCOD9205360 Si02
#       5
#     8   8   8   8   8
#     4  10  22  39  59  85 117 151 191 241 293 350
#     4  10  21  35  54  83 117 148 186 234 289 350
#     4   9  19  36  57  81 111 147 190 238 286 345
#     4  10  22  39  60  86 115 149 196 245 292 349
#     4   9  18  33  53  77 108 144 184 230 281 339
#
# _framework density 21.449383000000001
#
# number of rings (size 3 to 8) (size 9 to 14) (size 15 to 20)
#    0.000    2.400    0.000    1.200    2.800    4.000 
#    0.000    0.000    0.000    0.000    0.000    0.000 
#    0.000    0.000    0.000    0.000    0.000    0.000 
#
# Total GULP energy -111345.628750 kJ/mol
# GULP energy per Si atom -5567.281438 kJ/mol
# Density = 2.140056 g / cm^3
# Si number density = 21.449383 Si / 1000 Ang^3
#
#
#
# Elastic Constant Matrix: (Units=GPa)
#
#
# Indices 1 2 3 4 5 6 
#
# 1 121.9259 18.4447 32.3575 0.0000 21.9599 0.0000
# 2 18.4447 98.5546 19.9027 0.0000 6.5602 0.0000
# 3 32.3575 19.9027 103.2514 0.0000 1.0941 0.0000
# 4 0.0000 0.0000 0.0000 3.4424 0.0000 6.0545
# 5 21.9599 6.5602 1.0941 0.0000 39.1888 0.0000
# 6 0.0000 0.0000 0.0000 6.0545 0.0000 3.3613
#
#
#
# Elastic Compliance Matrix: (Units=1/GPa)
#
#
# Indices 1 2 3 4 5 6 
#
# 1 0.010096 -0.000938 -0.002926 0.000000 -0.005419 0.000000
# 2 -0.000938 0.010761 -0.001767 0.000000 -0.001226 0.000000
# 3 -0.002926 -0.001767 0.010925 0.000000 0.001630 0.000000
# 4 0.000000 0.000000 0.000000 -0.133992 0.000000 0.241349
# 5 -0.005419 -0.001226 0.001630 0.000000 0.028714 0.000000
# 6 0.000000 0.000000 0.000000 0.241349 0.000000 -0.137223
#
#
# Mechanical properties :
#
#
# Convention : Reuss Voigt Hill
#
# Bulk Modulus (GPa) = 48.73261 51.68241 50.20751
# Shear Modulus (GPa) = -25.95822 26.06697 0.05437
#
# Velocity S-wave (km/s) = -3.48258 3.48987 0.15938
# Velocity P-wave (km/s) = 2.56866 6.35502 4.84687
#
# Compressibility (1/GPa) = 0.02052014
#
# Stress axis : x y z
#
# Youngs Moduli (GPa) = 99.04915 92.93042 91.53015
#
# Poissons Ratio (x) = 0.08717 0.26779
# Poissons Ratio (y) = 0.09290 0.16176
# Poissons Ratio (z) = 0.28979 0.16424
#
# Static dielectric constant tensor:
#      x y z
#    x 1.801320 0.000000 -0.081530 
#    y 0.000000 1.744900 0.000000 
#    z -0.081530 0.000000 1.954520 
# 
# From -- ./inp_files/165373.got.cif
#   From: 2010.05.17/outbox.cif.g08.bks.cpg/sg12_83_cif.got.tgz:165373.got - 2010.06.03 13:09:07.
