data_PCOD9205261
_publ_section_title
;
Structure prediction by ZEFSAII (Michael W. Deem and Ramdas Pophale) SiO2 
 PCOD9205261
Probable space group: C 2/M
;
_chemical_formula_sum "Si O2"
_cell_formula_units_Z 64
_cell_length_a 28.763359
_cell_length_b 8.819791
_cell_length_c 18.593745
_cell_angle_alpha 90.000000
_cell_angle_beta 44.384456
_cell_angle_gamma 90.000000
_cell_volume 3299.389117
_symmetry_space_group_name_H-M "C 2/M"
_symmetry_group_IT_number 12
_symmetry_cell_setting 'monoclinic'
loop_
_space_group_symop_operation_xyz
x,y,z
-x,y,-z
-x,-y,-z
x,-y,z
1/2+x,1/2+y,z
1/2-x,1/2+y,-z
1/2-x,1/2-y,-z
1/2+x,1/2-y,z
loop_
_atom_site_type_symbol
_atom_site_label
_atom_site_fract_x
_atom_site_fract_y
_atom_site_fract_z
Si Si1 0.836783 0.681219 0.192651
Si Si2 0.790211 0.682631 0.728666
Si Si3 0.904800 0.328288 0.845132
Si Si4 0.925431 0.179128 0.967351
Si Si5 0.941386 0.325168 0.368092
Si Si6 0.282506 0.821530 0.894537
Si Si7 0.931998 0.818935 0.533540
Si Si8 0.429421 0.182938 0.223219
O O1 0.831971 0.500000 0.191953
O O2 0.763863 0.753427 0.266655
O O3 0.873452 0.718595 0.226860
O O4 0.883731 0.743192 0.076706
O O5 0.790173 0.500000 0.727148
O O6 0.765547 0.736925 0.834805
O O7 0.864897 0.741263 0.636410
O O8 0.888859 0.500000 0.887592
O O9 0.893885 0.218251 0.924317
O O10 0.860370 0.297551 0.824865
O O11 0.980745 0.324795 0.737890
O O12 0.000716 0.243049 0.878310
O O13 0.926317 0.000000 0.977811
O O14 0.921075 0.500000 0.405652
O O15 0.933618 0.226165 0.447580
O O16 0.910435 0.272803 0.326083
O O17 0.268304 0.000000 0.910542
O O18 0.250000 0.750000 0.000000
O O19 0.000000 0.770456 0.500000
O O20 0.926820 0.000000 0.547268
O O21 0.439778 0.000000 0.213075
#
# Coordination Sequence:
#
# PCOD9205261 Si02
#       8
#     8   8   8   8   8   8   8   8
#     4  11  22  38  58  80 113 154 193 235 285 339
#     4  11  24  41  60  85 115 148 191 237 283 336
#     4   9  18  34  54  77 108 147 188 229 280 337
#     4  11  21  32  52  85 120 153 193 237 280 331
#     4   9  18  36  61  85 108 139 185 237 285 333
#     4  10  21  35  53  78 109 147 186 224 270 328
#     4  11  24  41  62  89 118 148 184 228 281 340
#     4   9  20  38  59  83 113 152 194 235 283 336
#
# _framework density 19.397528999999999
#
# number of rings (size 3 to 8) (size 9 to 14) (size 15 to 20)
#    0.000    1.875    0.000    4.875    0.000   10.000 
#    0.000    0.625    0.000    0.000    0.000    0.000 
#    0.000    0.000    0.000    0.000    0.000    0.000 
#
# Total GULP energy -178617.562778 kJ/mol
# GULP energy per Si atom -5581.798837 kJ/mol
# Density = 1.935338 g / cm^3
# Si number density = 19.397529 Si / 1000 Ang^3
#
#
#
# Elastic Constant Matrix: (Units=GPa)
#
#
# Indices 1 2 3 4 5 6 
#
# 1 120.2073 47.2520 47.1615 -0.0095 1.7032 0.0071
# 2 47.2520 57.3002 27.6709 -0.0054 -0.3480 0.0099
# 3 47.1615 27.6709 74.8173 -0.0077 5.9762 0.0056
# 4 -0.0095 -0.0054 -0.0077 27.4193 0.0043 0.8817
# 5 1.7032 -0.3480 5.9762 0.0043 26.2884 -0.0023
# 6 0.0071 0.0099 0.0056 0.8817 -0.0023 22.7197
#
#
#
# Elastic Compliance Matrix: (Units=1/GPa)
#
#
# Indices 1 2 3 4 5 6 
#
# 1 0.013968 -0.008834 -0.005557 0.000001 0.000241 0.000001
# 2 -0.008834 0.026948 -0.004555 0.000001 0.001965 -0.000008
# 3 -0.005557 -0.004555 0.018872 0.000003 -0.003991 -0.000001
# 4 0.000001 0.000001 0.000003 0.036516 -0.000007 -0.001417
# 5 0.000241 0.001965 -0.003991 -0.000007 0.038957 0.000004
# 6 0.000001 -0.000008 -0.000001 -0.001417 0.000004 0.044070
#
#
# Mechanical properties :
#
#
# Convention : Reuss Voigt Hill
#
# Bulk Modulus (GPa) = 45.66903 55.16597 50.41750
# Shear Modulus (GPa) = 22.26942 23.96816 23.11879
#
# Velocity S-wave (km/s) = 3.39197 3.51897 3.45605
# Velocity P-wave (km/s) = 6.23983 6.70912 6.47872
#
# Compressibility (1/GPa) = 0.02189668
#
# Stress axis : x y z
#
# Youngs Moduli (GPa) = 71.59119 37.10807 52.98749
#
# Poissons Ratio (x) = 0.32780 0.29446
# Poissons Ratio (y) = 0.63241 0.24138
# Poissons Ratio (z) = 0.39784 0.16904
#
# Static dielectric constant tensor:
#      x y z
#    x 1.729170 0.000000 0.000340 
#    y 0.000000 1.664710 0.000000 
#    z 0.000340 0.000000 1.687910 
# 
# From -- ./inp_files/295489.got.cif
#   From: 2010.05.17/outbox.cif.g08.bks.cpg/sg12_148_cif.got.tgz:295489.got - 2010.06.03 13:09:07.
