data_PCOD9205986
_publ_section_title
;
Structure prediction by ZEFSAII (Michael W. Deem and Ramdas Pophale) SiO2 
 PCOD9205986
Probable space group: C 2/M
;
_chemical_formula_sum "Si O2"
_cell_formula_units_Z 44
_cell_length_a 16.455774
_cell_length_b 9.616064
_cell_length_c 14.043113
_cell_angle_alpha 90.000000
_cell_angle_beta 120.451220
_cell_angle_gamma 90.000000
_cell_volume 1915.653791
_symmetry_space_group_name_H-M "C 2/M"
_symmetry_group_IT_number 12
_symmetry_cell_setting 'monoclinic'
loop_
_space_group_symop_operation_xyz
x,y,z
-x,y,-z
-x,-y,-z
x,-y,z
1/2+x,1/2+y,z
1/2-x,1/2+y,-z
1/2-x,1/2-y,-z
1/2+x,1/2-y,z
loop_
_atom_site_type_symbol
_atom_site_label
_atom_site_fract_x
_atom_site_fract_y
_atom_site_fract_z
Si Si1 0.864161 0.655519 0.694001
Si Si2 0.281071 0.158849 0.149294
Si Si3 0.000000 0.241478 0.500000
Si Si4 0.202309 0.650439 0.610406
Si Si5 0.537579 0.341333 0.732025
Si Si6 0.607163 0.841884 0.063593
O O1 0.879485 0.500000 0.665612
O O2 0.763528 0.721501 0.609552
O O3 0.867269 0.646356 0.810075
O O4 0.944867 0.762021 0.711820
O O5 0.284386 0.149102 0.267076
O O6 0.373307 0.249946 0.182169
O O7 0.186229 0.242222 0.066607
O O8 0.283309 0.000000 0.114909
O O9 0.091849 0.329801 0.526061
O O10 0.032035 0.159757 0.613188
O O11 0.236114 0.500000 0.595260
O O12 0.543286 0.500000 0.768752
O O13 0.606859 0.000000 0.023308
O O14 0.500000 0.787742 0.000000
#
# Coordination Sequence:
#
# PCOD9205986 Si02
#       6
#     8   8   4   8   8   8
#     4  10  21  36  55  80 110 141 174 218 268 314
#     4   9  18  33  54  80 109 140 175 217 266 316
#     4  10  22  36  56  80 104 138 184 226 262 310
#     4   9  18  34  55  78 106 140 177 218 265 314
#     4  11  22  37  56  77 106 142 181 222 266 315
#     4   9  18  35  59  84 109 139 176 216 261 317
#
# _framework density 22.968658999999999
#
# number of rings (size 3 to 8) (size 9 to 14) (size 15 to 20)
#    0.000    2.364    0.000    2.182    0.000    9.091 
#    0.000    0.909    0.000    0.000    0.000    0.000 
#    0.000    0.000    0.000    0.000    0.000    0.000 
#
# Total GULP energy -122958.746681 kJ/mol
# GULP energy per Si atom -5589.033940 kJ/mol
# Density = 2.291638 g / cm^3
# Si number density = 22.968659 Si / 1000 Ang^3
#
#
#
# Elastic Constant Matrix: (Units=GPa)
#
#
# Indices 1 2 3 4 5 6 
#
# 1 101.6515 75.6812 26.1667 0.0000 41.4744 0.0000
# 2 75.6812 197.1037 18.6116 0.0000 42.6187 0.0000
# 3 26.1667 18.6116 84.4462 0.0000 19.6493 0.0000
# 4 0.0000 0.0000 0.0000 15.1725 0.0000 0.0066
# 5 41.4744 42.6187 19.6493 0.0000 59.1680 0.0000
# 6 0.0000 0.0000 0.0000 0.0066 0.0000 29.2280
#
#
#
# Elastic Compliance Matrix: (Units=1/GPa)
#
#
# Indices 1 2 3 4 5 6 
#
# 1 0.017133 -0.004650 -0.002459 0.000000 -0.007843 0.000000
# 2 -0.004650 0.007281 0.000323 0.000000 -0.002092 0.000000
# 3 -0.002459 0.000323 0.013206 0.000000 -0.002895 0.000000
# 4 0.000000 0.000000 0.000000 0.065909 0.000000 -0.000015
# 5 -0.007843 -0.002092 -0.002895 0.000000 0.024867 0.000000
# 6 0.000000 0.000000 0.000000 -0.000015 0.000000 0.034214
#
#
# Mechanical properties :
#
#
# Convention : Reuss Voigt Hill
#
# Bulk Modulus (GPa) = 41.58447 69.34672 55.46559
# Shear Modulus (GPa) = 27.14476 38.22982 32.68729
#
# Velocity S-wave (km/s) = 3.44149 4.08417 3.77653
# Velocity P-wave (km/s) = 5.82546 7.24555 6.57396
#
# Compressibility (1/GPa) = 0.02404744
#
# Stress axis : x y z
#
# Youngs Moduli (GPa) = 58.36751 137.34585 75.72225
#
# Poissons Ratio (x) = 0.63871 0.18620
# Poissons Ratio (y) = 0.27143 -0.02446
# Poissons Ratio (z) = 0.14352 -0.04437
#
# Static dielectric constant tensor:
#      x y z
#    x 1.854290 0.000000 -0.057080 
#    y 0.000000 1.830630 0.000000 
#    z -0.057080 0.000000 1.879910 
# 
# From -- ./inp_files/274105.got.cif
#   From: 2010.05.17/outbox.cif.g08.bks.cpg/sg12_138_cif.got.tgz:274105.got - 2010.06.03 13:09:07.
