data_PCOD9205008
_publ_section_title
;
Structure prediction by ZEFSAII (Michael W. Deem and Ramdas Pophale) SiO2 
 PCOD9205008
Probable space group: C 2/M
;
_chemical_formula_sum "Si O2"
_cell_formula_units_Z 42
_cell_length_a 21.349537
_cell_length_b 14.186154
_cell_length_c 8.442733
_cell_angle_alpha 90.000000
_cell_angle_beta 66.692302
_cell_angle_gamma 90.000000
_cell_volume 2348.361001
_symmetry_space_group_name_H-M "C 2/M"
_symmetry_group_IT_number 12
_symmetry_cell_setting 'monoclinic'
loop_
_space_group_symop_operation_xyz
x,y,z
-x,y,-z
-x,-y,-z
x,-y,z
1/2+x,1/2+y,z
1/2-x,1/2+y,-z
1/2-x,1/2-y,-z
1/2+x,1/2-y,z
loop_
_atom_site_type_symbol
_atom_site_label
_atom_site_fract_x
_atom_site_fract_y
_atom_site_fract_z
Si Si1 0.195535 0.610372 0.623924
Si Si2 0.690337 0.770698 0.936428
Si Si3 0.000000 0.500000 0.500000
Si Si4 0.582854 0.250847 0.602812
Si Si5 0.166815 0.890283 0.716977
Si Si6 0.435072 0.185672 0.723957
O O1 0.179939 0.500000 0.656264
O O2 0.212717 0.658873 0.773751
O O3 0.131192 0.666741 0.618277
O O4 0.259639 0.620585 0.442400
O O5 0.668765 0.674032 0.870798
O O6 0.750000 0.750000 0.000000
O O7 0.625762 0.814131 0.091484
O O8 0.955842 0.583657 0.635201
O O9 0.611884 0.344654 0.653032
O O10 0.504638 0.229541 0.724033
O O11 0.586137 0.246890 0.409166
O O12 0.154975 0.000000 0.759267
#
# Coordination Sequence:
#
# PCOD9205008 Si02
#       6
#     8   8   2   8   8   8
#     4  10  21  34  56  84 115 152 194 237 298 355
#     4  11  22  38  57  85 117 151 194 251 290 342
#     4   8  20  36  56  90 118 156 176 230 304 364
#     4   9  19  38  57  80 115 154 184 237 295 346
#     4  10  21  39  58  80 112 160 203 238 290 347
#     4  10  21  36  61  86 119 147 197 231 301 353
#
# _framework density 17.884813999999999
#
# number of rings (size 3 to 8) (size 9 to 14) (size 15 to 20)
#    0.000    2.286    0.000    4.571    6.667    3.810 
#    0.000    5.714    0.000    0.000    0.000    0.000 
#    0.000    0.000    0.000    0.000    0.000    0.000 
#
# Total GULP energy -116936.760044 kJ/mol
# GULP energy per Si atom -5568.417145 kJ/mol
# Density = 1.784411 g / cm^3
# Si number density = 17.884814 Si / 1000 Ang^3
#
#
#
# Elastic Constant Matrix: (Units=GPa)
#
#
# Indices 1 2 3 4 5 6 
#
# 1 97.6362 36.0393 25.6711 0.0000 9.4940 0.0000
# 2 36.0393 128.6391 48.4431 0.0000 -0.8717 0.0000
# 3 25.6711 48.4431 78.7819 0.0000 -7.3880 0.0000
# 4 0.0000 0.0000 0.0000 16.9701 0.0000 -7.7327
# 5 9.4940 -0.8717 -7.3880 0.0000 25.0031 0.0000
# 6 0.0000 0.0000 0.0000 -7.7327 0.0000 5.7308
#
#
#
# Elastic Compliance Matrix: (Units=1/GPa)
#
#
# Indices 1 2 3 4 5 6 
#
# 1 0.012503 -0.002348 -0.003171 0.000000 -0.005767 0.000000
# 2 -0.002348 0.010614 -0.005804 0.000000 -0.000454 0.000000
# 3 -0.003171 -0.005804 0.017885 0.000000 0.006287 0.000000
# 4 0.000000 0.000000 0.000000 0.152997 0.000000 0.206445
# 5 -0.005767 -0.000454 0.006287 0.000000 0.044026 0.000000
# 6 0.000000 0.000000 0.000000 0.206445 0.000000 0.453059
#
#
# Mechanical properties :
#
#
# Convention : Reuss Voigt Hill
#
# Bulk Modulus (GPa) = 54.47780 58.37381 56.42580
# Shear Modulus (GPa) = 6.94589 22.53438 14.74013
#
# Velocity S-wave (km/s) = 1.97284 3.55346 2.87395
# Velocity P-wave (km/s) = 5.97628 7.03887 6.52923
#
# Compressibility (1/GPa) = 0.01835610
#
# Stress axis : x y z
#
# Youngs Moduli (GPa) = 79.97924 94.21462 55.91224
#
# Poissons Ratio (x) = 0.22119 0.17732
# Poissons Ratio (y) = 0.18777 0.32452
# Poissons Ratio (z) = 0.25364 0.54683
#
# Static dielectric constant tensor:
#      x y z
#    x 1.625120 0.000000 0.006740 
#    y 0.000000 1.592710 0.000000 
#    z 0.006740 0.000000 1.610280 
# 
# From -- ./inp_files/72943.got.cif
#   From: 2010.05.17/outbox.cif.g08.bks.cpg/sg12_37_cif.got.tgz:72943.got - 2010.06.03 13:09:07.
