data_PCOD9205509
_publ_section_title
;
Structure prediction by ZEFSAII (Michael W. Deem and Ramdas Pophale) SiO2 
 PCOD9205509
Probable space group: C 2/M
;
_chemical_formula_sum "Si O2"
_cell_formula_units_Z 52
_cell_length_a 14.322646
_cell_length_b 19.580470
_cell_length_c 19.641923
_cell_angle_alpha 90.000000
_cell_angle_beta 31.055449
_cell_angle_gamma 90.000000
_cell_volume 2841.635926
_symmetry_space_group_name_H-M "C 2/M"
_symmetry_group_IT_number 12
_symmetry_cell_setting 'monoclinic'
loop_
_space_group_symop_operation_xyz
x,y,z
-x,y,-z
-x,-y,-z
x,-y,z
1/2+x,1/2+y,z
1/2-x,1/2+y,-z
1/2-x,1/2-y,-z
1/2+x,1/2-y,z
loop_
_atom_site_type_symbol
_atom_site_label
_atom_site_fract_x
_atom_site_fract_y
_atom_site_fract_z
Si Si1 0.933503 0.422635 0.131564
Si Si2 0.964318 0.500000 0.366318
Si Si3 0.581799 0.500000 0.677282
Si Si4 0.022792 0.137870 0.062068
Si Si5 0.179853 0.000000 0.775315
Si Si6 0.563818 0.734491 0.156478
Si Si7 0.953350 0.385028 0.794581
Si Si8 0.694558 0.377796 0.173458
O O1 0.893799 0.500000 0.134052
O O2 0.777679 0.375393 0.197096
O O3 0.955263 0.420522 0.197965
O O4 0.127968 0.399617 0.980914
O O5 0.762185 0.500000 0.520350
O O6 0.110404 0.500000 0.335737
O O7 0.999712 0.431620 0.299328
O O8 0.636183 0.500000 0.722644
O O9 0.457544 0.434893 0.739017
O O10 0.965701 0.188515 0.159642
O O11 0.910023 0.068114 0.137411
O O12 0.234418 0.117716 0.938176
O O13 0.000000 0.168013 0.000000
O O14 0.487512 0.805805 0.232489
O O15 0.615372 0.689526 0.189353
O O16 0.750000 0.750000 0.000000
#
# Coordination Sequence:
#
# PCOD9205509 Si02
#       8
#     8   4   4   8   4   8   8   8
#     4  11  19  33  62  91 118 143 187 248 305 351
#     4  12  26  41  59  84 113 164 208 256 277 335
#     4  12  23  41  62  83 117 160 211 240 285 336
#     4  11  20  33  62  92 124 151 186 240 309 360
#     4  12  21  38  62  89 115 156 205 250 290 339
#     4  10  21  35  56  92 124 158 176 237 308 364
#     4  11  22  38  55  89 126 149 191 241 306 348
#     4  11  20  36  58  91 117 150 195 234 296 363
#
# _framework density 18.299318
#
# number of rings (size 3 to 8) (size 9 to 14) (size 15 to 20)
#    0.000    0.923    8.462    1.385    0.000    2.462 
#    0.000    2.308    0.000    0.000    0.000    0.000 
#    0.000    0.000    0.000    0.000    0.000    0.000 
#
# Total GULP energy -144987.510996 kJ/mol
# GULP energy per Si atom -5576.442731 kJ/mol
# Density = 1.825767 g / cm^3
# Si number density = 18.299318 Si / 1000 Ang^3
#
#
#
# Elastic Constant Matrix: (Units=GPa)
#
#
# Indices 1 2 3 4 5 6 
#
# 1 128.2734 23.9855 31.0574 -0.0021 -12.9352 0.0012
# 2 23.9855 108.1303 24.2014 -0.0093 -8.0050 0.0020
# 3 31.0574 24.2014 56.3036 -0.0382 -8.1555 0.0120
# 4 -0.0021 -0.0093 -0.0382 -4.7522 0.0083 6.2787
# 5 -12.9352 -8.0050 -8.1555 0.0083 12.3470 -0.0016
# 6 0.0012 0.0020 0.0120 6.2787 -0.0016 7.7348
#
#
#
# Elastic Compliance Matrix: (Units=1/GPa)
#
#
# Indices 1 2 3 4 5 6 
#
# 1 0.009595 -0.000724 -0.003974 0.000024 0.006958 -0.000013
# 2 -0.000724 0.010481 -0.003573 0.000010 0.003676 -0.000004
# 3 -0.003974 -0.003573 0.022724 -0.000097 0.008530 0.000047
# 4 0.000024 0.000010 -0.000097 -0.101533 0.000046 0.082419
# 5 0.006958 0.003676 0.008530 0.000046 0.096299 -0.000032
# 6 -0.000013 -0.000004 0.000047 0.082419 -0.000032 0.062382
#
#
# Mechanical properties :
#
#
# Convention : Reuss Voigt Hill
#
# Bulk Modulus (GPa) = 38.08297 50.13289 44.10793
# Shear Modulus (GPa) = 39.92306 17.29678 28.60992
#
# Velocity S-wave (km/s) = 4.67590 3.07777 3.95833
# Velocity P-wave (km/s) = 7.07166 6.33133 6.71171
#
# Compressibility (1/GPa) = 0.02625846
#
# Stress axis : x y z
#
# Youngs Moduli (GPa) = 104.22155 95.41463 44.00611
#
# Poissons Ratio (x) = 0.06907 0.17486
# Poissons Ratio (y) = 0.07544 0.15724
# Poissons Ratio (z) = 0.41413 0.34093
#
# Static dielectric constant tensor:
#      x y z
#    x 1.684900 0.000000 0.020300 
#    y 0.000000 1.667590 0.000010 
#    z 0.020300 0.000010 1.582130 
# 
# From -- ./inp_files/311493.got.cif
#   From: 2010.05.17/outbox.cif.g08.bks.cpg/sg12_156_cif.got.tgz:311493.got - 2010.06.03 13:09:07.
