data_PCOD9205781
_publ_section_title
;
Structure prediction by ZEFSAII (Michael W. Deem and Ramdas Pophale) SiO2 
 PCOD9205781
Probable space group: C 2/M
;
_chemical_formula_sum "Si O2"
_cell_formula_units_Z 64
_cell_length_a 21.330246
_cell_length_b 8.286030
_cell_length_c 25.355136
_cell_angle_alpha 90.000000
_cell_angle_beta 52.009980
_cell_angle_gamma 90.000000
_cell_volume 3531.828001
_symmetry_space_group_name_H-M "C 2/M"
_symmetry_group_IT_number 12
_symmetry_cell_setting 'monoclinic'
loop_
_space_group_symop_operation_xyz
x,y,z
-x,y,-z
-x,-y,-z
x,-y,z
1/2+x,1/2+y,z
1/2-x,1/2+y,-z
1/2-x,1/2-y,-z
1/2+x,1/2-y,z
loop_
_atom_site_type_symbol
_atom_site_label
_atom_site_fract_x
_atom_site_fract_y
_atom_site_fract_z
Si Si1 0.486467 0.805428 0.422213
Si Si2 0.719602 0.807893 0.208125
Si Si3 0.037879 0.194652 0.784249
Si Si4 0.781981 0.802591 0.290434
Si Si5 0.371569 0.194870 0.073032
Si Si6 0.372633 0.803460 0.571351
Si Si7 0.013238 0.694629 0.077722
Si Si8 0.040755 0.807895 0.282812
O O1 0.410972 0.750684 0.496142
O O2 0.565027 0.756383 0.414903
O O3 0.493530 0.746502 0.359266
O O4 0.486274 0.000000 0.421633
O O5 0.752463 0.749240 0.247900
O O6 0.785199 0.760951 0.130997
O O7 0.632275 0.743111 0.241576
O O8 0.713713 0.000000 0.214556
O O9 0.128927 0.252753 0.743560
O O10 0.990544 0.242141 0.861325
O O11 0.997575 0.255712 0.751520
O O12 0.040411 0.000000 0.780690
O O13 0.715342 0.750660 0.367106
O O14 0.782973 0.000000 0.289551
O O15 0.433807 0.245833 0.086720
O O16 0.368663 0.000000 0.075118
O O17 0.411967 0.245386 0.997000
O O18 0.372352 0.000000 0.570890
O O19 0.012835 0.500000 0.078910
O O20 0.037985 0.000000 0.282204
#
# Coordination Sequence:
#
# PCOD9205781 Si02
#       8
#     8   8   8   8   8   8   8   8
#     4   9  16  30  53  78 101 132 176 216 257 312
#     4  11  20  33  57  82 102 133 181 224 254 303
#     4  10  21  36  53  75 106 143 179 215 259 310
#     4   9  16  30  53  79 101 128 173 222 259 295
#     4   9  18  33  53  81 113 137 163 210 272 316
#     4   8  14  27  52  80 102 126 168 225 264 296
#     4   9  18  33  54  79 109 142 170 206 260 318
#     4  11  23  36  50  73 111 147 170 211 272 318
#
# _framework density 18.120927999999999
#
# number of rings (size 3 to 8) (size 9 to 14) (size 15 to 20)
#    0.000    2.500    2.500    2.250    0.000    1.500 
#    0.000    3.750    0.000    0.000    0.000    0.000 
#    0.000    0.000    0.000    0.000    0.000    0.000 
#
# Total GULP energy -178453.032810 kJ/mol
# GULP energy per Si atom -5576.657275 kJ/mol
# Density = 1.807968 g / cm^3
# Si number density = 18.120928 Si / 1000 Ang^3
#
#
#
# Elastic Constant Matrix: (Units=GPa)
#
#
# Indices 1 2 3 4 5 6 
#
# 1 115.3970 14.6660 86.7450 0.0000 13.9413 -0.0010
# 2 14.6660 9.9459 14.1838 0.0002 3.6983 -0.0024
# 3 86.7450 14.1838 177.7195 0.0001 12.1546 -0.0001
# 4 0.0000 0.0002 0.0001 21.6696 0.0000 -0.0648
# 5 13.9413 3.6983 12.1546 0.0000 25.9890 0.0000
# 6 -0.0010 -0.0024 -0.0001 -0.0648 0.0000 16.3891
#
#
#
# Elastic Compliance Matrix: (Units=1/GPa)
#
#
# Indices 1 2 3 4 5 6 
#
# 1 0.015394 -0.012424 -0.006279 0.000000 -0.003553 -0.000001
# 2 -0.012424 0.127424 -0.003431 -0.000001 -0.009864 0.000018
# 3 -0.006279 -0.003431 0.008989 0.000000 -0.000347 -0.000001
# 4 0.000000 -0.000001 0.000000 0.046148 0.000000 0.000182
# 5 -0.003553 -0.009864 -0.000347 0.000000 0.041950 -0.000002
# 6 -0.000001 0.000018 -0.000001 0.000182 -0.000002 0.061017
#
#
# Mechanical properties :
#
#
# Convention : Reuss Voigt Hill
#
# Bulk Modulus (GPa) = 9.29893 59.36136 34.33014
# Shear Modulus (GPa) = 13.12206 25.30737 19.21472
#
# Velocity S-wave (km/s) = 2.69390 3.74114 3.25985
# Velocity P-wave (km/s) = 3.84953 7.17573 5.75804
#
# Compressibility (1/GPa) = 0.10753931
#
# Stress axis : x y z
#
# Youngs Moduli (GPa) = 64.95941 7.84781 111.24190
#
# Poissons Ratio (x) = 0.09750 0.69853
# Poissons Ratio (y) = 0.80704 0.38169
# Poissons Ratio (z) = 0.40790 0.02693
#
# Static dielectric constant tensor:
#      x y z
#    x 1.604880 0.000000 0.000920 
#    y 0.000000 1.635180 0.000000 
#    z 0.000920 0.000000 1.632490 
# 
# From -- ./inp_files/346042.got.cif
#   From: 2010.05.17/outbox.cif.g08.bks.cpg/sg12_174_cif.got.tgz:346042.got - 2010.06.03 13:09:07.
