data_PCOD9205207
_publ_section_title
;
Structure prediction by ZEFSAII (Michael W. Deem and Ramdas Pophale) SiO2 
 PCOD9205207
Probable space group: C 2/M
;
_chemical_formula_sum "Si O2"
_cell_formula_units_Z 64
_cell_length_a 18.951636
_cell_length_b 20.924327
_cell_length_c 17.732469
_cell_angle_alpha 90.000000
_cell_angle_beta 150.343415
_cell_angle_gamma 90.000000
_cell_volume 3479.344233
_symmetry_space_group_name_H-M "C 2/M"
_symmetry_group_IT_number 12
_symmetry_cell_setting 'monoclinic'
loop_
_space_group_symop_operation_xyz
x,y,z
-x,y,-z
-x,-y,-z
x,-y,z
1/2+x,1/2+y,z
1/2-x,1/2+y,-z
1/2-x,1/2-y,-z
1/2+x,1/2-y,z
loop_
_atom_site_type_symbol
_atom_site_label
_atom_site_fract_x
_atom_site_fract_y
_atom_site_fract_z
Si Si1 0.798114 0.626053 0.952685
Si Si2 0.130944 0.749108 0.577612
Si Si3 0.049466 0.429134 0.123197
Si Si4 0.496086 0.616357 0.408824
Si Si5 0.689086 0.806569 0.890614
Si Si6 0.156477 0.692882 0.450196
Si Si7 0.141972 0.251160 0.084911
Si Si8 0.245367 0.425938 0.435369
O O1 0.658373 0.619170 0.772342
O O2 0.877271 0.689200 0.990666
O O3 0.906757 0.569464 0.039034
O O4 0.777889 0.634467 0.023072
O O5 0.062484 0.812010 0.475078
O O6 0.187897 0.701954 0.567520
O O7 0.246757 0.769567 0.746132
O O8 0.000000 0.717544 0.500000
O O9 0.103568 0.500000 0.153378
O O10 0.165695 0.400252 0.285711
O O11 0.000000 0.397420 0.000000
O O12 0.500000 0.593386 0.500000
O O13 0.592286 0.576806 0.440518
O O14 0.516713 0.800414 0.720748
O O15 0.775857 0.800336 0.892711
O O16 0.750000 0.750000 0.000000
O O17 0.250000 0.750000 0.500000
O O18 0.205710 0.625122 0.462106
O O19 0.000000 0.233164 0.000000
O O20 0.203480 0.500000 0.410825
#
# Coordination Sequence:
#
# PCOD9205207 Si02
#       8
#     8   8   8   8   8   8   8   8
#     4  11  20  34  56  76 116 153 192 233 288 352
#     4  11  20  37  55  87 119 149 194 243 300 351
#     4  10  21  35  52  77 109 152 200 232 272 342
#     4  11  21  35  56  82 119 158 198 238 285 347
#     4  10  22  36  51  86 119 149 190 239 298 354
#     4  12  23  37  64  87 118 157 199 247 303 350
#     4  11  23  33  54  83 121 150 185 243 300 355
#     4  11  25  41  57  84 120 160 204 246 294 351
#
# _framework density 18.394269999999999
#
# number of rings (size 3 to 8) (size 9 to 14) (size 15 to 20)
#    0.000    1.125    6.250    1.875    5.250    0.750 
#    0.000    0.000    0.000    0.375    0.000    0.000 
#    0.000    2.500    0.000    0.000    0.000    0.000 
#
# Total GULP energy -178212.107063 kJ/mol
# GULP energy per Si atom -5569.128346 kJ/mol
# Density = 1.835240 g / cm^3
# Si number density = 18.394270 Si / 1000 Ang^3
#
#
#
# Elastic Constant Matrix: (Units=GPa)
#
#
# Indices 1 2 3 4 5 6 
#
# 1 117.9549 36.8474 16.8743 0.0002 13.3824 -0.0002
# 2 36.8474 51.1571 -4.3700 0.0001 4.1301 -0.0002
# 3 16.8743 -4.3700 65.5827 0.0004 15.7858 -0.0004
# 4 0.0002 0.0001 0.0004 2.0576 0.0001 13.6914
# 5 13.3824 4.1301 15.7858 0.0001 31.9102 0.0000
# 6 -0.0002 -0.0002 -0.0004 13.6914 0.0000 -15.4825
#
#
#
# Elastic Compliance Matrix: (Units=1/GPa)
#
#
# Indices 1 2 3 4 5 6 
#
# 1 0.011878 -0.008628 -0.003066 0.000000 -0.002348 0.000000
# 2 -0.008628 0.026303 0.004451 0.000000 -0.001988 0.000000
# 3 -0.003066 0.004451 0.018347 0.000000 -0.008367 0.000000
# 4 0.000000 0.000000 0.000000 0.070597 0.000000 0.062429
# 5 -0.002348 -0.001988 -0.008367 0.000000 0.036719 0.000000
# 6 0.000000 0.000000 0.000000 0.062429 0.000000 -0.009382
#
#
# Mechanical properties :
#
#
# Convention : Reuss Voigt Hill
#
# Bulk Modulus (GPa) = 23.78537 37.04423 30.41480
# Shear Modulus (GPa) = 27.32823 16.05325 21.69074
#
# Velocity S-wave (km/s) = 3.85865 2.95741 3.43769
# Velocity P-wave (km/s) = 5.72810 5.64308 5.68575
#
# Compressibility (1/GPa) = 0.04204265
#
# Stress axis : x y z
#
# Youngs Moduli (GPa) = 84.18922 38.01878 54.50421
#
# Poissons Ratio (x) = 0.32802 0.16711
# Poissons Ratio (y) = 0.72637 -0.24260
# Poissons Ratio (z) = 0.25812 -0.16922
#
# Static dielectric constant tensor:
#      x y z
#    x 2.022970 0.000000 0.018560 
#    y 0.000000 1.740960 0.000000 
#    z 0.018560 0.000000 1.684350 
# 
# From -- ./inp_files/279137.got.cif
#   From: 2010.05.17/outbox.cif.g08.bks.cpg/sg12_140_cif.got.tgz:279137.got - 2010.06.03 13:09:07.
