data_PCOD9205954
_publ_section_title
;
Structure prediction by ZEFSAII (Michael W. Deem and Ramdas Pophale) SiO2 
 PCOD9205954
Probable space group: C 2/M
;
_chemical_formula_sum "Si O2"
_cell_formula_units_Z 64
_cell_length_a 19.505296
_cell_length_b 8.840200
_cell_length_c 21.973420
_cell_angle_alpha 90.000000
_cell_angle_beta 121.011336
_cell_angle_gamma 90.000000
_cell_volume 3247.328672
_symmetry_space_group_name_H-M "C 2/M"
_symmetry_group_IT_number 12
_symmetry_cell_setting 'monoclinic'
loop_
_space_group_symop_operation_xyz
x,y,z
-x,y,-z
-x,-y,-z
x,-y,z
1/2+x,1/2+y,z
1/2-x,1/2+y,-z
1/2-x,1/2-y,-z
1/2+x,1/2-y,z
loop_
_atom_site_type_symbol
_atom_site_label
_atom_site_fract_x
_atom_site_fract_y
_atom_site_fract_z
Si Si1 0.364942 0.175362 0.287202
Si Si2 0.723693 0.681106 0.924431
Si Si3 0.131319 0.670960 0.466866
Si Si4 0.475916 0.330025 0.418957
Si Si5 0.053878 0.181401 0.787869
Si Si6 0.204449 0.320227 0.169539
Si Si7 0.261411 0.173243 0.605843
Si Si8 0.378075 0.319397 0.758900
O O1 0.406325 0.216371 0.369173
O O2 0.428859 0.224310 0.265045
O O3 0.287980 0.277571 0.240100
O O4 0.343936 0.000000 0.272742
O O5 0.729556 0.500000 0.930266
O O6 0.631199 0.716238 0.865388
O O7 0.779626 0.730015 0.892945
O O8 0.750000 0.750000 0.000000
O O9 0.103260 0.500000 0.466526
O O10 0.057328 0.781677 0.423266
O O11 0.186326 0.731186 0.547087
O O12 0.182373 0.668883 0.428411
O O13 0.500000 0.324384 0.500000
O O14 0.451757 0.500000 0.391289
O O15 0.968010 0.216698 0.777622
O O16 0.056252 0.000000 0.776209
O O17 0.192156 0.500000 0.164683
O O18 0.138112 0.239428 0.180226
O O19 0.313003 0.244226 0.683907
O O20 0.237688 0.000000 0.609653
O O21 0.367887 0.500000 0.752107
#
# Coordination Sequence:
#
# PCOD9205954 Si02
#       8
#     8   8   8   8   8   8   8   8
#     4  11  22  37  59  84 111 147 196 246 290 345
#     4   9  19  38  64  91 119 156 193 231 278 336
#     4  10  21  37  55  77 103 137 190 243 287 343
#     4  11  24  38  53  73 104 146 188 235 296 349
#     4   9  20  39  61  87 120 155 192 233 284 342
#     4  10  22  40  60  85 121 157 192 235 290 348
#     4  10  21  36  55  77 107 146 182 230 294 350
#     4  11  22  36  58  86 115 150 194 242 287 337
#
# _framework density 19.708506
#
# number of rings (size 3 to 8) (size 9 to 14) (size 15 to 20)
#    0.000    1.875    0.000    4.500    1.750    8.000 
#    0.000    0.625    0.000    3.750    0.000    0.000 
#    0.000    0.000    0.000    0.000    0.000    0.000 
#
# Total GULP energy -178771.810724 kJ/mol
# GULP energy per Si atom -5586.619085 kJ/mol
# Density = 1.966365 g / cm^3
# Si number density = 19.708506 Si / 1000 Ang^3
#
#
#
# Elastic Constant Matrix: (Units=GPa)
#
#
# Indices 1 2 3 4 5 6 
#
# 1 75.1087 12.6443 21.0763 0.0000 -20.7571 0.0000
# 2 12.6443 48.7113 23.5533 0.0000 -12.3768 0.0000
# 3 21.0763 23.5533 97.5519 0.0000 -12.0120 0.0000
# 4 0.0000 0.0000 0.0000 32.6973 0.0000 -2.9575
# 5 -20.7571 -12.3768 -12.0120 0.0000 16.9344 0.0000
# 6 0.0000 0.0000 0.0000 -2.9575 0.0000 25.7509
#
#
#
# Elastic Compliance Matrix: (Units=1/GPa)
#
#
# Indices 1 2 3 4 5 6 
#
# 1 0.020463 0.001969 -0.001787 0.000000 0.025254 0.000000
# 2 0.001969 0.027061 -0.004631 0.000000 0.018906 0.000000
# 3 -0.001787 -0.004631 0.012128 0.000000 0.003028 0.000000
# 4 0.000000 0.000000 0.000000 0.030905 0.000000 0.003549
# 5 0.025254 0.018906 0.003028 0.000000 0.105972 0.000000
# 6 0.000000 0.000000 0.000000 0.003549 0.000000 0.039241
#
#
# Mechanical properties :
#
#
# Convention : Reuss Voigt Hill
#
# Bulk Modulus (GPa) = 19.70284 37.32443 28.51364
# Shear Modulus (GPa) = 19.11416 26.01638 22.56527
#
# Velocity S-wave (km/s) = 3.11761 3.63720 3.38738
# Velocity P-wave (km/s) = 4.79355 6.05131 5.45878
#
# Compressibility (1/GPa) = 0.05075410
#
# Stress axis : x y z
#
# Youngs Moduli (GPa) = 48.86823 36.95335 82.45397
#
# Poissons Ratio (x) = -0.07276 0.14733
# Poissons Ratio (y) = -0.09622 0.38185
# Poissons Ratio (z) = 0.08732 0.17114
#
# Static dielectric constant tensor:
#      x y z
#    x 1.728430 0.000000 -0.026680 
#    y 0.000000 1.673840 0.000000 
#    z -0.026680 0.000000 1.687300 
# 
# From -- ./inp_files/320060.got.cif
#   From: 2010.05.17/outbox.cif.g08.bks.cpg/sg12_161_cif.got.tgz:320060.got - 2010.06.03 13:09:07.
