data_PCOD9205331
_publ_section_title
;
Structure prediction by ZEFSAII (Michael W. Deem and Ramdas Pophale) SiO2 
 PCOD9205331
Probable space group: C 2/M
;
_chemical_formula_sum "Si O2"
_cell_formula_units_Z 56
_cell_length_a 29.695169
_cell_length_b 7.900606
_cell_length_c 21.566193
_cell_angle_alpha 90.000000
_cell_angle_beta 150.310093
_cell_angle_gamma 90.000000
_cell_volume 2506.068695
_symmetry_space_group_name_H-M "C 2/M"
_symmetry_group_IT_number 12
_symmetry_cell_setting 'monoclinic'
loop_
_space_group_symop_operation_xyz
x,y,z
-x,y,-z
-x,-y,-z
x,-y,z
1/2+x,1/2+y,z
1/2-x,1/2+y,-z
1/2-x,1/2-y,-z
1/2+x,1/2-y,z
loop_
_atom_site_type_symbol
_atom_site_label
_atom_site_fract_x
_atom_site_fract_y
_atom_site_fract_z
Si Si1 0.900871 0.304656 0.713015
Si Si2 0.069478 0.296336 0.748334
Si Si3 0.790483 0.300416 0.839424
Si Si4 0.637625 0.206198 0.467608
Si Si5 0.594858 0.691740 0.911077
Si Si6 0.325291 0.198771 0.748687
Si Si7 0.902516 0.294722 0.356354
O O1 0.870748 0.500000 0.680290
O O2 0.856382 0.234050 0.596937
O O3 0.877457 0.226088 0.751559
O O4 0.008272 0.301470 0.828092
O O5 0.072875 0.500000 0.752936
O O6 0.119725 0.233829 0.870108
O O7 0.104501 0.238141 0.723664
O O8 0.962897 0.248492 0.628463
O O9 0.809128 0.500000 0.866289
O O10 0.836403 0.231193 0.831367
O O11 0.682669 0.272564 0.707600
O O12 0.826886 0.215821 0.945326
O O13 0.719560 0.281737 0.604385
O O14 0.643702 0.000000 0.476478
O O15 0.562067 0.500000 0.873341
O O16 0.349622 0.000000 0.782368
O O17 0.899330 0.500000 0.354343
O O18 0.000000 0.243317 0.500000
#
# Coordination Sequence:
#
# PCOD9205331 Si02
#       7
#     8   8   8   8   8   8   8
#     4   9  19  37  57  79 111 149 186 225 276 333
#     4   9  19  37  60  84 113 149 183 222 276 330
#     4  11  24  40  57  80 113 150 187 229 276 328
#     4   9  17  31  55  84 113 144 179 226 279 329
#     4  11  23  39  59  83 109 142 188 235 278 325
#     4  10  21  35  54  80 111 150 189 227 275 329
#     4  10  21  39  63  89 116 146 181 222 271 327
#
# _framework density 22.345755
#
# number of rings (size 3 to 8) (size 9 to 14) (size 15 to 20)
#    0.000    2.143    0.000    3.857    0.000    7.143 
#    0.000    2.857    0.000    0.000    0.000    0.000 
#    0.000    0.000    0.000    0.000    0.000    0.000 
#
# Total GULP energy -156389.947052 kJ/mol
# GULP energy per Si atom -5585.355252 kJ/mol
# Density = 2.229490 g / cm^3
# Si number density = 22.345755 Si / 1000 Ang^3
#
#
#
# Elastic Constant Matrix: (Units=GPa)
#
#
# Indices 1 2 3 4 5 6 
#
# 1 127.8068 7.8654 9.7638 0.0000 -32.7874 0.0000
# 2 7.8654 30.5314 -8.2463 0.0000 -8.9491 0.0000
# 3 9.7638 -8.2463 54.0248 0.0000 -23.8341 0.0000
# 4 0.0000 0.0000 0.0000 23.2510 0.0000 4.6290
# 5 -32.7874 -8.9491 -23.8341 0.0000 27.8112 0.0000
# 6 0.0000 0.0000 0.0000 4.6290 0.0000 9.0137
#
#
#
# Elastic Compliance Matrix: (Units=1/GPa)
#
#
# Indices 1 2 3 4 5 6 
#
# 1 0.013751 0.007774 0.011186 0.000000 0.028300 0.000000
# 2 0.007774 0.054114 0.029876 0.000000 0.052181 0.000000
# 3 0.011186 0.029876 0.050019 0.000000 0.065668 0.000000
# 4 0.000000 0.000000 0.000000 0.047907 0.000000 -0.024603
# 5 0.028300 0.052181 0.065668 0.000000 0.142388 0.000000
# 6 0.000000 0.000000 0.000000 -0.024603 0.000000 0.123577
#
#
# Mechanical properties :
#
#
# Convention : Reuss Voigt Hill
#
# Bulk Modulus (GPa) = 4.63914 25.68099 15.16006
# Shear Modulus (GPa) = 12.31717 25.54719 18.93218
#
# Velocity S-wave (km/s) = 2.35033 3.38489 2.91389
# Velocity P-wave (km/s) = 3.07343 5.17631 4.25677
#
# Compressibility (1/GPa) = 0.21555711
#
# Stress axis : x y z
#
# Youngs Moduli (GPa) = 72.72013 18.47935 19.99235
#
# Poissons Ratio (x) = -0.14366 -0.22364
# Poissons Ratio (y) = -0.56531 -0.59729
# Poissons Ratio (z) = -0.81348 -0.55208
#
# Static dielectric constant tensor:
#      x y z
#    x 1.850130 0.000000 -0.028110 
#    y 0.000000 1.828490 0.000000 
#    z -0.028110 0.000000 1.804330 
# 
# From -- ./inp_files/329569.got.cif
#   From: 2010.05.17/outbox.cif.g08.bks.cpg/sg12_165_cif.got.tgz:329569.got - 2010.06.03 13:09:07.
