data_PCOD9205161
_publ_section_title
;
Structure prediction by ZEFSAII (Michael W. Deem and Ramdas Pophale) SiO2 
 PCOD9205161
Probable space group: C 2/M
;
_chemical_formula_sum "Si O2"
_cell_formula_units_Z 56
_cell_length_a 18.984105
_cell_length_b 8.047471
_cell_length_c 30.209721
_cell_angle_alpha 90.000000
_cell_angle_beta 141.800849
_cell_angle_gamma 90.000000
_cell_volume 2854.062379
_symmetry_space_group_name_H-M "C 2/M"
_symmetry_group_IT_number 12
_symmetry_cell_setting 'monoclinic'
loop_
_space_group_symop_operation_xyz
x,y,z
-x,y,-z
-x,-y,-z
x,-y,z
1/2+x,1/2+y,z
1/2-x,1/2+y,-z
1/2-x,1/2-y,-z
1/2+x,1/2-y,z
loop_
_atom_site_type_symbol
_atom_site_label
_atom_site_fract_x
_atom_site_fract_y
_atom_site_fract_z
Si Si1 0.747470 0.700515 0.862888
Si Si2 0.050078 0.700170 0.704290
Si Si3 0.370385 0.799792 0.430894
Si Si4 0.285923 0.200410 0.294126
Si Si5 0.088862 0.299715 0.135577
Si Si6 0.330196 0.799202 0.999371
Si Si7 0.791927 0.698690 0.569201
O O1 0.751393 0.500000 0.865189
O O2 0.624688 0.751901 0.783675
O O3 0.840097 0.759072 0.872325
O O4 0.779886 0.760483 0.927640
O O5 0.046943 0.500000 0.700351
O O6 0.120712 0.759517 0.695948
O O7 0.920802 0.762202 0.640692
O O8 0.500000 0.738291 0.500000
O O9 0.315714 0.738628 0.357846
O O10 0.293831 0.757447 0.435212
O O11 0.375844 0.000000 0.430716
O O12 0.162905 0.250315 0.214684
O O13 0.290730 0.000000 0.296860
O O14 0.086305 0.500000 0.132475
O O15 0.959497 0.239029 0.070522
O O16 0.334416 0.000000 0.999378
O O17 0.250000 0.750000 0.000000
O O18 0.795481 0.500000 0.572547
O O19 0.750000 0.750000 0.500000
#
# Coordination Sequence:
#
# PCOD9205161 Si02
#       7
#     8   8   8   8   8   8   8
#     4   9  18  34  56  78 100 133 177 218 256 306
#     4   9  19  36  56  79 107 138 172 214 265 315
#     4  10  21  38  58  79 108 145 180 218 268 319
#     4   9  18  34  56  79 104 136 174 215 261 316
#     4   9  18  34  55  76 101 135 174 216 260 306
#     4  10  21  35  51  74 105 138 172 213 261 310
#     4  11  23  38  57  81 110 143 180 221 265 316
#
# _framework density 19.621155999999999
#
# number of rings (size 3 to 8) (size 9 to 14) (size 15 to 20)
#    0.000    2.429    0.000    1.714    0.000    8.286 
#    0.000    8.571    0.000    4.286    0.000    0.000 
#    0.000    0.000    0.000    0.000    0.000    0.000 
#
# Total GULP energy -156310.083140 kJ/mol
# GULP energy per Si atom -5582.502969 kJ/mol
# Density = 1.957650 g / cm^3
# Si number density = 19.621156 Si / 1000 Ang^3
#
#
#
# Elastic Constant Matrix: (Units=GPa)
#
#
# Indices 1 2 3 4 5 6 
#
# 1 136.6159 4.8672 136.9579 0.0000 2.4871 -0.0001
# 2 4.8672 9.7680 11.4069 0.0001 0.0876 0.0000
# 3 136.9579 11.4069 232.8755 0.0000 -0.2056 0.0000
# 4 0.0000 0.0001 0.0000 27.5271 0.0000 -2.1518
# 5 2.4871 0.0876 -0.2056 0.0000 40.2747 0.0000
# 6 -0.0001 0.0000 0.0000 -2.1518 0.0000 25.3573
#
#
#
# Elastic Compliance Matrix: (Units=1/GPa)
#
#
# Indices 1 2 3 4 5 6 
#
# 1 0.018009 0.003613 -0.010769 0.000000 -0.001175 0.000000
# 2 0.003613 0.109314 -0.007480 0.000000 -0.000499 0.000000
# 3 -0.010769 -0.007480 0.010995 0.000000 0.000737 0.000000
# 4 0.000000 0.000000 0.000000 0.036570 0.000000 0.003103
# 5 -0.001175 -0.000499 0.000737 0.000000 0.024907 0.000000
# 6 0.000000 0.000000 0.000000 0.003103 0.000000 0.039700
#
#
# Mechanical properties :
#
#
# Convention : Reuss Voigt Hill
#
# Bulk Modulus (GPa) = 9.17051 76.19151 42.68101
# Shear Modulus (GPa) = 16.38732 33.70032 25.04382
#
# Velocity S-wave (km/s) = 2.89309 4.14883 3.57651
# Velocity P-wave (km/s) = 3.98044 7.86549 6.23337
#
# Compressibility (1/GPa) = 0.10904518
#
# Stress axis : x y z
#
# Youngs Moduli (GPa) = 55.52916 9.14798 90.95295
#
# Poissons Ratio (x) = -0.03305 0.97949
# Poissons Ratio (y) = -0.20064 0.68032
# Poissons Ratio (z) = 0.59800 0.06843
#
# Static dielectric constant tensor:
#      x y z
#    x 3.597490 0.000000 -0.823140 
#    y 0.000000 1.705920 0.000000 
#    z -0.823140 0.000000 2.035170 
# 
# From -- ./inp_files/363179.got.cif
#   From: 2010.05.17/outbox.cif.g08.bks.cpg/sg12_182_cif.got.tgz:363179.got - 2010.06.03 13:09:07.
