data_PCOD9205835
_publ_section_title
;
Structure prediction by ZEFSAII (Michael W. Deem and Ramdas Pophale) SiO2 
 PCOD9205835
Probable space group: C 2/M
;
_chemical_formula_sum "Si O2"
_cell_formula_units_Z 56
_cell_length_a 28.467826
_cell_length_b 7.788578
_cell_length_c 18.094466
_cell_angle_alpha 90.000000
_cell_angle_beta 139.896288
_cell_angle_gamma 90.000000
_cell_volume 2584.406887
_symmetry_space_group_name_H-M "C 2/M"
_symmetry_group_IT_number 12
_symmetry_cell_setting 'monoclinic'
loop_
_space_group_symop_operation_xyz
x,y,z
-x,y,-z
-x,-y,-z
x,-y,z
1/2+x,1/2+y,z
1/2-x,1/2+y,-z
1/2-x,1/2-y,-z
1/2+x,1/2-y,z
loop_
_atom_site_type_symbol
_atom_site_label
_atom_site_fract_x
_atom_site_fract_y
_atom_site_fract_z
Si Si1 0.882200 0.298300 0.351583
Si Si2 0.521811 0.308293 0.798915
Si Si3 0.999809 0.701147 0.620499
Si Si4 0.132795 0.791480 0.365241
Si Si5 0.751384 0.294720 0.621951
Si Si6 0.727899 0.808245 0.189949
Si Si7 0.183167 0.803598 0.974940
O O1 0.861089 0.500000 0.326774
O O2 0.922481 0.264271 0.323519
O O3 0.814167 0.182273 0.282795
O O4 0.940202 0.272943 0.486034
O O5 0.534007 0.500000 0.845208
O O6 0.489415 0.317414 0.677640
O O7 0.449916 0.227470 0.749962
O O8 0.601004 0.222623 0.879531
O O9 0.996922 0.500000 0.637915
O O10 0.186016 0.740688 0.362506
O O11 0.175909 0.731672 0.492040
O O12 0.129667 0.000000 0.364023
O O13 0.743073 0.500000 0.621643
O O14 0.776090 0.228062 0.732474
O O15 0.704691 0.711974 0.087295
O O16 0.694752 0.000000 0.149501
O O17 0.170725 0.000000 0.938473
O O18 0.250000 0.750000 0.000000
#
# Coordination Sequence:
#
# PCOD9205835 Si02
#       7
#     8   8   8   8   8   8   8
#     4   9  18  32  49  74 107 139 174 217 268 327
#     4  10  21  36  54  77 105 140 182 227 274 324
#     4   9  18  31  49  75 106 138 172 216 270 328
#     4   9  18  35  58  83 111 141 176 221 273 330
#     4   9  19  35  56  84 114 141 174 220 274 331
#     4  11  22  36  55  79 108 144 185 228 275 324
#     4  11  24  41  59  80 109 147 191 234 277 325
#
# _framework density 21.668415
#
# number of rings (size 3 to 8) (size 9 to 14) (size 15 to 20)
#    0.000    2.286    0.000    3.429    0.000    7.429 
#    0.000    5.000    0.000    4.286    0.000    0.000 
#    0.000    0.000    0.000    0.000    0.000    0.000 
#
# Total GULP energy -155879.645018 kJ/mol
# GULP energy per Si atom -5567.130179 kJ/mol
# Density = 2.161910 g / cm^3
# Si number density = 21.668415 Si / 1000 Ang^3
#
#
#
# Elastic Constant Matrix: (Units=GPa)
#
#
# Indices 1 2 3 4 5 6 
#
# 1 23.9624 -1.6022 76.6794 0.0000 35.0176 0.0000
# 2 -1.6022 9.1931 1.1915 0.0000 5.6029 0.0000
# 3 76.6794 1.1915 79.9675 0.0000 9.1134 0.0000
# 4 0.0000 0.0000 0.0000 14.9267 0.0000 2.6981
# 5 35.0176 5.6029 9.1134 0.0000 38.5881 0.0000
# 6 0.0000 0.0000 0.0000 2.6981 0.0000 19.2344
#
#
#
# Elastic Compliance Matrix: (Units=1/GPa)
#
#
# Indices 1 2 3 4 5 6 
#
# 1 -0.013678 -0.010726 0.012007 0.000000 0.011134 0.000000
# 2 -0.010726 0.110930 0.009617 0.000000 -0.008644 0.000000
# 3 0.012007 0.009617 0.002312 0.000000 -0.012838 0.000000
# 4 0.000000 0.000000 0.000000 0.068737 0.000000 -0.009642
# 5 0.011134 -0.008644 -0.012838 0.000000 0.020098 0.000000
# 6 0.000000 0.000000 0.000000 -0.009642 0.000000 0.053343
#
#
# Mechanical properties :
#
#
# Convention : Reuss Voigt Hill
#
# Bulk Modulus (GPa) = 8.23995 29.51782 18.87888
# Shear Modulus (GPa) = 19.20140 17.00680 18.10410
#
# Velocity S-wave (km/s) = 2.98005 2.80459 2.89365
# Velocity P-wave (km/s) = 3.95625 4.91322 4.46047
#
# Compressibility (1/GPa) = 0.12136000
#
# Stress axis : x y z
#
# Youngs Moduli (GPa) = -73.10782 9.01466 432.58262
#
# Poissons Ratio (x) = 0.09669 -5.19397
# Poissons Ratio (y) = -0.78417 -4.16033
# Poissons Ratio (z) = 0.87780 -0.08670
#
# Static dielectric constant tensor:
#      x y z
#    x 1.841680 0.000000 0.027970 
#    y 0.000000 1.846060 0.000000 
#    z 0.027970 0.000000 1.873100 
# 
# From -- ./inp_files/292552.got.cif
#   From: 2010.05.17/outbox.cif.g08.bks.cpg/sg12_147_cif.got.tgz:292552.got - 2010.06.03 13:09:07.
