data_PCOD9205787
_publ_section_title
;
Structure prediction by ZEFSAII (Michael W. Deem and Ramdas Pophale) SiO2 
 PCOD9205787
Probable space group: C 2/M
;
_chemical_formula_sum "Si O2"
_cell_formula_units_Z 48
_cell_length_a 32.650426
_cell_length_b 8.569331
_cell_length_c 16.338296
_cell_angle_alpha 90.000000
_cell_angle_beta 143.110900
_cell_angle_gamma 90.000000
_cell_volume 2744.023215
_symmetry_space_group_name_H-M "C 2/M"
_symmetry_group_IT_number 12
_symmetry_cell_setting 'monoclinic'
loop_
_space_group_symop_operation_xyz
x,y,z
-x,y,-z
-x,-y,-z
x,-y,z
1/2+x,1/2+y,z
1/2-x,1/2+y,-z
1/2-x,1/2-y,-z
1/2+x,1/2-y,z
loop_
_atom_site_type_symbol
_atom_site_label
_atom_site_fract_x
_atom_site_fract_y
_atom_site_fract_z
Si Si1 0.598797 0.811857 0.099033
Si Si2 0.950755 0.690170 0.803575
Si Si3 0.286212 0.187226 0.138589
Si Si4 0.265320 0.687668 0.766637
Si Si5 0.116516 0.689051 0.472936
Si Si6 0.928657 0.187232 0.426225
O O1 0.589640 0.761426 0.179034
O O2 0.666868 0.752435 0.165639
O O3 0.599663 0.000000 0.099984
O O4 0.529513 0.762039 0.941622
O O5 0.950095 0.500000 0.801787
O O6 0.917132 0.742954 0.665423
O O7 0.245959 0.236197 0.156915
O O8 0.363241 0.248164 0.272849
O O9 0.287710 0.000000 0.139254
O O10 0.250000 0.250000 0.000000
O O11 0.268541 0.500000 0.770325
O O12 0.196000 0.734962 0.608658
O O13 0.113880 0.500000 0.471685
O O14 0.078748 0.752758 0.492781
O O15 0.000000 0.237007 0.500000
O O16 0.925713 0.000000 0.421128
#
# Coordination Sequence:
#
# PCOD9205787 Si02
#       6
#     8   8   8   8   8   8
#     4   9  17  31  52  74  97 129 167 206 247 296
#     4   8  16  32  51  72  98 128 167 210 247 289
#     4  10  21  37  56  77 104 137 171 210 255 305
#     4   9  19  33  48  71 102 130 159 202 251 295
#     4   9  18  34  53  71  97 134 171 207 249 301
#     4  10  21  36  53  76 106 135 168 215 261 302
#
# _framework density 17.492563000000001
#
# number of rings (size 3 to 8) (size 9 to 14) (size 15 to 20)
#    0.000    2.833    0.000    3.000    0.000    6.667 
#    0.000    6.667    0.000    0.000    0.000    0.000 
#    0.000    0.000    0.000    0.000    0.000    0.000 
#
# Total GULP energy -133816.690252 kJ/mol
# GULP energy per Si atom -5575.695427 kJ/mol
# Density = 1.745275 g / cm^3
# Si number density = 17.492563 Si / 1000 Ang^3
#
#
#
# Elastic Constant Matrix: (Units=GPa)
#
#
# Indices 1 2 3 4 5 6 
#
# 1 178.1648 33.3727 135.9836 0.0000 19.4668 0.0000
# 2 33.3727 18.1949 33.5643 0.0000 0.7987 0.0000
# 3 135.9836 33.5643 182.7803 0.0000 -18.9523 0.0000
# 4 0.0000 0.0000 0.0000 20.7794 0.0000 4.2594
# 5 19.4668 0.7987 -18.9523 0.0000 28.9217 0.0000
# 6 0.0000 0.0000 0.0000 4.2594 0.0000 33.0732
#
#
#
# Elastic Compliance Matrix: (Units=1/GPa)
#
#
# Indices 1 2 3 4 5 6 
#
# 1 0.029098 -0.007878 -0.023829 0.000000 -0.034983 0.000000
# 2 -0.007878 0.090221 -0.011174 0.000000 -0.004512 0.000000
# 3 -0.023829 -0.011174 0.028911 0.000000 0.035292 0.000000
# 4 0.000000 0.000000 0.000000 0.049429 0.000000 -0.006366
# 5 -0.034983 -0.004512 0.035292 0.000000 0.081374 0.000000
# 6 0.000000 0.000000 0.000000 -0.006366 0.000000 0.031056
#
#
# Mechanical properties :
#
#
# Convention : Reuss Voigt Hill
#
# Bulk Modulus (GPa) = 16.00830 87.22013 51.61421
# Shear Modulus (GPa) = 11.99978 28.30282 20.15130
#
# Velocity S-wave (km/s) = 2.62199 4.02679 3.39778
# Velocity P-wave (km/s) = 4.28226 8.46106 6.70550
#
# Compressibility (1/GPa) = 0.06246761
#
# Stress axis : x y z
#
# Youngs Moduli (GPa) = 34.36656 11.08384 34.58950
#
# Poissons Ratio (x) = 0.08732 0.82423
# Poissons Ratio (y) = 0.27074 0.38652
# Poissons Ratio (z) = 0.81892 0.12386
#
# Static dielectric constant tensor:
#      x y z
#    x 1.573470 0.000000 -0.006770 
#    y 0.000000 1.598040 0.000000 
#    z -0.006770 0.000000 1.584880 
# 
# From -- ./inp_files/244917.got.cif
#   From: 2010.05.17/outbox.cif.g08.bks.cpg/sg12_123_cif.got.tgz:244917.got - 2010.06.03 13:09:07.
