data_PCOD9205584
_publ_section_title
;
Structure prediction by ZEFSAII (Michael W. Deem and Ramdas Pophale) SiO2 
 PCOD9205584
Probable space group: C 2/M
;
_chemical_formula_sum "Si O2"
_cell_formula_units_Z 56
_cell_length_a 8.385339
_cell_length_b 32.200794
_cell_length_c 10.998553
_cell_angle_alpha 90.000000
_cell_angle_beta 78.521645
_cell_angle_gamma 90.000000
_cell_volume 2910.374063
_symmetry_space_group_name_H-M "C 2/M"
_symmetry_group_IT_number 12
_symmetry_cell_setting 'monoclinic'
loop_
_space_group_symop_operation_xyz
x,y,z
-x,y,-z
-x,-y,-z
x,-y,z
1/2+x,1/2+y,z
1/2-x,1/2+y,-z
1/2-x,1/2-y,-z
1/2+x,1/2-y,z
loop_
_atom_site_type_symbol
_atom_site_label
_atom_site_fract_x
_atom_site_fract_y
_atom_site_fract_z
Si Si1 0.052776 0.907415 0.849201
Si Si2 0.304302 0.087500 0.140504
Si Si3 0.194806 0.203021 0.477413
Si Si4 0.100403 0.674408 0.784058
Si Si5 0.628591 0.950645 0.136056
Si Si6 0.365405 0.739700 0.093351
Si Si7 0.745980 0.168861 0.276586
O O1 0.210082 0.937498 0.814219
O O2 0.121987 0.864069 0.788972
O O3 0.886594 0.920484 0.805638
O O4 0.000000 0.904320 0.000000
O O5 0.331616 0.137038 0.144539
O O6 0.449166 0.066736 0.198119
O O7 0.335564 0.069828 0.001032
O O8 0.250000 0.250000 0.500000
O O9 0.274236 0.186861 0.341126
O O10 0.253329 0.174179 0.579436
O O11 0.000000 0.202377 0.500000
O O12 0.072277 0.716782 0.862369
O O13 0.931372 0.659496 0.750518
O O14 0.619566 0.000000 0.126992
O O15 0.292554 0.713344 0.212495
O O16 0.500000 0.713726 0.000000
O O17 0.250000 0.750000 0.000000
#
# Coordination Sequence:
#
# PCOD9205584 Si02
#       7
#     8   8   8   8   8   8   8
#     4  10  22  36  60  91 128 167 204 255 312 382
#     4  10  21  35  58  86 124 162 204 250 311 369
#     4  12  26  43  62  85 116 164 224 277 320 366
#     4  12  25  41  61  86 120 169 215 264 317 371
#     4  10  21  38  61  94 132 169 205 255 321 392
#     4  12  27  36  55  85 120 166 207 254 309 374
#     4  12  24  43  60  84 123 164 218 265 316 368
#
# _framework density 19.241513999999999
#
# number of rings (size 3 to 8) (size 9 to 14) (size 15 to 20)
#    0.000    0.857    4.286    3.429   10.000    3.143 
#    0.000    0.000    0.000    0.000    0.000    3.000 
#    0.000   14.286    0.000    0.000    0.000    0.000 
#
# Total GULP energy -156219.413695 kJ/mol
# GULP energy per Si atom -5579.264775 kJ/mol
# Density = 1.919772 g / cm^3
# Si number density = 19.241514 Si / 1000 Ang^3
#
#
#
# Elastic Constant Matrix: (Units=GPa)
#
#
# Indices 1 2 3 4 5 6 
#
# 1 164.0366 34.8915 11.6940 0.0000 -16.0379 0.0000
# 2 34.8915 108.0014 22.6028 0.0000 -2.6475 0.0000
# 3 11.6940 22.6028 61.5163 0.0000 -7.7107 0.0000
# 4 0.0000 0.0000 0.0000 14.9759 0.0000 -7.4837
# 5 -16.0379 -2.6475 -7.7107 0.0000 23.6230 0.0000
# 6 0.0000 0.0000 0.0000 -7.4837 0.0000 26.7751
#
#
#
# Elastic Compliance Matrix: (Units=1/GPa)
#
#
# Indices 1 2 3 4 5 6 
#
# 1 0.006994 -0.002155 0.000028 0.000000 0.004516 0.000000
# 2 -0.002155 0.010694 -0.003705 0.000000 -0.001473 0.000000
# 3 0.000028 -0.003705 0.018311 0.000000 0.005581 0.000000
# 4 0.000000 0.000000 0.000000 0.077614 0.000000 0.021693
# 5 0.004516 -0.001473 0.005581 0.000000 0.047054 0.000000
# 6 0.000000 0.000000 0.000000 0.021693 0.000000 0.043411
#
#
# Mechanical properties :
#
#
# Convention : Reuss Voigt Hill
#
# Bulk Modulus (GPa) = 41.08872 52.43677 46.76274
# Shear Modulus (GPa) = 22.33599 30.69921 26.51760
#
# Velocity S-wave (km/s) = 3.41078 3.99866 3.71636
# Velocity P-wave (km/s) = 6.07551 6.97353 6.53995
#
# Compressibility (1/GPa) = 0.02433758
#
# Stress axis : x y z
#
# Youngs Moduli (GPa) = 142.97870 93.50659 54.61152
#
# Poissons Ratio (x) = 0.20148 -0.00154
# Poissons Ratio (y) = 0.30808 0.20231
# Poissons Ratio (z) = -0.00404 0.34640
#
# Static dielectric constant tensor:
#      x y z
#    x 1.772250 0.000000 -0.028940 
#    y 0.000000 1.669690 0.000000 
#    z -0.028940 0.000000 1.669250 
# 
# From -- ./inp_files/125152.got.cif
#   From: 2010.05.17/outbox.cif.g08.bks.cpg/sg12_63_cif.got.tgz:125152.got - 2010.06.03 13:09:07.
