data_PCOD9205493
_publ_section_title
;
Structure prediction by ZEFSAII (Michael W. Deem and Ramdas Pophale) SiO2 
 PCOD9205493
Probable space group: C 2/M
;
_chemical_formula_sum "Si O2"
_cell_formula_units_Z 26
_cell_length_a 5.361796
_cell_length_b 31.093532
_cell_length_c 7.046424
_cell_angle_alpha 90.000000
_cell_angle_beta 100.554426
_cell_angle_gamma 90.000000
_cell_volume 1154.884562
_symmetry_space_group_name_H-M "C 2/M"
_symmetry_group_IT_number 12
_symmetry_cell_setting 'monoclinic'
loop_
_space_group_symop_operation_xyz
x,y,z
-x,y,-z
-x,-y,-z
x,-y,z
1/2+x,1/2+y,z
1/2-x,1/2+y,-z
1/2-x,1/2-y,-z
1/2+x,1/2-y,z
loop_
_atom_site_type_symbol
_atom_site_label
_atom_site_fract_x
_atom_site_fract_y
_atom_site_fract_z
Si Si1 0.441757 0.133718 0.268391
Si Si2 0.000000 0.000000 0.000000
Si Si3 0.658764 0.767277 0.783965
Si Si4 0.558752 0.418087 0.734950
O O1 0.500000 0.134887 0.500000
O O2 0.412778 0.183054 0.206978
O O3 0.679221 0.108507 0.212019
O O4 0.176803 0.108947 0.214874
O O5 0.931459 0.037718 0.148884
O O6 0.409009 0.740604 0.694107
O O7 0.750000 0.750000 0.000000
O O8 0.500000 0.424861 0.500000
#
# Coordination Sequence:
#
# PCOD9205493 Si02
#       4
#     8   2   8   8
#     4  10  22  42  63  87 127 172 208 255 316 371
#     4  12  26  42  72 100 124 162 206 262 328 380
#     4  10  21  35  56  87 122 161 206 258 301 354
#     4  10  24  44  66  94 128 164 209 260 313 382
#
# _framework density 22.513072999999999
#
# number of rings (size 3 to 8) (size 9 to 14) (size 15 to 20)
#    0.000    1.846    0.000    2.308    0.000   12.308 
#    0.000    4.615    0.000    0.000    0.000    0.000 
#    0.000    0.000    0.000    0.000    0.000    0.000 
#
# Total GULP energy -72454.031827 kJ/mol
# GULP energy per Si atom -5573.387064 kJ/mol
# Density = 2.246183 g / cm^3
# Si number density = 22.513073 Si / 1000 Ang^3
#
#
#
# Elastic Constant Matrix: (Units=GPa)
#
#
# Indices 1 2 3 4 5 6 
#
# 1 234.2077 119.8106 64.7820 0.0000 -1.5095 0.0000
# 2 119.8106 257.8057 55.1025 0.0000 0.9188 0.0000
# 3 64.7820 55.1025 103.4442 0.0000 -8.9300 0.0000
# 4 0.0000 0.0000 0.0000 26.9150 0.0000 -27.4474
# 5 -1.5095 0.9188 -8.9300 0.0000 31.9601 0.0000
# 6 0.0000 0.0000 0.0000 -27.4474 0.0000 5.3486
#
#
#
# Elastic Compliance Matrix: (Units=1/GPa)
#
#
# Indices 1 2 3 4 5 6 
#
# 1 0.006186 -0.002300 -0.002682 0.000000 -0.000391 0.000000
# 2 -0.002300 0.005252 -0.001414 0.000000 -0.000655 0.000000
# 3 -0.002682 -0.001414 0.012392 0.000000 0.003376 0.000000
# 4 0.000000 0.000000 0.000000 -0.008777 0.000000 -0.045040
# 5 -0.000391 -0.000655 0.003376 0.000000 0.032233 0.000000
# 6 0.000000 0.000000 0.000000 -0.045040 0.000000 -0.044166
#
#
# Mechanical properties :
#
#
# Convention : Reuss Voigt Hill
#
# Bulk Modulus (GPa) = 90.60533 119.42753 105.01643
# Shear Modulus (GPa) = 255.21515 36.56223 145.88869
#
# Velocity S-wave (km/s) = 10.65876 4.03432 8.05869
# Velocity P-wave (km/s) = 13.84962 8.65241 11.54721
#
# Compressibility (1/GPa) = 0.01103688
#
# Stress axis : x y z
#
# Youngs Moduli (GPa) = 161.66248 190.39251 80.70001
#
# Poissons Ratio (x) = 0.43790 0.21647
# Poissons Ratio (y) = 0.37182 0.11411
# Poissons Ratio (z) = 0.43365 0.26920
#
# Static dielectric constant tensor:
#      x y z
#    x 1.882320 0.000000 0.010880 
#    y 0.000000 1.738830 0.000000 
#    z 0.010880 0.000000 1.809170 
# 
# From -- ./inp_files/33880.got.cif
#   From: 2010.05.17/outbox.cif.g08.bks.cpg/sg12_17_cif.got.tgz:33880.got - 2010.06.03 13:09:07.
