data_PCOD9205875
_publ_section_title
;
Structure prediction by ZEFSAII (Michael W. Deem and Ramdas Pophale) SiO2 
 PCOD9205875
Probable space group: C 2/M
;
_chemical_formula_sum "Si O2"
_cell_formula_units_Z 64
_cell_length_a 29.084498
_cell_length_b 7.981540
_cell_length_c 13.381017
_cell_angle_alpha 90.000000
_cell_angle_beta 90.755598
_cell_angle_gamma 90.000000
_cell_volume 3105.986924
_symmetry_space_group_name_H-M "C 2/M"
_symmetry_group_IT_number 12
_symmetry_cell_setting 'monoclinic'
loop_
_space_group_symop_operation_xyz
x,y,z
-x,y,-z
-x,-y,-z
x,-y,z
1/2+x,1/2+y,z
1/2-x,1/2+y,-z
1/2-x,1/2-y,-z
1/2+x,1/2-y,z
loop_
_atom_site_type_symbol
_atom_site_label
_atom_site_fract_x
_atom_site_fract_y
_atom_site_fract_z
Si Si1 0.855634 0.203559 0.702367
Si Si2 0.142046 0.803157 0.688104
Si Si3 0.053478 0.797680 0.786811
Si Si4 0.696755 0.702552 0.497862
Si Si5 0.193439 0.304582 0.884975
Si Si6 0.450003 0.695613 0.776105
Si Si7 0.055748 0.310873 0.007393
Si Si8 0.701356 0.200364 0.104632
O O1 0.828467 0.260859 0.603626
O O2 0.908266 0.265918 0.709921
O O3 0.829587 0.258059 0.801740
O O4 0.856501 0.000000 0.701531
O O5 0.091458 0.732861 0.710714
O O6 0.170332 0.732638 0.595602
O O7 0.170657 0.786644 0.791191
O O8 0.135644 0.000000 0.666994
O O9 0.001510 0.731555 0.769612
O O10 0.051666 0.000000 0.781421
O O11 0.069884 0.755707 0.899802
O O12 0.694914 0.500000 0.498593
O O13 0.750000 0.750000 0.500000
O O14 0.181398 0.500000 0.875481
O O15 0.248600 0.282878 0.881429
O O16 0.180715 0.245254 0.996653
O O17 0.454224 0.500000 0.751418
O O18 0.434439 0.710765 0.891587
O O19 0.072901 0.500000 0.021251
O O20 0.000000 0.313155 0.000000
O O21 0.708159 0.000000 0.098359
#
# Coordination Sequence:
#
# PCOD9205875 Si02
#       8
#     8   8   8   8   8   8   8   8
#     4  10  21  36  56  80 108 143 183 226 272 324
#     4  10  21  36  56  80 108 143 183 226 272 324
#     4   9  18  33  52  76 108 146 185 222 265 319
#     4  10  22  40  59  81 107 137 180 230 279 328
#     4  10  21  36  54  79 110 141 175 220 273 332
#     4   9  18  33  52  76 108 146 185 222 265 319
#     4   9  17  29  47  73 106 143 180 221 265 309
#     4  10  21  36  54  79 110 141 175 220 273 332
#
# _framework density 20.605366
#
# number of rings (size 3 to 8) (size 9 to 14) (size 15 to 20)
#    0.000    2.375    0.000    1.875    1.750    7.000 
#    0.000    0.625    0.000    3.750    0.000    0.000 
#    0.000    7.000    0.000    0.000    0.000    0.000 
#
# Total GULP energy -178605.087664 kJ/mol
# GULP energy per Si atom -5581.408989 kJ/mol
# Density = 2.055847 g / cm^3
# Si number density = 20.605366 Si / 1000 Ang^3
#
#
#
# Elastic Constant Matrix: (Units=GPa)
#
#
# Indices 1 2 3 4 5 6 
#
# 1 134.4007 -2.6159 90.4504 0.0000 -7.1422 0.0000
# 2 -2.6159 19.1337 -0.4545 0.0000 -3.4186 0.0000
# 3 90.4504 -0.4545 137.4174 0.0000 -13.1084 0.0000
# 4 0.0000 0.0000 0.0000 13.0690 0.0000 -2.3991
# 5 -7.1422 -3.4186 -13.1084 0.0000 37.8468 0.0000
# 6 0.0000 0.0000 0.0000 -2.3991 0.0000 15.5220
#
#
#
# Elastic Compliance Matrix: (Units=1/GPa)
#
#
# Indices 1 2 3 4 5 6 
#
# 1 0.013413 0.001552 -0.008862 0.000000 -0.000398 0.000000
# 2 0.001552 0.053358 -0.000370 0.000000 0.004985 0.000000
# 3 -0.008862 -0.000370 0.013388 0.000000 0.002931 0.000000
# 4 0.000000 0.000000 0.000000 0.078751 0.000000 0.012172
# 5 -0.000398 0.004985 0.002931 0.000000 0.027813 0.000000
# 6 0.000000 0.000000 0.000000 0.012172 0.000000 0.066306
#
#
# Mechanical properties :
#
#
# Convention : Reuss Voigt Hill
#
# Bulk Modulus (GPa) = 15.43182 51.74577 33.58879
# Shear Modulus (GPa) = 17.24207 26.85901 22.05054
#
# Velocity S-wave (km/s) = 2.89585 3.61431 3.27484
# Velocity P-wave (km/s) = 4.32281 6.52571 5.53496
#
# Compressibility (1/GPa) = 0.06480117
#
# Stress axis : x y z
#
# Youngs Moduli (GPa) = 74.55259 18.74139 74.69138
#
# Poissons Ratio (x) = -0.02909 0.66189
# Poissons Ratio (y) = -0.11572 0.02762
# Poissons Ratio (z) = 0.66066 0.00693
#
# Static dielectric constant tensor:
#      x y z
#    x 1.774920 0.000000 -0.005770 
#    y 0.000000 1.759820 0.000000 
#    z -0.005770 0.000000 1.714630 
# 
# From -- ./inp_files/125761.got.cif
#   From: 2010.05.17/outbox.cif.g08.bks.cpg/sg12_63_cif.got.tgz:125761.got - 2010.06.03 13:09:07.
