data_PCOD9205164
_publ_section_title
;
Structure prediction by ZEFSAII (Michael W. Deem and Ramdas Pophale) SiO2 
 PCOD9205164
Probable space group: C 2/M
;
_chemical_formula_sum "Si O2"
_cell_formula_units_Z 64
_cell_length_a 25.511935
_cell_length_b 8.704611
_cell_length_c 18.491390
_cell_angle_alpha 90.000000
_cell_angle_beta 63.408105
_cell_angle_gamma 90.000000
_cell_volume 3672.024104
_symmetry_space_group_name_H-M "C 2/M"
_symmetry_group_IT_number 12
_symmetry_cell_setting 'monoclinic'
loop_
_space_group_symop_operation_xyz
x,y,z
-x,y,-z
-x,-y,-z
x,-y,z
1/2+x,1/2+y,z
1/2-x,1/2+y,-z
1/2-x,1/2-y,-z
1/2+x,1/2-y,z
loop_
_atom_site_type_symbol
_atom_site_label
_atom_site_fract_x
_atom_site_fract_y
_atom_site_fract_z
Si Si1 0.783484 0.817055 0.547115
Si Si2 0.758860 0.815396 0.725266
Si Si3 0.946154 0.823401 0.975976
Si Si4 0.415428 0.683534 0.500410
Si Si5 0.001120 0.683753 0.671507
Si Si6 0.967145 0.813568 0.194906
Si Si7 0.383619 0.816371 0.675301
Si Si8 0.363718 0.313403 0.148987
O O1 0.750000 0.750000 0.500000
O O2 0.761072 0.762789 0.639576
O O3 0.852697 0.784438 0.501622
O O4 0.776470 0.000000 0.550487
O O5 0.819703 0.758196 0.722506
O O6 0.700582 0.750050 0.797370
O O7 0.758244 0.000000 0.726647
O O8 0.892744 0.756927 0.055537
O O9 0.930403 0.000000 0.968489
O O10 0.000000 0.828842 0.000000
O O11 0.976178 0.755874 0.886014
O O12 0.422066 0.500000 0.504372
O O13 0.465378 0.750778 0.418927
O O14 0.409867 0.758405 0.582620
O O15 0.006317 0.500000 0.668645
O O16 0.932341 0.723941 0.705034
O O17 0.028999 0.751856 0.726816
O O18 0.908691 0.769884 0.186113
O O19 0.968665 0.000000 0.194518
O O20 0.377392 0.000000 0.676668
O O21 0.362721 0.500000 0.147665
#
# Coordination Sequence:
#
# PCOD9205164 Si02
#       8
#     8   8   8   8   8   8   8   8
#     4   9  20  34  47  67  98 133 165 201 245 292
#     4  10  21  35  51  75 102 132 171 213 254 300
#     4   7  12  27  50  75 103 133 167 204 244 297
#     4  10  21  36  53  75  99 130 174 215 254 301
#     4  11  23  35  51  76 105 135 170 214 258 302
#     4   9  18  32  52  79 107 136 169 205 251 303
#     4  10  21  38  55  72  97 134 177 216 257 301
#     4   9  17  31  54  80 105 136 170 205 247 304
#
# _framework density 17.429081
#
# number of rings (size 3 to 8) (size 9 to 14) (size 15 to 20)
#    0.000    2.625    0.000    4.125    1.750    7.000 
#    0.000    0.625    0.000    3.000    0.000    0.000 
#    0.000    0.000    0.000    0.000    0.000    0.000 
#
# Total GULP energy -178356.510554 kJ/mol
# GULP energy per Si atom -5573.640955 kJ/mol
# Density = 1.738941 g / cm^3
# Si number density = 17.429081 Si / 1000 Ang^3
#
#
#
# Elastic Constant Matrix: (Units=GPa)
#
#
# Indices 1 2 3 4 5 6 
#
# 1 50.2435 21.1774 36.9224 0.0000 -17.2354 -0.0001
# 2 21.1774 24.3385 16.2140 0.0000 -8.6416 -0.0005
# 3 36.9224 16.2140 75.7595 0.0000 -35.0407 -0.0001
# 4 0.0000 0.0000 0.0000 17.0391 0.0000 -2.1676
# 5 -17.2354 -8.6416 -35.0407 0.0000 25.8801 0.0000
# 6 -0.0001 -0.0005 -0.0001 -2.1676 0.0000 22.2834
#
#
#
# Elastic Compliance Matrix: (Units=1/GPa)
#
#
# Indices 1 2 3 4 5 6 
#
# 1 0.042069 -0.026898 -0.015898 0.000000 -0.002490 0.000000
# 2 -0.026898 0.065429 0.002477 0.000000 0.007288 0.000001
# 3 -0.015898 0.002477 0.042549 0.000000 0.047850 0.000000
# 4 0.000000 0.000000 0.000000 0.059424 0.000000 0.005781
# 5 -0.002490 0.007288 0.047850 0.000000 0.104202 0.000000
# 6 0.000000 0.000001 0.000000 0.005781 0.000000 0.045439
#
#
# Mechanical properties :
#
#
# Convention : Reuss Voigt Hill
#
# Bulk Modulus (GPa) = 14.40731 33.21877 23.81304
# Shear Modulus (GPa) = 10.80174 18.10904 14.45539
#
# Velocity S-wave (km/s) = 2.49219 3.22687 2.88303
# Velocity P-wave (km/s) = 4.07008 5.74320 4.97744
#
# Compressibility (1/GPa) = 0.06940921
#
# Stress axis : x y z
#
# Youngs Moduli (GPa) = 23.77029 15.28365 23.50205
#
# Poissons Ratio (x) = 0.41111 0.37363
# Poissons Ratio (y) = 0.63938 -0.05821
# Poissons Ratio (z) = 0.37790 -0.03785
#
# Static dielectric constant tensor:
#      x y z
#    x 1.595090 0.000000 -0.008960 
#    y 0.000000 1.591380 0.000000 
#    z -0.008960 0.000000 1.604790 
# 
# From -- ./inp_files/323613.got.cif
#   From: 2010.05.17/outbox.cif.g08.bks.cpg/sg12_162_cif.got.tgz:323613.got - 2010.06.03 13:09:07.
