data_PCOD9205327
_publ_section_title
;
Structure prediction by ZEFSAII (Michael W. Deem and Ramdas Pophale) SiO2 
 PCOD9205327
Probable space group: C 2/M
;
_chemical_formula_sum "Si O2"
_cell_formula_units_Z 40
_cell_length_a 10.253810
_cell_length_b 20.669989
_cell_length_c 15.077143
_cell_angle_alpha 90.000000
_cell_angle_beta 151.665790
_cell_angle_gamma 90.000000
_cell_volume 1516.648574
_symmetry_space_group_name_H-M "C 2/M"
_symmetry_group_IT_number 12
_symmetry_cell_setting 'monoclinic'
loop_
_space_group_symop_operation_xyz
x,y,z
-x,y,-z
-x,-y,-z
x,-y,z
1/2+x,1/2+y,z
1/2-x,1/2+y,-z
1/2-x,1/2-y,-z
1/2+x,1/2-y,z
loop_
_atom_site_type_symbol
_atom_site_label
_atom_site_fract_x
_atom_site_fract_y
_atom_site_fract_z
Si Si1 0.798489 0.692750 0.684581
Si Si2 0.788582 0.922762 0.225611
Si Si3 0.545864 0.318202 0.131967
Si Si4 0.115239 0.624207 0.436903
Si Si5 0.257365 0.934012 0.085961
O O1 0.500000 0.723642 0.500000
O O2 0.748641 0.626850 0.712816
O O3 0.965338 0.750748 0.826549
O O4 0.868342 0.682164 0.623903
O O5 0.075990 0.896882 0.351685
O O6 0.824851 0.000000 0.267755
O O7 0.500000 0.916915 0.000000
O O8 0.835707 0.356680 0.322297
O O9 0.500000 0.304202 0.000000
O O10 0.302112 0.369515 0.004097
O O11 0.010119 0.569677 0.304212
O O12 0.261027 0.000000 0.034030
O O13 0.000000 0.936062 0.000000
#
# Coordination Sequence:
#
# PCOD9205327 Si02
#       5
#     8   8   8   8   8
#     4  10  21  35  54  80 109 143 185 227 271 325
#     4  10  21  36  54  79 111 145 183 225 269 323
#     4   9  19  35  55  82 111 140 182 227 271 327
#     4   9  19  34  57  79 107 148 182 224 277 320
#     4   8  15  29  52  81 108 137 177 219 263 322
#
# _framework density 26.373940000000001
#
# number of rings (size 3 to 8) (size 9 to 14) (size 15 to 20)
#    0.000    3.200    0.000    1.200    0.000   11.600 
#    0.000    4.000    0.000    4.200    0.000    0.000 
#    0.000    4.800    0.000    0.000    0.000    0.000 
#
# Total GULP energy -111420.382930 kJ/mol
# GULP energy per Si atom -5571.019146 kJ/mol
# Density = 2.631391 g / cm^3
# Si number density = 26.373940 Si / 1000 Ang^3
#
#
#
# Elastic Constant Matrix: (Units=GPa)
#
#
# Indices 1 2 3 4 5 6 
#
# 1 52.0959 7.4715 21.8442 0.0021 30.4159 0.0009
# 2 7.4715 208.0207 36.4973 0.0004 -17.3787 0.0003
# 3 21.8442 36.4973 191.7300 0.0020 19.1016 0.0003
# 4 0.0021 0.0004 0.0020 29.6357 0.0025 -17.0832
# 5 30.4159 -17.3787 19.1016 0.0025 47.9920 0.0005
# 6 0.0009 0.0003 0.0003 -17.0832 0.0005 -4.8517
#
#
#
# Elastic Compliance Matrix: (Units=1/GPa)
#
#
# Indices 1 2 3 4 5 6 
#
# 1 0.032325 -0.002733 -0.001065 0.000001 -0.021053 0.000002
# 2 -0.002733 0.005453 -0.001141 0.000000 0.004161 0.000000
# 3 -0.001065 -0.001141 0.005756 0.000000 -0.002029 0.000000
# 4 0.000001 0.000000 0.000000 0.011137 0.000000 -0.039216
# 5 -0.021053 0.004161 -0.002029 0.000000 0.036494 0.000002
# 6 0.000002 0.000000 0.000000 -0.039216 0.000002 -0.068031
#
#
# Mechanical properties :
#
#
# Convention : Reuss Voigt Hill
#
# Bulk Modulus (GPa) = 29.71218 64.83028 47.27123
# Shear Modulus (GPa) = 113.03752 40.29076 76.66414
#
# Velocity S-wave (km/s) = 6.55382 3.91279 5.39734
# Velocity P-wave (km/s) = 8.28012 6.71176 7.53684
#
# Compressibility (1/GPa) = 0.03365623
#
# Stress axis : x y z
#
# Youngs Moduli (GPa) = 30.93540 183.37766 173.71805
#
# Poissons Ratio (x) = 0.50116 0.18506
# Poissons Ratio (y) = 0.08454 0.19825
# Poissons Ratio (z) = 0.03295 0.20928
#
# Static dielectric constant tensor:
#      x y z
#    x 2.167640 0.000000 0.045880 
#    y 0.000000 2.147580 0.000000 
#    z 0.045880 0.000000 2.160200 
# 
# From -- ./inp_files/312185.got.cif
#   From: 2010.05.17/outbox.cif.g08.bks.cpg/sg12_157_cif.got.tgz:312185.got - 2010.06.03 13:09:07.
