data_PCOD9205026
_publ_section_title
;
Structure prediction by ZEFSAII (Michael W. Deem and Ramdas Pophale) SiO2 
 PCOD9205026
Probable space group: C 2/M
;
_chemical_formula_sum "Si O2"
_cell_formula_units_Z 42
_cell_length_a 8.958625
_cell_length_b 16.340490
_cell_length_c 14.975644
_cell_angle_alpha 90.000000
_cell_angle_beta 54.636947
_cell_angle_gamma 90.000000
_cell_volume 1787.790114
_symmetry_space_group_name_H-M "C 2/M"
_symmetry_group_IT_number 12
_symmetry_cell_setting 'monoclinic'
loop_
_space_group_symop_operation_xyz
x,y,z
-x,y,-z
-x,-y,-z
x,-y,z
1/2+x,1/2+y,z
1/2-x,1/2+y,-z
1/2-x,1/2-y,-z
1/2+x,1/2-y,z
loop_
_atom_site_type_symbol
_atom_site_label
_atom_site_fract_x
_atom_site_fract_y
_atom_site_fract_z
Si Si1 0.789808 0.135220 0.694629
Si Si2 0.290935 0.638417 0.885893
Si Si3 0.775622 0.832699 0.082014
Si Si4 0.844148 0.227273 0.375936
Si Si5 0.000000 0.000000 0.500000
Si Si6 0.715881 0.407767 0.734154
O O1 0.710892 0.109081 0.818703
O O2 0.655286 0.194146 0.687744
O O3 0.960186 0.191630 0.666371
O O4 0.881874 0.070103 0.596955
O O5 0.288215 0.738348 0.888604
O O6 0.494775 0.600724 0.815254
O O7 0.213167 0.623758 0.011955
O O8 0.722492 0.881146 0.189213
O O9 0.000000 0.828885 0.000000
O O10 0.750000 0.250000 0.500000
O O11 0.735413 0.156365 0.359843
O O12 0.769174 0.500000 0.693719
#
# Coordination Sequence:
#
# PCOD9205026 Si02
#       6
#     8   8   8   8   2   8
#     4  11  23  39  64  88 123 156 205 243 307 357
#     4   9  19  32  54  85 113 154 195 242 295 359
#     4   9  17  34  55  83 113 151 198 243 294 360
#     4  11  21  38  61  88 116 163 198 248 301 364
#     4  12  24  40  64  98 118 156 204 258 296 366
#     4  10  21  34  57  86 118 152 203 252 298 351
#
# _framework density 23.492692000000002
#
# number of rings (size 3 to 8) (size 9 to 14) (size 15 to 20)
#    0.000    1.905    3.810    0.000    5.333    3.429 
#    0.000    0.000    2.095    2.857    0.000    2.667 
#    0.000    0.000    0.000    0.000    0.000    0.000 
#
# Total GULP energy -116978.168670 kJ/mol
# GULP energy per Si atom -5570.388984 kJ/mol
# Density = 2.343922 g / cm^3
# Si number density = 23.492692 Si / 1000 Ang^3
#
#
#
# Elastic Constant Matrix: (Units=GPa)
#
#
# Indices 1 2 3 4 5 6 
#
# 1 61.5816 38.7461 41.6706 0.0000 5.1445 0.0000
# 2 38.7461 131.3568 57.9244 0.0000 18.7671 0.0000
# 3 41.6706 57.9244 154.0154 0.0000 38.2496 0.0000
# 4 0.0000 0.0000 0.0000 34.4780 0.0000 -7.8721
# 5 5.1445 18.7671 38.2496 0.0000 33.4348 0.0000
# 6 0.0000 0.0000 0.0000 -7.8721 0.0000 8.4407
#
#
#
# Elastic Compliance Matrix: (Units=1/GPa)
#
#
# Indices 1 2 3 4 5 6 
#
# 1 0.022796 -0.005035 -0.005734 0.000000 0.005878 0.000000
# 2 -0.005035 0.010306 -0.001773 0.000000 -0.002981 0.000000
# 3 -0.005734 -0.001773 0.011517 0.000000 -0.011298 0.000000
# 4 0.000000 0.000000 0.000000 0.036851 0.000000 0.034368
# 5 0.005878 -0.002981 -0.011298 0.000000 0.043603 0.000000
# 6 0.000000 0.000000 0.000000 0.034368 0.000000 0.150526
#
#
# Mechanical properties :
#
#
# Convention : Reuss Voigt Hill
#
# Bulk Modulus (GPa) = 51.19313 69.29290 60.24301
# Shear Modulus (GPa) = 16.27633 29.17822 22.72727
#
# Velocity S-wave (km/s) = 2.63501 3.52804 3.11371
# Velocity P-wave (km/s) = 5.57639 6.79380 6.21497
#
# Compressibility (1/GPa) = 0.01953387
#
# Stress axis : x y z
#
# Youngs Moduli (GPa) = 43.86818 97.03044 86.82916
#
# Poissons Ratio (x) = 0.48859 0.49785
# Poissons Ratio (y) = 0.22090 0.15397
# Poissons Ratio (z) = 0.25153 0.17206
#
# Static dielectric constant tensor:
#      x y z
#    x 2.093520 0.000000 -0.044550 
#    y 0.000000 1.865650 0.000000 
#    z -0.044550 0.000000 1.995950 
# 
# From -- ./inp_files/204218.got.cif
#   From: 2010.05.17/outbox.cif.g08.bks.cpg/sg12_103_cif.got.tgz:204218.got - 2010.06.03 13:09:07.
