data_PCOD9205202
_publ_section_title
;
Structure prediction by ZEFSAII (Michael W. Deem and Ramdas Pophale) SiO2 
 PCOD9205202
Probable space group: C 2/M
;
_chemical_formula_sum "Si O2"
_cell_formula_units_Z 56
_cell_length_a 20.480872
_cell_length_b 8.824126
_cell_length_c 16.424395
_cell_angle_alpha 90.000000
_cell_angle_beta 120.510739
_cell_angle_gamma 90.000000
_cell_volume 2557.301628
_symmetry_space_group_name_H-M "C 2/M"
_symmetry_group_IT_number 12
_symmetry_cell_setting 'monoclinic'
loop_
_space_group_symop_operation_xyz
x,y,z
-x,y,-z
-x,-y,-z
x,-y,z
1/2+x,1/2+y,z
1/2-x,1/2+y,-z
1/2-x,1/2-y,-z
1/2+x,1/2-y,z
loop_
_atom_site_type_symbol
_atom_site_label
_atom_site_fract_x
_atom_site_fract_y
_atom_site_fract_z
Si Si1 0.565341 0.825877 0.097937
Si Si2 0.831217 0.817218 0.571801
Si Si3 0.982288 0.832730 0.174493
Si Si4 0.801587 0.180517 0.736968
Si Si5 0.644292 0.818593 0.699994
Si Si6 0.987583 0.173596 0.613141
Si Si7 0.812411 0.823635 0.097612
O O1 0.525386 0.803510 0.159673
O O2 0.646468 0.748736 0.159020
O O3 0.575933 0.000000 0.081599
O O4 0.500000 0.755046 0.000000
O O5 0.750000 0.750000 0.500000
O O6 0.838035 0.783672 0.672524
O O7 0.902193 0.760554 0.562414
O O8 0.830631 0.000000 0.563480
O O9 0.993300 0.831402 0.278106
O O10 0.893080 0.820876 0.102407
O O11 0.010086 0.000000 0.163491
O O12 0.714213 0.231241 0.687016
O O13 0.801084 0.000000 0.745233
O O14 0.561481 0.754820 0.623717
O O15 0.671088 0.761492 0.806634
O O16 0.638969 0.000000 0.697796
O O17 0.984968 0.000000 0.582653
O O18 0.794330 0.000000 0.103470
O O19 0.750000 0.750000 0.000000
#
# Coordination Sequence:
#
# PCOD9205202 Si02
#       7
#     8   8   8   8   8   8   8
#     4  11  24  36  51  82 117 150 194 248 294 336
#     4  10  21  40  65  92 118 150 194 240 292 353
#     4   9  18  35  55  74 102 149 194 231 283 342
#     4  10  22  42  62  83 118 159 197 239 291 358
#     4  10  21  36  58  85 112 151 196 239 291 346
#     4   9  18  37  61  83 114 152 188 233 286 343
#     4  10  21  35  52  76 110 150 195 244 289 341
#
# _framework density 21.898081000000001
#
# number of rings (size 3 to 8) (size 9 to 14) (size 15 to 20)
#    0.000    2.143    1.429    2.143    2.000    6.286 
#    0.000    0.714    0.000    4.286    0.000    0.000 
#    0.000    0.000    0.000    0.000    0.000    0.000 
#
# Total GULP energy -156193.261837 kJ/mol
# GULP energy per Si atom -5578.330780 kJ/mol
# Density = 2.184824 g / cm^3
# Si number density = 21.898081 Si / 1000 Ang^3
#
#
#
# Elastic Constant Matrix: (Units=GPa)
#
#
# Indices 1 2 3 4 5 6 
#
# 1 146.3381 28.0378 31.3843 0.0000 35.1494 0.0000
# 2 28.0378 28.7955 9.1574 0.0000 11.8224 0.0000
# 3 31.3843 9.1574 69.2041 0.0000 32.3475 0.0000
# 4 0.0000 0.0000 0.0000 19.3122 0.0000 10.9775
# 5 35.1494 11.8224 32.3475 0.0000 39.1265 0.0000
# 6 0.0000 0.0000 0.0000 10.9775 0.0000 26.7146
#
#
#
# Elastic Compliance Matrix: (Units=1/GPa)
#
#
# Indices 1 2 3 4 5 6 
#
# 1 0.009751 -0.006748 -0.000632 0.000000 -0.006198 0.000000
# 2 -0.006748 0.044331 0.001013 0.000000 -0.008170 0.000000
# 3 -0.000632 0.001013 0.023600 0.000000 -0.019250 0.000000
# 4 0.000000 0.000000 0.000000 0.067561 0.000000 -0.027762
# 5 -0.006198 -0.008170 -0.019250 0.000000 0.049509 0.000000
# 6 0.000000 0.000000 0.000000 -0.027762 0.000000 0.048841
#
#
# Mechanical properties :
#
#
# Convention : Reuss Voigt Hill
#
# Bulk Modulus (GPa) = 15.39706 42.38852 28.89279
# Shear Modulus (GPa) = 17.98714 28.74788 23.36751
#
# Velocity S-wave (km/s) = 2.86912 3.62719 3.27020
# Velocity P-wave (km/s) = 4.24527 6.07793 5.24231
#
# Compressibility (1/GPa) = 0.06494745
#
# Stress axis : x y z
#
# Youngs Moduli (GPa) = 102.55649 22.55777 42.37240
#
# Poissons Ratio (x) = 0.15223 0.02677
# Poissons Ratio (y) = 0.69210 -0.04293
# Poissons Ratio (z) = 0.06480 -0.02286
#
# Static dielectric constant tensor:
#      x y z
#    x 1.857540 0.000000 0.006960 
#    y 0.000000 1.768490 0.000000 
#    z 0.006960 0.000000 1.861360 
# 
# From -- ./inp_files/281712.got.cif
#   From: 2010.05.17/outbox.cif.g08.bks.cpg/sg12_141_cif.got.tgz:281712.got - 2010.06.03 13:09:07.
