data_PCOD9205643
_publ_section_title
;
Structure prediction by ZEFSAII (Michael W. Deem and Ramdas Pophale) SiO2 
 PCOD9205643
Probable space group: C 2/M
;
_chemical_formula_sum "Si O2"
_cell_formula_units_Z 48
_cell_length_a 17.676881
_cell_length_b 12.823280
_cell_length_c 15.160384
_cell_angle_alpha 90.000000
_cell_angle_beta 144.126289
_cell_angle_gamma 90.000000
_cell_volume 2013.784732
_symmetry_space_group_name_H-M "C 2/M"
_symmetry_group_IT_number 12
_symmetry_cell_setting 'monoclinic'
loop_
_space_group_symop_operation_xyz
x,y,z
-x,y,-z
-x,-y,-z
x,-y,z
1/2+x,1/2+y,z
1/2-x,1/2+y,-z
1/2-x,1/2-y,-z
1/2+x,1/2-y,z
loop_
_atom_site_type_symbol
_atom_site_label
_atom_site_fract_x
_atom_site_fract_y
_atom_site_fract_z
Si Si1 0.926582 0.884068 0.838116
Si Si2 0.286646 0.385567 0.324596
Si Si3 0.854124 0.653856 0.358017
Si Si4 0.867724 0.302014 0.663504
Si Si5 0.707790 0.613736 0.868113
Si Si6 0.393895 0.168028 0.202940
O O1 0.771883 0.884613 0.710067
O O2 0.946012 0.790334 0.787972
O O3 0.965480 0.000000 0.844573
O O4 0.000000 0.863158 0.000000
O O5 0.350941 0.500000 0.394140
O O6 0.363056 0.276121 0.396243
O O7 0.186156 0.373481 0.308950
O O8 0.230890 0.382441 0.172019
O O9 0.825783 0.632740 0.227973
O O10 0.000000 0.613423 0.500000
O O11 0.750000 0.250000 0.500000
O O12 0.959656 0.359856 0.680799
O O13 0.648401 0.500000 0.821972
O O14 0.608331 0.707297 0.783883
O O15 0.812182 0.633206 0.042042
#
# Coordination Sequence:
#
# PCOD9205643 Si02
#       6
#     8   8   8   8   8   8
#     4  10  24  43  66  93 125 171 219 262 314 382
#     4   9  20  39  62  88 123 163 205 251 308 375
#     4  10  21  41  65  91 127 167 210 260 320 377
#     4  11  24  40  62  92 127 165 204 258 321 380
#     4   9  20  37  58  88 116 152 202 256 307 357
#     4  10  21  35  60  89 121 155 199 257 305 365
#
# _framework density 23.835716999999999
#
# number of rings (size 3 to 8) (size 9 to 14) (size 15 to 20)
#    0.000    2.167    0.000    2.000    9.333    3.333 
#    0.000    6.667    0.000    0.000    0.000    0.000 
#    0.000    0.000    0.000    0.000    0.000    0.000 
#
# Total GULP energy -133887.548958 kJ/mol
# GULP energy per Si atom -5578.647873 kJ/mol
# Density = 2.378147 g / cm^3
# Si number density = 23.835717 Si / 1000 Ang^3
#
#
#
# Elastic Constant Matrix: (Units=GPa)
#
#
# Indices 1 2 3 4 5 6 
#
# 1 122.0489 -2.8762 -12.4340 0.0000 -13.8607 0.0000
# 2 -2.8762 127.2269 1.3823 0.0000 -13.6646 0.0000
# 3 -12.4340 1.3823 45.9189 0.0000 -11.0999 0.0000
# 4 0.0000 0.0000 0.0000 -29.5257 0.0000 -18.0766
# 5 -13.8607 -13.6646 -11.0999 0.0000 28.4899 0.0000
# 6 0.0000 0.0000 0.0000 -18.0766 0.0000 -2.4247
#
#
#
# Elastic Compliance Matrix: (Units=1/GPa)
#
#
# Indices 1 2 3 4 5 6 
#
# 1 0.009380 0.000874 0.004105 0.000000 0.006582 0.000000
# 2 0.000874 0.008394 0.001170 0.000000 0.004907 0.000000
# 3 0.004105 0.001170 0.025913 0.000000 0.012654 0.000000
# 4 0.000000 0.000000 0.000000 0.009502 0.000000 -0.070841
# 5 0.006582 0.004907 0.012654 0.000000 0.045586 0.000000
# 6 0.000000 0.000000 0.000000 -0.070841 0.000000 0.115709
#
#
# Mechanical properties :
#
#
# Convention : Reuss Voigt Hill
#
# Bulk Modulus (GPa) = 17.86196 29.70433 23.78314
# Shear Modulus (GPa) = 22.64010 19.91606 21.27808
#
# Velocity S-wave (km/s) = 3.08529 2.89373 2.99105
# Velocity P-wave (km/s) = 4.49467 4.86355 4.68274
#
# Compressibility (1/GPa) = 0.05598489
#
# Stress axis : x y z
#
# Youngs Moduli (GPa) = 106.61340 119.13129 38.59132
#
# Poissons Ratio (x) = -0.10416 -0.15840
# Poissons Ratio (y) = -0.09322 -0.04517
# Poissons Ratio (z) = -0.43760 -0.13943
#
# Static dielectric constant tensor:
#      x y z
#    x 1.883770 0.000000 -0.029970 
#    y 0.000000 1.963830 0.000000 
#    z -0.029970 0.000000 1.914940 
# 
# From -- ./inp_files/225472.got.cif
#   From: 2010.05.17/outbox.cif.g08.bks.cpg/sg12_113_cif.got.tgz:225472.got - 2010.06.03 13:09:07.
