data_PCOD9205192
_publ_section_title
;
Structure prediction by ZEFSAII (Michael W. Deem and Ramdas Pophale) SiO2 
 PCOD9205192
Probable space group: C 2/M
;
_chemical_formula_sum "Si O2"
_cell_formula_units_Z 56
_cell_length_a 14.925346
_cell_length_b 7.771580
_cell_length_c 29.502200
_cell_angle_alpha 90.000000
_cell_angle_beta 128.819918
_cell_angle_gamma 90.000000
_cell_volume 2666.198838
_symmetry_space_group_name_H-M "C 2/M"
_symmetry_group_IT_number 12
_symmetry_cell_setting 'monoclinic'
loop_
_space_group_symop_operation_xyz
x,y,z
-x,y,-z
-x,-y,-z
x,-y,z
1/2+x,1/2+y,z
1/2-x,1/2+y,-z
1/2-x,1/2-y,-z
1/2+x,1/2-y,z
loop_
_atom_site_type_symbol
_atom_site_label
_atom_site_fract_x
_atom_site_fract_y
_atom_site_fract_z
Si Si1 0.781521 0.791868 0.816698
Si Si2 0.034571 0.298880 0.061682
Si Si3 0.897181 0.793230 0.499508
Si Si4 0.476985 0.205792 0.276559
Si Si5 0.156173 0.812153 0.934273
Si Si6 0.136114 0.292135 0.408288
Si Si7 0.481601 0.708398 0.811591
O O1 0.835161 0.729519 0.881328
O O2 0.653842 0.727666 0.766231
O O3 0.872129 0.735259 0.806681
O O4 0.779895 0.000000 0.816992
O O5 0.005230 0.500000 0.059033
O O6 0.957860 0.186331 0.070837
O O7 0.000000 0.252992 0.000000
O O8 0.912294 0.753591 0.557486
O O9 0.768346 0.729055 0.446714
O O10 0.000000 0.727702 0.500000
O O11 0.895091 0.000000 0.493970
O O12 0.555680 0.272962 0.342264
O O13 0.528622 0.240467 0.243512
O O14 0.469675 0.000000 0.280294
O O15 0.100929 0.723246 0.872384
O O16 0.197688 0.000000 0.933246
O O17 0.250000 0.750000 0.000000
O O18 0.140267 0.500000 0.407103
O O19 0.487092 0.500000 0.815994
#
# Coordination Sequence:
#
# PCOD9205192 Si02
#       7
#     8   8   8   8   8   8   8
#     4   9  20  38  54  73 103 140 178 220 273 335
#     4  10  21  35  52  76 103 131 171 224 276 330
#     4   9  18  34  56  81 113 149 183 222 268 316
#     4  10  21  36  56  80 108 144 183 223 273 326
#     4  10  21  36  54  76 104 136 174 223 279 336
#     4   9  19  35  53  80 114 144 182 228 265 316
#     4   9  20  37  53  73 104 137 174 221 271 325
#
# _framework density 21.003685999999998
#
# number of rings (size 3 to 8) (size 9 to 14) (size 15 to 20)
#    0.000    2.571    0.000    1.714    2.000    6.571 
#    0.000    0.000    0.000    0.000    0.000    0.000 
#    0.000    0.000    0.000    0.000    0.000    0.000 
#
# Total GULP energy -156135.055230 kJ/mol
# GULP energy per Si atom -5576.251972 kJ/mol
# Density = 2.095588 g / cm^3
# Si number density = 21.003686 Si / 1000 Ang^3
#
#
#
# Elastic Constant Matrix: (Units=GPa)
#
#
# Indices 1 2 3 4 5 6 
#
# 1 119.5684 1.9962 82.3945 0.0000 -3.1855 0.0000
# 2 1.9962 26.9095 6.9481 0.0000 3.7192 0.0000
# 3 82.3945 6.9481 215.5882 0.0000 -9.8408 0.0000
# 4 0.0000 0.0000 0.0000 14.2226 0.0000 -10.2476
# 5 -3.1855 3.7192 -9.8408 0.0000 19.3611 0.0000
# 6 0.0000 0.0000 0.0000 -10.2476 0.0000 16.6744
#
#
#
# Elastic Compliance Matrix: (Units=1/GPa)
#
#
# Indices 1 2 3 4 5 6 
#
# 1 0.011359 0.000344 -0.004371 0.000000 -0.000419 0.000000
# 2 0.000344 0.038734 -0.001758 0.000000 -0.008277 0.000000
# 3 -0.004371 -0.001758 0.006499 0.000000 0.002922 0.000000
# 4 0.000000 0.000000 0.000000 0.126187 0.000000 0.077551
# 5 -0.000419 -0.008277 0.002922 0.000000 0.054656 0.000000
# 6 0.000000 0.000000 0.000000 0.077551 0.000000 0.107632
#
#
# Mechanical properties :
#
#
# Convention : Reuss Voigt Hill
#
# Bulk Modulus (GPa) = 22.21143 60.52707 41.36925
# Shear Modulus (GPa) = 13.45370 28.10010 20.77690
#
# Velocity S-wave (km/s) = 2.53363 3.66165 3.14857
# Velocity P-wave (km/s) = 4.37688 6.83790 5.74081
#
# Compressibility (1/GPa) = 0.04502187
#
# Stress axis : x y z
#
# Youngs Moduli (GPa) = 88.03728 25.81715 153.86593
#
# Poissons Ratio (x) = -0.00888 0.67261
# Poissons Ratio (y) = -0.03028 0.27044
# Poissons Ratio (z) = 0.38484 0.04538
#
# Static dielectric constant tensor:
#      x y z
#    x 1.748040 0.000000 0.029260 
#    y 0.000000 1.762670 0.000000 
#    z 0.029260 0.000000 1.791270 
# 
# From -- ./inp_files/375123.got.cif
#   From: 2010.05.17/outbox.cif.g08.bks.cpg/sg12_188_cif.got.tgz:375123.got - 2010.06.03 13:09:07.
