data_PCOD9205093
_publ_section_title
;
Structure prediction by ZEFSAII (Michael W. Deem and Ramdas Pophale) SiO2 
 PCOD9205093
Probable space group: C 2/M
;
_chemical_formula_sum "Si O2"
_cell_formula_units_Z 56
_cell_length_a 32.620617
_cell_length_b 13.184084
_cell_length_c 11.923929
_cell_angle_alpha 90.000000
_cell_angle_beta 139.269186
_cell_angle_gamma 90.000000
_cell_volume 3346.154959
_symmetry_space_group_name_H-M "C 2/M"
_symmetry_group_IT_number 12
_symmetry_cell_setting 'monoclinic'
loop_
_space_group_symop_operation_xyz
x,y,z
-x,y,-z
-x,-y,-z
x,-y,z
1/2+x,1/2+y,z
1/2-x,1/2+y,-z
1/2-x,1/2-y,-z
1/2+x,1/2-y,z
loop_
_atom_site_type_symbol
_atom_site_label
_atom_site_fract_x
_atom_site_fract_y
_atom_site_fract_z
Si Si1 0.312884 0.614246 0.623106
Si Si2 0.934064 0.616333 0.918171
Si Si3 0.317996 0.831477 0.533451
Si Si4 0.253309 0.205681 0.184972
Si Si5 0.308017 0.384932 0.157213
Si Si6 0.122106 0.214781 0.037140
Si Si7 0.060950 0.120379 0.693656
O O1 0.321867 0.500000 0.599187
O O2 0.323050 0.709391 0.561983
O O3 0.241100 0.628306 0.516621
O O4 0.358371 0.635258 0.824405
O O5 0.940680 0.500000 0.970565
O O6 0.881054 0.621655 0.711948
O O7 0.909190 0.690439 0.964258
O O8 0.000000 0.649352 0.000000
O O9 0.298967 0.849577 0.366507
O O10 0.286176 0.304205 0.202495
O O11 0.189692 0.237252 0.119376
O O12 0.232954 0.135237 0.039637
O O13 0.301003 0.500000 0.181229
O O14 0.379030 0.367551 0.262999
O O15 0.077859 0.172554 0.846856
O O16 0.000000 0.157532 0.500000
O O17 0.053290 0.000000 0.699348
#
# Coordination Sequence:
#
# PCOD9205093 Si02
#       7
#     8   8   8   8   8   8   8
#     4   9  16  28  47  71  95 117 149 192 236 281
#     4  10  21  35  49  67  93 125 160 194 230 278
#     4   9  18  29  46  70  92 120 154 191 233 275
#     4   9  18  31  47  70  94 118 154 192 233 276
#     4   9  18  31  46  68  97 123 150 190 232 270
#     4   9  18  32  50  70  93 123 154 192 237 275
#     4   9  17  30  50  73  95 124 157 184 222 278
#
# _framework density 16.735627000000001
#
# number of rings (size 3 to 8) (size 9 to 14) (size 15 to 20)
#    0.000    2.857    0.000    1.714    0.000    6.286 
#    0.000    0.000    0.000   11.143    0.000    0.000 
#    0.000    0.000    0.000    0.000    0.000    0.000 
#
# Total GULP energy -155987.214514 kJ/mol
# GULP energy per Si atom -5570.971947 kJ/mol
# Density = 1.669754 g / cm^3
# Si number density = 16.735627 Si / 1000 Ang^3
#
#
#
# Elastic Constant Matrix: (Units=GPa)
#
#
# Indices 1 2 3 4 5 6 
#
# 1 31.0386 9.1630 18.9436 0.0000 -2.5261 0.0000
# 2 9.1630 61.2941 3.9176 0.0000 8.8847 0.0000
# 3 18.9436 3.9176 114.2113 0.0000 2.3860 0.0000
# 4 0.0000 0.0000 0.0000 12.6317 0.0000 4.0553
# 5 -2.5261 8.8847 2.3860 0.0000 14.1608 0.0000
# 6 0.0000 0.0000 0.0000 4.0553 0.0000 13.6494
#
#
#
# Elastic Compliance Matrix: (Units=1/GPa)
#
#
# Indices 1 2 3 4 5 6 
#
# 1 0.039413 -0.007318 -0.006552 0.000000 0.012726 0.000000
# 2 -0.007318 0.019322 0.000834 0.000000 -0.013569 0.000000
# 3 -0.006552 0.000834 0.009884 0.000000 -0.003358 0.000000
# 4 0.000000 0.000000 0.000000 0.087513 0.000000 -0.026001
# 5 0.012726 -0.013569 -0.003358 0.000000 0.081967 0.000000
# 6 0.000000 0.000000 0.000000 -0.026001 0.000000 0.080988
#
#
# Mechanical properties :
#
#
# Convention : Reuss Voigt Hill
#
# Bulk Modulus (GPa) = 23.50270 30.06582 26.78426
# Shear Modulus (GPa) = 13.91436 19.72304 16.81870
#
# Velocity S-wave (km/s) = 2.88657 3.43666 3.17356
# Velocity P-wave (km/s) = 5.01834 5.80962 5.42841
#
# Compressibility (1/GPa) = 0.04254831
#
# Stress axis : x y z
#
# Youngs Moduli (GPa) = 25.37244 51.75372 101.17385
#
# Poissons Ratio (x) = 0.37872 0.66289
# Poissons Ratio (y) = 0.18567 -0.08443
# Poissons Ratio (z) = 0.16624 -0.04319
#
# Static dielectric constant tensor:
#      x y z
#    x 1.545130 0.000000 -0.006410 
#    y 0.000000 1.557980 0.000000 
#    z -0.006410 0.000000 1.571850 
# 
# From -- ./inp_files/189236.got.cif
#   From: 2010.05.17/outbox.cif.g08.bks.cpg/sg12_95_cif.got.tgz:189236.got - 2010.06.03 13:09:07.
