data_PCOD9205767
_publ_section_title
;
Structure prediction by ZEFSAII (Michael W. Deem and Ramdas Pophale) SiO2 
 PCOD9205767
Probable space group: C 2/M
;
_chemical_formula_sum "Si O2"
_cell_formula_units_Z 64
_cell_length_a 27.647266
_cell_length_b 14.043055
_cell_length_c 18.596961
_cell_angle_alpha 90.000000
_cell_angle_beta 150.015835
_cell_angle_gamma 90.000000
_cell_volume 3608.426078
_symmetry_space_group_name_H-M "C 2/M"
_symmetry_group_IT_number 12
_symmetry_cell_setting 'monoclinic'
loop_
_space_group_symop_operation_xyz
x,y,z
-x,y,-z
-x,-y,-z
x,-y,z
1/2+x,1/2+y,z
1/2-x,1/2+y,-z
1/2-x,1/2-y,-z
1/2+x,1/2-y,z
loop_
_atom_site_type_symbol
_atom_site_label
_atom_site_fract_x
_atom_site_fract_y
_atom_site_fract_z
Si Si1 0.412249 0.291547 0.527284
Si Si2 0.996683 0.388358 0.310453
Si Si3 0.812095 0.793739 0.248984
Si Si4 0.441641 0.885133 0.770754
Si Si5 0.201687 0.612597 0.860614
Si Si6 0.264512 0.111401 0.625723
Si Si7 0.867230 0.610950 0.911027
Si Si8 0.382451 0.613212 0.193154
O O1 0.431179 0.179021 0.553284
O O2 0.380801 0.316166 0.405470
O O3 0.328506 0.327337 0.472759
O O4 0.513357 0.338430 0.680616
O O5 0.017510 0.500000 0.345390
O O6 0.887661 0.373170 0.198773
O O7 0.015011 0.361261 0.251112
O O8 0.814685 0.684222 0.226457
O O9 0.706010 0.825302 0.137667
O O10 0.842566 0.853756 0.218873
O O11 0.334115 0.851122 0.651995
O O12 0.433084 0.000000 0.762783
O O13 0.523211 0.858325 0.933630
O O14 0.203198 0.500000 0.844003
O O15 0.301832 0.638248 0.029699
O O16 0.332683 0.113233 0.784477
O O17 0.236850 0.000000 0.578422
O O18 0.858306 0.500000 0.923513
O O19 0.393661 0.500000 0.206338
#
# Coordination Sequence:
#
# PCOD9205767 Si02
#       8
#     8   8   8   8   8   8   8   8
#     4  11  23  34  51  79 108 141 174 212 266 322
#     4  10  21  36  53  74 100 135 183 226 258 299
#     4  11  21  34  53  78 106 143 177 210 262 317
#     4   9  17  31  53  76 100 135 173 214 264 307
#     4  10  22  38  56  77 104 141 184 225 257 299
#     4   9  18  33  50  75 110 136 165 210 263 325
#     4   9  17  29  51  81 107 133 167 211 261 314
#     4  11  22  35  53  78 109 140 172 213 265 320
#
# _framework density 17.736263999999998
#
# number of rings (size 3 to 8) (size 9 to 14) (size 15 to 20)
#    0.000    2.000    1.250    2.625    1.750    6.500 
#    0.000    1.250    0.000    0.000    0.000    0.000 
#    0.000    4.000    0.000    0.000    0.000    0.000 
#
# Total GULP energy -178466.423511 kJ/mol
# GULP energy per Si atom -5577.075735 kJ/mol
# Density = 1.769590 g / cm^3
# Si number density = 17.736264 Si / 1000 Ang^3
#
#
#
# Elastic Constant Matrix: (Units=GPa)
#
#
# Indices 1 2 3 4 5 6 
#
# 1 62.5103 20.6339 19.9775 0.0000 25.6792 0.0000
# 2 20.6339 56.5552 19.9379 0.0000 10.5218 0.0000
# 3 19.9775 19.9379 56.1929 0.0000 20.7211 0.0000
# 4 0.0000 0.0000 0.0000 20.1866 0.0000 -3.6005
# 5 25.6792 10.5218 20.7211 0.0000 22.4653 0.0000
# 6 0.0000 0.0000 0.0000 -3.6005 0.0000 19.4899
#
#
#
# Elastic Compliance Matrix: (Units=1/GPa)
#
#
# Indices 1 2 3 4 5 6 
#
# 1 0.032377 -0.006389 0.005001 0.000000 -0.038629 0.000000
# 2 -0.006389 0.021751 -0.006641 0.000000 0.003241 0.000000
# 3 0.005001 -0.006641 0.029301 0.000000 -0.029632 0.000000
# 4 0.000000 0.000000 0.000000 0.051226 0.000000 0.009463
# 5 -0.038629 0.003241 -0.029632 0.000000 0.114481 0.000000
# 6 0.000000 0.000000 0.000000 0.009463 0.000000 0.053057
#
#
# Mechanical properties :
#
#
# Convention : Reuss Voigt Hill
#
# Bulk Modulus (GPa) = 14.84338 32.92856 23.88597
# Shear Modulus (GPa) = 14.67529 20.07564 17.37546
#
# Velocity S-wave (km/s) = 2.87961 3.36802 3.13334
# Velocity P-wave (km/s) = 4.40945 5.80781 5.15626
#
# Compressibility (1/GPa) = 0.06737011
#
# Stress axis : x y z
#
# Youngs Moduli (GPa) = 30.88629 45.97469 34.12821
#
# Poissons Ratio (x) = 0.29372 -0.17067
# Poissons Ratio (y) = 0.19733 0.22666
# Poissons Ratio (z) = -0.15445 0.30534
#
# Static dielectric constant tensor:
#      x y z
#    x 1.618960 0.000000 -0.001800 
#    y 0.000000 1.615180 0.000000 
#    z -0.001800 0.000000 1.606760 
# 
# From -- ./inp_files/246374.got.cif
#   From: 2010.05.17/outbox.cif.g08.bks.cpg/sg12_124_cif.got.tgz:246374.got - 2010.06.03 13:09:07.
