data_PCOD9205622
_publ_section_title
;
Structure prediction by ZEFSAII (Michael W. Deem and Ramdas Pophale) SiO2 
 PCOD9205622
Probable space group: C 2/M
;
_chemical_formula_sum "Si O2"
_cell_formula_units_Z 56
_cell_length_a 10.902885
_cell_length_b 18.080758
_cell_length_c 15.777442
_cell_angle_alpha 90.000000
_cell_angle_beta 66.602243
_cell_angle_gamma 90.000000
_cell_volume 2854.490461
_symmetry_space_group_name_H-M "C 2/M"
_symmetry_group_IT_number 12
_symmetry_cell_setting 'monoclinic'
loop_
_space_group_symop_operation_xyz
x,y,z
-x,y,-z
-x,-y,-z
x,-y,z
1/2+x,1/2+y,z
1/2-x,1/2+y,-z
1/2-x,1/2-y,-z
1/2+x,1/2-y,z
loop_
_atom_site_type_symbol
_atom_site_label
_atom_site_fract_x
_atom_site_fract_y
_atom_site_fract_z
Si Si1 0.686586 0.911083 0.134984
Si Si2 0.449306 0.804629 0.260518
Si Si3 0.404002 0.728115 0.448556
Si Si4 0.562305 0.582265 0.647441
Si Si5 0.071411 0.152485 0.825274
Si Si6 0.257815 0.083031 0.252780
Si Si7 0.719215 0.412659 0.075689
O O1 0.568686 0.860668 0.204997
O O2 0.823856 0.877708 0.135390
O O3 0.676096 0.000000 0.155074
O O4 0.693369 0.901350 0.031536
O O5 0.464552 0.764859 0.346646
O O6 0.429214 0.739284 0.197336
O O7 0.318653 0.855810 0.296263
O O8 0.500000 0.747323 0.500000
O O9 0.250000 0.750000 0.500000
O O10 0.401513 0.640397 0.433721
O O11 0.611660 0.500000 0.617870
O O12 0.607778 0.611321 0.726871
O O13 0.401451 0.581382 0.697139
O O14 0.920372 0.130515 0.890855
O O15 0.288881 0.103865 0.146353
O O16 0.309117 0.000000 0.255038
O O17 0.684224 0.500000 0.089308
#
# Coordination Sequence:
#
# PCOD9205622 Si02
#       7
#     8   8   8   8   8   8   8
#     4  11  23  39  60  88 126 169 208 251 308 367
#     4  11  25  38  62  87 124 157 200 253 319 372
#     4  11  25  43  66  92 123 158 199 256 324 387
#     4   9  19  37  66  91 113 153 203 251 296 370
#     4  10  21  35  59  88 123 163 206 250 297 360
#     4   9  18  38  63  88 121 161 205 247 296 362
#     4   9  19  37  60  86 119 164 213 252 289 350
#
# _framework density 19.618212
#
# number of rings (size 3 to 8) (size 9 to 14) (size 15 to 20)
#    0.000    2.000    0.000    3.857   10.000    2.571 
#    2.571    3.571    0.000    2.143    0.000    0.000 
#    0.000    0.000    0.000    0.000    0.000    0.000 
#
# Total GULP energy -156321.044366 kJ/mol
# GULP energy per Si atom -5582.894442 kJ/mol
# Density = 1.957356 g / cm^3
# Si number density = 19.618212 Si / 1000 Ang^3
#
#
#
# Elastic Constant Matrix: (Units=GPa)
#
#
# Indices 1 2 3 4 5 6 
#
# 1 32.0367 29.3661 8.1244 0.0000 8.5608 0.0000
# 2 29.3661 128.9124 37.7581 0.0000 4.7120 0.0000
# 3 8.1244 37.7581 53.2245 0.0000 0.2044 0.0000
# 4 0.0000 0.0000 0.0000 28.9141 0.0000 -5.4474
# 5 8.5608 4.7120 0.2044 0.0000 22.2881 0.0000
# 6 0.0000 0.0000 0.0000 -5.4474 0.0000 28.9882
#
#
#
# Elastic Compliance Matrix: (Units=1/GPa)
#
#
# Indices 1 2 3 4 5 6 
#
# 1 0.043836 -0.009468 0.000082 0.000000 -0.014837 0.000000
# 2 -0.009468 0.011927 -0.007021 0.000000 0.001179 0.000000
# 3 0.000082 -0.007021 0.023752 0.000000 0.001235 0.000000
# 4 0.000000 0.000000 0.000000 0.035855 0.000000 0.006738
# 5 -0.014837 0.001179 0.001235 0.000000 0.050305 0.000000
# 6 0.000000 0.000000 0.000000 0.006738 0.000000 0.035763
#
#
# Mechanical properties :
#
#
# Convention : Reuss Voigt Hill
#
# Bulk Modulus (GPa) = 21.41196 40.51898 30.96547
# Shear Modulus (GPa) = 20.01458 25.29972 22.65715
#
# Velocity S-wave (km/s) = 3.19753 3.59500 3.40207
# Velocity P-wave (km/s) = 4.95684 6.15879 5.59021
#
# Compressibility (1/GPa) = 0.04670287
#
# Stress axis : x y z
#
# Youngs Moduli (GPa) = 22.81205 83.84232 42.10248
#
# Poissons Ratio (x) = 0.79379 -0.00346
# Poissons Ratio (y) = 0.21598 0.29559
# Poissons Ratio (z) = -0.00187 0.58863
#
# Static dielectric constant tensor:
#      x y z
#    x 1.687460 0.000000 0.008950 
#    y 0.000000 1.687990 0.000000 
#    z 0.008950 0.000000 1.700060 
# 
# From -- ./inp_files/206542.got.cif
#   From: 2010.05.17/outbox.cif.g08.bks.cpg/sg12_104_cif.got.tgz:206542.got - 2010.06.03 13:09:07.
