data_PCOD9205756
_publ_section_title
;
Structure prediction by ZEFSAII (Michael W. Deem and Ramdas Pophale) SiO2 
 PCOD9205756
Probable space group: C 2/M
;
_chemical_formula_sum "Si O2"
_cell_formula_units_Z 64
_cell_length_a 11.505876
_cell_length_b 14.311144
_cell_length_c 28.314717
_cell_angle_alpha 90.000000
_cell_angle_beta 39.508305
_cell_angle_gamma 90.000000
_cell_volume 2966.150245
_symmetry_space_group_name_H-M "C 2/M"
_symmetry_group_IT_number 12
_symmetry_cell_setting 'monoclinic'
loop_
_space_group_symop_operation_xyz
x,y,z
-x,y,-z
-x,-y,-z
x,-y,z
1/2+x,1/2+y,z
1/2-x,1/2+y,-z
1/2-x,1/2-y,-z
1/2+x,1/2-y,z
loop_
_atom_site_type_symbol
_atom_site_label
_atom_site_fract_x
_atom_site_fract_y
_atom_site_fract_z
Si Si1 0.521271 0.888518 0.305724
Si Si2 0.768873 0.890531 0.318864
Si Si3 0.854993 0.218755 0.586971
Si Si4 0.326998 0.647555 0.026360
Si Si5 0.160898 0.887432 0.210630
Si Si6 0.087409 0.391148 0.184856
Si Si7 0.352229 0.391324 0.679802
Si Si8 0.539141 0.147704 0.041112
O O1 0.641043 0.876234 0.314150
O O2 0.330158 0.835583 0.368625
O O3 0.632261 0.859675 0.223793
O O4 0.484177 0.000000 0.311303
O O5 0.697410 0.823725 0.382265
O O6 0.977220 0.865131 0.239646
O O7 0.766981 0.000000 0.332710
O O8 0.923845 0.168379 0.613611
O O9 0.000000 0.214001 0.500000
O O10 0.180016 0.664495 0.113985
O O11 0.205637 0.606353 0.021012
O O12 0.500000 0.601929 0.000000
O O13 0.407753 0.744427 0.982418
O O14 0.110756 0.854918 0.279308
O O15 0.350906 0.856543 0.129209
O O16 0.179178 0.000000 0.208463
O O17 0.140331 0.500000 0.161071
O O18 0.868526 0.387678 0.252627
O O19 0.408358 0.500000 0.657778
O O20 0.500000 0.110317 0.000000
#
# Coordination Sequence:
#
# PCOD9205756 Si02
#       8
#     8   8   8   8   8   8   8   8
#     4   9  21  43  68  99 134 170 219 279 332 384
#     4  10  24  45  66  95 134 176 220 270 331 393
#     4  11  24  40  68 101 137 171 216 262 329 400
#     4  10  21  36  52  83 124 159 203 266 335 389
#     4  10  21  42  67  87 119 170 225 270 322 394
#     4   9  17  35  62  85 115 162 214 266 323 384
#     4   9  19  38  66  97 122 162 222 277 319 377
#     4  10  22  38  55  84 121 162 211 266 325 396
#
# _framework density 21.576789999999999
#
# number of rings (size 3 to 8) (size 9 to 14) (size 15 to 20)
#    0.000    2.250    1.250    1.125    1.750    7.250 
#    0.000    0.000    0.000    0.000    0.000    0.000 
#    0.000    0.000    0.000    0.000    0.000    0.000 
#
# Total GULP energy -178644.487542 kJ/mol
# GULP energy per Si atom -5582.640236 kJ/mol
# Density = 2.152768 g / cm^3
# Si number density = 21.576790 Si / 1000 Ang^3
#
#
#
# Elastic Constant Matrix: (Units=GPa)
#
#
# Indices 1 2 3 4 5 6 
#
# 1 157.2910 40.3300 60.1300 0.0000 6.1346 0.0002
# 2 40.3300 79.4675 45.6438 0.0001 8.5517 0.0002
# 3 60.1300 45.6438 137.2400 0.0011 21.1570 0.0005
# 4 0.0000 0.0001 0.0011 -3.8013 -0.0004 -3.0010
# 5 6.1346 8.5517 21.1570 -0.0004 17.7324 -0.0002
# 6 0.0002 0.0002 0.0005 -3.0010 -0.0002 4.8018
#
#
#
# Elastic Compliance Matrix: (Units=1/GPa)
#
#
# Indices 1 2 3 4 5 6 
#
# 1 0.008090 -0.002606 -0.002990 -0.000001 0.002026 0.000000
# 2 -0.002606 0.016433 -0.003971 0.000000 -0.002285 0.000000
# 3 -0.002990 -0.003971 0.011595 0.000004 -0.010885 0.000001
# 4 -0.000001 0.000000 0.000004 -0.176157 -0.000009 -0.110092
# 5 0.002026 -0.002285 -0.010885 -0.000009 0.069783 -0.000001
# 6 0.000000 0.000000 0.000001 -0.110092 -0.000001 0.139450
#
#
# Mechanical properties :
#
#
# Convention : Reuss Voigt Hill
#
# Bulk Modulus (GPa) = 58.88016 74.02290 66.45153
# Shear Modulus (GPa) = 53.19687 18.93958 36.06823
#
# Velocity S-wave (km/s) = 4.97073 2.96594 4.09298
# Velocity P-wave (km/s) = 7.76480 6.79046 7.29392
#
# Compressibility (1/GPa) = 0.01698365
#
# Stress axis : x y z
#
# Youngs Moduli (GPa) = 123.61062 60.85184 86.24160
#
# Poissons Ratio (x) = 0.15860 0.25786
# Poissons Ratio (y) = 0.32217 0.34249
# Poissons Ratio (z) = 0.36959 0.24166
#
# Static dielectric constant tensor:
#      x y z
#    x 1.874330 0.000000 0.026880 
#    y 0.000000 1.831110 0.000000 
#    z 0.026880 0.000000 1.712950 
# 
# From -- ./inp_files/358439.got.cif
#   From: 2010.05.17/outbox.cif.g08.bks.cpg/sg12_180_cif.got.tgz:358439.got - 2010.06.03 13:09:07.
