data_PCOD9205140
_publ_section_title
;
Structure prediction by ZEFSAII (Michael W. Deem and Ramdas Pophale) SiO2 
 PCOD9205140
Probable space group: C 2/M
;
_chemical_formula_sum "Si O2"
_cell_formula_units_Z 52
_cell_length_a 9.335151
_cell_length_b 26.319926
_cell_length_c 20.932683
_cell_angle_alpha 90.000000
_cell_angle_beta 30.198267
_cell_angle_gamma 90.000000
_cell_volume 2586.982817
_symmetry_space_group_name_H-M "C 2/M"
_symmetry_group_IT_number 12
_symmetry_cell_setting 'monoclinic'
loop_
_space_group_symop_operation_xyz
x,y,z
-x,y,-z
-x,-y,-z
x,-y,z
1/2+x,1/2+y,z
1/2-x,1/2+y,-z
1/2-x,1/2-y,-z
1/2+x,1/2-y,z
loop_
_atom_site_type_symbol
_atom_site_label
_atom_site_fract_x
_atom_site_fract_y
_atom_site_fract_z
Si Si1 0.399909 0.352379 0.174147
Si Si2 0.741245 0.342360 0.453980
Si Si3 0.157981 0.091808 0.683459
Si Si4 0.440850 0.757195 0.221236
Si Si5 0.306247 0.556138 0.459810
Si Si6 0.500000 0.674210 0.000000
Si Si7 0.889603 0.200333 0.368300
O O1 0.483117 0.395119 0.194273
O O2 0.484681 0.296505 0.167809
O O3 0.053402 0.352111 0.305496
O O4 0.519851 0.357905 0.057228
O O5 0.500000 0.323229 0.500000
O O6 0.609362 0.395517 0.530989
O O7 0.787153 0.305971 0.497925
O O8 0.468523 0.068096 0.579014
O O9 0.047411 0.059051 0.666597
O O10 0.167232 0.147496 0.646554
O O11 0.204405 0.789536 0.274751
O O12 0.354406 0.742183 0.326995
O O13 0.727595 0.789434 0.111992
O O14 0.342903 0.500000 0.472891
#
# Coordination Sequence:
#
# PCOD9205140 Si02
#       7
#     8   8   8   8   8   4   8
#     4  10  21  35  51  71 104 146 184 230 267 308
#     4  10  21  37  52  80 119 140 171 222 280 339
#     4   8  16  31  50  76 106 131 171 215 267 317
#     4  11  22  37  54  73  99 147 198 240 265 304
#     4   9  16  31  59  84 109 139 168 210 273 348
#     4  12  22  38  50  72 101 146 203 240 264 298
#     4  10  21  36  53  76 106 145 184 230 277 314
#
# _framework density 20.100636999999999
#
# number of rings (size 3 to 8) (size 9 to 14) (size 15 to 20)
#    0.000    2.154    1.538    3.231    0.000    2.769 
#    2.769    0.000    0.000    0.000    0.000   13.462 
#    0.000   61.538    0.000    3.846    0.000    0.000 
#
# Total GULP energy -144916.427317 kJ/mol
# GULP energy per Si atom -5573.708743 kJ/mol
# Density = 2.005489 g / cm^3
# Si number density = 20.100637 Si / 1000 Ang^3
#
#
#
# Elastic Constant Matrix: (Units=GPa)
#
#
# Indices 1 2 3 4 5 6 
#
# 1 102.0607 20.7091 37.1364 0.0019 22.5167 -0.0003
# 2 20.7091 85.7609 29.7522 -0.0006 9.6525 0.0030
# 3 37.1364 29.7522 47.2166 0.0074 23.8704 0.0011
# 4 0.0019 -0.0006 0.0074 11.5125 0.0045 2.8850
# 5 22.5167 9.6525 23.8704 0.0045 47.0668 -0.0023
# 6 -0.0003 0.0030 0.0011 2.8850 -0.0023 14.9282
#
#
#
# Elastic Compliance Matrix: (Units=1/GPa)
#
#
# Indices 1 2 3 4 5 6 
#
# 1 0.013815 0.000442 -0.010431 0.000005 -0.001409 0.000000
# 2 0.000442 0.015124 -0.011030 0.000008 0.002281 -0.000003
# 3 -0.010431 -0.011030 0.043931 -0.000021 -0.015028 0.000001
# 4 0.000005 0.000008 -0.000021 0.091283 -0.000003 -0.017641
# 5 -0.001409 0.002281 -0.015028 -0.000003 0.029074 0.000006
# 6 0.000000 -0.000003 0.000001 -0.017641 0.000006 0.070396
#
#
# Mechanical properties :
#
#
# Convention : Reuss Voigt Hill
#
# Bulk Modulus (GPa) = 32.43673 45.58152 39.00913
# Shear Modulus (GPa) = 15.82579 24.53087 20.17833
#
# Velocity S-wave (km/s) = 2.80898 3.49722 3.17182
# Velocity P-wave (km/s) = 5.16650 6.24766 5.73262
#
# Compressibility (1/GPa) = 0.03082925
#
# Stress axis : x y z
#
# Youngs Moduli (GPa) = 72.38466 66.12184 22.76288
#
# Poissons Ratio (x) = -0.02919 0.23745
# Poissons Ratio (y) = -0.03196 0.25108
# Poissons Ratio (z) = 0.75508 0.72935
#
# Static dielectric constant tensor:
#      x y z
#    x 1.777510 0.000000 0.044410 
#    y 0.000000 1.723940 0.000000 
#    z 0.044410 0.000000 1.720180 
# 
# From -- ./inp_files/302926.got.cif
#   From: 2010.05.17/outbox.cif.g08.bks.cpg/sg12_152_cif.got.tgz:302926.got - 2010.06.03 13:09:07.
