data_PCOD9205310
_publ_section_title
;
Structure prediction by ZEFSAII (Michael W. Deem and Ramdas Pophale) SiO2 
 PCOD9205310
Probable space group: C 2/M
;
_chemical_formula_sum "Si O2"
_cell_formula_units_Z 40
_cell_length_a 31.259118
_cell_length_b 8.932884
_cell_length_c 7.580864
_cell_angle_alpha 90.000000
_cell_angle_beta 103.976619
_cell_angle_gamma 90.000000
_cell_volume 2054.165293
_symmetry_space_group_name_H-M "C 2/M"
_symmetry_group_IT_number 12
_symmetry_cell_setting 'monoclinic'
loop_
_space_group_symop_operation_xyz
x,y,z
-x,y,-z
-x,-y,-z
x,-y,z
1/2+x,1/2+y,z
1/2-x,1/2+y,-z
1/2-x,1/2-y,-z
1/2+x,1/2-y,z
loop_
_atom_site_type_symbol
_atom_site_label
_atom_site_fract_x
_atom_site_fract_y
_atom_site_fract_z
Si Si1 0.452787 0.670073 0.362366
Si Si2 0.139527 0.177599 0.090486
Si Si3 0.856769 0.174234 0.327381
Si Si4 0.951736 0.325306 0.006739
Si Si5 0.201954 0.677573 0.439057
O O1 0.500000 0.674885 0.500000
O O2 0.448067 0.500000 0.278893
O O3 0.408478 0.689019 0.431610
O O4 0.451369 0.797724 0.215264
O O5 0.176073 0.258230 0.243939
O O6 0.141901 0.000000 0.119911
O O7 0.145266 0.205994 0.885365
O O8 0.091309 0.237369 0.099722
O O9 0.826208 0.275442 0.417033
O O10 0.844286 0.000000 0.340531
O O11 0.948356 0.500000 0.956387
O O12 0.000000 0.267830 0.000000
O O13 0.205415 0.500000 0.430225
O O14 0.250000 0.750000 0.500000
#
# Coordination Sequence:
#
# PCOD9205310 Si02
#       5
#     8   8   8   8   8
#     4   9  19  35  56  85 117 159 206 245 295 358
#     4  10  22  42  66  90 122 163 206 254 307 366
#     4   9  20  40  63  90 124 161 205 255 306 364
#     4  10  21  35  53  85 123 159 201 247 300 358
#     4  12  26  43  66  94 124 160 205 255 312 370
#
# _framework density 19.472629000000001
#
# number of rings (size 3 to 8) (size 9 to 14) (size 15 to 20)
#    0.000    2.000    0.000    4.200    2.800    6.800 
#    0.000    0.000    0.000    0.000    0.000    0.000 
#    0.000    0.000    0.000    0.000    0.000    0.000 
#
# Total GULP energy -111605.870250 kJ/mol
# GULP energy per Si atom -5580.293513 kJ/mol
# Density = 1.942831 g / cm^3
# Si number density = 19.472629 Si / 1000 Ang^3
#
#
#
# Elastic Constant Matrix: (Units=GPa)
#
#
# Indices 1 2 3 4 5 6 
#
# 1 157.2964 76.9763 60.6199 0.0000 24.9587 0.0000
# 2 76.9763 103.4933 52.6616 0.0000 12.1272 0.0000
# 3 60.6199 52.6616 76.1902 0.0000 20.2232 0.0000
# 4 0.0000 0.0000 0.0000 28.4114 0.0000 -3.8968
# 5 24.9587 12.1272 20.2232 0.0000 32.3969 0.0000
# 6 0.0000 0.0000 0.0000 -3.8968 0.0000 33.1009
#
#
#
# Elastic Compliance Matrix: (Units=1/GPa)
#
#
# Indices 1 2 3 4 5 6 
#
# 1 0.011476 -0.006115 -0.003793 0.000000 -0.004184 0.000000
# 2 -0.006115 0.018191 -0.008571 0.000000 0.003252 0.000000
# 3 -0.003793 -0.008571 0.024500 0.000000 -0.009162 0.000000
# 4 0.000000 0.000000 0.000000 0.035775 0.000000 0.004212
# 5 -0.004184 0.003252 -0.009162 0.000000 0.038593 0.000000
# 6 0.000000 0.000000 0.000000 0.004212 0.000000 0.030706
#
#
# Mechanical properties :
#
#
# Convention : Reuss Voigt Hill
#
# Bulk Modulus (GPa) = 58.11563 79.72173 68.91868
# Shear Modulus (GPa) = 24.76043 28.56331 26.66187
#
# Velocity S-wave (km/s) = 3.56975 3.83409 3.70428
# Velocity P-wave (km/s) = 6.84839 7.78650 7.33246
#
# Compressibility (1/GPa) = 0.01720707
#
# Stress axis : x y z
#
# Youngs Moduli (GPa) = 87.14077 54.97246 40.81692
#
# Poissons Ratio (x) = 0.33615 0.15484
# Poissons Ratio (y) = 0.53285 0.34985
# Poissons Ratio (z) = 0.33056 0.47118
#
# Static dielectric constant tensor:
#      x y z
#    x 1.692090 0.000000 -0.004230 
#    y 0.000000 1.668280 0.000000 
#    z -0.004230 0.000000 1.695780 
# 
# From -- ./inp_files/93026.got.cif
#   From: 2010.05.17/outbox.cif.g08.bks.cpg/sg12_47_cif.got.tgz:93026.got - 2010.06.03 13:09:07.
