data_PCOD9205249
_publ_section_title
;
Structure prediction by ZEFSAII (Michael W. Deem and Ramdas Pophale) SiO2 
 PCOD9205249
Probable space group: C 2/M
;
_chemical_formula_sum "Si O2"
_cell_formula_units_Z 56
_cell_length_a 13.081807
_cell_length_b 10.355599
_cell_length_c 21.973556
_cell_angle_alpha 90.000000
_cell_angle_beta 85.564473
_cell_angle_gamma 90.000000
_cell_volume 2967.841062
_symmetry_space_group_name_H-M "C 2/M"
_symmetry_group_IT_number 12
_symmetry_cell_setting 'monoclinic'
loop_
_space_group_symop_operation_xyz
x,y,z
-x,y,-z
-x,-y,-z
x,-y,z
1/2+x,1/2+y,z
1/2-x,1/2+y,-z
1/2-x,1/2-y,-z
1/2+x,1/2-y,z
loop_
_atom_site_type_symbol
_atom_site_label
_atom_site_fract_x
_atom_site_fract_y
_atom_site_fract_z
Si Si1 0.699120 0.148113 0.611743
Si Si2 0.532855 0.146786 0.728235
Si Si3 0.414940 0.202715 0.958386
Si Si4 0.425739 0.646331 0.447966
Si Si5 0.086528 0.654078 0.862020
Si Si6 0.589718 0.645871 0.331671
Si Si7 0.186733 0.861034 0.940662
O O1 0.616252 0.149560 0.670362
O O2 0.660893 0.249544 0.563416
O O3 0.807747 0.182695 0.636693
O O4 0.705266 0.000000 0.588751
O O5 0.587141 0.174638 0.789896
O O6 0.445683 0.250242 0.716113
O O7 0.491644 0.000000 0.733678
O O8 0.476196 0.202070 0.892763
O O9 0.305366 0.137905 0.954283
O O10 0.500000 0.142414 0.000000
O O11 0.381532 0.331659 0.996301
O O12 0.500000 0.683918 0.500000
O O13 0.387435 0.500000 0.461589
O O14 0.499106 0.640613 0.385602
O O15 0.098550 0.500000 0.872930
O O16 0.165723 0.742787 0.895711
O O17 0.604549 0.500000 0.306539
O O18 0.158665 0.000000 0.915467
#
# Coordination Sequence:
#
# PCOD9205249 Si02
#       7
#     8   8   8   8   8   8   8
#     4   9  18  33  51  71  99 132 165 203 247 292
#     4   9  19  35  52  72  98 129 166 203 240 289
#     4   9  20  35  54  72  98 131 160 193 241 294
#     4   9  18  32  49  72 102 132 165 205 245 289
#     4  10  21  36  53  73 100 132 162 197 245 295
#     4   9  18  33  52  73  99 132 165 201 248 291
#     4  10  21  35  53  77 100 125 162 203 241 287
#
# _framework density 18.868936000000001
#
# number of rings (size 3 to 8) (size 9 to 14) (size 15 to 20)
#    0.000    2.714    0.000    0.429    0.000   13.714 
#    0.000    0.000    0.000    0.000    0.000    0.000 
#    0.000    0.000    0.000    0.000    0.000    0.000 
#
# Total GULP energy -155920.038102 kJ/mol
# GULP energy per Si atom -5568.572789 kJ/mol
# Density = 1.882599 g / cm^3
# Si number density = 18.868936 Si / 1000 Ang^3
#
#
#
# Elastic Constant Matrix: (Units=GPa)
#
#
# Indices 1 2 3 4 5 6 
#
# 1 74.0647 45.6991 10.3316 0.0000 26.3281 0.0000
# 2 45.6991 114.4636 58.6091 0.0000 36.0583 0.0000
# 3 10.3316 58.6091 67.1937 0.0000 12.3855 0.0000
# 4 0.0000 0.0000 0.0000 0.8157 0.0000 27.6838
# 5 26.3281 36.0583 12.3855 0.0000 25.3402 0.0000
# 6 0.0000 0.0000 0.0000 27.6838 0.0000 -0.3075
#
#
#
# Elastic Compliance Matrix: (Units=1/GPa)
#
#
# Indices 1 2 3 4 5 6 
#
# 1 0.022811 -0.006352 0.005205 0.000000 -0.017206 0.000000
# 2 -0.006352 0.029796 -0.020237 0.000000 -0.025908 0.000000
# 3 0.005205 -0.020237 0.030138 0.000000 0.008659 0.000000
# 4 0.000000 0.000000 0.000000 0.000401 0.000000 0.036110
# 5 -0.017206 -0.025908 0.008659 0.000000 0.089973 0.000000
# 6 0.000000 0.000000 0.000000 0.036110 0.000000 -0.001064
#
#
# Mechanical properties :
#
#
# Convention : Reuss Voigt Hill
#
# Bulk Modulus (GPa) = 25.01532 53.88908 39.45220
# Shear Modulus (GPa) = 21.91548 14.57515 18.24532
#
# Velocity S-wave (km/s) = 3.41171 2.78230 3.11296
# Velocity P-wave (km/s) = 5.36711 6.24045 5.82019
#
# Compressibility (1/GPa) = 0.03997550
#
# Stress axis : x y z
#
# Youngs Moduli (GPa) = 43.83815 33.56162 33.18104
#
# Poissons Ratio (x) = 0.21319 -0.17269
# Poissons Ratio (y) = 0.27846 0.67149
# Poissons Ratio (z) = -0.22816 0.67919
#
# Static dielectric constant tensor:
#      x y z
#    x 1.654390 0.000000 -0.019200 
#    y 0.000000 1.678670 0.000000 
#    z -0.019200 0.000000 1.656610 
# 
# From -- ./inp_files/304784.got.cif
#   From: 2010.05.17/outbox.cif.g08.bks.cpg/sg12_153_cif.got.tgz:304784.got - 2010.06.03 13:09:07.
