data_PCOD9205551
_publ_section_title
;
Structure prediction by ZEFSAII (Michael W. Deem and Ramdas Pophale) SiO2 
 PCOD9205551
Probable space group: C 2/M
;
_chemical_formula_sum "Si O2"
_cell_formula_units_Z 36
_cell_length_a 15.951921
_cell_length_b 21.661960
_cell_length_c 9.016603
_cell_angle_alpha 90.000000
_cell_angle_beta 36.012413
_cell_angle_gamma 90.000000
_cell_volume 1831.900351
_symmetry_space_group_name_H-M "C 2/M"
_symmetry_group_IT_number 12
_symmetry_cell_setting 'monoclinic'
loop_
_space_group_symop_operation_xyz
x,y,z
-x,y,-z
-x,-y,-z
x,-y,z
1/2+x,1/2+y,z
1/2-x,1/2+y,-z
1/2-x,1/2-y,-z
1/2+x,1/2-y,z
loop_
_atom_site_type_symbol
_atom_site_label
_atom_site_fract_x
_atom_site_fract_y
_atom_site_fract_z
Si Si1 0.143305 0.853440 0.888609
Si Si2 0.753825 0.731576 0.170316
Si Si3 0.055347 0.880738 0.564976
Si Si4 0.000000 0.665224 0.000000
Si Si5 0.288407 0.930361 0.449125
O O1 0.253342 0.796926 0.734474
O O2 0.217932 0.911473 0.705959
O O3 0.000000 0.838223 0.000000
O O4 0.080261 0.864581 0.140583
O O5 0.636749 0.681516 0.391024
O O6 0.901863 0.703859 0.025619
O O7 0.750000 0.750000 0.000000
O O8 0.162985 0.920244 0.508826
O O9 0.000000 0.914855 0.500000
O O10 0.903215 0.620234 0.237849
O O11 0.341979 0.000000 0.371328
#
# Coordination Sequence:
#
# PCOD9205551 Si02
#       5
#     8   8   8   4   8
#     4  10  21  35  59  88 122 154 198 242 304 353
#     4  11  21  35  62  92 125 155 192 247 306 366
#     4  10  21  35  57  91 119 157 200 249 301 354
#     4  10  23  40  66  88 121 160 200 248 304 368
#     4  10  23  41  62  84 117 165 208 247 294 353
#
# _framework density 19.651724999999999
#
# number of rings (size 3 to 8) (size 9 to 14) (size 15 to 20)
#    0.000    1.778    3.333    0.333    3.111    7.111 
#    0.000    0.000    0.000    1.333    0.000    0.000 
#    0.000    0.000    0.000    0.000    0.000    0.000 
#
# Total GULP energy -100333.491247 kJ/mol
# GULP energy per Si atom -5574.082847 kJ/mol
# Density = 1.960700 g / cm^3
# Si number density = 19.651725 Si / 1000 Ang^3
#
#
#
# Elastic Constant Matrix: (Units=GPa)
#
#
# Indices 1 2 3 4 5 6 
#
# 1 86.3010 37.8676 39.2164 0.0000 13.5162 0.0000
# 2 37.8676 80.3854 17.6317 0.0000 10.8862 0.0000
# 3 39.2164 17.6317 88.4753 0.0002 19.1080 -0.0001
# 4 0.0000 0.0000 0.0002 11.7526 -0.0001 5.9297
# 5 13.5162 10.8862 19.1080 -0.0001 30.9913 0.0000
# 6 0.0000 0.0000 -0.0001 5.9297 0.0000 8.0051
#
#
#
# Elastic Compliance Matrix: (Units=1/GPa)
#
#
# Indices 1 2 3 4 5 6 
#
# 1 0.017553 -0.006722 -0.006111 0.000000 -0.001526 0.000000
# 2 -0.006722 0.015906 0.000442 0.000000 -0.002928 0.000000
# 3 -0.006111 0.000442 0.015437 -0.000001 -0.007008 0.000001
# 4 0.000000 0.000000 -0.000001 0.135867 0.000001 -0.100643
# 5 -0.001526 -0.002928 -0.007008 0.000001 0.038282 -0.000001
# 6 0.000000 0.000000 0.000001 -0.100643 -0.000001 0.199471
#
#
# Mechanical properties :
#
#
# Convention : Reuss Voigt Hill
#
# Bulk Modulus (GPa) = 41.46962 49.39924 45.43443
# Shear Modulus (GPa) = 10.98094 20.84620 15.91357
#
# Velocity S-wave (km/s) = 2.36641 3.26050 2.84875
# Velocity P-wave (km/s) = 5.34926 6.27426 5.83014
#
# Compressibility (1/GPa) = 0.02411404
#
# Stress axis : x y z
#
# Youngs Moduli (GPa) = 56.97150 62.86918 64.78088
#
# Poissons Ratio (x) = 0.42258 0.39588
# Poissons Ratio (y) = 0.38294 -0.02863
# Poissons Ratio (z) = 0.34815 -0.02778
#
# Static dielectric constant tensor:
#      x y z
#    x 1.714900 0.000000 0.021120 
#    y 0.000000 1.672160 0.000000 
#    z 0.021120 0.000000 1.737640 
# 
# From -- ./inp_files/48076.got.cif
#   From: 2010.05.17/outbox.cif.g08.bks.cpg/sg12_25_cif.got.tgz:48076.got - 2010.06.03 13:09:07.
