data_PCOD9205891
_publ_section_title
;
Structure prediction by ZEFSAII (Michael W. Deem and Ramdas Pophale) SiO2 
 PCOD9205891
Probable space group: C 2/M
;
_chemical_formula_sum "Si O2"
_cell_formula_units_Z 64
_cell_length_a 14.884747
_cell_length_b 9.063156
_cell_length_c 23.410342
_cell_angle_alpha 90.000000
_cell_angle_beta 84.975557
_cell_angle_gamma 90.000000
_cell_volume 3145.985001
_symmetry_space_group_name_H-M "C 2/M"
_symmetry_group_IT_number 12
_symmetry_cell_setting 'monoclinic'
loop_
_space_group_symop_operation_xyz
x,y,z
-x,y,-z
-x,-y,-z
x,-y,z
1/2+x,1/2+y,z
1/2-x,1/2+y,-z
1/2-x,1/2-y,-z
1/2+x,1/2-y,z
loop_
_atom_site_type_symbol
_atom_site_label
_atom_site_fract_x
_atom_site_fract_y
_atom_site_fract_z
Si Si1 0.206559 0.177993 0.870968
Si Si2 0.808694 0.172446 0.544702
Si Si3 0.355710 0.171077 0.367285
Si Si4 0.452620 0.177917 0.061952
Si Si5 0.400823 0.826993 0.718513
Si Si6 0.586415 0.179443 0.155213
Si Si7 0.976975 0.823281 0.601388
Si Si8 0.683491 0.671426 0.743811
O O1 0.311411 0.223191 0.866672
O O2 0.169507 0.219886 0.809876
O O3 0.144309 0.250444 0.921975
O O4 0.203293 0.000000 0.874573
O O5 0.750000 0.250000 0.500000
O O6 0.746329 0.185404 0.604678
O O7 0.907828 0.228401 0.555992
O O8 0.816466 0.000000 0.529515
O O9 0.422670 0.259588 0.404943
O O10 0.361474 0.233075 0.303030
O O11 0.379919 0.000000 0.367794
O O12 0.516568 0.225601 0.110917
O O13 0.444552 0.000000 0.063621
O O14 0.500000 0.218950 0.000000
O O15 0.434365 0.772901 0.778815
O O16 0.436961 0.733807 0.663794
O O17 0.291935 0.821897 0.728554
O O18 0.425155 0.000000 0.709452
O O19 0.586741 0.000000 0.157146
O O20 0.978867 0.000000 0.599921
O O21 0.656547 0.500000 0.739072
#
# Coordination Sequence:
#
# PCOD9205891 Si02
#       8
#     8   8   8   8   8   8   8   8
#     4   9  19  36  56  79 109 146 188 233 283 341
#     4  10  24  44  64  85 117 156 196 240 285 334
#     4  11  23  39  59  88 119 153 193 233 284 347
#     4  10  21  36  54  79 112 150 193 238 284 337
#     4   9  17  33  58  84 112 151 192 230 286 352
#     4   8  17  35  55  77 110 149 185 228 285 343
#     4  11  23  39  58  88 122 152 190 240 289 334
#     4   9  18  34  57  85 116 148 186 236 292 346
#
# _framework density 20.343391
#
# number of rings (size 3 to 8) (size 9 to 14) (size 15 to 20)
#    0.000    2.375    1.250    2.250    1.750    3.750 
#    0.000    5.000    0.000    0.000    0.000    0.000 
#    0.000    0.000    0.000    0.000    0.000    0.000 
#
# Total GULP energy -178689.650942 kJ/mol
# GULP energy per Si atom -5584.051592 kJ/mol
# Density = 2.029709 g / cm^3
# Si number density = 20.343391 Si / 1000 Ang^3
#
#
#
# Elastic Constant Matrix: (Units=GPa)
#
#
# Indices 1 2 3 4 5 6 
#
# 1 60.5319 8.0058 1.3143 0.0000 12.1470 0.0000
# 2 8.0058 28.4229 7.7913 0.0000 5.7074 0.0000
# 3 1.3143 7.7913 44.4843 0.0000 6.8151 0.0000
# 4 0.0000 0.0000 0.0000 27.1320 0.0000 -3.9817
# 5 12.1470 5.7074 6.8151 0.0000 32.0221 0.0000
# 6 0.0000 0.0000 0.0000 -3.9817 0.0000 25.1456
#
#
#
# Elastic Compliance Matrix: (Units=1/GPa)
#
#
# Indices 1 2 3 4 5 6 
#
# 1 0.018346 -0.004194 0.001183 0.000000 -0.006464 0.000000
# 2 -0.004194 0.038837 -0.006059 0.000000 -0.004042 0.000000
# 3 0.001183 -0.006059 0.024198 0.000000 -0.004519 0.000000
# 4 0.000000 0.000000 0.000000 0.037734 0.000000 0.005975
# 5 -0.006464 -0.004042 -0.004519 0.000000 0.035362 0.000000
# 6 0.000000 0.000000 0.000000 0.005975 0.000000 0.040715
#
#
# Mechanical properties :
#
#
# Convention : Reuss Voigt Hill
#
# Bulk Modulus (GPa) = 15.81253 18.62908 17.22080
# Shear Modulus (GPa) = 21.32994 24.61513 22.97253
#
# Velocity S-wave (km/s) = 3.24156 3.48225 3.36406
# Velocity P-wave (km/s) = 4.66904 5.03441 4.85517
#
# Compressibility (1/GPa) = 0.06324101
#
# Stress axis : x y z
#
# Youngs Moduli (GPa) = 54.50705 25.74891 41.32503
#
# Poissons Ratio (x) = 0.10799 -0.04888
# Poissons Ratio (y) = 0.22859 0.25039
# Poissons Ratio (z) = -0.06447 0.15601
#
# Static dielectric constant tensor:
#      x y z
#    x 1.746770 0.000000 0.000870 
#    y 0.000000 1.679120 0.000000 
#    z 0.000870 0.000000 1.730590 
# 
# From -- ./inp_files/338866.got.cif
#   From: 2010.05.17/outbox.cif.g08.bks.cpg/sg12_170_cif.got.tgz:338866.got - 2010.06.03 13:09:07.
