data_PCOD9205279
_publ_section_title
;
Structure prediction by ZEFSAII (Michael W. Deem and Ramdas Pophale) SiO2 
 PCOD9205279
Probable space group: C 2/M
;
_chemical_formula_sum "Si O2"
_cell_formula_units_Z 56
_cell_length_a 20.844382
_cell_length_b 8.013953
_cell_length_c 18.521094
_cell_angle_alpha 90.000000
_cell_angle_beta 129.949704
_cell_angle_gamma 90.000000
_cell_volume 2371.788877
_symmetry_space_group_name_H-M "C 2/M"
_symmetry_group_IT_number 12
_symmetry_cell_setting 'monoclinic'
loop_
_space_group_symop_operation_xyz
x,y,z
-x,y,-z
-x,-y,-z
x,-y,z
1/2+x,1/2+y,z
1/2-x,1/2+y,-z
1/2-x,1/2-y,-z
1/2+x,1/2-y,z
loop_
_atom_site_type_symbol
_atom_site_label
_atom_site_fract_x
_atom_site_fract_y
_atom_site_fract_z
Si Si1 0.785495 0.302491 0.686185
Si Si2 0.480400 0.304192 0.206477
Si Si3 0.701518 0.301904 0.894232
Si Si4 0.015842 0.703713 0.428123
Si Si5 0.860644 0.309008 0.596792
Si Si6 0.167095 0.302771 0.722905
Si Si7 0.551292 0.307319 0.104663
O O1 0.783167 0.500000 0.675932
O O2 0.797618 0.233039 0.612253
O O3 0.705377 0.246254 0.673667
O O4 0.864087 0.261387 0.796352
O O5 0.491476 0.500000 0.236340
O O6 0.391315 0.232571 0.162004
O O7 0.554009 0.197026 0.294022
O O8 0.487811 0.304283 0.125778
O O9 0.696992 0.500000 0.890509
O O10 0.727192 0.247580 0.832583
O O11 0.750000 0.250000 0.000000
O O12 0.020734 0.500000 0.425879
O O13 0.926859 0.766216 0.332060
O O14 0.000000 0.742931 0.500000
O O15 0.099571 0.767422 0.448009
O O16 0.835198 0.500000 0.564652
O O17 0.159712 0.500000 0.717369
O O18 0.571413 0.500000 0.099852
O O19 0.500000 0.231758 0.000000
#
# Coordination Sequence:
#
# PCOD9205279 Si02
#       7
#     8   8   8   8   8   8   8
#     4  10  21  35  53  79 112 149 186 232 289 343
#     4   9  18  32  50  74 105 142 181 227 276 325
#     4  11  23  36  53  80 115 154 193 235 285 340
#     4   9  18  35  62  91 112 141 191 241 286 344
#     4   9  17  34  58  81 108 144 184 228 277 332
#     4  11  22  38  60  83 114 152 192 242 291 342
#     4   9  18  32  51  74 103 142 188 233 275 329
#
# _framework density 23.610869000000001
#
# number of rings (size 3 to 8) (size 9 to 14) (size 15 to 20)
#    0.000    2.286    1.429    1.286    2.000    1.429 
#    0.000    0.714    0.000    3.857    0.000    0.000 
#    0.000    0.000    0.000    0.000    0.000    0.000 
#
# Total GULP energy -156081.413030 kJ/mol
# GULP energy per Si atom -5574.336180 kJ/mol
# Density = 2.355713 g / cm^3
# Si number density = 23.610869 Si / 1000 Ang^3
#
#
#
# Elastic Constant Matrix: (Units=GPa)
#
#
# Indices 1 2 3 4 5 6 
#
# 1 139.3981 4.7481 37.1253 0.0000 -25.1701 0.0000
# 2 4.7481 41.7306 8.4022 0.0000 -4.3255 0.0000
# 3 37.1253 8.4022 91.3383 0.0000 -25.9480 0.0000
# 4 0.0000 0.0000 0.0000 20.9356 0.0000 -5.7442
# 5 -25.1701 -4.3255 -25.9480 0.0000 30.8830 0.0000
# 6 0.0000 0.0000 0.0000 -5.7442 0.0000 8.0308
#
#
#
# Elastic Compliance Matrix: (Units=1/GPa)
#
#
# Indices 1 2 3 4 5 6 
#
# 1 0.008680 -0.000027 -0.001992 0.000000 0.005396 0.000000
# 2 -0.000027 0.024511 -0.001674 0.000000 0.002004 0.000000
# 3 -0.001992 -0.001674 0.014954 0.000000 0.010706 0.000000
# 4 0.000000 0.000000 0.000000 0.059429 0.000000 0.042508
# 5 0.005396 0.002004 0.010706 0.000000 0.046054 0.000000
# 6 0.000000 0.000000 0.000000 0.042508 0.000000 0.154927
#
#
# Mechanical properties :
#
#
# Convention : Reuss Voigt Hill
#
# Bulk Modulus (GPa) = 24.53601 41.44647 32.99124
# Shear Modulus (GPa) = 15.17327 26.78262 20.97795
#
# Velocity S-wave (km/s) = 2.53778 3.37164 2.98398
# Velocity P-wave (km/s) = 4.35907 5.72271 5.08679
#
# Compressibility (1/GPa) = 0.04075642
#
# Stress axis : x y z
#
# Youngs Moduli (GPa) = 115.21253 40.79770 66.87384
#
# Poissons Ratio (x) = 0.00110 0.13324
# Poissons Ratio (y) = 0.00312 0.11198
# Poissons Ratio (z) = 0.22955 0.06831
#
# Static dielectric constant tensor:
#      x y z
#    x 1.985110 0.000000 -0.028030 
#    y 0.000000 1.854980 0.000000 
#    z -0.028030 0.000000 1.955590 
# 
# From -- ./inp_files/281000.got.cif
#   From: 2010.05.17/outbox.cif.g08.bks.cpg/sg12_141_cif.got.tgz:281000.got - 2010.06.03 13:09:07.
