data_PCOD9205662
_publ_section_title
;
Structure prediction by ZEFSAII (Michael W. Deem and Ramdas Pophale) SiO2 
 PCOD9205662
Probable space group: C 2/M
;
_chemical_formula_sum "Si O2"
_cell_formula_units_Z 64
_cell_length_a 18.125816
_cell_length_b 15.542233
_cell_length_c 14.053813
_cell_angle_alpha 90.000000
_cell_angle_beta 59.269544
_cell_angle_gamma 90.000000
_cell_volume 3403.234245
_symmetry_space_group_name_H-M "C 2/M"
_symmetry_group_IT_number 12
_symmetry_cell_setting 'monoclinic'
loop_
_space_group_symop_operation_xyz
x,y,z
-x,y,-z
-x,-y,-z
x,-y,z
1/2+x,1/2+y,z
1/2-x,1/2+y,-z
1/2-x,1/2-y,-z
1/2+x,1/2-y,z
loop_
_atom_site_type_symbol
_atom_site_label
_atom_site_fract_x
_atom_site_fract_y
_atom_site_fract_z
Si Si1 0.112496 0.097591 0.246332
Si Si2 0.677583 0.241682 0.744979
Si Si3 0.102427 0.399558 0.938346
Si Si4 0.459310 0.277711 0.325130
Si Si5 0.444279 0.146043 0.619519
Si Si6 0.360729 0.685285 0.576730
Si Si7 0.257565 0.906139 0.800151
Si Si8 0.764165 0.648864 0.008100
O O1 0.124760 0.114479 0.351145
O O2 0.200066 0.117684 0.132948
O O3 0.042279 0.163878 0.253295
O O4 0.086581 0.000000 0.246875
O O5 0.644792 0.167674 0.837490
O O6 0.602169 0.266635 0.723303
O O7 0.760121 0.204698 0.634469
O O8 0.711466 0.325655 0.779624
O O9 0.124212 0.500000 0.904967
O O10 0.141436 0.373554 0.015138
O O11 0.000000 0.391174 0.000000
O O12 0.493988 0.185295 0.340125
O O13 0.407045 0.323772 0.445594
O O14 0.500000 0.101617 0.500000
O O15 0.404961 0.230718 0.594094
O O16 0.360042 0.099651 0.713357
O O17 0.226607 0.000000 0.787802
O O18 0.245314 0.896387 0.920953
O O19 0.750000 0.750000 0.000000
#
# Coordination Sequence:
#
# PCOD9205662 Si02
#       8
#     8   8   8   8   8   8   8   8
#     4  11  22  37  60  91 122 155 206 261 305 361
#     4  11  22  39  61  86 127 162 198 249 305 365
#     4  11  25  42  64  92 122 154 200 260 315 364
#     4  10  21  35  61  87 120 160 202 247 307 362
#     4   8  17  36  58  84 114 152 205 251 291 346
#     4   9  18  37  59  86 113 160 207 247 300 357
#     4  11  23  38  60  88 120 163 204 239 292 366
#     4  12  22  42  65  88 119 159 203 247 310 367
#
# _framework density 18.805641000000001
#
# number of rings (size 3 to 8) (size 9 to 14) (size 15 to 20)
#    0.000    1.625    2.500    4.125    3.500    1.750 
#    0.000    0.000    0.000    9.375    0.000    0.000 
#    0.000    0.000    0.000    0.000    0.000    0.000 
#
# Total GULP energy -178597.926324 kJ/mol
# GULP energy per Si atom -5581.185198 kJ/mol
# Density = 1.876284 g / cm^3
# Si number density = 18.805641 Si / 1000 Ang^3
#
#
#
# Elastic Constant Matrix: (Units=GPa)
#
#
# Indices 1 2 3 4 5 6 
#
# 1 135.0346 35.6359 22.4502 0.0000 5.3530 0.0000
# 2 35.6359 98.7717 28.9021 0.0000 -7.1938 0.0000
# 3 22.4502 28.9021 63.3044 0.0000 0.6295 0.0000
# 4 0.0000 0.0000 0.0000 -51.3081 0.0000 33.1029
# 5 5.3530 -7.1938 0.6295 0.0000 25.6871 0.0000
# 6 0.0000 0.0000 0.0000 33.1029 0.0000 0.7622
#
#
#
# Elastic Compliance Matrix: (Units=1/GPa)
#
#
# Indices 1 2 3 4 5 6 
#
# 1 0.008519 -0.002746 -0.001743 0.000000 -0.002502 0.000000
# 2 -0.002746 0.012876 -0.004948 0.000000 0.004299 0.000000
# 3 -0.001743 -0.004948 0.018688 0.000000 -0.001480 0.000000
# 4 0.000000 0.000000 0.000000 -0.000672 0.000000 0.029168
# 5 -0.002502 0.004299 -0.001480 0.000000 0.040692 0.000000
# 6 0.000000 0.000000 0.000000 0.029168 0.000000 0.045209
#
#
# Mechanical properties :
#
#
# Convention : Reuss Voigt Hill
#
# Bulk Modulus (GPa) = 47.14524 52.34303 49.74413
# Shear Modulus (GPa) = 33.05676 9.03640 21.04658
#
# Velocity S-wave (km/s) = 4.19717 2.19444 3.34902
# Velocity P-wave (km/s) = 6.97227 5.85789 6.43923
#
# Compressibility (1/GPa) = 0.02121105
#
# Stress axis : x y z
#
# Youngs Moduli (GPa) = 117.38405 77.66437 53.50950
#
# Poissons Ratio (x) = 0.21326 0.09325
# Poissons Ratio (y) = 0.32232 0.26474
# Poissons Ratio (z) = 0.20456 0.38425
#
# Static dielectric constant tensor:
#      x y z
#    x 1.646400 0.000000 -0.012880 
#    y 0.000000 1.650790 0.000000 
#    z -0.012880 0.000000 1.671140 
# 
# From -- ./inp_files/225254.got.cif
#   From: 2010.05.17/outbox.cif.g08.bks.cpg/sg12_113_cif.got.tgz:225254.got - 2010.06.03 13:09:07.
