data_PCOD9205667
_publ_section_title
;
Structure prediction by ZEFSAII (Michael W. Deem and Ramdas Pophale) SiO2 
 PCOD9205667
Probable space group: C 2/M
;
_chemical_formula_sum "Si O2"
_cell_formula_units_Z 58
_cell_length_a 13.012495
_cell_length_b 18.275376
_cell_length_c 28.560726
_cell_angle_alpha 90.000000
_cell_angle_beta 24.704222
_cell_angle_gamma 90.000000
_cell_volume 2838.597803
_symmetry_space_group_name_H-M "C 2/M"
_symmetry_group_IT_number 12
_symmetry_cell_setting 'monoclinic'
loop_
_space_group_symop_operation_xyz
x,y,z
-x,y,-z
-x,-y,-z
x,-y,z
1/2+x,1/2+y,z
1/2-x,1/2+y,-z
1/2-x,1/2-y,-z
1/2+x,1/2-y,z
loop_
_atom_site_type_symbol
_atom_site_label
_atom_site_fract_x
_atom_site_fract_y
_atom_site_fract_z
Si Si1 0.327358 0.917818 0.634572
Si Si2 0.143916 0.796752 0.270218
Si Si3 0.193853 0.857166 0.154909
Si Si4 0.858705 0.912838 0.432957
Si Si5 0.713493 0.083191 0.234504
Si Si6 0.253186 0.672815 0.572269
Si Si7 0.000000 0.500000 0.000000
Si Si8 0.079316 0.204157 0.104454
O O1 0.607337 0.898214 0.508017
O O2 0.321092 0.919419 0.694428
O O3 0.098895 0.869271 0.715412
O O4 0.281520 0.000000 0.636548
O O5 0.257070 0.804746 0.171624
O O6 0.346853 0.753891 0.215972
O O7 0.085398 0.877541 0.312290
O O8 0.896872 0.747807 0.374097
O O9 0.215336 0.822665 0.094608
O O10 0.330277 0.934824 0.095093
O O11 0.834416 0.867396 0.490943
O O12 0.872480 0.000000 0.435167
O O13 0.465616 0.120178 0.317039
O O14 0.950966 0.135021 0.131391
O O15 0.747801 0.000000 0.204323
O O16 0.500000 0.682353 0.500000
O O17 0.250000 0.250000 0.000000
#
# Coordination Sequence:
#
# PCOD9205667 Si02
#       8
#     8   8   8   8   8   8   2   8
#     4   8  15  32  53  82 118 154 189 233 310 367
#     4  11  25  39  60  94 128 163 210 253 315 392
#     4  11  23  38  64  90 123 160 205 264 321 370
#     4  10  22  38  60  90 130 167 208 254 302 384
#     4   8  16  33  57  86 113 150 205 250 299 373
#     4  10  21  35  61  90 125 167 205 249 303 372
#     4  12  24  40  64 102 120 146 222 276 316 390
#     4  10  22  42  61  87 121 164 206 260 323 373
#
# _framework density 20.432624000000001
#
# number of rings (size 3 to 8) (size 9 to 14) (size 15 to 20)
#    0.000    2.207    0.690    3.310    5.793    1.103 
#    0.000    1.379    0.000    0.000    0.000    1.931 
#    0.000    0.000    0.000    0.000    0.000    0.000 
#
# Total GULP energy -161504.155558 kJ/mol
# GULP energy per Si atom -5569.108812 kJ/mol
# Density = 2.038612 g / cm^3
# Si number density = 20.432624 Si / 1000 Ang^3
#
#
#
# Elastic Constant Matrix: (Units=GPa)
#
#
# Indices 1 2 3 4 5 6 
#
# 1 53.6076 23.5633 19.7619 -0.0400 -4.6268 -0.0055
# 2 23.5633 112.3555 46.8546 -0.0240 4.3738 -0.0033
# 3 19.7619 46.8546 70.2055 0.2163 -1.2937 -0.0647
# 4 -0.0400 -0.0240 0.2163 40.3065 0.0070 -1.2049
# 5 -4.6268 4.3738 -1.2937 0.0070 19.7367 -0.0052
# 6 -0.0055 -0.0033 -0.0647 -1.2049 -0.0052 14.0494
#
#
#
# Elastic Compliance Matrix: (Units=1/GPa)
#
#
# Indices 1 2 3 4 5 6 
#
# 1 0.021997 -0.003176 -0.003969 0.000040 0.005600 -0.000005
# 2 -0.003176 0.013007 -0.007863 0.000047 -0.004142 -0.000032
# 3 -0.003969 -0.007863 0.020649 -0.000117 0.002166 0.000083
# 4 0.000040 0.000047 -0.000117 0.024874 -0.000017 0.002133
# 5 0.005600 -0.004142 0.002166 -0.000017 0.053040 0.000029
# 6 -0.000005 -0.000032 0.000083 0.002133 0.000029 0.071360
#
#
# Mechanical properties :
#
#
# Convention : Reuss Voigt Hill
#
# Bulk Modulus (GPa) = 39.00715 46.28091 42.64403
# Shear Modulus (GPa) = 20.53481 24.55112 22.54297
#
# Velocity S-wave (km/s) = 3.17361 3.47012 3.32517
# Velocity P-wave (km/s) = 5.70624 6.22538 5.97145
#
# Compressibility (1/GPa) = 0.02563632
#
# Stress axis : x y z
#
# Youngs Moduli (GPa) = 45.46159 76.88322 48.42784
#
# Poissons Ratio (x) = 0.24418 0.19221
# Poissons Ratio (y) = 0.14438 0.38079
# Poissons Ratio (z) = 0.18044 0.60454
#
# Static dielectric constant tensor:
#      x y z
#    x 1.759470 0.000020 -0.004820 
#    y 0.000020 1.728760 -0.000020 
#    z -0.004820 -0.000020 1.775250 
# 
# From -- ./inp_files/358781.got.cif
#   From: 2010.05.17/outbox.cif.g08.bks.cpg/sg12_180_cif.got.tgz:358781.got - 2010.06.03 13:09:07.
