data_PCOD9205557
_publ_section_title
;
Structure prediction by ZEFSAII (Michael W. Deem and Ramdas Pophale) SiO2 
 PCOD9205557
Probable space group: C 2/M
;
_chemical_formula_sum "Si O2"
_cell_formula_units_Z 48
_cell_length_a 26.179794
_cell_length_b 13.899075
_cell_length_c 11.930222
_cell_angle_alpha 90.000000
_cell_angle_beta 145.946128
_cell_angle_gamma 90.000000
_cell_volume 2430.899920
_symmetry_space_group_name_H-M "C 2/M"
_symmetry_group_IT_number 12
_symmetry_cell_setting 'monoclinic'
loop_
_space_group_symop_operation_xyz
x,y,z
-x,y,-z
-x,-y,-z
x,-y,z
1/2+x,1/2+y,z
1/2-x,1/2+y,-z
1/2-x,1/2-y,-z
1/2+x,1/2-y,z
loop_
_atom_site_type_symbol
_atom_site_label
_atom_site_fract_x
_atom_site_fract_y
_atom_site_fract_z
Si Si1 0.976804 0.760079 0.263984
Si Si2 0.813578 0.883331 0.079201
Si Si3 0.238647 0.823473 0.580278
Si Si4 0.938022 0.389491 0.996525
Si Si5 0.173729 0.254292 0.699455
Si Si6 0.955123 0.892697 0.807325
O O1 0.896367 0.816477 0.181704
O O2 0.949780 0.674295 0.130073
O O3 0.064715 0.730813 0.496921
O O4 0.014765 0.838692 0.247399
O O5 0.804917 0.842356 0.189811
O O6 0.825519 0.000000 0.094871
O O7 0.725982 0.843659 0.851624
O O8 0.250000 0.750000 0.500000
O O9 0.211283 0.765363 0.643104
O O10 0.153549 0.888961 0.390255
O O11 0.332880 0.877770 0.770477
O O12 0.960001 0.500000 0.062521
O O13 0.000000 0.363167 0.000000
O O14 0.990980 0.000000 0.865514
O O15 0.000000 0.848847 0.000000
#
# Coordination Sequence:
#
# PCOD9205557 Si02
#       6
#     8   8   8   8   8   8
#     4  11  21  41  65  92 129 168 216 270 326 380
#     4  11  24  44  69  97 131 173 221 273 327 392
#     4  11  21  40  65  88 127 169 205 263 322 382
#     4  11  23  39  61  92 129 174 217 257 319 395
#     4  10  24  42  64  97 129 168 215 268 331 387
#     4  10  21  35  57  92 126 161 208 261 322 382
#
# _framework density 19.745774000000001
#
# number of rings (size 3 to 8) (size 9 to 14) (size 15 to 20)
#    0.000    1.333    1.667    5.000    0.000    5.333 
#    0.000    0.833    0.000    3.000    0.000    0.000 
#    0.000    0.000    0.000    0.000    0.000    0.000 
#
# Total GULP energy -133881.318511 kJ/mol
# GULP energy per Si atom -5578.388271 kJ/mol
# Density = 1.970083 g / cm^3
# Si number density = 19.745774 Si / 1000 Ang^3
#
#
#
# Elastic Constant Matrix: (Units=GPa)
#
#
# Indices 1 2 3 4 5 6 
#
# 1 102.5141 43.1254 40.1404 0.0000 -8.6213 0.0000
# 2 43.1254 134.4983 31.7379 0.0000 -7.3755 0.0000
# 3 40.1404 31.7379 140.8286 0.0000 2.1944 0.0000
# 4 0.0000 0.0000 0.0000 25.7332 0.0000 -3.6525
# 5 -8.6213 -7.3755 2.1944 0.0000 31.3819 0.0000
# 6 0.0000 0.0000 0.0000 -3.6525 0.0000 31.5469
#
#
#
# Elastic Compliance Matrix: (Units=1/GPa)
#
#
# Indices 1 2 3 4 5 6 
#
# 1 0.012453 -0.003155 -0.002884 0.000000 0.002881 0.000000
# 2 -0.003155 0.008775 -0.001098 0.000000 0.001273 0.000000
# 3 -0.002884 -0.001098 0.008196 0.000000 -0.001623 0.000000
# 4 0.000000 0.000000 0.000000 0.039510 0.000000 0.004574
# 5 0.002881 0.001273 -0.001623 0.000000 0.033070 0.000000
# 6 0.000000 0.000000 0.000000 0.004574 0.000000 0.032228
#
#
# Mechanical properties :
#
#
# Convention : Reuss Voigt Hill
#
# Bulk Modulus (GPa) = 66.00068 67.53872 66.76970
# Shear Modulus (GPa) = 32.56157 35.25489 33.90823
#
# Velocity S-wave (km/s) = 4.06524 4.23003 4.14845
# Velocity P-wave (km/s) = 7.45203 7.62469 7.53885
#
# Compressibility (1/GPa) = 0.01515136
#
# Stress axis : x y z
#
# Youngs Moduli (GPa) = 80.30073 113.95377 122.01746
#
# Poissons Ratio (x) = 0.35947 0.35184
# Poissons Ratio (y) = 0.25331 0.13402
# Poissons Ratio (z) = 0.23155 0.12517
#
# Static dielectric constant tensor:
#      x y z
#    x 1.787480 0.000000 -0.020640 
#    y 0.000000 1.732360 0.000000 
#    z -0.020640 0.000000 1.809270 
# 
# From -- ./inp_files/183866.got.cif
#   From: 2010.05.17/outbox.cif.g08.bks.cpg/sg12_92_cif.got.tgz:183866.got - 2010.06.03 13:09:07.
