data_PCOD9205241
_publ_section_title
;
Structure prediction by ZEFSAII (Michael W. Deem and Ramdas Pophale) SiO2 
 PCOD9205241
Probable space group: C 2/M
;
_chemical_formula_sum "Si O2"
_cell_formula_units_Z 56
_cell_length_a 22.427412
_cell_length_b 16.429775
_cell_length_c 10.099642
_cell_angle_alpha 90.000000
_cell_angle_beta 53.235942
_cell_angle_gamma 90.000000
_cell_volume 2981.310950
_symmetry_space_group_name_H-M "C 2/M"
_symmetry_group_IT_number 12
_symmetry_cell_setting 'monoclinic'
loop_
_space_group_symop_operation_xyz
x,y,z
-x,y,-z
-x,-y,-z
x,-y,z
1/2+x,1/2+y,z
1/2-x,1/2+y,-z
1/2-x,1/2-y,-z
1/2+x,1/2-y,z
loop_
_atom_site_type_symbol
_atom_site_label
_atom_site_fract_x
_atom_site_fract_y
_atom_site_fract_z
Si Si1 0.651830 0.905289 0.434628
Si Si2 0.495723 0.904787 0.667158
Si Si3 0.218994 0.802511 0.662016
Si Si4 0.712281 0.687521 0.205760
Si Si5 0.428695 0.403590 0.188907
Si Si6 0.431923 0.403092 0.495305
Si Si7 0.657420 0.162092 0.131760
O O1 0.576265 0.868655 0.597553
O O2 0.725973 0.879182 0.406452
O O3 0.659632 0.881737 0.270885
O O4 0.639632 0.000000 0.457580
O O5 0.500000 0.902215 0.500000
O O6 0.424806 0.855576 0.811412
O O7 0.486085 0.000000 0.716558
O O8 0.250000 0.750000 0.500000
O O9 0.240511 0.747186 0.760532
O O10 0.136842 0.839818 0.760221
O O11 0.645799 0.641402 0.367611
O O12 0.672496 0.743940 0.147902
O O13 0.774931 0.633939 0.050340
O O14 0.405734 0.500000 0.205451
O O15 0.448564 0.391395 0.317627
O O16 0.500000 0.391915 0.000000
O O17 0.500000 0.375090 0.500000
O O18 0.422722 0.500000 0.530588
#
# Coordination Sequence:
#
# PCOD9205241 Si02
#       7
#     8   8   8   8   8   8   8
#     4   9  18  32  55  81 108 147 190 232 282 343
#     4   8  14  28  49  76 106 138 176 215 265 329
#     4  11  21  38  57  82 113 150 192 236 291 348
#     4  10  21  35  52  82 116 147 187 231 295 359
#     4  10  22  42  65  88 116 157 208 252 292 353
#     4  10  22  39  59  83 113 152 197 250 308 356
#     4   9  18  31  50  82 117 143 179 228 283 351
#
# _framework density 18.783683
#
# number of rings (size 3 to 8) (size 9 to 14) (size 15 to 20)
#    0.000    2.429    1.429    1.714    0.000    7.429 
#    2.571    1.429    0.000    0.000    0.000    2.000 
#    0.000    0.000    0.000    0.000    0.000    0.000 
#
# Total GULP energy -155896.401943 kJ/mol
# GULP energy per Si atom -5567.728641 kJ/mol
# Density = 1.874093 g / cm^3
# Si number density = 18.783683 Si / 1000 Ang^3
#
#
#
# Elastic Constant Matrix: (Units=GPa)
#
#
# Indices 1 2 3 4 5 6 
#
# 1 86.2851 31.2802 60.9457 0.0000 -22.7870 0.0000
# 2 31.2802 38.6899 48.0515 0.0000 -14.3029 0.0000
# 3 60.9457 48.0515 158.2787 0.0000 -23.9262 0.0000
# 4 0.0000 0.0000 0.0000 52.8284 0.0000 17.7619
# 5 -22.7870 -14.3029 -23.9262 0.0000 25.3234 0.0000
# 6 0.0000 0.0000 0.0000 17.7619 0.0000 57.3157
#
#
#
# Elastic Compliance Matrix: (Units=1/GPa)
#
#
# Indices 1 2 3 4 5 6 
#
# 1 0.019564 -0.007510 -0.003772 0.000000 0.009799 0.000000
# 2 -0.007510 0.048714 -0.010219 0.000000 0.011101 0.000000
# 3 -0.003772 -0.010219 0.011068 0.000000 0.001291 0.000000
# 4 0.000000 0.000000 0.000000 0.021131 0.000000 -0.006548
# 5 0.009799 0.011101 0.001291 0.000000 0.055797 0.000000
# 6 0.000000 0.000000 0.000000 -0.006548 0.000000 0.019477
#
#
# Mechanical properties :
#
#
# Convention : Reuss Voigt Hill
#
# Bulk Modulus (GPa) = 27.51522 62.64539 45.08031
# Shear Modulus (GPa) = 21.65750 36.62526 29.14138
#
# Velocity S-wave (km/s) = 3.39926 4.42049 3.94308
# Velocity P-wave (km/s) = 5.48515 7.71218 6.69196
#
# Compressibility (1/GPa) = 0.03634352
#
# Stress axis : x y z
#
# Youngs Moduli (GPa) = 51.11394 20.52803 90.35082
#
# Poissons Ratio (x) = 0.15417 0.34080
# Poissons Ratio (y) = 0.38388 0.92330
# Poissons Ratio (z) = 0.19280 0.20978
#
# Static dielectric constant tensor:
#      x y z
#    x 1.709210 0.000000 -0.029670 
#    y 0.000000 1.348920 0.000000 
#    z -0.029670 0.000000 1.669690 
# 
# From -- ./inp_files/177068.got.cif
#   From: 2010.05.17/outbox.cif.g08.bks.cpg/sg12_89_cif.got.tgz:177068.got - 2010.06.03 13:09:07.
