data_PCOD9205888
_publ_section_title
;
Structure prediction by ZEFSAII (Michael W. Deem and Ramdas Pophale) SiO2 
 PCOD9205888
Probable space group: C 2/M
;
_chemical_formula_sum "Si O2"
_cell_formula_units_Z 64
_cell_length_a 18.526666
_cell_length_b 8.649568
_cell_length_c 31.291566
_cell_angle_alpha 90.000000
_cell_angle_beta 137.660346
_cell_angle_gamma 90.000000
_cell_volume 3377.320077
_symmetry_space_group_name_H-M "C 2/M"
_symmetry_group_IT_number 12
_symmetry_cell_setting 'monoclinic'
loop_
_space_group_symop_operation_xyz
x,y,z
-x,y,-z
-x,-y,-z
x,-y,z
1/2+x,1/2+y,z
1/2-x,1/2+y,-z
1/2-x,1/2-y,-z
1/2+x,1/2-y,z
loop_
_atom_site_type_symbol
_atom_site_label
_atom_site_fract_x
_atom_site_fract_y
_atom_site_fract_z
Si Si1 0.600160 0.684987 0.312201
Si Si2 0.690834 0.186580 0.185675
Si Si3 0.378875 0.686803 0.936403
Si Si4 0.566524 0.313635 0.686306
Si Si5 0.994804 0.684205 0.431795
Si Si6 0.215042 0.313291 0.938898
Si Si7 0.666329 0.315512 0.568409
Si Si8 0.027844 0.312949 0.189332
O O1 0.611790 0.500000 0.316594
O O2 0.508296 0.725314 0.306241
O O3 0.712382 0.759417 0.375043
O O4 0.566808 0.743796 0.250972
O O5 0.657949 0.252127 0.125505
O O6 0.811103 0.233949 0.251053
O O7 0.606816 0.234109 0.185486
O O8 0.689193 0.000000 0.182556
O O9 0.377658 0.500000 0.934774
O O10 0.297382 0.737362 0.937988
O O11 0.500000 0.737009 0.000000
O O12 0.564990 0.500000 0.680136
O O13 0.522995 0.237067 0.624266
O O14 0.993348 0.500000 0.434779
O O15 0.104377 0.748463 0.500224
O O16 0.900097 0.753505 0.419818
O O17 0.217249 0.500000 0.941512
O O18 0.093931 0.265985 0.874381
O O19 0.250000 0.250000 0.000000
O O20 0.660627 0.500000 0.565370
O O21 0.031071 0.500000 0.193855
#
# Coordination Sequence:
#
# PCOD9205888 Si02
#       8
#     8   8   8   8   8   8   8   8
#     4  11  23  38  58  85 115 149 193 239 283 341
#     4  10  21  37  58  82 108 144 187 230 280 340
#     4  10  21  36  54  79 112 147 184 230 283 336
#     4  10  22  39  57  82 117 152 188 234 290 346
#     4  11  22  38  62  90 117 148 193 239 280 337
#     4  10  21  36  55  81 112 147 188 233 282 339
#     4  11  22  39  62  85 116 155 190 232 289 341
#     4  10  21  37  57  82 112 146 188 237 291 349
#
# _framework density 18.949935
#
# number of rings (size 3 to 8) (size 9 to 14) (size 15 to 20)
#    0.000    1.625    0.000    5.625    0.000    4.750 
#    0.000    0.000    0.000    0.000    0.000    0.000 
#    0.000    0.000    0.000    0.000    0.000    0.000 
#
# Total GULP energy -178920.808826 kJ/mol
# GULP energy per Si atom -5591.275276 kJ/mol
# Density = 1.890680 g / cm^3
# Si number density = 18.949935 Si / 1000 Ang^3
#
#
#
# Elastic Constant Matrix: (Units=GPa)
#
#
# Indices 1 2 3 4 5 6 
#
# 1 184.6901 57.1328 131.2351 0.0000 -0.2637 0.0000
# 2 57.1328 50.9210 54.3992 0.0000 0.6145 0.0001
# 3 131.2351 54.3992 188.9901 0.0000 0.5262 0.0000
# 4 0.0000 0.0000 0.0000 34.4070 0.0000 -12.1087
# 5 -0.2637 0.6145 0.5262 0.0000 42.6041 0.0000
# 6 0.0000 0.0001 0.0000 -12.1087 0.0000 9.0970
#
#
#
# Elastic Compliance Matrix: (Units=1/GPa)
#
#
# Indices 1 2 3 4 5 6 
#
# 1 0.012061 -0.006624 -0.006469 0.000000 0.000250 0.000000
# 2 -0.006624 0.032001 -0.004610 0.000000 -0.000446 -0.000001
# 3 -0.006469 -0.004610 0.011111 0.000000 -0.000111 0.000000
# 4 0.000000 0.000000 0.000000 0.054676 0.000000 0.072777
# 5 0.000250 -0.000446 -0.000111 0.000000 0.023481 0.000000
# 6 0.000000 -0.000001 0.000000 0.072777 0.000000 0.206796
#
#
# Mechanical properties :
#
#
# Convention : Reuss Voigt Hill
#
# Bulk Modulus (GPa) = 50.59253 101.12613 75.85933
# Shear Modulus (GPa) = 13.08488 29.34390 21.21439
#
# Velocity S-wave (km/s) = 2.63058 3.93936 3.34952
# Velocity P-wave (km/s) = 5.99855 8.61233 7.42141
#
# Compressibility (1/GPa) = 0.01976576
#
# Stress axis : x y z
#
# Youngs Moduli (GPa) = 82.91512 31.24915 90.00431
#
# Poissons Ratio (x) = 0.20700 0.58223
# Poissons Ratio (y) = 0.54924 0.41493
# Poissons Ratio (z) = 0.53637 0.14406
#
# Static dielectric constant tensor:
#      x y z
#    x 1.636750 0.000000 0.018230 
#    y 0.000000 1.639530 0.000000 
#    z 0.018230 0.000000 1.616810 
# 
# From -- ./inp_files/378316.got.cif
#   From: 2010.05.17/outbox.cif.g08.bks.cpg/sg12_190_cif.got.tgz:378316.got - 2010.06.03 13:09:07.
