data_PCOD9205934
_publ_section_title
;
Structure prediction by ZEFSAII (Michael W. Deem and Ramdas Pophale) SiO2 
 PCOD9205934
Probable space group: C 2/M
;
_chemical_formula_sum "Si O2"
_cell_formula_units_Z 48
_cell_length_a 9.528744
_cell_length_b 20.136942
_cell_length_c 14.175856
_cell_angle_alpha 90.000000
_cell_angle_beta 115.938394
_cell_angle_gamma 90.000000
_cell_volume 2446.054346
_symmetry_space_group_name_H-M "C 2/M"
_symmetry_group_IT_number 12
_symmetry_cell_setting 'monoclinic'
loop_
_space_group_symop_operation_xyz
x,y,z
-x,y,-z
-x,-y,-z
x,-y,z
1/2+x,1/2+y,z
1/2-x,1/2+y,-z
1/2-x,1/2-y,-z
1/2+x,1/2-y,z
loop_
_atom_site_type_symbol
_atom_site_label
_atom_site_fract_x
_atom_site_fract_y
_atom_site_fract_z
Si Si1 0.662522 0.693859 0.871947
Si Si2 0.046169 0.297557 0.706764
Si Si3 0.289313 0.275983 0.408837
Si Si4 0.475137 0.424806 0.708823
Si Si5 0.000000 0.103063 0.500000
Si Si6 0.893746 0.577898 0.376460
Si Si7 0.500000 0.762710 0.000000
O O1 0.660251 0.762053 0.810906
O O2 0.580826 0.633155 0.788722
O O3 0.848299 0.688876 0.943305
O O4 0.559732 0.713509 0.933325
O O5 0.090027 0.265091 0.618292
O O6 0.052595 0.375289 0.692345
O O7 0.875789 0.276841 0.690824
O O8 0.250000 0.250000 0.500000
O O9 0.352151 0.348953 0.445386
O O10 0.502940 0.500000 0.755048
O O11 0.494894 0.429220 0.601103
O O12 0.290722 0.407926 0.665120
O O13 0.912090 0.500000 0.363252
O O14 0.000000 0.592738 0.500000
#
# Coordination Sequence:
#
# PCOD9205934 Si02
#       7
#     8   8   8   8   4   8   4
#     4  11  22  43  66  95 118 155 205 264 328 369
#     4  12  21  34  60  84 118 158 202 254 303 360
#     4  12  20  31  51  87 122 163 208 243 284 342
#     4  11  23  39  60  89 131 171 206 245 301 373
#     4  12  21  34  54  90 129 174 206 234 287 362
#     4  10  21  36  54  83 127 174 213 246 283 348
#     4  10  24  42  72  92 114 144 206 282 328 374
#
# _framework density 19.623439000000001
#
# number of rings (size 3 to 8) (size 9 to 14) (size 15 to 20)
#    0.000    0.833    3.333    6.250    0.000    0.000 
#    0.000    1.667    0.000    4.000    0.000    0.000 
#    0.000    0.000    0.000    0.000    0.000    0.000 
#
# Total GULP energy -133742.636536 kJ/mol
# GULP energy per Si atom -5572.609856 kJ/mol
# Density = 1.957878 g / cm^3
# Si number density = 19.623439 Si / 1000 Ang^3
#
#
#
# Elastic Constant Matrix: (Units=GPa)
#
#
# Indices 1 2 3 4 5 6 
#
# 1 121.5753 34.6732 40.4454 0.0000 13.3948 0.0000
# 2 34.6732 94.1466 38.2956 0.0000 10.6958 0.0000
# 3 40.4454 38.2956 77.1533 0.0000 0.6565 0.0000
# 4 0.0000 0.0000 0.0000 20.3884 0.0000 -5.2957
# 5 13.3948 10.6958 0.6565 0.0000 41.5598 0.0000
# 6 0.0000 0.0000 0.0000 -5.2957 0.0000 18.7940
#
#
#
# Elastic Compliance Matrix: (Units=1/GPa)
#
#
# Indices 1 2 3 4 5 6 
#
# 1 0.010582 -0.001654 -0.004701 0.000000 -0.002911 0.000000
# 2 -0.001654 0.014042 -0.006077 0.000000 -0.002985 0.000000
# 3 -0.004701 -0.006077 0.018419 0.000000 0.002788 0.000000
# 4 0.000000 0.000000 0.000000 0.052921 0.000000 0.014912
# 5 -0.002911 -0.002985 0.002788 0.000000 0.025724 0.000000
# 6 0.000000 0.000000 0.000000 0.014912 0.000000 0.057410
#
#
# Mechanical properties :
#
#
# Convention : Reuss Voigt Hill
#
# Bulk Modulus (GPa) = 55.01546 57.74483 56.38015
# Shear Modulus (GPa) = 23.80701 28.11249 25.95975
#
# Velocity S-wave (km/s) = 3.48687 3.78907 3.64111
# Velocity P-wave (km/s) = 6.65639 6.97374 6.81691
#
# Compressibility (1/GPa) = 0.01817671
#
# Stress axis : x y z
#
# Youngs Moduli (GPa) = 94.50136 71.21456 54.29295
#
# Poissons Ratio (x) = 0.11780 0.25525
# Poissons Ratio (y) = 0.15632 0.32996
# Poissons Ratio (z) = 0.44429 0.43280
#
# Static dielectric constant tensor:
#      x y z
#    x 1.744840 0.000000 0.035200 
#    y 0.000000 1.703480 0.000000 
#    z 0.035200 0.000000 1.771460 
# 
# From -- ./inp_files/197218.got.cif
#   From: 2010.05.17/outbox.cif.g08.bks.cpg/sg12_99_cif.got.tgz:197218.got - 2010.06.03 13:09:07.
