data_PCOD9205630
_publ_section_title
;
Structure prediction by ZEFSAII (Michael W. Deem and Ramdas Pophale) SiO2 
 PCOD9205630
Probable space group: C 2/M
;
_chemical_formula_sum "Si O2"
_cell_formula_units_Z 42
_cell_length_a 13.146376
_cell_length_b 28.007683
_cell_length_c 5.432403
_cell_angle_alpha 90.000000
_cell_angle_beta 119.506918
_cell_angle_gamma 90.000000
_cell_volume 1740.773697
_symmetry_space_group_name_H-M "C 2/M"
_symmetry_group_IT_number 12
_symmetry_cell_setting 'monoclinic'
loop_
_space_group_symop_operation_xyz
x,y,z
-x,y,-z
-x,-y,-z
x,-y,z
1/2+x,1/2+y,z
1/2-x,1/2+y,-z
1/2-x,1/2-y,-z
1/2+x,1/2-y,z
loop_
_atom_site_type_symbol
_atom_site_label
_atom_site_fract_x
_atom_site_fract_y
_atom_site_fract_z
Si Si1 0.317044 0.323157 0.004226
Si Si2 0.784067 0.445837 0.591429
Si Si3 0.844907 0.728367 0.798658
Si Si4 0.000000 0.000000 0.000000
Si Si5 0.864153 0.073553 0.093705
Si Si6 0.100111 0.355333 0.425573
O O1 0.382790 0.275082 0.998327
O O2 0.392173 0.370083 0.143646
O O3 0.224734 0.342803 0.695069
O O4 0.230892 0.306828 0.119673
O O5 0.830907 0.500000 0.647371
O O6 0.712654 0.440489 0.245630
O O7 0.876535 0.402527 0.704433
O O8 0.707644 0.439365 0.747097
O O9 0.750000 0.750000 0.500000
O O10 0.928491 0.694958 0.737204
O O11 0.975644 0.958474 0.178731
O O12 0.000000 0.366005 0.500000
#
# Coordination Sequence:
#
# PCOD9205630 Si02
#       6
#     8   8   8   2   8   8
#     4   9  19  37  59  85 122 165 201 253 323 375
#     4  11  21  41  62  86 127 165 198 256 324 370
#     4   9  17  35  61  83 114 162 203 249 318 374
#     4  12  24  42  68  98 118 166 224 266 314 378
#     4  11  23  39  63  91 123 162 209 258 318 378
#     4  10  21  35  59  91 121 164 213 255 301 377
#
# _framework density 24.127203000000002
#
# number of rings (size 3 to 8) (size 9 to 14) (size 15 to 20)
#    0.000    1.905    3.810    0.000    0.000    2.667 
#    0.000    5.714    0.000    3.429    0.000    0.000 
#    0.000    0.000    0.000    0.000    0.000    0.000 
#
# Total GULP energy -116971.119802 kJ/mol
# GULP energy per Si atom -5570.053324 kJ/mol
# Density = 2.407229 g / cm^3
# Si number density = 24.127203 Si / 1000 Ang^3
#
#
#
# Elastic Constant Matrix: (Units=GPa)
#
#
# Indices 1 2 3 4 5 6 
#
# 1 97.4973 61.5600 10.4005 0.0000 -41.5162 0.0000
# 2 61.5600 264.4730 13.1638 0.0000 -37.2975 0.0000
# 3 10.4005 13.1638 74.9633 0.0000 -13.1418 0.0000
# 4 0.0000 0.0000 0.0000 15.6148 0.0000 -82.4623
# 5 -41.5162 -37.2975 -13.1418 0.0000 45.0228 0.0000
# 6 0.0000 0.0000 0.0000 -82.4623 0.0000 766.1435
#
#
#
# Elastic Compliance Matrix: (Units=1/GPa)
#
#
# Indices 1 2 3 4 5 6 
#
# 1 0.017857 -0.002082 0.000498 0.000000 0.014887 0.000000
# 2 -0.002082 0.004525 -0.000195 0.000000 0.001772 0.000000
# 3 0.000498 -0.000195 0.014078 0.000000 0.004407 0.000000
# 4 0.000000 0.000000 0.000000 0.148386 0.000000 0.015971
# 5 0.014887 0.001772 0.004407 0.000000 0.038693 0.000000
# 6 0.000000 0.000000 0.000000 0.015971 0.000000 0.003024
#
#
# Mechanical properties :
#
#
# Convention : Reuss Voigt Hill
#
# Bulk Modulus (GPa) = 30.39329 67.46471 48.92900
# Shear Modulus (GPa) = 20.73919 188.81017 104.77468
#
# Velocity S-wave (km/s) = 2.93504 8.85585 6.59699
# Velocity P-wave (km/s) = 4.91023 11.51481 8.85159
#
# Compressibility (1/GPa) = 0.03290200
#
# Stress axis : x y z
#
# Youngs Moduli (GPa) = 55.99949 220.97877 71.03499
#
# Poissons Ratio (x) = 0.46005 -0.03537
# Poissons Ratio (y) = 0.11658 0.01386
# Poissons Ratio (z) = -0.02788 0.04312
#
# Static dielectric constant tensor:
#      x y z
#    x 1.968870 0.000000 0.079640 
#    y 0.000000 2.055910 0.000000 
#    z 0.079640 0.000000 2.002030 
# 
# From -- ./inp_files/8430.got.cif
#   From: 2010.05.17/outbox.cif.g08.bks.cpg/sg12_5_cif.got.tgz:8430.got - 2010.06.03 13:09:07.
