data_PCOD9205815
_publ_section_title
;
Structure prediction by ZEFSAII (Michael W. Deem and Ramdas Pophale) SiO2 
 PCOD9205815
Probable space group: C 2/M
;
_chemical_formula_sum "Si O2"
_cell_formula_units_Z 56
_cell_length_a 30.912035
_cell_length_b 13.235458
_cell_length_c 5.580395
_cell_angle_alpha 90.000000
_cell_angle_beta 91.926375
_cell_angle_gamma 90.000000
_cell_volume 2281.844260
_symmetry_space_group_name_H-M "C 2/M"
_symmetry_group_IT_number 12
_symmetry_cell_setting 'monoclinic'
loop_
_space_group_symop_operation_xyz
x,y,z
-x,y,-z
-x,-y,-z
x,-y,z
1/2+x,1/2+y,z
1/2-x,1/2+y,-z
1/2-x,1/2-y,-z
1/2+x,1/2-y,z
loop_
_atom_site_type_symbol
_atom_site_label
_atom_site_fract_x
_atom_site_fract_y
_atom_site_fract_z
Si Si1 0.592914 0.889942 0.279625
Si Si2 0.739195 0.620254 0.745960
Si Si3 0.058023 0.158902 0.762318
Si Si4 0.191217 0.120541 0.230731
Si Si5 0.958696 0.179386 0.732071
Si Si6 0.359751 0.225698 0.068327
Si Si7 0.317073 0.114614 0.439680
O O1 0.564150 0.789351 0.290608
O O2 0.633274 0.889588 0.467873
O O3 0.571157 0.000000 0.289080
O O4 0.617808 0.873840 0.033450
O O5 0.741768 0.500000 0.759532
O O6 0.724642 0.643917 0.015801
O O7 0.786097 0.651062 0.649545
O O8 0.708098 0.637884 0.505400
O O9 0.055105 0.113209 0.498890
O O10 0.102763 0.219545 0.774155
O O11 0.009684 0.207345 0.749039
O O12 0.055182 0.119503 0.032063
O O13 0.152602 0.194954 0.143597
O O14 0.180746 0.000000 0.211610
O O15 0.319203 0.189078 0.216209
O O16 0.303211 0.000000 0.370721
#
# Coordination Sequence:
#
# PCOD9205815 Si02
#       7
#     8   8   8   8   8   8   8
#     4  10  21  36  53  82 116 155 192 227 270 330
#     4   9  21  40  58  80 113 150 185 233 287 335
#     4   9  18  32  53  77 107 143 186 224 271 317
#     4  10  23  41  61  82 109 145 191 239 287 338
#     4   9  17  34  51  75 108 148 185 217 267 323
#     4  11  22  35  58  82 114 144 194 233 286 328
#     4  10  21  36  55  80 117 153 186 230 280 332
#
# _framework density 24.541553
#
# number of rings (size 3 to 8) (size 9 to 14) (size 15 to 20)
#    0.000    2.286    1.429    0.429    4.000    1.143 
#    0.000    7.857    0.000    0.000    0.000   10.000 
#    0.000    0.000    0.000    0.000    0.000    0.000 
#
# Total GULP energy -155880.159809 kJ/mol
# GULP energy per Si atom -5567.148565 kJ/mol
# Density = 2.448570 g / cm^3
# Si number density = 24.541553 Si / 1000 Ang^3
#
#
#
# Elastic Constant Matrix: (Units=GPa)
#
#
# Indices 1 2 3 4 5 6 
#
# 1 57.4180 19.9804 8.3069 0.0000 7.2457 0.0000
# 2 19.9804 117.4792 -0.1877 0.0000 1.9792 0.0000
# 3 8.3069 -0.1877 114.5093 0.0000 -3.8527 0.0000
# 4 0.0000 0.0000 0.0000 -4.2766 0.0000 25.5218
# 5 7.2457 1.9792 -3.8527 0.0000 39.2996 0.0000
# 6 0.0000 0.0000 0.0000 25.5218 0.0000 -44.9144
#
#
#
# Elastic Compliance Matrix: (Units=1/GPa)
#
#
# Indices 1 2 3 4 5 6 
#
# 1 0.019197 -0.003208 -0.001517 0.000000 -0.003526 0.000000
# 2 -0.003208 0.009055 0.000253 0.000000 0.000160 0.000000
# 3 -0.001517 0.000253 0.008882 0.000000 0.001138 0.000000
# 4 0.000000 0.000000 0.000000 0.097793 0.000000 0.055569
# 5 -0.003526 0.000160 0.001138 0.000000 0.026199 0.000000
# 6 0.000000 0.000000 0.000000 0.055569 0.000000 0.009312
#
#
# Mechanical properties :
#
#
# Convention : Reuss Voigt Hill
#
# Bulk Modulus (GPa) = 35.47245 38.40065 36.93655
# Shear Modulus (GPa) = 26.48623 15.44216 20.96419
#
# Velocity S-wave (km/s) = 3.28874 2.51116 2.92590
# Velocity P-wave (km/s) = 5.37648 4.90806 5.14760
#
# Compressibility (1/GPa) = 0.02819089
#
# Stress axis : x y z
#
# Youngs Moduli (GPa) = 52.09188 110.43074 112.59207
#
# Poissons Ratio (x) = 0.35426 0.17075
# Poissons Ratio (y) = 0.16711 -0.02848
# Poissons Ratio (z) = 0.07900 -0.02793
#
# Static dielectric constant tensor:
#      x y z
#    x 1.978000 0.000000 -0.017470 
#    y 0.000000 1.931190 0.000000 
#    z -0.017470 0.000000 2.068780 
# 
# From -- ./inp_files/31522.got.cif
#   From: 2010.05.17/outbox.cif.g08.bks.cpg/sg12_16_cif.got.tgz:31522.got - 2010.06.03 13:09:07.
