data_PCOD9205029
_publ_section_title
;
Structure prediction by ZEFSAII (Michael W. Deem and Ramdas Pophale) SiO2 
 PCOD9205029
Probable space group: C 2/M
;
_chemical_formula_sum "Si O2"
_cell_formula_units_Z 48
_cell_length_a 20.277972
_cell_length_b 17.154025
_cell_length_c 11.835438
_cell_angle_alpha 90.000000
_cell_angle_beta 36.501119
_cell_angle_gamma 90.000000
_cell_volume 2448.916358
_symmetry_space_group_name_H-M "C 2/M"
_symmetry_group_IT_number 12
_symmetry_cell_setting 'monoclinic'
loop_
_space_group_symop_operation_xyz
x,y,z
-x,y,-z
-x,-y,-z
x,-y,z
1/2+x,1/2+y,z
1/2-x,1/2+y,-z
1/2-x,1/2-y,-z
1/2+x,1/2-y,z
loop_
_atom_site_type_symbol
_atom_site_label
_atom_site_fract_x
_atom_site_fract_y
_atom_site_fract_z
Si Si1 0.126608 0.414418 0.366091
Si Si2 0.090048 0.500000 0.044494
Si Si3 0.815641 0.642356 0.472337
Si Si4 0.116238 0.252803 0.814607
Si Si5 0.116556 0.254543 0.274621
Si Si6 0.166964 0.500000 0.686287
Si Si7 0.336378 0.830961 0.013021
O O1 0.177340 0.500000 0.273575
O O2 0.129590 0.397813 0.495345
O O3 0.171054 0.335448 0.247469
O O4 0.000000 0.417875 0.500000
O O5 0.960035 0.500000 0.188384
O O6 0.155727 0.500000 0.835184
O O7 0.124606 0.419985 0.058187
O O8 0.892670 0.694810 0.286043
O O9 0.716814 0.695089 0.654601
O O10 0.774709 0.575558 0.444292
O O11 0.140486 0.306920 0.889514
O O12 0.000000 0.212209 0.000000
O O13 0.205794 0.186616 0.171365
O O14 0.000000 0.242558 0.500000
O O15 0.103056 0.274565 0.161098
#
# Coordination Sequence:
#
# PCOD9205029 Si02
#       7
#     8   4   8   8   8   4   8
#     4  10  21  34  57  89 119 153 194 245 305 357
#     4  11  24  36  61  92 128 152 202 252 313 350
#     4  11  22  39  60  88 123 154 200 248 306 363
#     4  11  24  38  60  88 121 162 201 250 299 360
#     4  10  24  40  62  87 122 162 202 246 301 363
#     4  11  22  38  59  94 122 160 188 260 307 364
#     4  11  23  41  59  92 122 157 204 254 299 362
#
# _framework density 19.600505999999999
#
# number of rings (size 3 to 8) (size 9 to 14) (size 15 to 20)
#    0.000    1.333    4.167    1.000   10.500    0.000 
#    0.000    0.833    0.000    0.000    0.000    0.000 
#    0.000    0.000    0.000    0.000    0.000    0.000 
#
# Total GULP energy -133955.820229 kJ/mol
# GULP energy per Si atom -5581.492510 kJ/mol
# Density = 1.955589 g / cm^3
# Si number density = 19.600506 Si / 1000 Ang^3
#
#
#
# Elastic Constant Matrix: (Units=GPa)
#
#
# Indices 1 2 3 4 5 6 
#
# 1 62.1627 8.3599 17.8355 0.0000 8.3141 0.0000
# 2 8.3599 75.2586 20.1657 0.0000 -13.4103 0.0000
# 3 17.8355 20.1657 107.3219 0.0000 0.5683 0.0000
# 4 0.0000 0.0000 0.0000 14.9423 0.0000 14.3603
# 5 8.3141 -13.4103 0.5683 0.0000 25.4857 0.0000
# 6 0.0000 0.0000 0.0000 14.3603 0.0000 21.2805
#
#
#
# Elastic Compliance Matrix: (Units=1/GPa)
#
#
# Indices 1 2 3 4 5 6 
#
# 1 0.018122 -0.002640 -0.002477 0.000000 -0.007246 0.000000
# 2 -0.002640 0.015937 -0.002605 0.000000 0.009305 0.000000
# 3 -0.002477 -0.002605 0.010223 0.000000 -0.000791 0.000000
# 4 0.000000 0.000000 0.000000 0.190408 0.000000 -0.128489
# 5 -0.007246 0.009305 -0.000791 0.000000 0.046516 0.000000
# 6 0.000000 0.000000 0.000000 -0.128489 0.000000 0.133697
#
#
# Mechanical properties :
#
#
# Convention : Reuss Voigt Hill
#
# Bulk Modulus (GPa) = 34.67798 37.49616 36.08707
# Shear Modulus (GPa) = 11.36469 25.56717 18.46593
#
# Velocity S-wave (km/s) = 2.41055 3.61559 3.07272
# Velocity P-wave (km/s) = 5.04762 6.04993 5.57136
#
# Compressibility (1/GPa) = 0.02883674
#
# Stress axis : x y z
#
# Youngs Moduli (GPa) = 55.18234 62.74729 97.81783
#
# Poissons Ratio (x) = 0.16568 0.24230
# Poissons Ratio (y) = 0.14570 0.25482
# Poissons Ratio (z) = 0.13669 0.16346
#
# Static dielectric constant tensor:
#      x y z
#    x 1.715430 0.000000 0.028830 
#    y 0.000000 1.726780 0.000000 
#    z 0.028830 0.000000 1.691610 
# 
# From -- ./inp_files/167576.got.cif
#   From: 2010.05.17/outbox.cif.g08.bks.cpg/sg12_84_cif.got.tgz:167576.got - 2010.06.03 13:09:07.
