data_PCOD9205470
_publ_section_title
;
Structure prediction by ZEFSAII (Michael W. Deem and Ramdas Pophale) SiO2 
 PCOD9205470
Probable space group: C 2/M
;
_chemical_formula_sum "Si O2"
_cell_formula_units_Z 56
_cell_length_a 11.945844
_cell_length_b 17.561920
_cell_length_c 17.808215
_cell_angle_alpha 90.000000
_cell_angle_beta 36.309687
_cell_angle_gamma 90.000000
_cell_volume 2212.282268
_symmetry_space_group_name_H-M "C 2/M"
_symmetry_group_IT_number 12
_symmetry_cell_setting 'monoclinic'
loop_
_space_group_symop_operation_xyz
x,y,z
-x,y,-z
-x,-y,-z
x,-y,z
1/2+x,1/2+y,z
1/2-x,1/2+y,-z
1/2-x,1/2-y,-z
1/2+x,1/2-y,z
loop_
_atom_site_type_symbol
_atom_site_label
_atom_site_fract_x
_atom_site_fract_y
_atom_site_fract_z
Si Si1 0.755188 0.413683 0.481949
Si Si2 0.270677 0.000000 0.898296
Si Si3 0.363449 0.500000 0.198265
Si Si4 0.750875 0.356006 0.638854
Si Si5 0.795889 0.083910 0.755606
Si Si6 0.343461 0.683189 0.856746
Si Si7 0.181868 0.157023 0.953299
Si Si8 0.710072 0.311858 0.371704
O O1 0.811419 0.500000 0.427615
O O2 0.847056 0.392244 0.513155
O O3 0.526307 0.419801 0.620479
O O4 0.802545 0.346680 0.397426
O O5 0.234870 0.000000 0.828499
O O6 0.330481 0.087470 0.875893
O O7 0.085145 0.000000 0.054991
O O8 0.305318 0.425181 0.276618
O O9 0.557047 0.317870 0.712839
O O10 0.825509 0.276570 0.630475
O O11 0.752539 0.112339 0.862977
O O12 0.714888 0.145640 0.742092
O O13 0.721989 0.000000 0.779930
O O14 0.253290 0.762904 0.883813
O O15 0.360170 0.674602 0.936903
O O16 0.000000 0.135283 0.000000
O O17 0.500000 0.342726 0.500000
#
# Coordination Sequence:
#
# PCOD9205470 Si02
#       8
#     8   4   4   8   8   8   8   8
#     4   9  17  33  56  80 107 145 194 240 279 333
#     4  11  20  34  62  84 117 148 198 236 283 348
#     4  11  20  34  59  90 104 155 197 243 284 338
#     4  11  20  36  59  84 116 147 202 241 284 352
#     4   9  19  33  56  84 107 144 196 241 276 344
#     4  10  23  34  59  88 112 148 190 239 292 334
#     4  11  21  38  59  86 118 149 186 240 289 348
#     4  10  21  35  56  83 117 154 188 242 296 341
#
# _framework density 25.313226
#
# number of rings (size 3 to 8) (size 9 to 14) (size 15 to 20)
#    0.000    1.857    3.571    0.857    6.000    1.714 
#    0.000    0.357    3.143    0.429    0.000    0.000 
#    0.000    0.000    0.000    0.000    0.000    0.000 
#
# Total GULP energy -156036.611738 kJ/mol
# GULP energy per Si atom -5572.736134 kJ/mol
# Density = 2.525561 g / cm^3
# Si number density = 25.313226 Si / 1000 Ang^3
#
#
#
# Elastic Constant Matrix: (Units=GPa)
#
#
# Indices 1 2 3 4 5 6 
#
# 1 33.9951 18.9903 30.7497 0.0023 12.1028 -0.0027
# 2 18.9903 202.5398 49.3442 0.0038 17.9597 -0.0043
# 3 30.7497 49.3442 62.3579 0.0038 23.6018 -0.0035
# 4 0.0023 0.0038 0.0038 34.1553 -0.0026 6.2160
# 5 12.1028 17.9597 23.6018 -0.0026 33.4246 0.0021
# 6 -0.0027 -0.0043 -0.0035 6.2160 0.0021 25.3569
#
#
#
# Elastic Compliance Matrix: (Units=1/GPa)
#
#
# Indices 1 2 3 4 5 6 
#
# 1 0.053621 0.001748 -0.027459 -0.000001 -0.000965 0.000003
# 2 0.001748 0.006174 -0.005803 0.000000 0.000148 0.000000
# 3 -0.027459 -0.005803 0.039886 -0.000004 -0.015103 0.000004
# 4 -0.000001 0.000000 -0.000004 0.030645 0.000006 -0.007512
# 5 -0.000965 0.000148 -0.015103 0.000006 0.040853 -0.000007
# 6 0.000003 0.000000 0.000004 -0.007512 -0.000007 0.041279
#
#
# Mechanical properties :
#
#
# Convention : Reuss Voigt Hill
#
# Bulk Modulus (GPa) = 27.28399 55.22903 41.25651
# Shear Modulus (GPa) = 17.37896 31.90794 24.64345
#
# Velocity S-wave (km/s) = 2.62307 3.55424 3.12355
# Velocity P-wave (km/s) = 4.46944 6.22166 5.41687
#
# Compressibility (1/GPa) = 0.03665153
#
# Stress axis : x y z
#
# Youngs Moduli (GPa) = 18.64942 161.96406 25.07166
#
# Poissons Ratio (x) = -0.28308 0.68844
# Poissons Ratio (y) = -0.03260 0.14550
# Poissons Ratio (z) = 0.51210 0.93994
#
# Static dielectric constant tensor:
#      x y z
#    x 2.180080 0.000000 -0.053070 
#    y 0.000000 2.093560 0.000000 
#    z -0.053070 0.000000 2.017100 
# 
# From -- ./inp_files/270229.got.cif
#   From: 2010.05.17/outbox.cif.g08.bks.cpg/sg12_136_cif.got.tgz:270229.got - 2010.06.03 13:09:07.
