data_PCOD9205694
_publ_section_title
;
Structure prediction by ZEFSAII (Michael W. Deem and Ramdas Pophale) SiO2 
 PCOD9205694
Probable space group: C 2/M
;
_chemical_formula_sum "Si O2"
_cell_formula_units_Z 64
_cell_length_a 29.723512
_cell_length_b 19.102348
_cell_length_c 12.834067
_cell_angle_alpha 90.000000
_cell_angle_beta 27.144249
_cell_angle_gamma 90.000000
_cell_volume 3324.583015
_symmetry_space_group_name_H-M "C 2/M"
_symmetry_group_IT_number 12
_symmetry_cell_setting 'monoclinic'
loop_
_space_group_symop_operation_xyz
x,y,z
-x,y,-z
-x,-y,-z
x,-y,z
1/2+x,1/2+y,z
1/2-x,1/2+y,-z
1/2-x,1/2-y,-z
1/2+x,1/2-y,z
loop_
_atom_site_type_symbol
_atom_site_label
_atom_site_fract_x
_atom_site_fract_y
_atom_site_fract_z
Si Si1 0.102084 0.612844 0.066170
Si Si2 0.386948 0.299943 0.756506
Si Si3 0.685270 0.141622 0.116380
Si Si4 0.295160 0.176336 0.522408
Si Si5 0.401392 0.278985 0.964675
Si Si6 0.124567 0.421673 0.460773
Si Si7 0.925815 0.184317 0.249529
Si Si8 0.249162 0.919726 0.421944
O O1 0.148184 0.607411 0.086289
O O2 0.091915 0.695491 0.061234
O O3 0.993603 0.581237 0.288764
O O4 0.173614 0.582109 0.831711
O O5 0.500000 0.317025 0.500000
O O6 0.365794 0.218607 0.771540
O O7 0.372799 0.306976 0.909757
O O8 0.302583 0.344369 0.873650
O O9 0.655703 0.099875 0.280218
O O10 0.333852 0.132928 0.541459
O O11 0.363141 0.244259 0.366712
O O12 0.291929 0.126121 0.429201
O O13 0.185127 0.201975 0.776903
O O14 0.505048 0.308199 0.791711
O O15 0.159719 0.500000 0.412043
O O16 0.849958 0.120281 0.408920
O O17 0.000000 0.176949 0.000000
O O18 0.230798 0.000000 0.490969
#
# Coordination Sequence:
#
# PCOD9205694 Si02
#       8
#     8   8   8   8   8   8   8   8
#     4  11  23  41  66  96 130 168 214 269 322 382
#     4  10  21  35  65 101 130 162 210 273 321 367
#     4  10  22  39  63  95 130 170 212 262 320 381
#     4  12  24  44  67  96 128 170 218 272 313 382
#     4  11  21  40  67  97 128 164 217 270 317 373
#     4  12  25  42  65  95 134 176 214 261 327 393
#     4  12  24  41  70  95 123 170 218 269 319 377
#     4  12  27  44  63  96 135 170 211 265 329 391
#
# _framework density 19.250534999999999
#
# number of rings (size 3 to 8) (size 9 to 14) (size 15 to 20)
#    0.000    0.750    5.000    3.750    1.750    1.750 
#    0.000    1.250    0.000    0.375    0.000    0.000 
#    0.000    0.000    0.000    0.000    0.000    0.000 
#
# Total GULP energy -178984.469057 kJ/mol
# GULP energy per Si atom -5593.264658 kJ/mol
# Density = 1.920672 g / cm^3
# Si number density = 19.250535 Si / 1000 Ang^3
#
#
#
# Elastic Constant Matrix: (Units=GPa)
#
#
# Indices 1 2 3 4 5 6 
#
# 1 72.4931 11.8801 8.4086 0.0000 -11.8374 0.0000
# 2 11.8801 58.5094 18.9700 0.0000 -4.6769 0.0000
# 3 8.4086 18.9700 105.9905 0.0000 -10.7839 0.0000
# 4 0.0000 0.0000 0.0000 -14.9656 0.0000 -1.0992
# 5 -11.8374 -4.6769 -10.7839 0.0000 37.4429 0.0000
# 6 0.0000 0.0000 0.0000 -1.0992 0.0000 0.0889
#
#
#
# Elastic Compliance Matrix: (Units=1/GPa)
#
#
# Indices 1 2 3 4 5 6 
#
# 1 0.014959 -0.002601 -0.000281 0.000000 0.004323 0.000000
# 2 -0.002601 0.018665 -0.003071 0.000000 0.000625 0.000000
# 3 -0.000281 -0.003071 0.010259 0.000000 0.002482 0.000000
# 4 0.000000 0.000000 0.000000 -0.035022 0.000000 -0.432940
# 5 0.004323 0.000625 0.002482 0.000000 0.028867 0.000000
# 6 0.000000 0.000000 0.000000 -0.432940 0.000000 5.894689
#
#
# Mechanical properties :
#
#
# Convention : Reuss Voigt Hill
#
# Bulk Modulus (GPa) = 31.27162 35.05672 33.16417
# Shear Modulus (GPa) = 0.83963 17.69552 9.26758
#
# Velocity S-wave (km/s) = 0.66114 3.03516 2.19651
# Velocity P-wave (km/s) = 4.10641 5.52569 4.86805
#
# Compressibility (1/GPa) = 0.03197787
#
# Stress axis : x y z
#
# Youngs Moduli (GPa) = 66.84847 53.57665 97.47272
#
# Poissons Ratio (x) = 0.13933 0.02743
# Poissons Ratio (y) = 0.17384 0.29931
# Poissons Ratio (z) = 0.01881 0.16452
#
# Static dielectric constant tensor:
#      x y z
#    x 1.670040 0.000000 0.000720 
#    y 0.000000 1.664060 0.000000 
#    z 0.000720 0.000000 1.648480 
# 
# From -- ./inp_files/184667.got.cif
#   From: 2010.05.17/outbox.cif.g08.bks.cpg/sg12_93_cif.got.tgz:184667.got - 2010.06.03 13:09:07.
