data_PCOD9205651
_publ_section_title
;
Structure prediction by ZEFSAII (Michael W. Deem and Ramdas Pophale) SiO2 
 PCOD9205651
Probable space group: C 2/M
;
_chemical_formula_sum "Si O2"
_cell_formula_units_Z 44
_cell_length_a 9.157750
_cell_length_b 18.140416
_cell_length_c 11.310098
_cell_angle_alpha 90.000000
_cell_angle_beta 108.241953
_cell_angle_gamma 90.000000
_cell_volume 1784.467080
_symmetry_space_group_name_H-M "C 2/M"
_symmetry_group_IT_number 12
_symmetry_cell_setting 'monoclinic'
loop_
_space_group_symop_operation_xyz
x,y,z
-x,y,-z
-x,-y,-z
x,-y,z
1/2+x,1/2+y,z
1/2-x,1/2+y,-z
1/2-x,1/2-y,-z
1/2+x,1/2-y,z
loop_
_atom_site_type_symbol
_atom_site_label
_atom_site_fract_x
_atom_site_fract_y
_atom_site_fract_z
Si Si1 0.175759 0.000000 0.001489
Si Si2 0.922578 0.000000 0.353535
Si Si3 0.296697 0.372733 0.189294
Si Si4 0.746173 0.500000 0.290802
Si Si5 0.552295 0.283555 0.384742
Si Si6 0.161048 0.657160 0.662680
Si Si7 0.342135 0.731116 0.907333
O O1 0.205850 0.927129 0.926193
O O2 0.258689 0.000000 0.150380
O O3 0.000000 0.000000 0.000000
O O4 0.814401 0.930371 0.300235
O O5 0.000000 0.000000 0.500000
O O6 0.067724 0.000000 0.295215
O O7 0.449610 0.322819 0.255180
O O8 0.161318 0.311788 0.157270
O O9 0.829402 0.572151 0.359601
O O10 0.500000 0.312662 0.500000
O O11 0.726564 0.300538 0.399391
O O12 0.498909 0.198894 0.370250
O O13 0.251096 0.672685 0.807652
O O14 0.500000 0.703688 0.000000
O O15 0.250000 0.750000 0.000000
#
# Coordination Sequence:
#
# PCOD9205651 Si02
#       7
#     4   4   8   4   8   8   8
#     4  11  18  34  56  93 131 162 208 267 319 388
#     4  11  21  38  62  93 132 169 226 270 320 383
#     4  10  21  35  60  94 126 166 216 266 322 380
#     4  12  23  37  65  97 128 169 219 271 323 388
#     4  11  22  42  65  94 131 176 220 275 324 392
#     4  11  24  40  65  99 129 169 228 268 334 388
#     4  11  23  40  64  93 135 173 216 273 334 398
#
# _framework density 24.657221
#
# number of rings (size 3 to 8) (size 9 to 14) (size 15 to 20)
#    0.000    1.091    3.636    4.364    0.000    1.455 
#    0.000    2.273    0.000   18.545    0.000    0.000 
#    0.000    0.000    0.000    0.000    0.000    0.000 
#
# Total GULP energy -122965.608425 kJ/mol
# GULP energy per Si atom -5589.345838 kJ/mol
# Density = 2.460110 g / cm^3
# Si number density = 24.657221 Si / 1000 Ang^3
#
#
#
# Elastic Constant Matrix: (Units=GPa)
#
#
# Indices 1 2 3 4 5 6 
#
# 1 61.5336 20.5518 20.9018 0.0000 1.4842 0.0000
# 2 20.5518 187.1465 7.7596 0.0000 10.3951 0.0000
# 3 20.9018 7.7596 136.3490 0.0000 -8.1158 0.0000
# 4 0.0000 0.0000 0.0000 22.9762 0.0000 -2.2013
# 5 1.4842 10.3951 -8.1158 0.0000 41.6344 0.0000
# 6 0.0000 0.0000 0.0000 -2.2013 0.0000 16.9560
#
#
#
# Elastic Compliance Matrix: (Units=1/GPa)
#
#
# Indices 1 2 3 4 5 6 
#
# 1 0.017775 -0.001803 -0.002664 0.000000 -0.000703 0.000000
# 2 -0.001803 0.005622 -0.000125 0.000000 -0.001364 0.000000
# 3 -0.002664 -0.000125 0.007848 0.000000 0.001656 0.000000
# 4 0.000000 0.000000 0.000000 0.044071 0.000000 0.005721
# 5 -0.000703 -0.001364 0.001656 0.000000 0.024707 0.000000
# 6 0.000000 0.000000 0.000000 0.005721 0.000000 0.059719
#
#
# Mechanical properties :
#
#
# Convention : Reuss Voigt Hill
#
# Bulk Modulus (GPa) = 45.32523 53.71728 49.52126
# Shear Modulus (GPa) = 28.36396 38.70107 33.53251
#
# Velocity S-wave (km/s) = 3.39533 3.96607 3.69175
# Velocity P-wave (km/s) = 5.81318 6.54262 6.18866
#
# Compressibility (1/GPa) = 0.02206277
#
# Stress axis : x y z
#
# Youngs Moduli (GPa) = 56.25806 177.86375 127.41784
#
# Poissons Ratio (x) = 0.32060 0.33946
# Poissons Ratio (y) = 0.10141 0.01590
# Poissons Ratio (z) = 0.14988 0.02220
#
# Static dielectric constant tensor:
#      x y z
#    x 1.906360 0.000000 -0.083400 
#    y 0.000000 2.034880 0.000000 
#    z -0.083400 0.000000 1.979550 
# 
# From -- ./inp_files/120864.got.cif
#   From: 2010.05.17/outbox.cif.g08.bks.cpg/sg12_61_cif.got.tgz:120864.got - 2010.06.03 13:09:07.
