data_PCOD9205919
_publ_section_title
;
Structure prediction by ZEFSAII (Michael W. Deem and Ramdas Pophale) SiO2 
 PCOD9205919
Probable space group: C 2/M
;
_chemical_formula_sum "Si O2"
_cell_formula_units_Z 56
_cell_length_a 26.349131
_cell_length_b 15.061110
_cell_length_c 17.433482
_cell_angle_alpha 90.000000
_cell_angle_beta 26.417103
_cell_angle_gamma 90.000000
_cell_volume 3078.026062
_symmetry_space_group_name_H-M "C 2/M"
_symmetry_group_IT_number 12
_symmetry_cell_setting 'monoclinic'
loop_
_space_group_symop_operation_xyz
x,y,z
-x,y,-z
-x,-y,-z
x,-y,z
1/2+x,1/2+y,z
1/2-x,1/2+y,-z
1/2-x,1/2-y,-z
1/2+x,1/2-y,z
loop_
_atom_site_type_symbol
_atom_site_label
_atom_site_fract_x
_atom_site_fract_y
_atom_site_fract_z
Si Si1 0.276735 0.683245 0.134538
Si Si2 0.718283 0.395658 0.457252
Si Si3 0.081557 0.398190 0.504420
Si Si4 0.045633 0.896436 0.222126
Si Si5 0.755984 0.896525 0.401113
Si Si6 0.371195 0.760123 0.159630
Si Si7 0.074445 0.233572 0.325447
O O1 0.183358 0.623703 0.306499
O O2 0.343074 0.738112 0.109816
O O3 0.201603 0.746408 0.181813
O O4 0.364609 0.627813 0.965357
O O5 0.739366 0.500000 0.413753
O O6 0.583053 0.379989 0.633136
O O7 0.757124 0.375940 0.491645
O O8 0.784376 0.333162 0.309275
O O9 0.044047 0.500000 0.546355
O O10 0.140493 0.386229 0.507846
O O11 0.983826 0.326273 0.622438
O O12 0.067451 0.835709 0.266435
O O13 0.055133 0.000000 0.228913
O O14 0.846029 0.830166 0.241188
O O15 0.791056 0.000000 0.346935
O O16 0.500000 0.788406 0.000000
O O17 0.000000 0.203763 0.500000
#
# Coordination Sequence:
#
# PCOD9205919 Si02
#       7
#     8   8   8   8   8   8   8
#     4  10  21  36  54  82 113 139 178 228 270 316
#     4  10  21  37  56  80 110 145 185 224 265 318
#     4   9  18  33  56  83 112 146 179 219 273 321
#     4  11  22  37  58  80 108 146 182 221 269 321
#     4   9  18  33  54  82 113 142 179 224 267 319
#     4  11  22  36  58  81 107 143 179 222 277 327
#     4  10  21  37  56  80 113 144 180 226 265 315
#
# _framework density 18.193477999999999
#
# number of rings (size 3 to 8) (size 9 to 14) (size 15 to 20)
#    0.000    2.000    0.000    4.714    0.000    5.714 
#    0.000    0.714    0.000    0.857    0.000    0.000 
#    0.000    0.000    0.000    0.000    0.000    0.000 
#
# Total GULP energy -156378.746393 kJ/mol
# GULP energy per Si atom -5584.955228 kJ/mol
# Density = 1.815207 g / cm^3
# Si number density = 18.193478 Si / 1000 Ang^3
#
#
#
# Elastic Constant Matrix: (Units=GPa)
#
#
# Indices 1 2 3 4 5 6 
#
# 1 113.8983 65.2490 36.2706 0.0000 8.6516 0.0000
# 2 65.2490 79.3580 49.5214 0.0000 5.9152 0.0000
# 3 36.2706 49.5214 61.2849 0.0000 -10.6930 0.0000
# 4 0.0000 0.0000 0.0000 13.1092 0.0000 -0.1947
# 5 8.6516 5.9152 -10.6930 0.0000 23.4962 0.0000
# 6 0.0000 0.0000 0.0000 -0.1947 0.0000 13.7292
#
#
#
# Elastic Compliance Matrix: (Units=1/GPa)
#
#
# Indices 1 2 3 4 5 6 
#
# 1 0.016828 -0.014728 0.001637 0.000000 -0.001743 0.000000
# 2 -0.014728 0.046734 -0.032755 0.000000 -0.021249 0.000000
# 3 0.001637 -0.032755 0.046871 0.000000 0.028974 0.000000
# 4 0.000000 0.000000 0.000000 0.076298 0.000000 0.001082
# 5 -0.001743 -0.021249 0.028974 0.000000 0.061737 0.000000
# 6 0.000000 0.000000 0.000000 0.001082 0.000000 0.072853
#
#
# Mechanical properties :
#
#
# Convention : Reuss Voigt Hill
#
# Bulk Modulus (GPa) = 53.35403 61.84703 57.60053
# Shear Modulus (GPa) = 11.92580 16.96694 14.44637
#
# Velocity S-wave (km/s) = 2.56305 3.05714 2.82093
# Velocity P-wave (km/s) = 6.17645 6.82124 6.50684
#
# Compressibility (1/GPa) = 0.01874273
#
# Stress axis : x y z
#
# Youngs Moduli (GPa) = 59.42477 21.39762 21.33524
#
# Poissons Ratio (x) = 0.31514 -0.03493
# Poissons Ratio (y) = 0.87521 0.69883
# Poissons Ratio (z) = -0.09730 0.70087
#
# Static dielectric constant tensor:
#      x y z
#    x 1.630180 0.000000 0.000330 
#    y 0.000000 1.609970 0.000000 
#    z 0.000330 0.000000 1.597830 
# 
# From -- ./inp_files/240860.got.cif
#   From: 2010.05.17/outbox.cif.g08.bks.cpg/sg12_121_cif.got.tgz:240860.got - 2010.06.03 13:09:07.
