data_PCOD9205851
_publ_section_title
;
Structure prediction by ZEFSAII (Michael W. Deem and Ramdas Pophale) SiO2 
 PCOD9205851
Probable space group: C 2/M
;
_chemical_formula_sum "Si O2"
_cell_formula_units_Z 50
_cell_length_a 5.167793
_cell_length_b 14.179026
_cell_length_c 33.391135
_cell_angle_alpha 90.000000
_cell_angle_beta 109.963929
_cell_angle_gamma 90.000000
_cell_volume 2299.682726
_symmetry_space_group_name_H-M "C 2/M"
_symmetry_group_IT_number 12
_symmetry_cell_setting 'monoclinic'
loop_
_space_group_symop_operation_xyz
x,y,z
-x,y,-z
-x,-y,-z
x,-y,z
1/2+x,1/2+y,z
1/2-x,1/2+y,-z
1/2-x,1/2-y,-z
1/2+x,1/2-y,z
loop_
_atom_site_type_symbol
_atom_site_label
_atom_site_fract_x
_atom_site_fract_y
_atom_site_fract_z
Si Si1 0.272361 0.814871 0.054000
Si Si2 0.141637 0.310511 0.708384
Si Si3 0.575979 0.189274 0.619390
Si Si4 0.517183 0.612541 0.199812
Si Si5 0.500000 0.500000 0.000000
Si Si6 0.805798 0.387103 0.525586
Si Si7 0.408405 0.114698 0.149455
O O1 0.507415 0.752833 0.045344
O O2 0.371721 0.841854 0.103944
O O3 0.199029 0.914339 0.029040
O O4 0.343416 0.223001 0.707643
O O5 0.109201 0.362822 0.663907
O O6 0.302886 0.360001 0.752543
O O7 0.373705 0.276368 0.620122
O O8 0.422984 0.139854 0.574887
O O9 0.511190 0.500000 0.198129
O O10 0.665060 0.643013 0.166640
O O11 0.200519 0.643419 0.184140
O O12 0.500000 0.353101 0.500000
O O13 0.799776 0.500000 0.523932
O O14 0.000000 0.354500 0.500000
O O15 0.403926 0.000000 0.145492
#
# Coordination Sequence:
#
# PCOD9205851 Si02
#       7
#     8   8   8   8   2   8   8
#     4  12  27  46  74 105 132 182 230 262 337 401
#     4  10  21  36  54  80 115 151 190 242 293 343
#     4  10  21  36  54  78 108 145 188 234 288 347
#     4  10  21  36  62  88 122 162 204 243 310 365
#     4  12  28  54  72 100 152 174 216 302 316 376
#     4  10  21  36  54  78 106 138 179 232 289 344
#     4  10  21  41  61  92 130 165 200 269 314 356
#
# _framework density 21.74213
#
# number of rings (size 3 to 8) (size 9 to 14) (size 15 to 20)
#    0.000    1.600    0.800    3.360    0.000    7.680 
#    0.000    0.000    0.000   11.520    0.000    0.000 
#    0.000    0.000    0.000    0.000    0.000    0.000 
#
# Total GULP energy -139479.787656 kJ/mol
# GULP energy per Si atom -5579.191506 kJ/mol
# Density = 2.169264 g / cm^3
# Si number density = 21.742130 Si / 1000 Ang^3
#
#
#
# Elastic Constant Matrix: (Units=GPa)
#
#
# Indices 1 2 3 4 5 6 
#
# 1 112.6269 17.2217 14.2109 0.0001 8.9776 -0.0013
# 2 17.2217 109.6945 23.9400 0.0000 1.1624 -0.0001
# 3 14.2109 23.9400 119.2200 0.0000 12.7965 0.0000
# 4 0.0001 0.0000 0.0000 121.3975 0.0000 -355.9819
# 5 8.9776 1.1624 12.7965 0.0000 37.8600 -0.0003
# 6 -0.0013 -0.0001 0.0000 -355.9819 -0.0003 3728.4766
#
#
#
# Elastic Compliance Matrix: (Units=1/GPa)
#
#
# Indices 1 2 3 4 5 6 
#
# 1 0.009314 -0.001302 -0.000639 0.000000 -0.001953 0.000000
# 2 -0.001302 0.009721 -0.001866 0.000000 0.000641 0.000000
# 3 -0.000639 -0.001866 0.009148 0.000000 -0.002883 0.000000
# 4 0.000000 0.000000 0.000000 0.011440 0.000000 0.001092
# 5 -0.001953 0.000641 -0.002883 0.000000 0.027831 0.000000
# 6 0.000000 0.000000 0.000000 0.001092 0.000000 0.000372
#
#
# Mechanical properties :
#
#
# Convention : Reuss Voigt Hill
#
# Bulk Modulus (GPa) = 48.61546 50.25407 49.43477
# Shear Modulus (GPa) = 60.75508 796.62474 428.68991
#
# Velocity S-wave (km/s) = 5.29189 19.16226 14.05696
# Velocity P-wave (km/s) = 7.72965 22.64406 16.91894
#
# Compressibility (1/GPa) = 0.02056959
#
# Stress axis : x y z
#
# Youngs Moduli (GPa) = 107.36204 102.86981 109.31188
#
# Poissons Ratio (x) = 0.13395 0.06987
# Poissons Ratio (y) = 0.13980 0.20393
# Poissons Ratio (z) = 0.06863 0.19192
#
# Static dielectric constant tensor:
#      x y z
#    x 1.769530 0.000000 0.002700 
#    y 0.000000 1.779780 0.000000 
#    z 0.002700 0.000000 1.803790 
# 
# From -- ./inp_files/371493.got.cif
#   From: 2010.05.17/outbox.cif.g08.bks.cpg/sg12_186_cif.got.tgz:371493.got - 2010.06.03 13:09:07.
