data_PCOD9205772
_publ_section_title
;
Structure prediction by ZEFSAII (Michael W. Deem and Ramdas Pophale) SiO2 
 PCOD9205772
Probable space group: C 2/M
;
_chemical_formula_sum "Si O2"
_cell_formula_units_Z 48
_cell_length_a 30.240702
_cell_length_b 7.553012
_cell_length_c 8.074174
_cell_angle_alpha 90.000000
_cell_angle_beta 102.981266
_cell_angle_gamma 90.000000
_cell_volume 1797.077636
_symmetry_space_group_name_H-M "C 2/M"
_symmetry_group_IT_number 12
_symmetry_cell_setting 'monoclinic'
loop_
_space_group_symop_operation_xyz
x,y,z
-x,y,-z
-x,-y,-z
x,-y,z
1/2+x,1/2+y,z
1/2-x,1/2+y,-z
1/2-x,1/2-y,-z
1/2+x,1/2-y,z
loop_
_atom_site_type_symbol
_atom_site_label
_atom_site_fract_x
_atom_site_fract_y
_atom_site_fract_z
Si Si1 0.722889 0.788682 0.306613
Si Si2 0.856589 0.716253 0.545811
Si Si3 0.443482 0.792989 0.783351
Si Si4 0.697323 0.707234 0.833913
Si Si5 0.386816 0.704387 0.054063
Si Si6 0.028948 0.286989 0.687211
O O1 0.750000 0.750000 0.500000
O O2 0.672998 0.727803 0.317450
O O3 0.753621 0.716660 0.181374
O O4 0.721497 0.000000 0.284703
O O5 0.856080 0.500000 0.538996
O O6 0.907437 0.779033 0.620207
O O7 0.831722 0.781017 0.361273
O O8 0.494217 0.724485 0.803093
O O9 0.448775 0.000000 0.748653
O O10 0.417030 0.784920 0.933626
O O11 0.702918 0.500000 0.874496
O O12 0.662252 0.785489 0.939038
O O13 0.379769 0.500000 0.008123
O O14 0.421175 0.713961 0.239109
O O15 0.035582 0.500000 0.692840
O O16 0.000000 0.242125 0.500000
#
# Coordination Sequence:
#
# PCOD9205772 Si02
#       6
#     8   8   8   8   8   8
#     4   8  14  27  48  73 100 128 162 206 251 292
#     4   9  17  31  54  79  99 127 170 213 250 294
#     4  10  21  36  53  75 103 133 165 205 253 298
#     4   9  18  32  50  74 104 135 166 205 252 296
#     4  11  23  36  51  74 105 139 170 201 243 297
#     4  10  21  38  59  79  99 126 163 209 256 298
#
# _framework density 26.710032000000002
#
# number of rings (size 3 to 8) (size 9 to 14) (size 15 to 20)
#    0.000    2.500    0.000    2.000    0.000    6.333 
#    0.000    0.833    0.000    0.000    0.000    0.000 
#    0.000    0.000    0.000    0.000    0.000    0.000 
#
# Total GULP energy -134146.482908 kJ/mol
# GULP energy per Si atom -5589.436788 kJ/mol
# Density = 2.664924 g / cm^3
# Si number density = 26.710032 Si / 1000 Ang^3
#
#
#
# Elastic Constant Matrix: (Units=GPa)
#
#
# Indices 1 2 3 4 5 6 
#
# 1 183.6747 15.0887 12.8273 0.0000 -20.0028 0.0000
# 2 15.0887 86.2563 7.0764 0.0000 5.8754 0.0000
# 3 12.8273 7.0764 96.8121 0.0000 -17.0484 0.0000
# 4 0.0000 0.0000 0.0000 -266.5816 0.0000 162.5165
# 5 -20.0028 5.8754 -17.0484 0.0000 52.5338 0.0000
# 6 0.0000 0.0000 0.0000 162.5165 0.0000 -68.9718
#
#
#
# Elastic Compliance Matrix: (Units=1/GPa)
#
#
# Indices 1 2 3 4 5 6 
#
# 1 0.005803 -0.001144 -0.000290 0.000000 0.002243 0.000000
# 2 -0.001144 0.012030 -0.001104 0.000000 -0.002139 0.000000
# 3 -0.000290 -0.001104 0.011084 0.000000 0.003610 0.000000
# 4 0.000000 0.000000 0.000000 0.008595 0.000000 0.020251
# 5 0.002243 -0.002139 0.003610 0.000000 0.021300 0.000000
# 6 0.000000 0.000000 0.000000 0.020251 0.000000 0.033219
#
#
# Mechanical properties :
#
#
# Convention : Reuss Voigt Hill
#
# Bulk Modulus (GPa) = 41.94733 48.52534 45.23633
# Shear Modulus (GPa) = 47.59418 -34.48720 6.55349
#
# Velocity S-wave (km/s) = 4.22582 -3.59718 1.56809
# Velocity P-wave (km/s) = 6.28879 0.97669 4.50015
#
# Compressibility (1/GPa) = 0.02383942
#
# Stress axis : x y z
#
# Youngs Moduli (GPa) = 172.32561 83.12670 90.21854
#
# Poissons Ratio (x) = 0.09511 0.02618
# Poissons Ratio (y) = 0.19716 0.09964
# Poissons Ratio (z) = 0.05001 0.09181
#
# Static dielectric constant tensor:
#      x y z
#    x 2.118260 0.000000 -0.049850 
#    y 0.000000 2.002370 0.000000 
#    z -0.049850 0.000000 2.231190 
# 
# From -- ./inp_files/108557.got.cif
#   From: 2010.05.17/outbox.cif.g08.bks.cpg/sg12_55_cif.got.tgz:108557.got - 2010.06.03 13:09:07.
