data_PCOD9205208
_publ_section_title
;
Structure prediction by ZEFSAII (Michael W. Deem and Ramdas Pophale) SiO2 
 PCOD9205208
Probable space group: C 2/M
;
_chemical_formula_sum "Si O2"
_cell_formula_units_Z 56
_cell_length_a 28.873284
_cell_length_b 8.863547
_cell_length_c 12.539602
_cell_angle_alpha 90.000000
_cell_angle_beta 102.655273
_cell_angle_gamma 90.000000
_cell_volume 3131.168239
_symmetry_space_group_name_H-M "C 2/M"
_symmetry_group_IT_number 12
_symmetry_cell_setting 'monoclinic'
loop_
_space_group_symop_operation_xyz
x,y,z
-x,y,-z
-x,-y,-z
x,-y,z
1/2+x,1/2+y,z
1/2-x,1/2+y,-z
1/2-x,1/2-y,-z
1/2+x,1/2-y,z
loop_
_atom_site_type_symbol
_atom_site_label
_atom_site_fract_x
_atom_site_fract_y
_atom_site_fract_z
Si Si1 0.063579 0.816928 0.126032
Si Si2 0.620704 0.180130 0.770587
Si Si3 0.645711 0.318588 0.327917
Si Si4 0.716697 0.675928 0.895053
Si Si5 0.155088 0.680552 0.552796
Si Si6 0.043083 0.182277 0.876622
Si Si7 0.747428 0.823274 0.328857
O O1 0.107346 0.767736 0.220561
O O2 0.012294 0.772900 0.147546
O O3 0.063926 0.000000 0.125377
O O4 0.064738 0.770760 0.002665
O O5 0.665925 0.244013 0.857839
O O6 0.629335 0.221318 0.650956
O O7 0.573392 0.247331 0.797546
O O8 0.620485 0.000000 0.777603
O O9 0.647718 0.500000 0.329529
O O10 0.632655 0.257897 0.438325
O O11 0.697242 0.251875 0.327289
O O12 0.709357 0.500000 0.915840
O O13 0.741326 0.687717 0.791554
O O14 0.750000 0.750000 0.000000
O O15 0.155159 0.500000 0.541780
O O16 0.209123 0.739799 0.591092
O O17 0.045304 0.000000 0.871424
O O18 0.747052 0.000000 0.358650
#
# Coordination Sequence:
#
# PCOD9205208 Si02
#       7
#     8   8   8   8   8   8   8
#     4   8  18  35  56  83 109 137 176 221 269 325
#     4  10  21  36  55  79 107 141 181 221 271 323
#     4  11  21  34  55  81 109 141 181 225 268 319
#     4  10  21  35  52  77 110 144 180 220 262 317
#     4  10  21  38  55  75 107 146 183 223 265 317
#     4   9  17  36  61  81 106 140 178 219 270 327
#     4  10  21  36  53  77 108 144 181 219 266 318
#
# _framework density 17.884699000000001
#
# number of rings (size 3 to 8) (size 9 to 14) (size 15 to 20)
#    0.000    2.286    0.000    3.429    2.000    3.429 
#    0.000    4.286    0.000    4.286    0.000    0.000 
#    0.000    0.000    0.000    0.000    0.000    0.000 
#
# Total GULP energy -156315.676392 kJ/mol
# GULP energy per Si atom -5582.702728 kJ/mol
# Density = 1.784399 g / cm^3
# Si number density = 17.884699 Si / 1000 Ang^3
#
#
#
# Elastic Constant Matrix: (Units=GPa)
#
#
# Indices 1 2 3 4 5 6 
#
# 1 99.1278 28.6379 42.2184 0.0000 -13.5798 0.0000
# 2 28.6379 52.0082 23.4998 0.0000 -5.5043 0.0000
# 3 42.2184 23.4998 67.0364 0.0000 8.7506 0.0000
# 4 0.0000 0.0000 0.0000 27.2069 0.0000 -4.6912
# 5 -13.5798 -5.5043 8.7506 0.0000 16.8847 0.0000
# 6 0.0000 0.0000 0.0000 -4.6912 0.0000 29.3788
#
#
#
# Elastic Compliance Matrix: (Units=1/GPa)
#
#
# Indices 1 2 3 4 5 6 
#
# 1 0.020373 -0.001794 -0.015299 0.000000 0.023729 0.000000
# 2 -0.001794 0.025732 -0.009436 0.000000 0.011836 0.000000
# 3 -0.015299 -0.009436 0.032035 0.000000 -0.031983 0.000000
# 4 0.000000 0.000000 0.000000 0.037796 0.000000 0.006035
# 5 0.023729 0.011836 -0.031983 0.000000 0.098744 0.000000
# 6 0.000000 0.000000 0.000000 0.006035 0.000000 0.035002
#
#
# Mechanical properties :
#
#
# Convention : Reuss Voigt Hill
#
# Bulk Modulus (GPa) = 39.86868 45.20941 42.53904
# Shear Modulus (GPa) = 16.07205 22.94849 19.51027
#
# Velocity S-wave (km/s) = 3.00100 3.58597 3.30645
# Velocity P-wave (km/s) = 5.86075 6.51757 6.19787
#
# Compressibility (1/GPa) = 0.02508235
#
# Stress axis : x y z
#
# Youngs Moduli (GPa) = 49.08480 38.86275 31.21585
#
# Poissons Ratio (x) = 0.06971 0.47758
# Poissons Ratio (y) = 0.08805 0.29454
# Poissons Ratio (z) = 0.75096 0.36669
#
# Static dielectric constant tensor:
#      x y z
#    x 1.592280 0.000000 -0.016460 
#    y 0.000000 1.600520 0.000000 
#    z -0.016460 0.000000 1.614650 
# 
# From -- ./inp_files/186850.got.cif
#   From: 2010.05.17/outbox.cif.g08.bks.cpg/sg12_94_cif.got.tgz:186850.got - 2010.06.03 13:09:07.
