data_PCOD9205885
_publ_section_title
;
Structure prediction by ZEFSAII (Michael W. Deem and Ramdas Pophale) SiO2 
 PCOD9205885
Probable space group: C 2/M
;
_chemical_formula_sum "Si O2"
_cell_formula_units_Z 64
_cell_length_a 18.478912
_cell_length_b 8.619606
_cell_length_c 31.353064
_cell_angle_alpha 90.000000
_cell_angle_beta 42.553350
_cell_angle_gamma 90.000000
_cell_volume 3377.287594
_symmetry_space_group_name_H-M "C 2/M"
_symmetry_group_IT_number 12
_symmetry_cell_setting 'monoclinic'
loop_
_space_group_symop_operation_xyz
x,y,z
-x,y,-z
-x,-y,-z
x,-y,z
1/2+x,1/2+y,z
1/2-x,1/2+y,-z
1/2-x,1/2-y,-z
1/2+x,1/2-y,z
loop_
_atom_site_type_symbol
_atom_site_label
_atom_site_fract_x
_atom_site_fract_y
_atom_site_fract_z
Si Si1 0.658929 0.812465 0.808255
Si Si2 0.563607 0.812280 0.681890
Si Si3 0.679102 0.187538 0.191984
Si Si4 0.731629 0.187695 0.682089
Si Si5 0.249271 0.312868 0.067761
Si Si6 0.132155 0.184848 0.560426
Si Si7 0.081382 0.687135 0.067545
Si Si8 0.532274 0.185978 0.437909
O O1 0.747019 0.749968 0.802438
O O2 0.686431 0.765807 0.747955
O O3 0.540188 0.760273 0.873422
O O4 0.659853 0.000000 0.809037
O O5 0.444075 0.765729 0.747626
O O6 0.649810 0.766130 0.680245
O O7 0.593378 0.743106 0.623350
O O8 0.565684 0.000000 0.677900
O O9 0.723005 0.239715 0.126887
O O10 0.681900 0.000000 0.191231
O O11 0.848277 0.257296 0.623813
O O12 0.739514 0.000000 0.678142
O O13 0.252969 0.500000 0.066089
O O14 0.154358 0.265574 0.076419
O O15 0.358767 0.250010 0.000138
O O16 0.250000 0.250000 0.500000
O O17 0.050224 0.243682 0.560095
O O18 0.135559 0.000000 0.558401
O O19 0.081876 0.500000 0.065861
O O20 0.500000 0.231873 0.500000
O O21 0.527676 0.000000 0.436945
#
# Coordination Sequence:
#
# PCOD9205885 Si02
#       8
#     8   8   8   8   8   8   8   8
#     4  10  21  36  54  79 111 145 183 228 277 331
#     4  10  21  39  62  86 114 149 189 232 282 337
#     4  10  21  36  55  80 111 147 184 226 277 331
#     4  10  21  38  61  86 112 147 189 232 281 336
#     4   9  18  34  55  78 105 139 182 228 273 327
#     4  12  25  41  62  88 119 153 190 232 279 331
#     4   9  18  34  55  77 104 140 181 226 276 328
#     4  11  24  41  61  87 119 152 188 232 280 330
#
# _framework density 18.950118
#
# number of rings (size 3 to 8) (size 9 to 14) (size 15 to 20)
#    0.000    1.875    0.000    3.750    0.000   11.000 
#    0.000    2.500    0.000    4.500    0.000    0.000 
#    0.000    0.000    0.000    0.000    0.000    0.000 
#
# Total GULP energy -178829.967026 kJ/mol
# GULP energy per Si atom -5588.436470 kJ/mol
# Density = 1.890699 g / cm^3
# Si number density = 18.950118 Si / 1000 Ang^3
#
#
#
# Elastic Constant Matrix: (Units=GPa)
#
#
# Indices 1 2 3 4 5 6 
#
# 1 187.7287 45.5922 129.2141 -0.0001 1.1937 -0.0002
# 2 45.5922 25.1020 48.2547 -0.0005 1.5061 -0.0010
# 3 129.2141 48.2547 211.0767 0.0001 0.5236 0.0000
# 4 -0.0001 -0.0005 0.0001 29.1313 0.0000 -3.3528
# 5 1.1937 1.5061 0.5236 0.0000 42.5513 0.0002
# 6 -0.0002 -0.0010 0.0000 -3.3528 0.0002 29.9772
#
#
#
# Elastic Compliance Matrix: (Units=1/GPa)
#
#
# Indices 1 2 3 4 5 6 
#
# 1 0.011074 -0.012652 -0.003887 0.000000 0.000185 0.000000
# 2 -0.012652 0.085755 -0.011853 0.000002 -0.002534 0.000003
# 3 -0.003887 -0.011853 0.009826 0.000000 0.000408 0.000000
# 4 0.000000 0.000002 0.000000 0.034775 0.000000 0.003889
# 5 0.000185 -0.002534 0.000408 0.000000 0.023581 0.000000
# 6 0.000000 0.000003 0.000000 0.003889 0.000000 0.033794
#
#
# Mechanical properties :
#
#
# Convention : Reuss Voigt Hill
#
# Bulk Modulus (GPa) = 20.05212 96.66994 58.36103
# Shear Modulus (GPa) = 18.36808 33.72172 26.04490
#
# Velocity S-wave (km/s) = 3.11671 4.22299 3.71130
# Velocity P-wave (km/s) = 4.85349 8.65458 7.01634
#
# Compressibility (1/GPa) = 0.04987004
#
# Stress axis : x y z
#
# Youngs Moduli (GPa) = 90.30301 11.66118 101.77128
#
# Poissons Ratio (x) = 0.14754 0.39560
# Poissons Ratio (y) = 1.14250 1.20632
# Poissons Ratio (z) = 0.35102 0.13822
#
# Static dielectric constant tensor:
#      x y z
#    x 1.624600 0.000000 0.003200 
#    y 0.000000 1.648310 0.000000 
#    z 0.003200 0.000000 1.634360 
# 
# From -- ./inp_files/378058.got.cif
#   From: 2010.05.17/outbox.cif.g08.bks.cpg/sg12_190_cif.got.tgz:378058.got - 2010.06.03 13:09:07.
