data_PCOD9205899
_publ_section_title
;
Structure prediction by ZEFSAII (Michael W. Deem and Ramdas Pophale) SiO2 
 PCOD9205899
Probable space group: C 2/M
;
_chemical_formula_sum "Si O2"
_cell_formula_units_Z 56
_cell_length_a 14.729822
_cell_length_b 15.651200
_cell_length_c 16.594867
_cell_angle_alpha 90.000000
_cell_angle_beta 50.619241
_cell_angle_gamma 90.000000
_cell_volume 2957.116636
_symmetry_space_group_name_H-M "C 2/M"
_symmetry_group_IT_number 12
_symmetry_cell_setting 'monoclinic'
loop_
_space_group_symop_operation_xyz
x,y,z
-x,y,-z
-x,-y,-z
x,-y,z
1/2+x,1/2+y,z
1/2-x,1/2+y,-z
1/2-x,1/2-y,-z
1/2+x,1/2-y,z
loop_
_atom_site_type_symbol
_atom_site_label
_atom_site_fract_x
_atom_site_fract_y
_atom_site_fract_z
Si Si1 0.976349 0.323120 0.182444
Si Si2 0.286652 0.097110 0.180764
Si Si3 0.976897 0.900165 0.606471
Si Si4 0.512835 0.905742 0.397272
Si Si5 0.307371 0.098510 0.833720
Si Si6 0.619422 0.251916 0.607029
Si Si7 0.665112 0.750560 0.970310
O O1 0.889621 0.388714 0.187699
O O2 0.901191 0.266932 0.287268
O O3 0.082574 0.369189 0.172132
O O4 0.036607 0.265184 0.079566
O O5 0.159913 0.109896 0.293712
O O6 0.303695 0.168417 0.102831
O O7 0.291741 0.000000 0.146125
O O8 0.000000 0.878221 0.500000
O O9 0.053789 0.838043 0.617999
O O10 0.007724 0.000000 0.600163
O O11 0.500000 0.903400 0.500000
O O12 0.642312 0.897082 0.285786
O O13 0.441877 0.827898 0.401764
O O14 0.470611 0.000000 0.393334
O O15 0.199770 0.163009 0.906573
O O16 0.280806 0.000000 0.868099
O O17 0.750000 0.250000 0.500000
O O18 0.750000 0.750000 0.000000
#
# Coordination Sequence:
#
# PCOD9205899 Si02
#       7
#     8   8   8   8   8   8   8
#     4  10  21  36  54  83 115 142 183 233 274 324
#     4  11  22  37  60  85 112 147 184 227 281 332
#     4  10  21  37  57  84 116 149 188 232 276 328
#     4   9  18  33  54  80 107 138 184 232 269 318
#     4   9  18  34  57  81 109 146 183 225 276 325
#     4  11  22  36  57  81 112 150 181 221 280 336
#     4  10  21  36  54  80 113 142 181 230 273 326
#
# _framework density 18.937366999999998
#
# number of rings (size 3 to 8) (size 9 to 14) (size 15 to 20)
#    0.000    2.000    0.000    4.714    0.000    5.714 
#    0.000    0.714    0.000    2.571    0.000    0.000 
#    0.000    0.000    0.000    0.000    0.000    0.000 
#
# Total GULP energy -156202.919594 kJ/mol
# GULP energy per Si atom -5578.675700 kJ/mol
# Density = 1.889426 g / cm^3
# Si number density = 18.937367 Si / 1000 Ang^3
#
#
#
# Elastic Constant Matrix: (Units=GPa)
#
#
# Indices 1 2 3 4 5 6 
#
# 1 35.2441 29.1022 24.8432 0.0000 -2.3999 0.0000
# 2 29.1022 119.4005 79.2443 0.0000 -2.1764 0.0000
# 3 24.8432 79.2443 145.0795 0.0000 -0.0034 0.0000
# 4 0.0000 0.0000 0.0000 36.1207 0.0000 -16.0152
# 5 -2.3999 -2.1764 -0.0034 0.0000 32.2178 0.0000
# 6 0.0000 0.0000 0.0000 -16.0152 0.0000 38.3362
#
#
#
# Elastic Compliance Matrix: (Units=1/GPa)
#
#
# Indices 1 2 3 4 5 6 
#
# 1 0.036099 -0.007304 -0.002192 0.000000 0.002195 0.000000
# 2 -0.007304 0.014641 -0.006746 0.000000 0.000444 0.000000
# 3 -0.002192 -0.006746 0.010953 0.000000 -0.000618 0.000000
# 4 0.000000 0.000000 0.000000 0.033979 0.000000 0.014195
# 5 0.002195 0.000444 -0.000618 0.000000 0.031232 0.000000
# 6 0.000000 0.000000 0.000000 0.014195 0.000000 0.032015
#
#
# Mechanical properties :
#
#
# Convention : Reuss Voigt Hill
#
# Bulk Modulus (GPa) = 34.23633 62.90038 48.56836
# Shear Modulus (GPa) = 24.85833 32.43723 28.64778
#
# Velocity S-wave (km/s) = 3.62700 4.14317 3.89365
# Velocity P-wave (km/s) = 5.97144 7.49499 6.77617
#
# Compressibility (1/GPa) = 0.02920874
#
# Stress axis : x y z
#
# Youngs Moduli (GPa) = 27.70141 68.30163 91.29844
#
# Poissons Ratio (x) = 0.49886 0.20014
# Poissons Ratio (y) = 0.20233 0.61593
# Poissons Ratio (z) = 0.06072 0.46079
#
# Static dielectric constant tensor:
#      x y z
#    x 1.687340 0.000000 0.005200 
#    y 0.000000 1.647640 0.000000 
#    z 0.005200 0.000000 1.690740 
# 
# From -- ./inp_files/270198.got.cif
#   From: 2010.05.17/outbox.cif.g08.bks.cpg/sg12_136_cif.got.tgz:270198.got - 2010.06.03 13:09:07.
