data_PCOD9205488
_publ_section_title
;
Structure prediction by ZEFSAII (Michael W. Deem and Ramdas Pophale) SiO2 
 PCOD9205488
Probable space group: C 2/M
;
_chemical_formula_sum "Si O2"
_cell_formula_units_Z 56
_cell_length_a 28.026706
_cell_length_b 8.768808
_cell_length_c 18.901784
_cell_angle_alpha 90.000000
_cell_angle_beta 143.202762
_cell_angle_gamma 90.000000
_cell_volume 2782.475570
_symmetry_space_group_name_H-M "C 2/M"
_symmetry_group_IT_number 12
_symmetry_cell_setting 'monoclinic'
loop_
_space_group_symop_operation_xyz
x,y,z
-x,y,-z
-x,-y,-z
x,-y,z
1/2+x,1/2+y,z
1/2-x,1/2+y,-z
1/2-x,1/2-y,-z
1/2+x,1/2-y,z
loop_
_atom_site_type_symbol
_atom_site_label
_atom_site_fract_x
_atom_site_fract_y
_atom_site_fract_z
Si Si1 0.680695 0.818492 0.966127
Si Si2 0.247706 0.818283 0.796063
Si Si3 0.963681 0.682643 0.880843
Si Si4 0.628545 0.317219 0.468140
Si Si5 0.981175 0.817964 0.195124
Si Si6 0.207441 0.181825 0.302194
Si Si7 0.414047 0.182513 0.430621
O O1 0.594306 0.745274 0.851603
O O2 0.676803 0.000000 0.951392
O O3 0.750000 0.750000 0.000000
O O4 0.703925 0.787294 0.075421
O O5 0.281216 0.737549 0.765616
O O6 0.157843 0.757487 0.698501
O O7 0.247350 0.000000 0.782954
O O8 0.959952 0.500000 0.873411
O O9 0.875725 0.752091 0.769827
O O10 0.016568 0.744395 0.879647
O O11 0.000000 0.726494 0.000000
O O12 0.635712 0.500000 0.481037
O O13 0.564417 0.278745 0.332135
O O14 0.716209 0.246014 0.565032
O O15 0.594633 0.252374 0.501653
O O16 0.975490 0.000000 0.183312
O O17 0.207192 0.000000 0.304744
O O18 0.500000 0.214639 0.500000
O O19 0.402648 0.000000 0.420286
#
# Coordination Sequence:
#
# PCOD9205488 Si02
#       7
#     8   8   8   8   8   8   8
#     4  11  25  42  62  88 121 163 206 252 308 367
#     4  10  21  38  59  85 117 156 201 247 301 363
#     4  11  24  42  66  94 125 164 207 251 305 367
#     4  10  22  40  61  87 123 163 204 251 304 368
#     4  11  25  43  64  93 125 161 207 256 309 365
#     4  11  22  38  64  94 124 160 202 252 308 362
#     4  10  21  35  56  87 117 153 201 252 303 358
#
# _framework density 20.125962000000001
#
# number of rings (size 3 to 8) (size 9 to 14) (size 15 to 20)
#    0.000    1.429    0.000    6.429    2.000   10.857 
#    0.000    0.000    0.000    0.000    0.000    0.000 
#    0.000    0.000    0.000    0.000    0.000    0.000 
#
# Total GULP energy -156622.675158 kJ/mol
# GULP energy per Si atom -5593.666970 kJ/mol
# Density = 2.008015 g / cm^3
# Si number density = 20.125962 Si / 1000 Ang^3
#
#
#
# Elastic Constant Matrix: (Units=GPa)
#
#
# Indices 1 2 3 4 5 6 
#
# 1 94.9644 32.4266 44.7128 0.0000 29.0836 0.0000
# 2 32.4266 72.6398 51.0988 0.0000 4.1760 0.0000
# 3 44.7128 51.0988 103.9910 0.0000 12.0250 0.0000
# 4 0.0000 0.0000 0.0000 27.0345 0.0000 6.4278
# 5 29.0836 4.1760 12.0250 0.0000 27.5287 0.0000
# 6 0.0000 0.0000 0.0000 6.4278 0.0000 33.6609
#
#
#
# Elastic Compliance Matrix: (Units=1/GPa)
#
#
# Indices 1 2 3 4 5 6 
#
# 1 0.019684 -0.004999 -0.003886 0.000000 -0.018339 0.000000
# 2 -0.004999 0.022359 -0.009538 0.000000 0.006055 0.000000
# 3 -0.003886 -0.009538 0.016147 0.000000 -0.001501 0.000000
# 4 0.000000 0.000000 0.000000 0.038749 0.000000 -0.007399
# 5 -0.018339 0.006055 -0.001501 0.000000 0.055438 0.000000
# 6 0.000000 0.000000 0.000000 -0.007399 0.000000 0.031121
#
#
# Mechanical properties :
#
#
# Convention : Reuss Voigt Hill
#
# Bulk Modulus (GPa) = 46.85022 58.67464 52.76243
# Shear Modulus (GPa) = 21.98201 27.20195 24.59198
#
# Velocity S-wave (km/s) = 3.30846 3.68038 3.49937
# Velocity P-wave (km/s) = 6.15821 6.87585 6.52690
#
# Compressibility (1/GPa) = 0.02134462
#
# Stress axis : x y z
#
# Youngs Moduli (GPa) = 50.80395 44.72428 61.92921
#
# Poissons Ratio (x) = 0.22356 0.24068
# Poissons Ratio (y) = 0.25394 0.59067
# Poissons Ratio (z) = 0.19745 0.42657
#
# Static dielectric constant tensor:
#      x y z
#    x 1.702130 0.000000 0.005060 
#    y 0.000000 1.668020 0.000000 
#    z 0.005060 0.000000 1.727410 
# 
# From -- ./inp_files/292568.got.cif
#   From: 2010.05.17/outbox.cif.g08.bks.cpg/sg12_147_cif.got.tgz:292568.got - 2010.06.03 13:09:07.
