data_PCOD9205478
_publ_section_title
;
Structure prediction by ZEFSAII (Michael W. Deem and Ramdas Pophale) SiO2 
 PCOD9205478
Probable space group: C 2/M
;
_chemical_formula_sum "Si O2"
_cell_formula_units_Z 64
_cell_length_a 28.831112
_cell_length_b 19.631395
_cell_length_c 12.457456
_cell_angle_alpha 90.000000
_cell_angle_beta 28.701829
_cell_angle_gamma 90.000000
_cell_volume 3386.184710
_symmetry_space_group_name_H-M "C 2/M"
_symmetry_group_IT_number 12
_symmetry_cell_setting 'monoclinic'
loop_
_space_group_symop_operation_xyz
x,y,z
-x,y,-z
-x,-y,-z
x,-y,z
1/2+x,1/2+y,z
1/2-x,1/2+y,-z
1/2-x,1/2-y,-z
1/2+x,1/2-y,z
loop_
_atom_site_type_symbol
_atom_site_label
_atom_site_fract_x
_atom_site_fract_y
_atom_site_fract_z
Si Si1 0.107834 0.840404 0.330436
Si Si2 0.725051 0.422924 0.493626
Si Si3 0.923999 0.687652 0.558388
Si Si4 0.468208 0.224364 0.227377
Si Si5 0.842754 0.701894 0.287259
Si Si6 0.144000 0.918728 0.889177
Si Si7 0.925553 0.125274 0.363152
Si Si8 0.744040 0.082474 0.124879
O O1 0.129450 0.759883 0.305790
O O2 0.106782 0.875354 0.448619
O O3 0.000000 0.842314 0.500000
O O4 0.178560 0.882191 0.110811
O O5 0.761616 0.500000 0.429753
O O6 0.805349 0.366888 0.307225
O O7 0.679954 0.399532 0.698652
O O8 0.640657 0.420328 0.577479
O O9 0.969979 0.697540 0.345947
O O10 0.854516 0.622811 0.694917
O O11 0.000000 0.678789 0.500000
O O12 0.399884 0.184606 0.281980
O O13 0.418108 0.298014 0.335024
O O14 0.574219 0.232256 0.959207
O O15 0.750000 0.750000 0.500000
O O16 0.218807 0.900742 0.830484
O O17 0.135752 0.000000 0.905889
O O18 0.038202 0.891526 0.128507
O O19 0.739282 0.000000 0.122112
#
# Coordination Sequence:
#
# PCOD9205478 Si02
#       8
#     8   8   8   8   8   8   8   8
#     4  10  21  40  60  87 120 156 200 251 310 363
#     4  11  23  37  57  89 124 159 197 244 307 360
#     4  10  23  43  61  88 122 161 208 260 299 357
#     4  10  23  39  63  92 117 164 214 243 309 359
#     4  11  21  40  63  90 125 160 204 256 297 359
#     4  10  21  35  56  85 123 161 192 240 307 373
#     4  11  20  36  58  87 122 154 197 255 303 362
#     4  11  23  40  64  89 119 166 207 247 305 365
#
# _framework density 18.900327000000001
#
# number of rings (size 3 to 8) (size 9 to 14) (size 15 to 20)
#    0.000    1.500    2.500    2.625    1.750    3.500 
#    0.000    1.875    0.000    0.000    0.000    0.000 
#    0.000    0.000    0.000    0.000    0.000    0.000 
#
# Total GULP energy -178575.310089 kJ/mol
# GULP energy per Si atom -5580.478440 kJ/mol
# Density = 1.885731 g / cm^3
# Si number density = 18.900327 Si / 1000 Ang^3
#
#
#
# Elastic Constant Matrix: (Units=GPa)
#
#
# Indices 1 2 3 4 5 6 
#
# 1 119.9092 38.7139 43.3945 0.0000 9.8045 0.0000
# 2 38.7139 64.8412 34.5388 0.0000 4.1920 0.0000
# 3 43.3945 34.5388 70.4068 0.0000 5.2867 0.0000
# 4 0.0000 0.0000 0.0000 17.5758 0.0000 -1.8421
# 5 9.8045 4.1920 5.2867 0.0000 27.3687 0.0000
# 6 0.0000 0.0000 0.0000 -1.8421 0.0000 30.4030
#
#
#
# Elastic Compliance Matrix: (Units=1/GPa)
#
#
# Indices 1 2 3 4 5 6 
#
# 1 0.011696 -0.004169 -0.004969 0.000000 -0.002591 0.000000
# 2 -0.004169 0.022405 -0.008398 0.000000 -0.000316 0.000000
# 3 -0.004969 -0.008398 0.021467 0.000000 -0.001080 0.000000
# 4 0.000000 0.000000 0.000000 0.057260 0.000000 0.003469
# 5 -0.002591 -0.000316 -0.001080 0.000000 0.037724 0.000000
# 6 0.000000 0.000000 0.000000 0.003469 0.000000 0.033102
#
#
# Mechanical properties :
#
#
# Convention : Reuss Voigt Hill
#
# Bulk Modulus (GPa) = 48.78978 54.27241 51.53109
# Shear Modulus (GPa) = 22.16747 24.30348 23.23548
#
# Velocity S-wave (km/s) = 3.42842 3.58980 3.51004
# Velocity P-wave (km/s) = 6.44534 6.77935 6.61446
#
# Compressibility (1/GPa) = 0.02049610
#
# Stress axis : x y z
#
# Youngs Moduli (GPa) = 85.50185 44.63293 46.58411
#
# Poissons Ratio (x) = 0.18606 0.23147
# Poissons Ratio (y) = 0.35643 0.39121
# Poissons Ratio (z) = 0.42485 0.37483
#
# Static dielectric constant tensor:
#      x y z
#    x 1.674350 0.000000 0.005400 
#    y 0.000000 1.713570 0.000000 
#    z 0.005400 0.000000 1.660830 
# 
# From -- ./inp_files/190035.got.cif
#   From: 2010.05.17/outbox.cif.g08.bks.cpg/sg12_96_cif.got.tgz:190035.got - 2010.06.03 13:09:07.
