data_PCOD9205608
_publ_section_title
;
Structure prediction by ZEFSAII (Michael W. Deem and Ramdas Pophale) SiO2 
 PCOD9205608
Probable space group: C 2/M
;
_chemical_formula_sum "Si O2"
_cell_formula_units_Z 44
_cell_length_a 8.387901
_cell_length_b 22.526782
_cell_length_c 9.699059
_cell_angle_alpha 90.000000
_cell_angle_beta 95.396270
_cell_angle_gamma 90.000000
_cell_volume 1824.538454
_symmetry_space_group_name_H-M "C 2/M"
_symmetry_group_IT_number 12
_symmetry_cell_setting 'monoclinic'
loop_
_space_group_symop_operation_xyz
x,y,z
-x,y,-z
-x,-y,-z
x,-y,z
1/2+x,1/2+y,z
1/2-x,1/2+y,-z
1/2-x,1/2-y,-z
1/2+x,1/2-y,z
loop_
_atom_site_type_symbol
_atom_site_label
_atom_site_fract_x
_atom_site_fract_y
_atom_site_fract_z
Si Si1 0.000000 0.264838 0.500000
Si Si2 0.799268 0.811603 0.673764
Si Si3 0.162004 0.935746 0.424256
Si Si4 0.863791 0.568098 0.709617
Si Si5 0.830127 0.930822 0.042909
Si Si6 0.092838 0.658765 0.881050
O O1 0.948281 0.224553 0.626535
O O2 0.842782 0.300851 0.448204
O O3 0.836895 0.880987 0.676903
O O4 0.715607 0.798613 0.811625
O O5 0.304275 0.929775 0.547862
O O6 0.000000 0.933913 0.500000
O O7 0.173381 0.000000 0.356363
O O8 0.927487 0.500000 0.738597
O O9 0.978448 0.622565 0.763931
O O10 0.708040 0.573404 0.796976
O O11 0.691029 0.893396 0.962310
O O12 0.816680 0.000000 0.005906
O O13 0.000000 0.909388 0.000000
O O14 0.000000 0.688818 0.000000
#
# Coordination Sequence:
#
# PCOD9205608 Si02
#       6
#     4   8   8   8   8   8
#     4  10  24  42  66  90 116 160 214 250 304 360
#     4  11  22  42  64  90 120 160 203 258 301 365
#     4  10  21  35  58  95 129 156 194 251 314 364
#     4   9  18  33  51  79 125 167 200 240 294 367
#     4   9  18  30  50  81 119 164 206 240 290 363
#     4  10  21  37  58  85 118 158 207 251 303 359
#
# _framework density 24.115687000000001
#
# number of rings (size 3 to 8) (size 9 to 14) (size 15 to 20)
#    0.000    2.182    0.909    1.636    2.545    3.636 
#    0.000    3.182    0.000    0.000    0.000    0.000 
#    0.000    0.000    0.000    0.000    0.000    0.000 
#
# Total GULP energy -122971.289033 kJ/mol
# GULP energy per Si atom -5589.604047 kJ/mol
# Density = 2.406080 g / cm^3
# Si number density = 24.115687 Si / 1000 Ang^3
#
#
#
# Elastic Constant Matrix: (Units=GPa)
#
#
# Indices 1 2 3 4 5 6 
#
# 1 77.7340 15.6467 5.2492 0.0000 -20.3350 0.0000
# 2 15.6467 58.6892 13.2521 0.0000 -15.7330 0.0000
# 3 5.2492 13.2521 54.9728 0.0000 -22.7344 0.0000
# 4 0.0000 0.0000 0.0000 -14.5032 0.0000 2.1678
# 5 -20.3350 -15.7330 -22.7344 0.0000 48.8409 0.0000
# 6 0.0000 0.0000 0.0000 2.1678 0.0000 14.7854
#
#
#
# Elastic Compliance Matrix: (Units=1/GPa)
#
#
# Indices 1 2 3 4 5 6 
#
# 1 0.014903 -0.002725 0.001779 0.000000 0.006155 0.000000
# 2 -0.002725 0.019427 -0.002853 0.000000 0.003795 0.000000
# 3 0.001779 -0.002853 0.023077 0.000000 0.010564 0.000000
# 4 0.000000 0.000000 0.000000 -0.067472 0.000000 0.009893
# 5 0.006155 0.003795 0.010564 0.000000 0.029177 0.000000
# 6 0.000000 0.000000 0.000000 0.009893 0.000000 0.066184
#
#
# Mechanical properties :
#
#
# Convention : Reuss Voigt Hill
#
# Bulk Modulus (GPa) = 20.07641 28.85467 24.46554
# Shear Modulus (GPa) = 45.66293 20.30782 32.98537
#
# Velocity S-wave (km/s) = 4.35615 2.90504 3.70239
# Velocity P-wave (km/s) = 5.80039 4.82115 5.33329
#
# Compressibility (1/GPa) = 0.04980970
#
# Stress axis : x y z
#
# Youngs Moduli (GPa) = 67.10089 51.47451 43.33226
#
# Poissons Ratio (x) = 0.14026 -0.07711
# Poissons Ratio (y) = 0.18284 0.12365
# Poissons Ratio (z) = -0.11940 0.14688
#
# Static dielectric constant tensor:
#      x y z
#    x 1.948690 0.000000 -0.047550 
#    y 0.000000 1.879690 0.000000 
#    z -0.047550 0.000000 1.964380 
# 
# From -- ./inp_files/121365.got.cif
#   From: 2010.05.17/outbox.cif.g08.bks.cpg/sg12_61_cif.got.tgz:121365.got - 2010.06.03 13:09:07.
