data_PCOD9205915
_publ_section_title
;
Structure prediction by ZEFSAII (Michael W. Deem and Ramdas Pophale) SiO2 
 PCOD9205915
Probable space group: C 2/M
;
_chemical_formula_sum "Si O2"
_cell_formula_units_Z 50
_cell_length_a 5.278391
_cell_length_b 19.566313
_cell_length_c 26.561566
_cell_angle_alpha 90.000000
_cell_angle_beta 54.808425
_cell_angle_gamma 90.000000
_cell_volume 2241.859265
_symmetry_space_group_name_H-M "C 2/M"
_symmetry_group_IT_number 12
_symmetry_cell_setting 'monoclinic'
loop_
_space_group_symop_operation_xyz
x,y,z
-x,y,-z
-x,-y,-z
x,-y,z
1/2+x,1/2+y,z
1/2-x,1/2+y,-z
1/2-x,1/2-y,-z
1/2+x,1/2-y,z
loop_
_atom_site_type_symbol
_atom_site_label
_atom_site_fract_x
_atom_site_fract_y
_atom_site_fract_z
Si Si1 0.203433 0.207572 0.426359
Si Si2 0.715852 0.218865 0.902196
Si Si3 0.108274 0.276065 0.765575
Si Si4 0.500000 0.500000 0.000000
Si Si5 0.281512 0.424684 0.739885
Si Si6 0.520898 0.076014 0.656808
Si Si7 0.180327 0.928145 0.068723
O O1 0.472722 0.260207 0.411610
O O2 0.350490 0.137048 0.391102
O O3 0.000000 0.195881 0.500000
O O4 0.360395 0.234578 0.929931
O O5 0.812596 0.141780 0.903362
O O6 0.887940 0.238976 0.830959
O O7 0.440841 0.240482 0.732398
O O8 0.122556 0.355765 0.777636
O O9 0.440272 0.441133 0.050940
O O10 0.184566 0.500000 0.770400
O O11 0.193164 0.423126 0.690958
O O12 0.649333 0.417137 0.706278
O O13 0.570710 0.000000 0.628970
O O14 0.175179 0.000000 0.099866
O O15 0.500000 0.930858 0.000000
#
# Coordination Sequence:
#
# PCOD9205915 Si02
#       7
#     8   8   8   2   8   8   8
#     4  10  21  36  54  81 118 155 190 229 282 345
#     4  10  23  38  56  84 118 146 184 229 279 335
#     4  10  21  39  56  81 114 145 186 231 284 338
#     4   8  18  36  60  86 112 148 192 228 274 332
#     4  10  21  37  58  82 111 146 187 242 285 339
#     4  10  21  36  57  86 111 145 195 237 286 333
#     4   9  20  36  59  83 114 149 188 227 274 331
#
# _framework density 22.302916
#
# number of rings (size 3 to 8) (size 9 to 14) (size 15 to 20)
#    0.480    1.760    0.000    1.920    2.240    4.800 
#    0.000    6.400    0.000    5.760    0.000    0.000 
#    0.000    0.000    0.000    0.000    0.000    0.000 
#
# Total GULP energy -139213.441244 kJ/mol
# GULP energy per Si atom -5568.537650 kJ/mol
# Density = 2.225215 g / cm^3
# Si number density = 22.302916 Si / 1000 Ang^3
#
#
#
# Elastic Constant Matrix: (Units=GPa)
#
#
# Indices 1 2 3 4 5 6 
#
# 1 112.1162 -7.4649 -7.0230 0.0000 10.0061 0.0000
# 2 -7.4649 165.1852 17.6212 0.0000 -2.4007 0.0000
# 3 -7.0230 17.6212 34.4840 0.0000 -6.4957 0.0000
# 4 0.0000 0.0000 0.0000 46.0863 0.0000 5.8750
# 5 10.0061 -2.4007 -6.4957 0.0000 13.7685 0.0000
# 6 0.0000 0.0000 0.0000 5.8750 0.0000 33.7124
#
#
#
# Elastic Compliance Matrix: (Units=1/GPa)
#
#
# Indices 1 2 3 4 5 6 
#
# 1 0.009565 0.000276 0.000556 0.000000 -0.006641 0.000000
# 2 0.000276 0.006414 -0.003346 0.000000 -0.000661 0.000000
# 3 0.000556 -0.003346 0.033624 0.000000 0.014876 0.000000
# 4 0.000000 0.000000 0.000000 0.022191 0.000000 -0.003867
# 5 -0.006641 -0.000661 0.014876 0.000000 0.084358 0.000000
# 6 0.000000 0.000000 0.000000 -0.003867 0.000000 0.030337
#
#
# Mechanical properties :
#
#
# Convention : Reuss Voigt Hill
#
# Bulk Modulus (GPa) = 22.43351 35.33911 28.88631
# Shear Modulus (GPa) = 24.22782 39.29025 31.75903
#
# Velocity S-wave (km/s) = 3.29949 4.20177 3.77767
# Velocity P-wave (km/s) = 4.95943 6.27848 5.65753
#
# Compressibility (1/GPa) = 0.04457617
#
# Stress axis : x y z
#
# Youngs Moduli (GPa) = 104.54530 155.91901 29.74083
#
# Poissons Ratio (x) = -0.04310 -0.01653
# Poissons Ratio (y) = -0.02890 0.09950
# Poissons Ratio (z) = -0.05811 0.52163
#
# Static dielectric constant tensor:
#      x y z
#    x 2.186220 0.000000 -0.077890 
#    y 0.000000 1.859900 0.000000 
#    z -0.077890 0.000000 1.940820 
# 
# From -- ./inp_files/354897.got.cif
#   From: 2010.05.17/outbox.cif.g08.bks.cpg/sg12_178_cif.got.tgz:354897.got - 2010.06.03 13:09:07.
