data_PCOD9205432
_publ_section_title
;
Structure prediction by ZEFSAII (Michael W. Deem and Ramdas Pophale) SiO2 
 PCOD9205432
Probable space group: C 2/M
;
_chemical_formula_sum "Si O2"
_cell_formula_units_Z 48
_cell_length_a 22.229901
_cell_length_b 9.172252
_cell_length_c 12.485274
_cell_angle_alpha 90.000000
_cell_angle_beta 71.128673
_cell_angle_gamma 90.000000
_cell_volume 2408.886050
_symmetry_space_group_name_H-M "C 2/M"
_symmetry_group_IT_number 12
_symmetry_cell_setting 'monoclinic'
loop_
_space_group_symop_operation_xyz
x,y,z
-x,y,-z
-x,-y,-z
x,-y,z
1/2+x,1/2+y,z
1/2-x,1/2+y,-z
1/2-x,1/2-y,-z
1/2+x,1/2-y,z
loop_
_atom_site_type_symbol
_atom_site_label
_atom_site_fract_x
_atom_site_fract_y
_atom_site_fract_z
Si Si1 0.620917 0.826078 0.337757
Si Si2 0.666131 0.675199 0.756489
Si Si3 0.532567 0.171567 0.866510
Si Si4 0.497425 0.670144 0.678348
Si Si5 0.769711 0.325983 0.878969
Si Si6 0.852979 0.830305 0.468166
O O1 0.552151 0.752916 0.368033
O O2 0.661803 0.784886 0.209161
O O3 0.656590 0.768166 0.422758
O O4 0.615914 0.000000 0.345428
O O5 0.653819 0.500000 0.762925
O O6 0.602653 0.759673 0.826442
O O7 0.720095 0.705823 0.811937
O O8 0.680469 0.713733 0.624087
O O9 0.494424 0.256129 0.796531
O O10 0.535584 0.000000 0.838123
O O11 0.500000 0.188225 0.000000
O O12 0.480919 0.500000 0.690670
O O13 0.571167 0.680712 0.601305
O O14 0.769589 0.500000 0.895840
O O15 0.750000 0.250000 0.000000
O O16 0.838743 0.000000 0.499632
#
# Coordination Sequence:
#
# PCOD9205432 Si02
#       6
#     8   8   8   8   8   8
#     4  11  23  37  57  87 122 154 191 241 294 342
#     4   9  20  40  61  82 113 152 195 241 283 341
#     4  10  21  35  55  85 118 149 186 240 296 342
#     4  10  21  37  58  85 118 155 195 236 283 346
#     4  10  24  43  60  83 116 155 197 242 288 338
#     4   9  19  37  60  86 115 148 193 242 289 346
#
# _framework density 19.926221999999999
#
# number of rings (size 3 to 8) (size 9 to 14) (size 15 to 20)
#    0.000    2.167    0.000    3.000    2.333    9.333 
#    0.000    0.000    0.000    0.000    0.000    0.000 
#    0.000    0.000    0.000    0.000    0.000    0.000 
#
# Total GULP energy -134057.296792 kJ/mol
# GULP energy per Si atom -5585.720700 kJ/mol
# Density = 1.988087 g / cm^3
# Si number density = 19.926222 Si / 1000 Ang^3
#
#
#
# Elastic Constant Matrix: (Units=GPa)
#
#
# Indices 1 2 3 4 5 6 
#
# 1 58.3077 21.7281 23.8923 0.0000 12.7346 0.0000
# 2 21.7281 59.2054 46.2922 0.0000 7.8137 0.0000
# 3 23.8923 46.2922 103.5717 0.0000 17.1183 0.0000
# 4 0.0000 0.0000 0.0000 35.1223 0.0000 7.9158
# 5 12.7346 7.8137 17.1183 0.0000 22.0586 0.0000
# 6 0.0000 0.0000 0.0000 7.9158 0.0000 16.4442
#
#
#
# Elastic Compliance Matrix: (Units=1/GPa)
#
#
# Indices 1 2 3 4 5 6 
#
# 1 0.021904 -0.006242 -0.000618 0.000000 -0.009955 0.000000
# 2 -0.006242 0.027744 -0.011393 0.000000 0.002617 0.000000
# 3 -0.000618 -0.011393 0.016248 0.000000 -0.008217 0.000000
# 4 0.000000 0.000000 0.000000 0.031937 0.000000 -0.015373
# 5 -0.009955 0.002617 -0.008217 0.000000 0.056530 0.000000
# 6 0.000000 0.000000 0.000000 -0.015373 0.000000 0.068212
#
#
# Mechanical properties :
#
#
# Convention : Reuss Voigt Hill
#
# Bulk Modulus (GPa) = 34.02476 44.99000 39.50738
# Shear Modulus (GPa) = 18.59595 23.33651 20.96623
#
# Velocity S-wave (km/s) = 3.05821 3.42591 3.24727
# Velocity P-wave (km/s) = 5.43899 6.18680 5.82491
#
# Compressibility (1/GPa) = 0.02939036
#
# Stress axis : x y z
#
# Youngs Moduli (GPa) = 45.65455 36.04417 61.54658
#
# Poissons Ratio (x) = 0.22498 0.03801
# Poissons Ratio (y) = 0.28497 0.70120
# Poissons Ratio (z) = 0.02820 0.41065
#
# Static dielectric constant tensor:
#      x y z
#    x 1.731650 0.000000 0.010100 
#    y 0.000000 1.660140 0.000000 
#    z 0.010100 0.000000 1.704140 
# 
# From -- ./inp_files/172126.got.cif
#   From: 2010.05.17/outbox.cif.g08.bks.cpg/sg12_87_cif.got.tgz:172126.got - 2010.06.03 13:09:07.
