data_PCOD9205783
_publ_section_title
;
Structure prediction by ZEFSAII (Michael W. Deem and Ramdas Pophale) SiO2 
 PCOD9205783
Probable space group: C 2/M
;
_chemical_formula_sum "Si O2"
_cell_formula_units_Z 64
_cell_length_a 29.360706
_cell_length_b 8.897042
_cell_length_c 14.632353
_cell_angle_alpha 90.000000
_cell_angle_beta 107.813726
_cell_angle_gamma 90.000000
_cell_volume 3639.057010
_symmetry_space_group_name_H-M "C 2/M"
_symmetry_group_IT_number 12
_symmetry_cell_setting 'monoclinic'
loop_
_space_group_symop_operation_xyz
x,y,z
-x,y,-z
-x,-y,-z
x,-y,z
1/2+x,1/2+y,z
1/2-x,1/2+y,-z
1/2-x,1/2-y,-z
1/2+x,1/2-y,z
loop_
_atom_site_type_symbol
_atom_site_label
_atom_site_fract_x
_atom_site_fract_y
_atom_site_fract_z
Si Si1 0.688708 0.319992 0.375452
Si Si2 0.906679 0.178835 0.147796
Si Si3 0.350346 0.323435 0.931621
Si Si4 0.202799 0.320200 0.582650
Si Si5 0.396586 0.821471 0.793597
Si Si6 0.254068 0.176951 0.903100
Si Si7 0.843018 0.177668 0.271836
Si Si8 0.501960 0.818822 0.894313
O O1 0.686092 0.500000 0.376090
O O2 0.741089 0.278547 0.366262
O O3 0.688918 0.254401 0.477936
O O4 0.643693 0.256605 0.292488
O O5 0.886346 0.231420 0.233162
O O6 0.953447 0.254606 0.134292
O O7 0.915011 0.000000 0.159864
O O8 0.865218 0.198302 0.045975
O O9 0.354483 0.500000 0.912617
O O10 0.384933 0.226629 0.889913
O O11 0.297205 0.264777 0.881882
O O12 0.200454 0.500000 0.573348
O O13 0.168657 0.263527 0.642368
O O14 0.451911 0.777595 0.814544
O O15 0.392363 0.000000 0.780468
O O16 0.204901 0.191513 0.818484
O O17 0.265548 0.000000 0.917639
O O18 0.250000 0.250000 0.000000
O O19 0.849955 0.000000 0.295033
O O20 0.505303 0.000000 0.898313
O O21 0.500000 0.768227 0.000000
#
# Coordination Sequence:
#
# PCOD9205783 Si02
#       8
#     8   8   8   8   8   8   8   8
#     4  10  21  38  60  86 115 146 182 228 277 333
#     4  10  21  36  53  75 107 147 189 230 272 326
#     4  11  21  34  50  75 109 145 188 228 270 328
#     4  10  21  37  59  87 114 145 184 226 274 332
#     4  11  22  36  56  82 112 145 183 233 285 333
#     4  11  21  33  49  72 107 147 185 224 268 321
#     4  10  21  37  53  76 110 149 187 226 275 330
#     4  10  21  37  55  79 110 145 189 235 283 334
#
# _framework density 17.586974000000001
#
# number of rings (size 3 to 8) (size 9 to 14) (size 15 to 20)
#    0.000    1.625    2.500    2.625    0.000    6.750 
#    0.000    0.000    0.000    0.750    0.000    5.250 
#    0.000    0.000    0.000    0.000    0.000    0.000 
#
# Total GULP energy -178621.699860 kJ/mol
# GULP energy per Si atom -5581.928121 kJ/mol
# Density = 1.754695 g / cm^3
# Si number density = 17.586974 Si / 1000 Ang^3
#
#
#
# Elastic Constant Matrix: (Units=GPa)
#
#
# Indices 1 2 3 4 5 6 
#
# 1 132.0955 33.0252 44.5794 0.0000 -11.9173 0.0000
# 2 33.0252 31.5969 27.3095 0.0000 0.5416 0.0000
# 3 44.5794 27.3095 72.5165 0.0000 -9.1326 0.0000
# 4 0.0000 0.0000 0.0000 29.3605 0.0000 -2.8159
# 5 -11.9173 0.5416 -9.1326 0.0000 27.5644 0.0000
# 6 0.0000 0.0000 0.0000 -2.8159 0.0000 29.8637
#
#
#
# Elastic Compliance Matrix: (Units=1/GPa)
#
#
# Indices 1 2 3 4 5 6 
#
# 1 0.011245 -0.009331 -0.002884 0.000000 0.004090 0.000000
# 2 -0.009331 0.056023 -0.016706 0.000000 -0.010670 0.000000
# 3 -0.002884 -0.016706 0.022685 0.000000 0.006597 0.000000
# 4 0.000000 0.000000 0.000000 0.034370 0.000000 0.003241
# 5 0.004090 -0.010670 0.006597 0.000000 0.040442 0.000000
# 6 0.000000 0.000000 0.000000 0.003241 0.000000 0.033791
#
#
# Mechanical properties :
#
#
# Convention : Reuss Voigt Hill
#
# Bulk Modulus (GPa) = 31.14076 49.55968 40.35022
# Shear Modulus (GPa) = 18.71936 26.11071 22.41504
#
# Velocity S-wave (km/s) = 3.26603 3.85731 3.57392
# Velocity P-wave (km/s) = 5.65401 6.93393 6.32642
#
# Compressibility (1/GPa) = 0.03211225
#
# Stress axis : x y z
#
# Youngs Moduli (GPa) = 88.92516 17.84966 44.08201
#
# Poissons Ratio (x) = 0.16656 0.12713
# Poissons Ratio (y) = 0.82978 0.73642
# Poissons Ratio (z) = 0.25645 0.29819
#
# Static dielectric constant tensor:
#      x y z
#    x 1.601930 0.000000 -0.002570 
#    y 0.000000 1.594040 0.000000 
#    z -0.002570 0.000000 1.590020 
# 
# From -- ./inp_files/244223.got.cif
#   From: 2010.05.17/outbox.cif.g08.bks.cpg/sg12_123_cif.got.tgz:244223.got - 2010.06.03 13:09:07.
