data_PCOD9205631
_publ_section_title
;
Structure prediction by ZEFSAII (Michael W. Deem and Ramdas Pophale) SiO2 
 PCOD9205631
Probable space group: C 2/M
;
_chemical_formula_sum "Si O2"
_cell_formula_units_Z 48
_cell_length_a 20.327513
_cell_length_b 18.493362
_cell_length_c 16.485056
_cell_angle_alpha 90.000000
_cell_angle_beta 160.263099
_cell_angle_gamma 90.000000
_cell_volume 2092.780029
_symmetry_space_group_name_H-M "C 2/M"
_symmetry_group_IT_number 12
_symmetry_cell_setting 'monoclinic'
loop_
_space_group_symop_operation_xyz
x,y,z
-x,y,-z
-x,-y,-z
x,-y,z
1/2+x,1/2+y,z
1/2-x,1/2+y,-z
1/2-x,1/2-y,-z
1/2+x,1/2-y,z
loop_
_atom_site_type_symbol
_atom_site_label
_atom_site_fract_x
_atom_site_fract_y
_atom_site_fract_z
Si Si1 0.002730 0.747600 0.835081
Si Si2 0.206918 0.656010 0.193953
Si Si3 0.848791 0.000000 0.108815
Si Si4 0.500000 0.233707 0.500000
Si Si5 0.774506 0.500000 0.546826
Si Si6 0.207861 0.650124 0.517036
Si Si7 0.303504 0.000000 0.883510
Si Si8 0.298534 0.848607 0.130916
O O1 0.833936 0.691526 0.615620
O O2 0.896934 0.807801 0.768844
O O3 0.159518 0.692284 0.052358
O O4 0.116383 0.795932 0.900640
O O5 0.382075 0.709977 0.422388
O O6 0.251104 0.572193 0.229527
O O7 0.000000 0.661871 0.000000
O O8 0.785093 0.000000 0.128704
O O9 0.769258 0.070887 0.969727
O O10 0.080802 0.000000 0.374560
O O11 0.648873 0.178607 0.717207
O O12 0.767609 0.568223 0.478981
O O13 0.964440 0.500000 0.825028
O O14 0.006996 0.660294 0.330509
#
# Coordination Sequence:
#
# PCOD9205631 Si02
#       8
#     8   8   4   4   4   8   4   8
#     4  10  21  35  59  92 118 158 208 253 313 362
#     4  11  23  43  63  90 128 167 212 253 301 375
#     4  12  24  40  66  94 130 159 204 269 315 372
#     4  10  26  42  64  94 122 174 214 248 308 368
#     4  12  22  39  60  97 122 158 203 254 330 368
#     4  11  20  36  61  87 121 159 201 260 313 365
#     4  12  25  43  64  96 127 166 207 257 323 369
#     4  11  21  40  61  87 127 160 205 255 304 372
#
# _framework density 22.935998999999999
#
# number of rings (size 3 to 8) (size 9 to 14) (size 15 to 20)
#    0.000    1.000    5.000    1.750    0.000    3.333 
#    0.000    0.000    0.000    1.000    0.000    0.000 
#    0.000    0.000    0.000    0.000    0.000    0.000 
#
# Total GULP energy -133707.428283 kJ/mol
# GULP energy per Si atom -5571.142845 kJ/mol
# Density = 2.288380 g / cm^3
# Si number density = 22.935999 Si / 1000 Ang^3
#
#
#
# Elastic Constant Matrix: (Units=GPa)
#
#
# Indices 1 2 3 4 5 6 
#
# 1 53.4341 41.6023 30.2923 -0.0001 32.4538 0.0000
# 2 41.6023 183.5069 32.6013 -0.0001 16.6002 0.0000
# 3 30.2923 32.6013 107.6200 -0.0010 37.6613 -0.0001
# 4 -0.0001 -0.0001 -0.0010 30.1850 -0.0003 10.8903
# 5 32.4538 16.6002 37.6613 -0.0003 46.8487 0.0000
# 6 0.0000 0.0000 -0.0001 10.8903 0.0000 23.3183
#
#
#
# Elastic Compliance Matrix: (Units=1/GPa)
#
#
# Indices 1 2 3 4 5 6 
#
# 1 0.038701 -0.006506 -0.000483 0.000000 -0.024116 0.000000
# 2 -0.006506 0.006880 -0.001359 0.000000 0.003162 0.000000
# 3 -0.000483 -0.001359 0.013294 0.000000 -0.009870 0.000000
# 4 0.000000 0.000000 0.000000 0.039842 0.000000 -0.018607
# 5 -0.024116 0.003162 -0.009870 0.000000 0.044866 0.000000
# 6 0.000000 0.000000 0.000000 -0.018607 0.000000 0.051575
#
#
# Mechanical properties :
#
#
# Convention : Reuss Voigt Hill
#
# Bulk Modulus (GPa) = 23.70949 61.50588 42.60768
# Shear Modulus (GPa) = 22.13222 36.07475 29.10348
#
# Velocity S-wave (km/s) = 3.10974 3.97021 3.56603
# Velocity P-wave (km/s) = 4.82221 6.92035 5.96427
#
# Compressibility (1/GPa) = 0.04217721
#
# Stress axis : x y z
#
# Youngs Moduli (GPa) = 25.83885 145.35118 75.22269
#
# Poissons Ratio (x) = 0.94573 0.03634
# Poissons Ratio (y) = 0.16812 0.10225
# Poissons Ratio (z) = 0.01248 0.19758
#
# Static dielectric constant tensor:
#      x y z
#    x 1.926870 0.000000 0.011550 
#    y 0.000000 1.827330 0.000000 
#    z 0.011550 0.000000 2.113380 
# 
# From -- ./inp_files/285485.got.cif
#   From: 2010.05.17/outbox.cif.g08.bks.cpg/sg12_143_cif.got.tgz:285485.got - 2010.06.03 13:09:07.
