data_PCOD9205907
_publ_section_title
;
Structure prediction by ZEFSAII (Michael W. Deem and Ramdas Pophale) SiO2 
 PCOD9205907
Probable space group: C 2/M
;
_chemical_formula_sum "Si O2"
_cell_formula_units_Z 34
_cell_length_a 5.139000
_cell_length_b 14.009804
_cell_length_c 27.119110
_cell_angle_alpha 90.000000
_cell_angle_beta 128.826191
_cell_angle_gamma 90.000000
_cell_volume 1521.080681
_symmetry_space_group_name_H-M "C 2/M"
_symmetry_group_IT_number 12
_symmetry_cell_setting 'monoclinic'
loop_
_space_group_symop_operation_xyz
x,y,z
-x,y,-z
-x,-y,-z
x,-y,z
1/2+x,1/2+y,z
1/2-x,1/2+y,-z
1/2-x,1/2-y,-z
1/2+x,1/2-y,z
loop_
_atom_site_type_symbol
_atom_site_label
_atom_site_fract_x
_atom_site_fract_y
_atom_site_fract_z
Si Si1 0.611429 0.315344 0.581207
Si Si2 0.651442 0.688774 0.066078
Si Si3 0.004059 0.615846 0.723220
Si Si4 0.747551 0.386271 0.797586
Si Si5 0.000000 0.000000 0.500000
O O1 0.314263 0.252589 0.568283
O O2 0.505779 0.414370 0.543168
O O3 0.851590 0.342433 0.655480
O O4 0.348772 0.721669 0.064893
O O5 0.936246 0.639728 0.131830
O O6 0.500000 0.636176 0.000000
O O7 0.991717 0.500000 0.718165
O O8 0.390325 0.645342 0.775878
O O9 0.798576 0.644803 0.747182
O O10 0.733489 0.500000 0.794383
#
# Coordination Sequence:
#
# PCOD9205907 Si02
#       5
#     8   8   8   8   2
#     4  12  27  46  74 105 132 182 230 262 337 404
#     4  10  21  36  54  80 117 160 205 259 318 373
#     4  10  21  41  61  92 130 165 203 273 328 371
#     4  10  21  36  62  88 122 164 207 257 326 377
#     4  12  28  54  72 100 152 174 210 302 308 392
#
# _framework density 22.352530999999999
#
# number of rings (size 3 to 8) (size 9 to 14) (size 15 to 20)
#    0.000    1.412    1.176    3.529    0.000    8.000 
#    0.000    0.000    0.000    8.471    0.000    0.000 
#    0.000    0.000    0.000    0.000    0.000    0.000 
#
# Total GULP energy -94839.902282 kJ/mol
# GULP energy per Si atom -5578.817781 kJ/mol
# Density = 2.230166 g / cm^3
# Si number density = 22.352531 Si / 1000 Ang^3
#
#
#
# Elastic Constant Matrix: (Units=GPa)
#
#
# Indices 1 2 3 4 5 6 
#
# 1 100.5400 14.6291 2.3329 -0.0001 -2.6332 -0.0002
# 2 14.6291 128.5486 28.1679 0.0000 -7.3525 0.0001
# 3 2.3329 28.1679 94.6048 -0.0002 -10.6153 -0.0001
# 4 -0.0001 0.0000 -0.0002 38.4314 -0.0001 9.2432
# 5 -2.6332 -7.3525 -10.6153 -0.0001 34.5561 -0.0002
# 6 -0.0002 0.0001 -0.0001 9.2432 -0.0002 -0.3889
#
#
#
# Elastic Compliance Matrix: (Units=1/GPa)
#
#
# Indices 1 2 3 4 5 6 
#
# 1 0.010126 -0.001154 0.000158 0.000000 0.000575 -0.000001
# 2 -0.001154 0.008490 -0.002389 0.000000 0.000985 0.000000
# 3 0.000158 -0.002389 0.011623 0.000000 0.003074 -0.000001
# 4 0.000000 0.000000 0.000000 0.003875 0.000001 0.092078
# 5 0.000575 0.000985 0.003074 0.000001 0.030136 -0.000002
# 6 -0.000001 0.000000 -0.000001 0.092078 -0.000002 -0.382838
#
#
# Mechanical properties :
#
#
# Convention : Reuss Voigt Hill
#
# Bulk Modulus (GPa) = 42.60919 45.99479 44.30199
# Shear Modulus (GPa) = -16.44753 33.09062 8.32154
#
# Velocity S-wave (km/s) = -2.71555 3.85177 1.93157
# Velocity P-wave (km/s) = 3.04491 6.35635 4.98370
#
# Compressibility (1/GPa) = 0.02346912
#
# Stress axis : x y z
#
# Youngs Moduli (GPa) = 98.75958 117.78138 86.03919
#
# Poissons Ratio (x) = 0.13594 -0.01363
# Poissons Ratio (y) = 0.11398 0.20555
# Poissons Ratio (z) = -0.01565 0.28138
#
# Static dielectric constant tensor:
#      x y z
#    x 1.864870 0.000000 -0.025100 
#    y 0.000000 1.807500 0.000000 
#    z -0.025100 0.000000 1.850340 
# 
# From -- ./inp_files/297406.got.cif
#   From: 2010.05.17/outbox.cif.g08.bks.cpg/sg12_149_cif.got.tgz:297406.got - 2010.06.03 13:09:07.
