data_PCOD9205276
_publ_section_title
;
Structure prediction by ZEFSAII (Michael W. Deem and Ramdas Pophale) SiO2 
 PCOD9205276
Probable space group: C 2/M
;
_chemical_formula_sum "Si O2"
_cell_formula_units_Z 48
_cell_length_a 16.481279
_cell_length_b 7.982347
_cell_length_c 14.884577
_cell_angle_alpha 90.000000
_cell_angle_beta 101.368679
_cell_angle_gamma 90.000000
_cell_volume 1919.782578
_symmetry_space_group_name_H-M "C 2/M"
_symmetry_group_IT_number 12
_symmetry_cell_setting 'monoclinic'
loop_
_space_group_symop_operation_xyz
x,y,z
-x,y,-z
-x,-y,-z
x,-y,z
1/2+x,1/2+y,z
1/2-x,1/2+y,-z
1/2-x,1/2-y,-z
1/2+x,1/2-y,z
loop_
_atom_site_type_symbol
_atom_site_label
_atom_site_fract_x
_atom_site_fract_y
_atom_site_fract_z
Si Si1 0.301757 0.196958 0.888988
Si Si2 0.429830 0.797879 0.052967
Si Si3 0.627035 0.299196 0.779413
Si Si4 0.139126 0.195704 0.280320
Si Si5 0.682152 0.299512 0.604215
Si Si6 0.438681 0.194326 0.561927
O O1 0.214437 0.270232 0.837939
O O2 0.362938 0.213642 0.816363
O O3 0.288548 0.000000 0.901014
O O4 0.345445 0.266868 0.987014
O O5 0.437316 0.743437 0.157217
O O6 0.429228 0.000000 0.051632
O O7 0.500000 0.739546 0.000000
O O8 0.632225 0.500000 0.774611
O O9 0.624206 0.242158 0.675912
O O10 0.225697 0.255802 0.343878
O O11 0.070731 0.226693 0.342058
O O12 0.143007 0.000000 0.262391
O O13 0.676243 0.500000 0.590537
O O14 0.649549 0.211114 0.508308
O O15 0.500000 0.271277 0.500000
O O16 0.459189 0.000000 0.578461
#
# Coordination Sequence:
#
# PCOD9205276 Si02
#       6
#     8   8   8   8   8   8
#     4   9  19  37  57  79 109 143 183 229 276 325
#     4  10  21  35  53  79 111 146 181 222 274 330
#     4   9  19  35  56  80 106 140 180 226 273 319
#     4  11  22  37  60  86 111 144 188 233 278 330
#     4  10  21  39  61  85 114 145 183 231 280 330
#     4  11  24  40  58  82 114 151 187 226 276 331
#
# _framework density 25.002832999999999
#
# number of rings (size 3 to 8) (size 9 to 14) (size 15 to 20)
#    0.000    2.000    0.000    4.500    0.000    7.000 
#    0.000    5.000    0.000    0.000    0.000    0.000 
#    0.000    0.000    0.000    0.000    0.000    0.000 
#
# Total GULP energy -134221.865771 kJ/mol
# GULP energy per Si atom -5592.577740 kJ/mol
# Density = 2.494593 g / cm^3
# Si number density = 25.002833 Si / 1000 Ang^3
#
#
#
# Elastic Constant Matrix: (Units=GPa)
#
#
# Indices 1 2 3 4 5 6 
#
# 1 54.2760 -10.9604 15.3922 0.0000 -17.8560 0.0000
# 2 -10.9604 46.2788 -15.7674 0.0000 2.3238 0.0000
# 3 15.3922 -15.7674 151.2961 0.0000 -20.3143 0.0000
# 4 0.0000 0.0000 0.0000 22.2053 0.0000 -11.2876
# 5 -17.8560 2.3238 -20.3143 0.0000 48.1085 0.0000
# 6 0.0000 0.0000 0.0000 -11.2876 0.0000 18.1125
#
#
#
# Elastic Compliance Matrix: (Units=1/GPa)
#
#
# Indices 1 2 3 4 5 6 
#
# 1 0.022082 0.004593 -0.000739 0.000000 0.007662 0.000000
# 2 0.004593 0.023360 0.002167 0.000000 0.001492 0.000000
# 3 -0.000739 0.002167 0.007272 0.000000 0.002692 0.000000
# 4 0.000000 0.000000 0.000000 0.065915 0.000000 0.041078
# 5 0.007662 0.001492 0.002692 0.000000 0.024695 0.000000
# 6 0.000000 0.000000 0.000000 0.041078 0.000000 0.080810
#
#
# Mechanical properties :
#
#
# Convention : Reuss Voigt Hill
#
# Bulk Modulus (GPa) = 15.44232 25.46441 20.45337
# Shear Modulus (GPa) = 21.39716 35.23103 28.31409
#
# Velocity S-wave (km/s) = 2.92856 3.75785 3.36882
# Velocity P-wave (km/s) = 4.19821 5.38844 4.83012
#
# Compressibility (1/GPa) = 0.06475709
#
# Stress axis : x y z
#
# Youngs Moduli (GPa) = 45.28524 42.80904 137.51320
#
# Poissons Ratio (x) = -0.19663 0.10163
# Poissons Ratio (y) = -0.20801 -0.29805
# Poissons Ratio (z) = 0.03347 -0.09278
#
# Static dielectric constant tensor:
#      x y z
#    x 2.132410 0.000000 -0.034130 
#    y 0.000000 1.856930 0.000000 
#    z -0.034130 0.000000 1.951330 
# 
# From -- ./inp_files/221545.got.cif
#   From: 2010.05.17/outbox.cif.g08.bks.cpg/sg12_111_cif.got.tgz:221545.got - 2010.06.03 13:09:07.
