data_PCOD9205300
_publ_section_title
;
Structure prediction by ZEFSAII (Michael W. Deem and Ramdas Pophale) SiO2 
 PCOD9205300
Probable space group: C 2/M
;
_chemical_formula_sum "Si O2"
_cell_formula_units_Z 64
_cell_length_a 28.680904
_cell_length_b 8.661279
_cell_length_c 19.341816
_cell_angle_alpha 90.000000
_cell_angle_beta 138.825948
_cell_angle_gamma 90.000000
_cell_volume 3163.210218
_symmetry_space_group_name_H-M "C 2/M"
_symmetry_group_IT_number 12
_symmetry_cell_setting 'monoclinic'
loop_
_space_group_symop_operation_xyz
x,y,z
-x,y,-z
-x,-y,-z
x,-y,z
1/2+x,1/2+y,z
1/2-x,1/2+y,-z
1/2-x,1/2-y,-z
1/2+x,1/2-y,z
loop_
_atom_site_type_symbol
_atom_site_label
_atom_site_fract_x
_atom_site_fract_y
_atom_site_fract_z
Si Si1 0.076874 0.687853 0.162597
Si Si2 0.441489 0.185468 0.105850
Si Si3 0.183499 0.674178 0.390794
Si Si4 0.146893 0.815683 0.110482
Si Si5 0.922686 0.316112 0.380536
Si Si6 0.795909 0.816323 0.330486
Si Si7 0.388249 0.824182 0.546244
Si Si8 0.462290 0.318546 0.282381
O O1 0.077540 0.500000 0.158187
O O2 0.145711 0.743996 0.282450
O O3 0.087573 0.756623 0.098982
O O4 0.009795 0.729474 0.134976
O O5 0.446689 0.252190 0.188797
O O6 0.439701 0.000000 0.107599
O O7 0.375122 0.249543 0.988644
O O8 0.203211 0.500000 0.394270
O O9 0.250000 0.750000 0.500000
O O10 0.126088 0.670031 0.388221
O O11 0.222320 0.749807 0.219695
O O12 0.148429 0.000000 0.111269
O O13 0.912496 0.500000 0.375163
O O14 0.860589 0.229632 0.352108
O O15 0.922254 0.266122 0.300093
O O16 0.000000 0.279460 0.500000
O O17 0.820166 0.738572 0.429717
O O18 0.790497 0.000000 0.331924
O O19 0.455114 0.715957 0.609577
O O20 0.404065 0.000000 0.540574
O O21 0.448377 0.500000 0.268454
#
# Coordination Sequence:
#
# PCOD9205300 Si02
#       8
#     8   8   8   8   8   8   8   8
#     4  10  21  40  63  89 123 168 218 264 314 374
#     4  11  23  44  69  92 125 171 218 267 318 374
#     4  10  21  35  53  82 121 164 208 254 308 372
#     4  12  26  43  63  93 129 168 215 267 321 379
#     4  11  23  41  68  97 130 169 208 257 317 380
#     4  12  25  42  65  95 129 168 213 263 319 382
#     4  11  21  38  60  88 125 168 208 256 316 375
#     4  12  24  39  64  98 130 163 207 259 312 375
#
# _framework density 20.232610000000001
#
# number of rings (size 3 to 8) (size 9 to 14) (size 15 to 20)
#    0.000    0.875    2.500    5.625    0.000    6.500 
#    0.000    0.625    0.000    0.000    0.000    0.000 
#    0.000    0.000    0.000    0.000    0.000    0.000 
#
# Total GULP energy -178952.640738 kJ/mol
# GULP energy per Si atom -5592.270023 kJ/mol
# Density = 2.018656 g / cm^3
# Si number density = 20.232610 Si / 1000 Ang^3
#
#
#
# Elastic Constant Matrix: (Units=GPa)
#
#
# Indices 1 2 3 4 5 6 
#
# 1 80.9315 17.5295 29.1594 0.0000 -18.0708 0.0000
# 2 17.5295 76.1781 27.6887 0.0000 -9.8301 0.0000
# 3 29.1594 27.6887 137.6866 0.0000 -21.0972 0.0000
# 4 0.0000 0.0000 0.0000 29.5015 0.0000 -5.7430
# 5 -18.0708 -9.8301 -21.0972 0.0000 33.2092 0.0000
# 6 0.0000 0.0000 0.0000 -5.7430 0.0000 27.0611
#
#
#
# Elastic Compliance Matrix: (Units=1/GPa)
#
#
# Indices 1 2 3 4 5 6 
#
# 1 0.014840 -0.001948 -0.001775 0.000000 0.006371 0.000000
# 2 -0.001948 0.014630 -0.002247 0.000000 0.001843 0.000000
# 3 -0.001775 -0.002247 0.008686 0.000000 0.003887 0.000000
# 4 0.000000 0.000000 0.000000 0.035357 0.000000 0.007504
# 5 0.006371 0.001843 0.003887 0.000000 0.036594 0.000000
# 6 0.000000 0.000000 0.000000 0.007504 0.000000 0.038546
#
#
# Mechanical properties :
#
#
# Convention : Reuss Voigt Hill
#
# Bulk Modulus (GPa) = 38.14344 49.28349 43.71346
# Shear Modulus (GPa) = 29.52781 32.64893 31.08837
#
# Velocity S-wave (km/s) = 3.82438 4.02142 3.92413
# Velocity P-wave (km/s) = 6.19633 6.78039 6.49493
#
# Compressibility (1/GPa) = 0.02621683
#
# Stress axis : x y z
#
# Youngs Moduli (GPa) = 67.38521 68.35302 115.12362
#
# Poissons Ratio (x) = 0.13312 0.20434
# Poissons Ratio (y) = 0.13124 0.25870
# Poissons Ratio (z) = 0.11961 0.15360
#
# Static dielectric constant tensor:
#      x y z
#    x 1.740150 0.000000 0.003510 
#    y 0.000000 1.686760 0.000000 
#    z 0.003510 0.000000 1.723910 
# 
# From -- ./inp_files/295767.got.cif
#   From: 2010.05.17/outbox.cif.g08.bks.cpg/sg12_148_cif.got.tgz:295767.got - 2010.06.03 13:09:07.
