data_PCOD9205078
_publ_section_title
;
Structure prediction by ZEFSAII (Michael W. Deem and Ramdas Pophale) SiO2 
 PCOD9205078
Probable space group: C 2/M
;
_chemical_formula_sum "Si O2"
_cell_formula_units_Z 24
_cell_length_a 8.822636
_cell_length_b 15.739694
_cell_length_c 11.370405
_cell_angle_alpha 90.000000
_cell_angle_beta 123.237899
_cell_angle_gamma 90.000000
_cell_volume 1320.643539
_symmetry_space_group_name_H-M "C 2/M"
_symmetry_group_IT_number 12
_symmetry_cell_setting 'monoclinic'
loop_
_space_group_symop_operation_xyz
x,y,z
-x,y,-z
-x,-y,-z
x,-y,z
1/2+x,1/2+y,z
1/2-x,1/2+y,-z
1/2-x,1/2-y,-z
1/2+x,1/2-y,z
loop_
_atom_site_type_symbol
_atom_site_label
_atom_site_fract_x
_atom_site_fract_y
_atom_site_fract_z
Si Si1 0.208128 0.000000 0.123622
Si Si2 0.522522 0.096963 0.143364
Si Si3 0.792155 0.835920 0.449137
Si Si4 0.714151 0.000000 0.572871
O O1 0.328012 0.078947 0.123285
O O2 0.208123 0.000000 0.263710
O O3 0.000000 0.000000 0.000000
O O4 0.655008 0.151002 0.281262
O O5 0.601686 0.000000 0.168741
O O6 0.500000 0.127840 0.000000
O O7 0.750000 0.750000 0.500000
O O8 0.000000 0.834122 0.500000
O O9 0.765151 0.916895 0.521663
O O10 0.500000 0.000000 0.500000
#
# Coordination Sequence:
#
# PCOD9205078 Si02
#       4
#     4   8   8   4
#     4  10  21  34  68  96 129 164 218 261 336 382
#     4   9  20  40  63  93 131 165 216 263 327 382
#     4  12  26  41  66  96 131 176 221 269 325 387
#     4  12  21  42  66  94 135 168 218 272 322 390
#
# _framework density 18.17296
#
# number of rings (size 3 to 8) (size 9 to 14) (size 15 to 20)
#    1.000    0.333    5.000    1.500    4.667    0.000 
#    0.000    3.333    0.000    0.000    0.000    0.000 
#    0.000    0.000    0.000    0.000    0.000    0.000 
#
# Total GULP energy -66924.500479 kJ/mol
# GULP energy per Si atom -5577.041707 kJ/mol
# Density = 1.813160 g / cm^3
# Si number density = 18.172960 Si / 1000 Ang^3
#
#
#
# Elastic Constant Matrix: (Units=GPa)
#
#
# Indices 1 2 3 4 5 6 
#
# 1 169.5433 76.1922 96.4562 0.0000 11.7240 0.0000
# 2 76.1922 125.4004 71.4444 0.0000 -8.1169 0.0000
# 3 96.4562 71.4444 233.7006 0.0000 -8.1078 0.0000
# 4 0.0000 0.0000 0.0000 21.4038 0.0000 -9.8181
# 5 11.7240 -8.1169 -8.1078 0.0000 46.1010 0.0000
# 6 0.0000 0.0000 0.0000 -9.8181 0.0000 29.0101
#
#
#
# Elastic Compliance Matrix: (Units=1/GPa)
#
#
# Indices 1 2 3 4 5 6 
#
# 1 0.009818 -0.004635 -0.002767 0.000000 -0.003800 0.000000
# 2 -0.004635 0.011909 -0.001624 0.000000 0.002990 0.000000
# 3 -0.002767 -0.001624 0.005969 0.000000 0.001467 0.000000
# 4 0.000000 0.000000 0.000000 0.055307 0.000000 0.018718
# 5 -0.003800 0.002990 0.001467 0.000000 0.023442 0.000000
# 6 0.000000 0.000000 0.000000 0.018718 0.000000 0.040806
#
#
# Mechanical properties :
#
#
# Convention : Reuss Voigt Hill
#
# Bulk Modulus (GPa) = 103.69398 112.98109 108.33754
# Shear Modulus (GPa) = 29.67050 38.27308 33.97179
#
# Velocity S-wave (km/s) = 4.04502 4.59415 4.32830
# Velocity P-wave (km/s) = 8.88817 9.51033 9.20451
#
# Compressibility (1/GPa) = 0.00964376
#
# Stress axis : x y z
#
# Youngs Moduli (GPa) = 101.85275 83.96752 167.54586
#
# Poissons Ratio (x) = 0.38917 0.46363
# Poissons Ratio (y) = 0.47207 0.27212
# Poissons Ratio (z) = 0.28185 0.13638
#
# Static dielectric constant tensor:
#      x y z
#    x 1.618290 0.000000 0.025210 
#    y 0.000000 1.598540 0.000000 
#    z 0.025210 0.000000 1.721210 
# 
# From -- ./inp_files/36468.got.cif
#   From: 2010.05.17/outbox.cif.g08.bks.cpg/sg12_19_cif.got.tgz:36468.got - 2010.06.03 13:09:07.
