data_PCOD9205539
_publ_section_title
;
Structure prediction by ZEFSAII (Michael W. Deem and Ramdas Pophale) SiO2 
 PCOD9205539
Probable space group: C 2/M
;
_chemical_formula_sum "Si O2"
_cell_formula_units_Z 56
_cell_length_a 25.517902
_cell_length_b 14.567934
_cell_length_c 9.360019
_cell_angle_alpha 90.000000
_cell_angle_beta 129.054575
_cell_angle_gamma 90.000000
_cell_volume 2702.009953
_symmetry_space_group_name_H-M "C 2/M"
_symmetry_group_IT_number 12
_symmetry_cell_setting 'monoclinic'
loop_
_space_group_symop_operation_xyz
x,y,z
-x,y,-z
-x,-y,-z
x,-y,z
1/2+x,1/2+y,z
1/2-x,1/2+y,-z
1/2-x,1/2-y,-z
1/2+x,1/2-y,z
loop_
_atom_site_type_symbol
_atom_site_label
_atom_site_fract_x
_atom_site_fract_y
_atom_site_fract_z
Si Si1 0.982202 0.344666 0.130359
Si Si2 0.454480 0.351553 0.800084
Si Si3 0.432518 0.604614 0.437728
Si Si4 0.139303 0.610393 0.886854
Si Si5 0.788491 0.888809 0.209597
Si Si6 0.888755 0.605007 0.483802
Si Si7 0.817019 0.771382 0.529818
O O1 0.001707 0.237946 0.163495
O O2 0.035453 0.392465 0.326488
O O3 0.907438 0.356666 0.063188
O O4 0.000000 0.377533 0.000000
O O5 0.438727 0.397787 0.620756
O O6 0.381204 0.313913 0.724806
O O7 0.500000 0.398544 0.000000
O O8 0.500000 0.653318 0.500000
O O9 0.433323 0.500000 0.383735
O O10 0.360085 0.642932 0.265703
O O11 0.139966 0.500000 0.900568
O O12 0.110677 0.631898 0.681371
O O13 0.217284 0.641416 0.024023
O O14 0.794112 0.846938 0.375944
O O15 0.790083 0.000000 0.215046
O O16 0.862366 0.500000 0.451500
O O17 0.846272 0.680617 0.499791
O O18 0.750000 0.750000 0.500000
#
# Coordination Sequence:
#
# PCOD9205539 Si02
#       7
#     8   8   8   8   8   8   8
#     4  10  21  35  57  87 117 153 194 229 280 349
#     4   9  20  36  53  80 113 141 185 236 281 336
#     4   9  18  36  59  80 106 142 187 237 285 342
#     4  10  21  37  58  86 119 151 189 236 285 348
#     4   9  20  37  59  85 113 147 190 235 290 343
#     4  10  22  39  57  83 120 154 193 239 286 343
#     4  10  22  38  57  83 117 152 194 239 288 346
#
# _framework density 20.725311999999999
#
# number of rings (size 3 to 8) (size 9 to 14) (size 15 to 20)
#    0.000    2.429    0.000    0.857    6.000    7.143 
#    2.571    0.000    0.000    0.000    0.000    0.000 
#    0.000    0.000    0.000    0.000    0.000    0.000 
#
# Total GULP energy -156021.841224 kJ/mol
# GULP energy per Si atom -5572.208615 kJ/mol
# Density = 2.067814 g / cm^3
# Si number density = 20.725312 Si / 1000 Ang^3
#
#
#
# Elastic Constant Matrix: (Units=GPa)
#
#
# Indices 1 2 3 4 5 6 
#
# 1 152.5938 7.7134 50.9639 0.0000 33.6400 0.0000
# 2 7.7134 53.3234 8.3111 0.0000 5.1380 0.0000
# 3 50.9639 8.3111 125.8982 0.0000 20.2120 0.0000
# 4 0.0000 0.0000 0.0000 20.7761 0.0000 -0.0104
# 5 33.6400 5.1380 20.2120 0.0000 27.5467 0.0000
# 6 0.0000 0.0000 0.0000 -0.0104 0.0000 10.2520
#
#
#
# Elastic Compliance Matrix: (Units=1/GPa)
#
#
# Indices 1 2 3 4 5 6 
#
# 1 0.009497 -0.000066 -0.002245 0.000000 -0.009939 0.000000
# 2 -0.000066 0.019165 -0.000768 0.000000 -0.002930 0.000000
# 3 -0.002245 -0.000768 0.009566 0.000000 -0.004135 0.000000
# 4 0.000000 0.000000 0.000000 0.048132 0.000000 0.000049
# 5 -0.009939 -0.002930 -0.004135 0.000000 0.052020 0.000000
# 6 0.000000 0.000000 0.000000 0.000049 0.000000 0.097542
#
#
# Mechanical properties :
#
#
# Convention : Reuss Voigt Hill
#
# Bulk Modulus (GPa) = 31.18083 51.75470 41.46777
# Shear Modulus (GPa) = 19.78083 29.37011 24.57547
#
# Velocity S-wave (km/s) = 3.09273 3.76854 3.44724
# Velocity P-wave (km/s) = 5.27549 6.63037 5.99135
#
# Compressibility (1/GPa) = 0.03207099
#
# Stress axis : x y z
#
# Youngs Moduli (GPa) = 105.29141 52.17817 104.53674
#
# Poissons Ratio (x) = 0.00346 0.23464
# Poissons Ratio (y) = 0.00698 0.08027
# Poissons Ratio (z) = 0.23634 0.04007
#
# Static dielectric constant tensor:
#      x y z
#    x 1.775390 0.000000 0.020290 
#    y 0.000000 1.770060 0.000000 
#    z 0.020290 0.000000 1.772640 
# 
# From -- ./inp_files/98164.got.cif
#   From: 2010.05.17/outbox.cif.g08.bks.cpg/sg12_50_cif.got.tgz:98164.got - 2010.06.03 13:09:07.
