data_PCOD9205127
_publ_section_title
;
Structure prediction by ZEFSAII (Michael W. Deem and Ramdas Pophale) SiO2 
 PCOD9205127
Probable space group: C 2/M
;
_chemical_formula_sum "Si O2"
_cell_formula_units_Z 48
_cell_length_a 32.365245
_cell_length_b 7.625220
_cell_length_c 10.475995
_cell_angle_alpha 90.000000
_cell_angle_beta 108.469984
_cell_angle_gamma 90.000000
_cell_volume 2452.218720
_symmetry_space_group_name_H-M "C 2/M"
_symmetry_group_IT_number 12
_symmetry_cell_setting 'monoclinic'
loop_
_space_group_symop_operation_xyz
x,y,z
-x,y,-z
-x,-y,-z
x,-y,z
1/2+x,1/2+y,z
1/2-x,1/2+y,-z
1/2-x,1/2-y,-z
1/2+x,1/2-y,z
loop_
_atom_site_type_symbol
_atom_site_label
_atom_site_fract_x
_atom_site_fract_y
_atom_site_fract_z
Si Si1 0.033720 0.711524 0.639158
Si Si2 0.296790 0.787673 0.397402
Si Si3 0.866930 0.715088 0.259091
Si Si4 0.135494 0.294420 0.028919
Si Si5 0.802618 0.708466 0.691320
Si Si6 0.535325 0.291959 0.933629
O O1 0.033875 0.500000 0.632889
O O2 0.083442 0.770096 0.663588
O O3 0.022307 0.758158 0.773906
O O4 0.000000 0.776930 0.500000
O O5 0.332057 0.727259 0.329183
O O6 0.247390 0.735732 0.317023
O O7 0.306668 0.722124 0.550653
O O8 0.297971 0.000000 0.400571
O O9 0.866942 0.500000 0.257993
O O10 0.856212 0.777109 0.105142
O O11 0.146795 0.500000 0.032879
O O12 0.164066 0.218004 0.171571
O O13 0.083808 0.281446 0.001469
O O14 0.810595 0.500000 0.689519
O O15 0.538786 0.500000 0.954823
O O16 0.500000 0.223294 0.000000
#
# Coordination Sequence:
#
# PCOD9205127 Si02
#       6
#     8   8   8   8   8   8
#     4   9  18  33  54  77  99 127 166 208 246 289
#     4   9  17  30  47  66  93 126 154 188 238 290
#     4   8  15  29  47  68  93 120 154 195 235 277
#     4   9  18  33  51  69  92 123 160 202 241 281
#     4   9  18  31  47  69  94 120 155 197 236 278
#     4  10  21  35  50  72 103 134 163 199 244 294
#
# _framework density 19.574110000000001
#
# number of rings (size 3 to 8) (size 9 to 14) (size 15 to 20)
#    0.000    3.000    0.000    1.500    0.000    4.333 
#    0.000    6.667    0.000    0.000    0.000    0.000 
#    0.000    0.000    0.000    0.000    0.000    0.000 
#
# Total GULP energy -133826.283028 kJ/mol
# GULP energy per Si atom -5576.095126 kJ/mol
# Density = 1.952956 g / cm^3
# Si number density = 19.574110 Si / 1000 Ang^3
#
#
#
# Elastic Constant Matrix: (Units=GPa)
#
#
# Indices 1 2 3 4 5 6 
#
# 1 142.8835 -19.1454 93.2547 0.0000 -25.3904 0.0000
# 2 -19.1454 33.1019 -5.7392 0.0000 0.6146 0.0000
# 3 93.2547 -5.7392 182.3732 0.0000 11.0665 0.0000
# 4 0.0000 0.0000 0.0000 1.9541 0.0000 2.0484
# 5 -25.3904 0.6146 11.0665 0.0000 17.1807 0.0000
# 6 0.0000 0.0000 0.0000 2.0484 0.0000 20.0581
#
#
#
# Elastic Compliance Matrix: (Units=1/GPa)
#
#
# Indices 1 2 3 4 5 6 
#
# 1 0.032793 0.014368 -0.020008 0.000000 0.060836 0.000000
# 2 0.014368 0.036723 -0.007701 0.000000 0.024881 0.000000
# 3 -0.020008 -0.007701 0.017951 0.000000 -0.040855 0.000000
# 4 0.000000 0.000000 0.000000 0.573094 0.000000 -0.058525
# 5 0.060836 0.024881 -0.040855 0.000000 0.173538 0.000000
# 6 0.000000 0.000000 0.000000 -0.058525 0.000000 0.055832
#
#
# Mechanical properties :
#
#
# Convention : Reuss Voigt Hill
#
# Bulk Modulus (GPa) = 16.45141 55.01097 35.73119
# Shear Modulus (GPa) = 5.33690 27.17114 16.25402
#
# Velocity S-wave (km/s) = 1.65301 3.72978 2.88476
# Velocity P-wave (km/s) = 3.47364 6.83472 5.42123
#
# Compressibility (1/GPa) = 0.06078508
#
# Stress axis : x y z
#
# Youngs Moduli (GPa) = 30.49453 27.23100 55.70794
#
# Poissons Ratio (x) = -0.39126 1.11459
# Poissons Ratio (y) = -0.43815 0.42902
# Poissons Ratio (z) = 0.61012 0.20971
#
# Static dielectric constant tensor:
#      x y z
#    x 1.653280 0.000000 -0.010270 
#    y 0.000000 1.727700 0.000000 
#    z -0.010270 0.000000 1.690990 
# 
# From -- ./inp_files/180240.got.cif
#   From: 2010.05.17/outbox.cif.g08.bks.cpg/sg12_91_cif.got.tgz:180240.got - 2010.06.03 13:09:07.
