data_PCOD9205393
_publ_section_title
;
Structure prediction by ZEFSAII (Michael W. Deem and Ramdas Pophale) SiO2 
 PCOD9205393
Probable space group: C 2/M
;
_chemical_formula_sum "Si O2"
_cell_formula_units_Z 40
_cell_length_a 12.852359
_cell_length_b 13.254338
_cell_length_c 10.849593
_cell_angle_alpha 90.000000
_cell_angle_beta 74.019489
_cell_angle_gamma 90.000000
_cell_volume 1776.799017
_symmetry_space_group_name_H-M "C 2/M"
_symmetry_group_IT_number 12
_symmetry_cell_setting 'monoclinic'
loop_
_space_group_symop_operation_xyz
x,y,z
-x,y,-z
-x,-y,-z
x,-y,z
1/2+x,1/2+y,z
1/2-x,1/2+y,-z
1/2-x,1/2-y,-z
1/2+x,1/2-y,z
loop_
_atom_site_type_symbol
_atom_site_label
_atom_site_fract_x
_atom_site_fract_y
_atom_site_fract_z
Si Si1 0.128060 0.386898 0.444363
Si Si2 0.576174 0.312026 0.088668
Si Si3 0.822992 0.618492 0.032435
Si Si4 0.807122 0.387095 0.312224
Si Si5 0.420374 0.313685 0.641497
O O1 0.174181 0.500000 0.405395
O O2 0.165206 0.342616 0.564421
O O3 0.138538 0.296973 0.343317
O O4 0.000000 0.399429 0.500000
O O5 0.695602 0.363646 0.044900
O O6 0.529363 0.330915 0.240522
O O7 0.500000 0.342255 0.000000
O O8 0.603594 0.192927 0.069776
O O9 0.847352 0.500000 0.013187
O O10 0.841959 0.653898 0.168465
O O11 0.853537 0.500000 0.304364
O O12 0.677985 0.389564 0.344920
O O13 0.500000 0.319993 0.500000
#
# Coordination Sequence:
#
# PCOD9205393 Si02
#       5
#     8   8   8   8   8
#     4   9  18  31  50  78 108 139 178 222 271 324
#     4  10  22  38  59  87 114 146 193 235 275 339
#     4   9  20  39  61  83 113 150 189 234 285 333
#     4   9  18  35  57  80 109 144 182 227 274 326
#     4  10  21  35  55  81 111 147 180 222 278 327
#
# _framework density 22.512394
#
# number of rings (size 3 to 8) (size 9 to 14) (size 15 to 20)
#    0.000    2.600    0.000    0.600    5.600    2.000 
#    3.600    0.000    0.000    0.000    0.000    0.000 
#    0.000    0.000    0.000    0.000    0.000    0.000 
#
# Total GULP energy -111484.716060 kJ/mol
# GULP energy per Si atom -5574.235803 kJ/mol
# Density = 2.246115 g / cm^3
# Si number density = 22.512394 Si / 1000 Ang^3
#
#
#
# Elastic Constant Matrix: (Units=GPa)
#
#
# Indices 1 2 3 4 5 6 
#
# 1 60.5615 -2.1106 50.9843 0.0000 20.5548 0.0000
# 2 -2.1106 58.0810 -10.1046 0.0000 0.9774 0.0000
# 3 50.9843 -10.1046 147.8808 0.0000 33.2257 0.0000
# 4 0.0000 0.0000 0.0000 27.6658 0.0000 12.5008
# 5 20.5548 0.9774 33.2257 0.0000 46.1457 0.0000
# 6 0.0000 0.0000 0.0000 12.5008 0.0000 15.9678
#
#
#
# Elastic Compliance Matrix: (Units=1/GPa)
#
#
# Indices 1 2 3 4 5 6 
#
# 1 0.024488 -0.000261 -0.007171 0.000000 -0.005739 0.000000
# 2 -0.000261 0.017510 0.001603 0.000000 -0.001409 0.000000
# 3 -0.007171 0.001603 0.010300 0.000000 -0.004256 0.000000
# 4 0.000000 0.000000 0.000000 0.055931 0.000000 -0.043787
# 5 -0.005739 -0.001409 -0.004256 0.000000 0.027321 0.000000
# 6 0.000000 0.000000 0.000000 -0.043787 0.000000 0.096906
#
#
# Mechanical properties :
#
#
# Convention : Reuss Voigt Hill
#
# Bulk Modulus (GPa) = 24.60608 38.22907 31.41757
# Shear Modulus (GPa) = 19.40529 33.13945 26.27237
#
# Velocity S-wave (km/s) = 2.93914 3.84090 3.41987
# Velocity P-wave (km/s) = 4.74044 6.05708 5.43875
#
# Compressibility (1/GPa) = 0.04064037
#
# Stress axis : x y z
#
# Youngs Moduli (GPa) = 40.83658 57.10879 97.08423
#
# Poissons Ratio (x) = 0.01491 0.69619
# Poissons Ratio (y) = 0.01066 -0.15563
# Poissons Ratio (z) = 0.29284 -0.09155
#
# Static dielectric constant tensor:
#      x y z
#    x 1.832550 0.000000 0.028440 
#    y 0.000000 1.933630 0.000000 
#    z 0.028440 0.000000 1.873220 
# 
# From -- ./inp_files/59078.got.cif
#   From: 2010.05.17/outbox.cif.g08.bks.cpg/sg12_30_cif.got.tgz:59078.got - 2010.06.03 13:09:07.
