data_PCOD9205927
_publ_section_title
;
Structure prediction by ZEFSAII (Michael W. Deem and Ramdas Pophale) SiO2 
 PCOD9205927
Probable space group: C 2/M
;
_chemical_formula_sum "Si O2"
_cell_formula_units_Z 42
_cell_length_a 27.438454
_cell_length_b 10.068858
_cell_length_c 8.908873
_cell_angle_alpha 90.000000
_cell_angle_beta 60.236639
_cell_angle_gamma 90.000000
_cell_volume 2136.603381
_symmetry_space_group_name_H-M "C 2/M"
_symmetry_group_IT_number 12
_symmetry_cell_setting 'monoclinic'
loop_
_space_group_symop_operation_xyz
x,y,z
-x,y,-z
-x,-y,-z
x,-y,z
1/2+x,1/2+y,z
1/2-x,1/2+y,-z
1/2-x,1/2-y,-z
1/2+x,1/2-y,z
loop_
_atom_site_type_symbol
_atom_site_label
_atom_site_fract_x
_atom_site_fract_y
_atom_site_fract_z
Si Si1 0.202916 0.841871 0.495352
Si Si2 0.427334 0.272801 0.780189
Si Si3 0.535663 0.856535 0.724158
Si Si4 0.587785 0.647273 0.856336
Si Si5 0.854336 0.346541 0.652629
Si Si6 0.500000 0.500000 0.500000
O O1 0.250000 0.750000 0.500000
O O2 0.149262 0.840090 0.688722
O O3 0.184167 0.761082 0.374430
O O4 0.217007 0.000000 0.450207
O O5 0.476610 0.166606 0.735111
O O6 0.373500 0.207611 0.784320
O O7 0.456810 0.384533 0.632386
O O8 0.411823 0.328881 0.967510
O O9 0.548310 0.746299 0.827009
O O10 0.586667 0.848598 0.528531
O O11 0.538179 0.000000 0.793032
O O12 0.567050 0.500000 0.854044
O O13 0.833213 0.500000 0.685795
#
# Coordination Sequence:
#
# PCOD9205927 Si02
#       6
#     8   8   8   8   8   2
#     4  10  22  42  66  87 110 144 189 245 302 355
#     4  12  22  35  57  85 123 161 198 232 278 339
#     4  10  21  36  54  82 121 161 196 233 281 335
#     4  10  23  37  58  85 117 152 197 241 285 339
#     4  10  21  37  59  85 117 155 193 237 289 348
#     4  12  24  32  56  88 128 164 196 236 276 340
#
# _framework density 19.657368999999999
#
# number of rings (size 3 to 8) (size 9 to 14) (size 15 to 20)
#    0.000    1.524    2.857    1.714    2.667    5.333 
#    0.000    0.952    0.000    0.000    0.000    0.000 
#    0.000    0.000    0.000    0.000    0.000    0.000 
#
# Total GULP energy -116946.020066 kJ/mol
# GULP energy per Si atom -5568.858098 kJ/mol
# Density = 1.961263 g / cm^3
# Si number density = 19.657369 Si / 1000 Ang^3
#
#
#
# Elastic Constant Matrix: (Units=GPa)
#
#
# Indices 1 2 3 4 5 6 
#
# 1 111.9981 65.5635 -0.5365 0.0000 21.8115 0.0000
# 2 65.5635 182.4171 20.2536 0.0000 22.9062 0.0000
# 3 -0.5365 20.2536 22.0942 0.0000 13.3967 0.0000
# 4 0.0000 0.0000 0.0000 1729.2816 0.0000-4160.3240
# 5 21.8115 22.9062 13.3967 0.0000 21.6235 0.0000
# 6 0.0000 0.0000 0.0000-4160.3240 0.000010163.5305
#
#
#
# Elastic Compliance Matrix: (Units=1/GPa)
#
#
# Indices 1 2 3 4 5 6 
#
# 1 0.016535 -0.005172 0.019114 0.000000 -0.023043 0.000000
# 2 -0.005172 0.008049 -0.008805 0.000000 0.002145 0.000000
# 3 0.019114 -0.008805 0.095831 0.000000 -0.069325 0.000000
# 4 0.000000 0.000000 0.000000 0.038021 0.000000 0.015564
# 5 -0.023043 0.002145 -0.069325 0.000000 0.110166 0.000000
# 6 0.000000 0.000000 0.000000 0.015564 0.000000 0.006469
#
#
# Mechanical properties :
#
#
# Convention : Reuss Voigt Hill
#
# Bulk Modulus (GPa) = 7.65167 54.11896 30.88531
# Shear Modulus (GPa) = 16.21481 2398.30238 1207.25860
#
# Velocity S-wave (km/s) = 2.87517 34.96714 24.80895
# Velocity P-wave (km/s) = 3.86305 40.71682 28.92043
#
# Compressibility (1/GPa) = 0.13069047
#
# Stress axis : x y z
#
# Youngs Moduli (GPa) = 60.47625 124.23927 10.43506
#
# Poissons Ratio (x) = 0.64255 -0.19946
# Poissons Ratio (y) = 0.31277 0.09188
# Poissons Ratio (z) = -1.15596 1.09391
#
# Static dielectric constant tensor:
#      x y z
#    x 1.684270 0.000000 0.009310 
#    y 0.000000 1.707350 0.000000 
#    z 0.009310 0.000000 1.712590 
# 
# From -- ./inp_files/107828.got.cif
#   From: 2010.05.17/outbox.cif.g08.bks.cpg/sg12_54_cif.got.tgz:107828.got - 2010.06.03 13:09:07.
