data_PCOD9205960
_publ_section_title
;
Structure prediction by ZEFSAII (Michael W. Deem and Ramdas Pophale) SiO2 
 PCOD9205960
Probable space group: C 2/M
;
_chemical_formula_sum "Si O2"
_cell_formula_units_Z 44
_cell_length_a 24.427969
_cell_length_b 17.057999
_cell_length_c 12.711761
_cell_angle_alpha 90.000000
_cell_angle_beta 26.297482
_cell_angle_gamma 90.000000
_cell_volume 2346.691802
_symmetry_space_group_name_H-M "C 2/M"
_symmetry_group_IT_number 12
_symmetry_cell_setting 'monoclinic'
loop_
_space_group_symop_operation_xyz
x,y,z
-x,y,-z
-x,-y,-z
x,-y,z
1/2+x,1/2+y,z
1/2-x,1/2+y,-z
1/2-x,1/2-y,-z
1/2+x,1/2-y,z
loop_
_atom_site_type_symbol
_atom_site_label
_atom_site_fract_x
_atom_site_fract_y
_atom_site_fract_z
Si Si1 0.000000 0.292552 0.500000
Si Si2 0.608390 0.406775 0.599186
Si Si3 0.296890 0.684580 0.754655
Si Si4 0.663682 0.662145 0.942452
Si Si5 0.198397 0.409567 0.106855
Si Si6 0.354067 0.693354 0.267086
O O1 0.916277 0.238187 0.571035
O O2 0.916662 0.352230 0.709114
O O3 0.611646 0.500000 0.581556
O O4 0.696930 0.362671 0.364223
O O5 0.636484 0.379381 0.669150
O O6 0.472725 0.372014 0.809089
O O7 0.187757 0.749276 0.941494
O O8 0.292116 0.623145 0.858253
O O9 0.750445 0.607881 0.864760
O O10 0.689823 0.667437 0.772999
O O11 0.170716 0.500000 0.140020
O O12 0.250000 0.750000 0.500000
O O13 0.500000 0.722248 0.000000
#
# Coordination Sequence:
#
# PCOD9205960 Si02
#       6
#     4   8   8   8   8   8
#     4  10  21  36  55  78 110 156 202 226 279 354
#     4  11  22  36  60  91 118 147 193 252 298 340
#     4  11  20  37  58  82 116 153 196 233 288 359
#     4  10  21  36  58  83 115 152 200 233 292 351
#     4  11  22  36  55  83 118 150 189 242 293 341
#     4  10  21  40  63  90 117 156 200 247 295 361
#
# _framework density 18.749798999999999
#
# number of rings (size 3 to 8) (size 9 to 14) (size 15 to 20)
#    0.000    1.455    1.818    5.727    0.000    4.000 
#    0.000    2.727    0.000    0.545    0.000    0.000 
#    0.000    0.000    0.000    0.000    0.000    0.000 
#
# Total GULP energy -122622.800414 kJ/mol
# GULP energy per Si atom -5573.763655 kJ/mol
# Density = 1.870712 g / cm^3
# Si number density = 18.749799 Si / 1000 Ang^3
#
#
#
# Elastic Constant Matrix: (Units=GPa)
#
#
# Indices 1 2 3 4 5 6 
#
# 1 79.3191 40.2767 16.2453 0.0000 14.0897 0.0000
# 2 40.2767 136.0468 47.7850 0.0000 16.0198 0.0000
# 3 16.2453 47.7850 63.2294 0.0000 5.0255 0.0000
# 4 0.0000 0.0000 0.0000 14.8023 0.0000 0.2468
# 5 14.0897 16.0198 5.0255 0.0000 13.5785 0.0000
# 6 0.0000 0.0000 0.0000 0.2468 0.0000 -7.2077
#
#
#
# Elastic Compliance Matrix: (Units=1/GPa)
#
#
# Indices 1 2 3 4 5 6 
#
# 1 0.016728 -0.003046 -0.000930 0.000000 -0.013421 0.000000
# 2 -0.003046 0.011841 -0.007529 0.000000 -0.008024 0.000000
# 3 -0.000930 -0.007529 0.021597 0.000000 0.001854 0.000000
# 4 0.000000 0.000000 0.000000 0.067518 0.000000 0.002312
# 5 -0.013421 -0.008024 0.001854 0.000000 0.096352 0.000000
# 6 0.000000 0.000000 0.000000 0.002312 0.000000 -0.138662
#
#
# Mechanical properties :
#
#
# Convention : Reuss Voigt Hill
#
# Bulk Modulus (GPa) = 36.82099 54.13435 45.47767
# Shear Modulus (GPa) = 46.53991 15.85385 31.19688
#
# Velocity S-wave (km/s) = 4.98753 2.91098 4.08346
# Velocity P-wave (km/s) = 7.26966 6.34296 6.82206
#
# Compressibility (1/GPa) = 0.02715843
#
# Stress axis : x y z
#
# Youngs Moduli (GPa) = 59.77961 84.45088 46.30348
#
# Poissons Ratio (x) = 0.25720 0.04304
# Poissons Ratio (y) = 0.18206 0.34860
# Poissons Ratio (z) = 0.05557 0.63580
#
# Static dielectric constant tensor:
#      x y z
#    x 1.644300 0.000000 0.003020 
#    y 0.000000 1.609200 0.000000 
#    z 0.003020 0.000000 1.693480 
# 
# From -- ./inp_files/177005.got.cif
#   From: 2010.05.17/outbox.cif.g08.bks.cpg/sg12_89_cif.got.tgz:177005.got - 2010.06.03 13:09:07.
