data_PCOD9205916
_publ_section_title
;
Structure prediction by ZEFSAII (Michael W. Deem and Ramdas Pophale) SiO2 
 PCOD9205916
Probable space group: C 2/M
;
_chemical_formula_sum "Si O2"
_cell_formula_units_Z 56
_cell_length_a 10.630873
_cell_length_b 9.368651
_cell_length_c 32.179776
_cell_angle_alpha 90.000000
_cell_angle_beta 120.980563
_cell_angle_gamma 90.000000
_cell_volume 2747.787183
_symmetry_space_group_name_H-M "C 2/M"
_symmetry_group_IT_number 12
_symmetry_cell_setting 'monoclinic'
loop_
_space_group_symop_operation_xyz
x,y,z
-x,y,-z
-x,-y,-z
x,-y,z
1/2+x,1/2+y,z
1/2-x,1/2+y,-z
1/2-x,1/2-y,-z
1/2+x,1/2-y,z
loop_
_atom_site_type_symbol
_atom_site_label
_atom_site_fract_x
_atom_site_fract_y
_atom_site_fract_z
Si Si1 0.179941 0.669483 0.686757
Si Si2 0.796224 0.169524 0.147310
Si Si3 0.828872 0.171083 0.475468
Si Si4 0.938730 0.159611 0.029540
Si Si5 0.339935 0.171143 0.638917
Si Si6 0.329648 0.155943 0.074710
Si Si7 0.352818 0.667148 0.802210
O O1 0.181375 0.500000 0.677632
O O2 0.260659 0.752382 0.663671
O O3 0.265162 0.690447 0.744493
O O4 0.010321 0.713860 0.663327
O O5 0.974101 0.189810 0.177681
O O6 0.753895 0.263058 0.099693
O O7 0.718518 0.232329 0.174843
O O8 0.767058 0.000000 0.137240
O O9 0.750000 0.250000 0.500000
O O10 0.744975 0.203116 0.418277
O O11 0.000000 0.211290 0.500000
O O12 0.822303 0.000000 0.481145
O O13 0.775908 0.136435 0.983100
O O14 0.006037 0.000000 0.044351
O O15 0.945356 0.236617 0.074245
O O16 0.000000 0.242552 0.000000
O O17 0.335760 0.000000 0.644704
O O18 0.383928 0.000000 0.096521
O O19 0.335451 0.500000 0.811607
#
# Coordination Sequence:
#
# PCOD9205916 Si02
#       7
#     8   8   8   8   8   8   8
#     4  10  21  38  60  85 113 147 193 242 290 345
#     4  11  24  40  61  87 117 152 191 233 286 347
#     4  10  21  36  54  81 118 156 195 238 287 343
#     4   9  19  36  57  79 108 145 183 226 277 328
#     4  10  21  36  57  86 116 150 194 243 289 340
#     4  10  21  36  55  82 112 145 185 230 278 333
#     4  10  23  42  61  85 117 151 189 239 292 344
#
# _framework density 20.380034999999999
#
# number of rings (size 3 to 8) (size 9 to 14) (size 15 to 20)
#    0.000    2.000    0.000    2.571    2.000    4.000 
#    0.000    0.000    0.000    0.000    0.000    0.000 
#    0.000    0.000    0.000    0.000    0.000    0.000 
#
# Total GULP energy -156227.885545 kJ/mol
# GULP energy per Si atom -5579.567341 kJ/mol
# Density = 2.033365 g / cm^3
# Si number density = 20.380035 Si / 1000 Ang^3
#
#
#
# Elastic Constant Matrix: (Units=GPa)
#
#
# Indices 1 2 3 4 5 6 
#
# 1 149.9007 64.2510 63.1463 0.0000 -18.0344 0.0000
# 2 64.2510 97.6713 56.0093 0.0000 -25.3407 0.0000
# 3 63.1463 56.0093 95.9152 0.0000 -5.7949 0.0000
# 4 0.0000 0.0000 0.0000 -170.4118 0.0000 -59.8486
# 5 -18.0344 -25.3407 -5.7949 0.0000 44.4260 0.0000
# 6 0.0000 0.0000 0.0000 -59.8486 0.0000 26.6601
#
#
#
# Elastic Compliance Matrix: (Units=1/GPa)
#
#
# Indices 1 2 3 4 5 6 
#
# 1 0.010404 -0.003908 -0.004482 0.000000 0.001410 0.000000
# 2 -0.003908 0.019977 -0.008568 0.000000 0.008691 0.000000
# 3 -0.004482 -0.008568 0.018118 0.000000 -0.004343 0.000000
# 4 0.000000 0.000000 0.000000 -0.003281 0.000000 -0.007366
# 5 0.001410 0.008691 -0.004343 0.000000 0.027472 0.000000
# 6 0.000000 0.000000 0.000000 -0.007366 0.000000 0.020974
#
#
# Mechanical properties :
#
#
# Convention : Reuss Voigt Hill
#
# Bulk Modulus (GPa) = 68.57421 78.92226 73.74824
# Shear Modulus (GPa) = 37.75291 -9.19311 14.27990
#
# Velocity S-wave (km/s) = 4.30867 -2.12618 2.64991
# Velocity P-wave (km/s) = 7.64681 5.72554 6.75483
#
# Compressibility (1/GPa) = 0.01458274
#
# Stress axis : x y z
#
# Youngs Moduli (GPa) = 96.11809 50.05715 55.19523
#
# Poissons Ratio (x) = 0.19562 0.24740
# Poissons Ratio (y) = 0.37562 0.47290
# Poissons Ratio (z) = 0.43083 0.42888
#
# Static dielectric constant tensor:
#      x y z
#    x 1.773570 0.000000 0.076490 
#    y 0.000000 1.789750 0.000000 
#    z 0.076490 0.000000 1.718360 
# 
# From -- ./inp_files/373632.got.cif
#   From: 2010.05.17/outbox.cif.g08.bks.cpg/sg12_187_cif.got.tgz:373632.got - 2010.06.03 13:09:07.
