data_PCOD9205315
_publ_section_title
;
Structure prediction by ZEFSAII (Michael W. Deem and Ramdas Pophale) SiO2 
 PCOD9205315
Probable space group: C 2/M
;
_chemical_formula_sum "Si O2"
_cell_formula_units_Z 56
_cell_length_a 19.921435
_cell_length_b 9.272651
_cell_length_c 20.912321
_cell_angle_alpha 90.000000
_cell_angle_beta 128.518598
_cell_angle_gamma 90.000000
_cell_volume 3022.448917
_symmetry_space_group_name_H-M "C 2/M"
_symmetry_group_IT_number 12
_symmetry_cell_setting 'monoclinic'
loop_
_space_group_symop_operation_xyz
x,y,z
-x,y,-z
-x,-y,-z
x,-y,z
1/2+x,1/2+y,z
1/2-x,1/2+y,-z
1/2-x,1/2-y,-z
1/2+x,1/2-y,z
loop_
_atom_site_type_symbol
_atom_site_label
_atom_site_fract_x
_atom_site_fract_y
_atom_site_fract_z
Si Si1 0.494804 0.669685 0.200302
Si Si2 0.335186 0.337259 0.619816
Si Si3 0.762655 0.828618 0.766680
Si Si4 0.961116 0.832051 0.572536
Si Si5 0.092767 0.669727 0.735632
Si Si6 0.957234 0.824214 0.908879
Si Si7 0.192231 0.827756 0.599622
O O1 0.472601 0.500000 0.191383
O O2 0.593928 0.680620 0.282177
O O3 0.439021 0.756290 0.218197
O O4 0.492472 0.719311 0.125647
O O5 0.299752 0.500000 0.602187
O O6 0.391681 0.326119 0.589456
O O7 0.259905 0.224620 0.585993
O O8 0.693038 0.808891 0.781303
O O9 0.857833 0.781175 0.842715
O O10 0.725937 0.745409 0.683801
O O11 0.765847 0.000000 0.753509
O O12 0.904610 0.785622 0.478220
O O13 0.039573 0.739458 0.645241
O O14 0.987136 0.000000 0.580489
O O15 0.074296 0.500000 0.726918
O O16 0.958102 0.000000 0.909645
O O17 0.000000 0.774493 0.000000
O O18 0.193531 0.000000 0.604854
#
# Coordination Sequence:
#
# PCOD9205315 Si02
#       7
#     8   8   8   8   8   8   8
#     4   9  17  33  57  81 107 140 176 218 262 311
#     4   9  16  30  50  72 104 142 177 218 264 309
#     4  10  21  38  55  77 109 141 177 220 267 317
#     4   9  20  35  49  71 106 145 184 222 258 308
#     4  10  21  35  54  77 107 146 181 218 263 313
#     4   9  17  34  62  87 104 133 178 217 256 319
#     4  11  21  31  49  77 106 140 181 225 269 308
#
# _framework density 18.528020999999999
#
# number of rings (size 3 to 8) (size 9 to 14) (size 15 to 20)
#    0.000    2.429    1.429    2.143    0.000    5.143 
#    0.000    3.571    0.000    1.714    0.000    0.000 
#    0.000    0.000    0.000    0.000    0.000    0.000 
#
# Total GULP energy -156237.761698 kJ/mol
# GULP energy per Si atom -5579.920061 kJ/mol
# Density = 1.848585 g / cm^3
# Si number density = 18.528021 Si / 1000 Ang^3
#
#
#
# Elastic Constant Matrix: (Units=GPa)
#
#
# Indices 1 2 3 4 5 6 
#
# 1 84.0190 39.6339 44.4549 0.0000 3.4858 0.0000
# 2 39.6339 44.0867 32.6123 0.0000 0.6557 0.0000
# 3 44.4549 32.6123 123.6576 0.0000 -11.6382 0.0000
# 4 0.0000 0.0000 0.0000 18.1121 0.0000 -3.4114
# 5 3.4858 0.6557 -11.6382 0.0000 17.9009 0.0000
# 6 0.0000 0.0000 0.0000 -3.4114 0.0000 19.9729
#
#
#
# Elastic Compliance Matrix: (Units=1/GPa)
#
#
# Indices 1 2 3 4 5 6 
#
# 1 0.022363 -0.016910 -0.004187 0.000000 -0.006458 0.000000
# 2 -0.016910 0.041639 -0.005045 0.000000 -0.001512 0.000000
# 3 -0.004187 -0.005045 0.011735 0.000000 0.008629 0.000000
# 4 0.000000 0.000000 0.000000 0.057047 0.000000 0.009744
# 5 -0.006458 -0.001512 0.008629 0.000000 0.062786 0.000000
# 6 0.000000 0.000000 0.000000 0.009744 0.000000 0.051732
#
#
# Mechanical properties :
#
#
# Convention : Reuss Voigt Hill
#
# Bulk Modulus (GPa) = 42.64039 53.90727 48.27383
# Shear Modulus (GPa) = 16.26526 20.20132 18.23329
#
# Velocity S-wave (km/s) = 2.96611 3.30557 3.14043
# Velocity P-wave (km/s) = 5.89867 6.61266 6.26584
#
# Compressibility (1/GPa) = 0.02345194
#
# Stress axis : x y z
#
# Youngs Moduli (GPa) = 44.71758 24.01593 85.21690
#
# Poissons Ratio (x) = 0.40612 0.35683
# Poissons Ratio (y) = 0.75619 0.42988
# Poissons Ratio (z) = 0.18725 0.12115
#
# Static dielectric constant tensor:
#      x y z
#    x 1.674250 0.000000 -0.031290 
#    y 0.000000 1.614190 0.000000 
#    z -0.031290 0.000000 1.650280 
# 
# From -- ./inp_files/319647.got.cif
#   From: 2010.05.17/outbox.cif.g08.bks.cpg/sg12_160_cif.got.tgz:319647.got - 2010.06.03 13:09:07.
