data_PCOD9205852
_publ_section_title
;
Structure prediction by ZEFSAII (Michael W. Deem and Ramdas Pophale) SiO2 
 PCOD9205852
Probable space group: C 2/M
;
_chemical_formula_sum "Si O2"
_cell_formula_units_Z 64
_cell_length_a 8.735271
_cell_length_b 26.191821
_cell_length_c 13.789070
_cell_angle_alpha 90.000000
_cell_angle_beta 71.533672
_cell_angle_gamma 90.000000
_cell_volume 2992.395219
_symmetry_space_group_name_H-M "C 2/M"
_symmetry_group_IT_number 12
_symmetry_cell_setting 'monoclinic'
loop_
_space_group_symop_operation_xyz
x,y,z
-x,y,-z
-x,-y,-z
x,-y,z
1/2+x,1/2+y,z
1/2-x,1/2+y,-z
1/2-x,1/2-y,-z
1/2+x,1/2-y,z
loop_
_atom_site_type_symbol
_atom_site_label
_atom_site_fract_x
_atom_site_fract_y
_atom_site_fract_z
Si Si1 0.730397 0.697985 0.673541
Si Si2 0.379769 0.662489 0.105365
Si Si3 0.346282 0.056408 0.172071
Si Si4 0.014866 0.337511 0.105365
Si Si5 0.481647 0.556408 0.172071
Si Si6 0.096063 0.302015 0.673541
Si Si7 0.759153 0.416042 0.613281
Si Si8 0.372433 0.083958 0.386719
O O1 0.617769 0.690310 0.791222
O O2 0.684766 0.750000 0.630470
O O3 0.721519 0.644655 0.618842
O O4 0.913169 0.702358 0.673664
O O5 0.198847 0.665048 0.102305
O O6 0.423302 0.603503 0.119121
O O7 0.500000 0.682785 0.000000
O O8 0.457577 0.103503 0.119121
O O9 0.333313 0.059479 0.291662
O O10 0.169240 0.063075 0.161519
O O11 0.408064 0.000000 0.133697
O O12 0.908991 0.309690 0.208778
O O13 0.000000 0.317215 0.000000
O O14 0.458238 0.500000 0.133697
O O15 0.375024 0.559479 0.291662
O O16 0.159640 0.355345 0.618842
O O17 0.778118 0.435235 0.500000
O O18 0.935696 0.421774 0.628609
#
# Coordination Sequence:
#
# PCOD9205852 Si02
#       8
#     8   8   8   8   8   8   8   8
#     4   9  19  34  52  76 105 137 173 213 256 305
#     4  10  21  37  56  78 105 137 174 214 257 308
#     4  10  21  36  54  78 107 137 172 215 261 309
#     4  10  21  37  56  78 105 137 174 214 257 308
#     4  10  21  36  54  78 107 137 172 215 261 309
#     4   9  19  34  52  76 105 137 173 213 256 305
#     4   9  19  36  55  76 105 140 177 215 257 308
#     4   9  19  36  55  76 105 140 177 215 257 308
#
# _framework density 21.387550999999998
#
# number of rings (size 3 to 8) (size 9 to 14) (size 15 to 20)
#    0.000    2.500    0.000    3.000    0.000    9.500 
#    0.000    5.000    0.000    0.000    0.000    0.000 
#    0.000    0.000    0.000    0.000    0.000    0.000 
#
# Total GULP energy -178744.938427 kJ/mol
# GULP energy per Si atom -5585.779326 kJ/mol
# Density = 2.133887 g / cm^3
# Si number density = 21.387551 Si / 1000 Ang^3
#
#
#
# Elastic Constant Matrix: (Units=GPa)
#
#
# Indices 1 2 3 4 5 6 
#
# 1 15.8114 4.6172 4.8780 0.0000 0.8582 0.0000
# 2 4.6172 84.5130 -12.9312 0.0000 -0.4013 0.0000
# 3 4.8780 -12.9312 86.6457 0.0000 0.7624 0.0000
# 4 0.0000 0.0000 0.0000 -10.4399 0.0000 -0.7898
# 5 0.8582 -0.4013 0.7624 0.0000 24.2217 0.0000
# 6 0.0000 0.0000 0.0000 -0.7898 0.0000 24.0894
#
#
#
# Elastic Compliance Matrix: (Units=1/GPa)
#
#
# Indices 1 2 3 4 5 6 
#
# 1 0.065954 -0.004277 -0.004331 0.000000 -0.002271 0.000000
# 2 -0.004277 0.012387 0.002087 0.000000 0.000291 0.000000
# 3 -0.004331 0.002087 0.012098 0.000000 -0.000193 0.000000
# 4 0.000000 0.000000 0.000000 -0.095549 0.000000 -0.003133
# 5 -0.002271 0.000291 -0.000193 0.000000 0.041377 0.000000
# 6 0.000000 0.000000 0.000000 -0.003133 0.000000 0.041409
#
#
# Mechanical properties :
#
#
# Convention : Reuss Voigt Hill
#
# Bulk Modulus (GPa) = 12.92047 20.01089 16.46568
# Shear Modulus (GPa) = 42.91197 20.26796 31.58996
#
# Velocity S-wave (km/s) = 4.48414 3.08174 3.84738
# Velocity P-wave (km/s) = 5.73274 4.69462 5.23945
#
# Compressibility (1/GPa) = 0.07739658
#
# Stress axis : x y z
#
# Youngs Moduli (GPa) = 15.16204 80.73081 82.65656
#
# Poissons Ratio (x) = 0.34527 0.35802
# Poissons Ratio (y) = 0.06485 -0.17249
# Poissons Ratio (z) = 0.06567 -0.16847
#
# Static dielectric constant tensor:
#      x y z
#    x 1.715980 0.000000 0.001740 
#    y 0.000000 1.780330 0.000000 
#    z 0.001740 0.000000 1.792000 
# 
# From -- ./inp_files/199762.got.cif
#   From: 2010.05.17/outbox.cif.g08.bks.cpg/sg12_100_cif.got.tgz:199762.got - 2010.06.03 13:09:07.
