data_PCOD9205760
_publ_section_title
;
Structure prediction by ZEFSAII (Michael W. Deem and Ramdas Pophale) SiO2 
 PCOD9205760
Probable space group: C 2/M
;
_chemical_formula_sum "Si O2"
_cell_formula_units_Z 48
_cell_length_a 19.137531
_cell_length_b 10.308896
_cell_length_c 17.887523
_cell_angle_alpha 90.000000
_cell_angle_beta 37.761956
_cell_angle_gamma 90.000000
_cell_volume 2161.080142
_symmetry_space_group_name_H-M "C 2/M"
_symmetry_group_IT_number 12
_symmetry_cell_setting 'monoclinic'
loop_
_space_group_symop_operation_xyz
x,y,z
-x,y,-z
-x,-y,-z
x,-y,z
1/2+x,1/2+y,z
1/2-x,1/2+y,-z
1/2-x,1/2-y,-z
1/2+x,1/2-y,z
loop_
_atom_site_type_symbol
_atom_site_label
_atom_site_fract_x
_atom_site_fract_y
_atom_site_fract_z
Si Si1 0.260773 0.856449 0.169673
Si Si2 0.523742 0.847132 0.116248
Si Si3 0.384547 0.144312 0.443879
Si Si4 0.903967 0.648358 0.644235
Si Si5 0.849973 0.850770 0.895236
Si Si6 0.715419 0.855682 0.639123
O O1 0.201352 0.745392 0.267767
O O2 0.172802 0.864448 0.173387
O O3 0.262502 0.000000 0.201936
O O4 0.385347 0.829802 0.027895
O O5 0.547518 0.729767 0.154340
O O6 0.388887 0.839231 0.214685
O O7 0.543500 0.000000 0.125028
O O8 0.518698 0.158921 0.345930
O O9 0.348387 0.149239 0.388097
O O10 0.312347 0.249535 0.549754
O O11 0.354397 0.000000 0.496846
O O12 0.864801 0.500000 0.671767
O O13 0.000000 0.672092 0.500000
O O14 0.843596 0.000000 0.930202
O O15 0.750000 0.750000 0.000000
O O16 0.764913 0.000000 0.604032
#
# Coordination Sequence:
#
# PCOD9205760 Si02
#       6
#     8   8   8   8   8   8
#     4   9  18  30  45  68  96 124 157 200 244 288
#     4   9  17  29  45  69 100 129 158 194 241 294
#     4   9  18  32  49  71  99 128 161 200 238 281
#     4  10  21  36  53  71  93 126 167 208 248 289
#     4   9  16  25  39  63  95 128 158 189 231 284
#     4   9  17  30  50  74 101 131 157 189 238 294
#
# _framework density 22.211116000000001
#
# number of rings (size 3 to 8) (size 9 to 14) (size 15 to 20)
#    0.000    2.833    0.000    2.500    0.000    6.333 
#    0.000    3.333    0.000    1.000    0.000    7.000 
#    0.000    0.000    0.000    0.000    0.000    0.000 
#
# Total GULP energy -133728.402944 kJ/mol
# GULP energy per Si atom -5572.016789 kJ/mol
# Density = 2.216056 g / cm^3
# Si number density = 22.211116 Si / 1000 Ang^3
#
#
#
# Elastic Constant Matrix: (Units=GPa)
#
#
# Indices 1 2 3 4 5 6 
#
# 1 64.4674 27.4266 8.5399 0.0000 2.8455 0.0000
# 2 27.4266 191.0394 108.4273 0.0000 -24.9650 0.0000
# 3 8.5399 108.4273 114.5297 0.0000 -11.7868 0.0000
# 4 0.0000 0.0000 0.0000 32.9281 0.0000 -3.5648
# 5 2.8455 -24.9650 -11.7868 0.0000 32.5229 0.0000
# 6 0.0000 0.0000 0.0000 -3.5648 0.0000 13.5057
#
#
#
# Elastic Compliance Matrix: (Units=1/GPa)
#
#
# Indices 1 2 3 4 5 6 
#
# 1 0.017230 -0.004393 0.002464 0.000000 -0.003987 0.000000
# 2 -0.004393 0.013271 -0.011580 0.000000 0.006374 0.000000
# 3 0.002464 -0.011580 0.019293 0.000000 -0.002112 0.000000
# 4 0.000000 0.000000 0.000000 0.031263 0.000000 0.008252
# 5 -0.003987 0.006374 -0.002112 0.000000 0.035224 0.000000
# 6 0.000000 0.000000 0.000000 0.008252 0.000000 0.076221
#
#
# Mechanical properties :
#
#
# Convention : Reuss Voigt Hill
#
# Bulk Modulus (GPa) = 43.90611 73.20270 58.55440
# Shear Modulus (GPa) = 22.01567 30.83419 26.42493
#
# Velocity S-wave (km/s) = 3.15175 3.72994 3.45297
# Velocity P-wave (km/s) = 5.74937 7.18186 6.50517
#
# Compressibility (1/GPa) = 0.02277588
#
# Stress axis : x y z
#
# Youngs Moduli (GPa) = 58.03740 75.35481 51.83193
#
# Poissons Ratio (x) = 0.33104 -0.12771
# Poissons Ratio (y) = 0.25497 0.60021
# Poissons Ratio (z) = -0.14300 0.87260
#
# Static dielectric constant tensor:
#      x y z
#    x 1.943270 0.000000 0.062460 
#    y 0.000000 1.798070 0.000000 
#    z 0.062460 0.000000 1.832340 
# 
# From -- ./inp_files/351029.got.cif
#   From: 2010.05.17/outbox.cif.g08.bks.cpg/sg12_176_cif.got.tgz:351029.got - 2010.06.03 13:09:07.
