data_PCOD9205628
_publ_section_title
;
Structure prediction by ZEFSAII (Michael W. Deem and Ramdas Pophale) SiO2 
 PCOD9205628
Probable space group: C 2/M
;
_chemical_formula_sum "Si O2"
_cell_formula_units_Z 50
_cell_length_a 15.983620
_cell_length_b 14.938251
_cell_length_c 28.864310
_cell_angle_alpha 90.000000
_cell_angle_beta 22.013435
_cell_angle_gamma 90.000000
_cell_volume 2583.232300
_symmetry_space_group_name_H-M "C 2/M"
_symmetry_group_IT_number 12
_symmetry_cell_setting 'monoclinic'
loop_
_space_group_symop_operation_xyz
x,y,z
-x,y,-z
-x,-y,-z
x,-y,z
1/2+x,1/2+y,z
1/2-x,1/2+y,-z
1/2-x,1/2-y,-z
1/2+x,1/2-y,z
loop_
_atom_site_type_symbol
_atom_site_label
_atom_site_fract_x
_atom_site_fract_y
_atom_site_fract_z
Si Si1 0.500000 0.000000 0.500000
Si Si2 0.795743 0.293772 0.137403
Si Si3 0.793700 0.898996 0.727883
Si Si4 0.702117 0.666510 0.636783
Si Si5 0.690437 0.103283 0.514032
Si Si6 0.623436 0.099850 0.237321
Si Si7 0.756698 0.136506 0.641401
O O1 0.308099 0.079403 0.605019
O O2 0.810472 0.331339 0.181877
O O3 0.563160 0.333582 0.236690
O O4 0.774193 0.185977 0.150660
O O5 0.000000 0.319310 0.000000
O O6 0.716713 0.888065 0.714935
O O7 0.063853 0.888726 0.590036
O O8 0.748134 0.000000 0.767416
O O9 0.810155 0.668344 0.529444
O O10 0.752493 0.756313 0.638253
O O11 0.505642 0.116184 0.647747
O O12 0.665644 0.000000 0.507939
O O13 0.432372 0.101263 0.296054
O O14 0.724668 0.000000 0.186599
O O15 0.000000 0.104698 0.500000
#
# Coordination Sequence:
#
# PCOD9205628 Si02
#       7
#     2   8   8   8   8   8   8
#     4  12  20  36  58  92 126 158 190 250 330 368
#     4  10  24  43  62  88 118 169 220 251 292 361
#     4  10  21  36  60  88 121 158 200 259 308 366
#     4  10  22  35  58  90 127 159 196 254 305 373
#     4   9  17  32  54  86 119 152 198 243 311 368
#     4  10  21  35  59  90 124 160 203 259 310 368
#     4  11  20  32  56  91 127 158 187 248 324 373
#
# _framework density 19.355595999999998
#
# number of rings (size 3 to 8) (size 9 to 14) (size 15 to 20)
#    0.000    1.920    3.200    0.480    3.360    3.200 
#    0.000    3.200    0.000    0.000    4.160    0.000 
#    0.000    0.000    0.000    0.000    0.000    0.000 
#
# Total GULP energy -139351.581297 kJ/mol
# GULP energy per Si atom -5574.063252 kJ/mol
# Density = 1.931154 g / cm^3
# Si number density = 19.355596 Si / 1000 Ang^3
#
#
#
# Elastic Constant Matrix: (Units=GPa)
#
#
# Indices 1 2 3 4 5 6 
#
# 1 40.4610 22.6544 26.8103 0.0107 4.2435 -0.0303
# 2 22.6544 114.4185 19.1397 -0.0052 0.0123 -0.0159
# 3 26.8103 19.1397 82.8221 0.0832 11.9652 -0.1898
# 4 0.0107 -0.0052 0.0832 20.5510 0.0031 -6.9598
# 5 4.2435 0.0123 11.9652 0.0031 12.7076 0.0118
# 6 -0.0303 -0.0159 -0.1898 -6.9598 0.0118 38.0726
#
#
#
# Elastic Compliance Matrix: (Units=1/GPa)
#
#
# Indices 1 2 3 4 5 6 
#
# 1 0.034172 -0.005175 -0.009512 0.000013 -0.002450 -0.000019
# 2 -0.005175 0.009932 -0.001005 0.000007 0.002665 -0.000004
# 3 -0.009512 -0.001005 0.017277 -0.000038 -0.013090 0.000075
# 4 0.000013 0.000007 -0.000038 0.051871 0.000009 0.009482
# 5 -0.002450 0.002665 -0.013090 0.000009 0.091834 -0.000093
# 6 -0.000019 -0.000004 0.000075 0.009482 -0.000093 0.027999
#
#
# Mechanical properties :
#
#
# Convention : Reuss Voigt Hill
#
# Bulk Modulus (GPa) = 33.33617 41.65671 37.49644
# Shear Modulus (GPa) = 18.21699 25.53939 21.87819
#
# Velocity S-wave (km/s) = 3.07118 3.63641 3.36568
# Velocity P-wave (km/s) = 5.46229 6.26098 5.87522
#
# Compressibility (1/GPa) = 0.02999745
#
# Stress axis : x y z
#
# Youngs Moduli (GPa) = 29.26342 100.68217 57.88064
#
# Poissons Ratio (x) = 0.52098 0.55058
# Poissons Ratio (y) = 0.15142 0.05818
# Poissons Ratio (z) = 0.27836 0.10121
#
# Static dielectric constant tensor:
#      x y z
#    x 1.915800 0.000040 0.060330 
#    y 0.000040 1.729100 0.000020 
#    z 0.060330 0.000020 1.656600 
# 
# From -- ./inp_files/379423.got.cif
#   From: 2010.05.17/outbox.cif.g08.bks.cpg/sg12_190_cif.got.tgz:379423.got - 2010.06.03 13:09:07.
