data_PCOD9205466
_publ_section_title
;
Structure prediction by ZEFSAII (Michael W. Deem and Ramdas Pophale) SiO2 
 PCOD9205466
Probable space group: C 2/M
;
_chemical_formula_sum "Si O2"
_cell_formula_units_Z 56
_cell_length_a 21.893315
_cell_length_b 13.767687
_cell_length_c 19.148760
_cell_angle_alpha 90.000000
_cell_angle_beta 149.589747
_cell_angle_gamma 90.000000
_cell_volume 2921.629212
_symmetry_space_group_name_H-M "C 2/M"
_symmetry_group_IT_number 12
_symmetry_cell_setting 'monoclinic'
loop_
_space_group_symop_operation_xyz
x,y,z
-x,y,-z
-x,-y,-z
x,-y,z
1/2+x,1/2+y,z
1/2-x,1/2+y,-z
1/2-x,1/2-y,-z
1/2+x,1/2-y,z
loop_
_atom_site_type_symbol
_atom_site_label
_atom_site_fract_x
_atom_site_fract_y
_atom_site_fract_z
Si Si1 0.361559 0.756971 0.058523
Si Si2 0.586735 0.114085 0.997444
Si Si3 0.992860 0.883877 0.077023
Si Si4 0.425716 0.265976 0.627505
Si Si5 0.053254 0.115750 0.475840
Si Si6 0.826578 0.617604 0.767449
Si Si7 0.281966 0.614782 0.598515
O O1 0.336063 0.853999 0.990326
O O2 0.398902 0.677116 0.034483
O O3 0.478397 0.769993 0.221873
O O4 0.250000 0.750000 0.000000
O O5 0.448707 0.148596 0.849367
O O6 0.579549 0.000000 0.998652
O O7 0.645356 0.150700 0.126384
O O8 0.123529 0.870927 0.244155
O O9 0.964664 0.000000 0.053190
O O10 0.000000 0.859450 0.000000
O O11 0.497478 0.319179 0.636023
O O12 0.346872 0.346427 0.591858
O O13 0.337948 0.180182 0.515081
O O14 0.194687 0.145707 0.614003
O O15 0.000000 0.133891 0.500000
O O16 0.041318 0.000000 0.451121
O O17 0.822772 0.500000 0.762389
O O18 0.256629 0.500000 0.568109
#
# Coordination Sequence:
#
# PCOD9205466 Si02
#       7
#     8   8   8   8   8   8   8
#     4  11  25  38  54  86 117 156 193 232 297 350
#     4   9  19  35  56  82 112 142 181 232 280 333
#     4   9  20  40  64  87 110 149 204 248 284 338
#     4  10  22  37  54  84 115 145 188 232 281 347
#     4  10  21  35  56  83 113 149 181 222 286 348
#     4   8  17  33  55  84 107 135 182 228 278 333
#     4   9  19  37  61  85 111 143 185 241 292 333
#
# _framework density 19.167387000000002
#
# number of rings (size 3 to 8) (size 9 to 14) (size 15 to 20)
#    0.000    2.571    0.000    1.286   10.000    1.714 
#    0.000    0.000    0.000    0.429    0.000    0.000 
#    0.000    0.000    0.000    0.000    0.000    0.000 
#
# Total GULP energy -155900.125197 kJ/mol
# GULP energy per Si atom -5567.861614 kJ/mol
# Density = 1.912376 g / cm^3
# Si number density = 19.167387 Si / 1000 Ang^3
#
#
#
# Elastic Constant Matrix: (Units=GPa)
#
#
# Indices 1 2 3 4 5 6 
#
# 1 102.6610 25.9620 33.2145 0.0000 -18.6994 0.0000
# 2 25.9620 76.9577 32.2700 0.0000 -14.5210 0.0000
# 3 33.2145 32.2700 58.4366 0.0000 -11.9487 0.0000
# 4 0.0000 0.0000 0.0000 21.6193 0.0000 -6.5992
# 5 -18.6994 -14.5210 -11.9487 0.0000 21.1313 0.0000
# 6 0.0000 0.0000 0.0000 -6.5992 0.0000 27.4596
#
#
#
# Elastic Compliance Matrix: (Units=1/GPa)
#
#
# Indices 1 2 3 4 5 6 
#
# 1 0.013145 -0.000606 -0.005476 0.000000 0.008119 0.000000
# 2 -0.000606 0.017956 -0.008094 0.000000 0.007226 0.000000
# 3 -0.005476 -0.008094 0.025517 0.000000 0.004021 0.000000
# 4 0.000000 0.000000 0.000000 0.049917 0.000000 0.011996
# 5 0.008119 0.007226 0.004021 0.000000 0.061746 0.000000
# 6 0.000000 0.000000 0.000000 0.011996 0.000000 0.039300
#
#
# Mechanical properties :
#
#
# Convention : Reuss Voigt Hill
#
# Bulk Modulus (GPa) = 35.37933 46.77202 41.07568
# Shear Modulus (GPa) = 20.37865 23.81598 22.09731
#
# Velocity S-wave (km/s) = 3.26420 3.52877 3.39906
# Velocity P-wave (km/s) = 5.71882 6.40764 6.07300
#
# Compressibility (1/GPa) = 0.02826509
#
# Stress axis : x y z
#
# Youngs Moduli (GPa) = 76.07619 55.69203 39.18979
#
# Poissons Ratio (x) = 0.03376 0.21462
# Poissons Ratio (y) = 0.04611 0.31719
# Poissons Ratio (z) = 0.41663 0.45075
#
# Static dielectric constant tensor:
#      x y z
#    x 1.672120 0.000000 -0.007620 
#    y 0.000000 1.692300 0.000000 
#    z -0.007620 0.000000 1.678190 
# 
# From -- ./inp_files/284575.got.cif
#   From: 2010.05.17/outbox.cif.g08.bks.cpg/sg12_143_cif.got.tgz:284575.got - 2010.06.03 13:09:07.
