data_PCOD9205077
_publ_section_title
;
Structure prediction by ZEFSAII (Michael W. Deem and Ramdas Pophale) SiO2 
 PCOD9205077
Probable space group: C 2/M
;
_chemical_formula_sum "Si O2"
_cell_formula_units_Z 60
_cell_length_a 9.319972
_cell_length_b 25.374238
_cell_length_c 20.683791
_cell_angle_alpha 90.000000
_cell_angle_beta 141.786717
_cell_angle_gamma 90.000000
_cell_volume 3025.805790
_symmetry_space_group_name_H-M "C 2/M"
_symmetry_group_IT_number 12
_symmetry_cell_setting 'monoclinic'
loop_
_space_group_symop_operation_xyz
x,y,z
-x,y,-z
-x,-y,-z
x,-y,z
1/2+x,1/2+y,z
1/2-x,1/2+y,-z
1/2-x,1/2-y,-z
1/2+x,1/2-y,z
loop_
_atom_site_type_symbol
_atom_site_label
_atom_site_fract_x
_atom_site_fract_y
_atom_site_fract_z
Si Si1 0.159320 0.221139 0.120415
Si Si2 0.647903 0.363139 0.923896
Si Si3 0.821060 0.939591 0.555983
Si Si4 0.000000 0.127603 0.500000
Si Si5 0.230999 0.560385 0.661016
Si Si6 0.406366 0.144591 0.734458
Si Si7 0.722770 0.436766 0.175804
Si Si8 0.177265 0.343636 0.151719
O O1 0.396989 0.189562 0.193697
O O2 0.210191 0.280912 0.156858
O O3 0.008574 0.188745 0.119562
O O4 0.000000 0.221119 0.000000
O O5 0.524278 0.408600 0.923825
O O6 0.689190 0.370759 0.861309
O O7 0.904608 0.354197 0.042245
O O8 0.922868 0.907967 0.532906
O O9 0.544621 0.941501 0.447191
O O10 0.842657 0.916437 0.635948
O O11 0.907520 0.000000 0.585524
O O12 0.226294 0.155157 0.611836
O O13 0.316570 0.500000 0.694137
O O14 0.258903 0.581109 0.742487
O O15 0.555424 0.090777 0.777742
O O16 0.280649 0.141615 0.759057
O O17 0.721736 0.500000 0.168438
#
# Coordination Sequence:
#
# PCOD9205077 Si02
#       8
#     8   8   8   4   8   8   8   8
#     4  11  19  40  71  95 117 149 196 257 318 368
#     4  10  21  34  63  96 123 145 194 250 309 369
#     4   9  17  30  54  76 104 154 211 261 290 318
#     4  12  23  36  50  86 132 158 196 254 297 346
#     4   8  15  31  52  76 103 149 210 249 286 337
#     4  11  25  38  60  90 126 162 208 245 300 366
#     4  10  21  39  57  84 128 172 201 234 294 372
#     4  11  21  39  63  97 118 143 197 268 317 347
#
# _framework density 19.829429000000001
#
# number of rings (size 3 to 8) (size 9 to 14) (size 15 to 20)
#    0.000    1.867    4.000    2.200    1.867    0.533 
#    0.000    4.000    0.000    0.000    0.000    0.000 
#    0.000    0.000    0.000    0.000    0.000    0.000 
#
# Total GULP energy -167165.048923 kJ/mol
# GULP energy per Si atom -5572.168297 kJ/mol
# Density = 1.978430 g / cm^3
# Si number density = 19.829429 Si / 1000 Ang^3
#
#
#
# Elastic Constant Matrix: (Units=GPa)
#
#
# Indices 1 2 3 4 5 6 
#
# 1 118.0050 32.7325 31.6065 0.0003 -10.4002 0.0001
# 2 32.7325 78.2953 24.9770 0.0001 7.6455 0.0001
# 3 31.6065 24.9770 49.6164 0.0011 0.3912 0.0004
# 4 0.0003 0.0001 0.0011 52.9860 0.0004 3.8135
# 5 -10.4002 7.6455 0.3912 0.0004 33.2753 0.0001
# 6 0.0001 0.0001 0.0004 3.8135 0.0001 27.4600
#
#
#
# Elastic Compliance Matrix: (Units=1/GPa)
#
#
# Indices 1 2 3 4 5 6 
#
# 1 0.011273 -0.003380 -0.005514 0.000000 0.004365 0.000000
# 2 -0.003380 0.016625 -0.006178 0.000000 -0.004804 0.000000
# 3 -0.005514 -0.006178 0.026782 0.000000 -0.000619 0.000000
# 4 0.000000 0.000000 0.000000 0.019063 0.000000 -0.002647
# 5 0.004365 -0.004804 -0.000619 0.000000 0.032528 0.000000
# 6 0.000000 0.000000 0.000000 -0.002647 0.000000 0.036784
#
#
# Mechanical properties :
#
#
# Convention : Reuss Voigt Hill
#
# Bulk Modulus (GPa) = 40.75648 47.17208 43.96428
# Shear Modulus (GPa) = 27.56648 33.18431 30.37540
#
# Velocity S-wave (km/s) = 3.73256 4.09527 3.91811
# Velocity P-wave (km/s) = 6.25892 6.79722 6.53362
#
# Compressibility (1/GPa) = 0.02453598
#
# Stress axis : x y z
#
# Youngs Moduli (GPa) = 88.70397 60.14948 37.33827
#
# Poissons Ratio (x) = 0.20332 0.20589
# Poissons Ratio (y) = 0.29984 0.23068
# Poissons Ratio (z) = 0.48913 0.37161
#
# Static dielectric constant tensor:
#      x y z
#    x 1.734840 0.000000 -0.005730 
#    y 0.000000 1.710350 0.000000 
#    z -0.005730 0.000000 1.797760 
# 
# From -- ./inp_files/302780.got.cif
#   From: 2010.05.17/outbox.cif.g08.bks.cpg/sg12_152_cif.got.tgz:302780.got - 2010.06.03 13:09:07.
