data_PCOD9205567
_publ_section_title
;
Structure prediction by ZEFSAII (Michael W. Deem and Ramdas Pophale) SiO2 
 PCOD9205567
Probable space group: C 2/M
;
_chemical_formula_sum "Si O2"
_cell_formula_units_Z 52
_cell_length_a 20.075635
_cell_length_b 29.059724
_cell_length_c 5.427625
_cell_angle_alpha 90.000000
_cell_angle_beta 128.269023
_cell_angle_gamma 90.000000
_cell_volume 2486.004215
_symmetry_space_group_name_H-M "C 2/M"
_symmetry_group_IT_number 12
_symmetry_cell_setting 'monoclinic'
loop_
_space_group_symop_operation_xyz
x,y,z
-x,y,-z
-x,-y,-z
x,-y,z
1/2+x,1/2+y,z
1/2-x,1/2+y,-z
1/2-x,1/2-y,-z
1/2+x,1/2-y,z
loop_
_atom_site_type_symbol
_atom_site_label
_atom_site_fract_x
_atom_site_fract_y
_atom_site_fract_z
Si Si1 0.443968 0.720800 0.120806
Si Si2 0.725731 0.947219 0.767152
Si Si3 0.054287 0.000000 0.373460
Si Si4 0.444802 0.825140 0.122451
Si Si5 0.877284 0.872578 0.078144
Si Si6 0.116069 0.902472 0.405739
Si Si7 0.685993 0.908013 0.176787
O O1 0.500000 0.719414 0.500000
O O2 0.409600 0.772883 0.028369
O O3 0.500000 0.713301 0.000000
O O4 0.374519 0.680325 0.987115
O O5 0.796555 0.906443 0.927140
O O6 0.674155 0.937081 0.399364
O O7 0.758444 0.000000 0.830112
O O8 0.676657 0.938477 0.909152
O O9 0.109794 0.954625 0.480524
O O10 0.000000 0.000000 0.500000
O O11 0.000000 0.000000 0.000000
O O12 0.500000 0.828487 0.500000
O O13 0.500000 0.831395 0.000000
O O14 0.373889 0.864095 0.967265
O O15 0.923717 0.897085 0.955531
O O16 0.916503 0.872802 0.440911
O O17 0.215528 0.891393 0.594724
#
# Coordination Sequence:
#
# PCOD9205567 Si02
#       7
#     8   8   4   8   8   8   8
#     4  10  21  37  59  85 118 159 194 242 313 369
#     4  10  21  36  60  85 114 160 199 243 293 350
#     4  12  26  40  56  84 116 156 208 246 280 340
#     4  10  21  40  66  92 119 152 199 252 310 374
#     4  10  21  35  58  81 116 153 198 247 282 351
#     4  10  23  37  57  83 117 160 201 246 289 343
#     4  10  21  38  63  89 116 160 205 248 304 356
#
# _framework density 20.917099
#
# number of rings (size 3 to 8) (size 9 to 14) (size 15 to 20)
#    0.000    1.846    0.000    3.231    8.615    3.692 
#    0.000    6.154    0.000    9.231    0.000    0.000 
#    0.000    0.000    0.000    0.000    0.000    0.000 
#
# Total GULP energy -144970.045399 kJ/mol
# GULP energy per Si atom -5575.770977 kJ/mol
# Density = 2.086949 g / cm^3
# Si number density = 20.917099 Si / 1000 Ang^3
#
#
#
# Elastic Constant Matrix: (Units=GPa)
#
#
# Indices 1 2 3 4 5 6 
#
# 1 78.7489 53.6245 57.9625 0.0000 -32.6146 0.0000
# 2 53.6245 151.8164 50.9821 0.0000 7.9823 0.0000
# 3 57.9625 50.9821 99.8574 0.0000 -45.9167 0.0000
# 4 0.0000 0.0000 0.0000 28.4511 0.0000 -4.4759
# 5 -32.6146 7.9823 -45.9167 0.0000 52.1207 0.0000
# 6 0.0000 0.0000 0.0000 -4.4759 0.0000 30.2842
#
#
#
# Elastic Compliance Matrix: (Units=1/GPa)
#
#
# Indices 1 2 3 4 5 6 
#
# 1 0.029129 -0.009326 -0.005226 0.000000 0.015052 0.000000
# 2 -0.009326 0.013631 -0.008723 0.000000 -0.015608 0.000000
# 3 -0.005226 -0.008723 0.027923 0.000000 0.022665 0.000000
# 4 0.000000 0.000000 0.000000 0.035985 0.000000 0.005318
# 5 0.015052 -0.015608 0.022665 0.000000 0.050963 0.000000
# 6 0.000000 0.000000 0.000000 0.005318 0.000000 0.033807
#
#
# Mechanical properties :
#
#
# Convention : Reuss Voigt Hill
#
# Bulk Modulus (GPa) = 41.43384 72.84011 57.13698
# Shear Modulus (GPa) = 20.32271 33.36142 26.84207
#
# Velocity S-wave (km/s) = 3.12041 3.99800 3.58615
# Velocity P-wave (km/s) = 5.73011 7.49739 6.67252
#
# Compressibility (1/GPa) = 0.02413486
#
# Stress axis : x y z
#
# Youngs Moduli (GPa) = 34.32974 73.36334 35.81297
#
# Poissons Ratio (x) = 0.68416 0.18714
# Poissons Ratio (y) = 0.32015 0.31239
# Poissons Ratio (z) = 0.17939 0.63994
#
# Static dielectric constant tensor:
#      x y z
#    x 1.758730 0.000000 -0.021050 
#    y 0.000000 1.738230 0.000000 
#    z -0.021050 0.000000 1.856750 
# 
# From -- ./inp_files/21815.got.cif
#   From: 2010.05.17/outbox.cif.g08.bks.cpg/sg12_11_cif.got.tgz:21815.got - 2010.06.03 13:09:07.
