data_PCOD9205476
_publ_section_title
;
Structure prediction by ZEFSAII (Michael W. Deem and Ramdas Pophale) SiO2 
 PCOD9205476
Probable space group: C 2/M
;
_chemical_formula_sum "Si O2"
_cell_formula_units_Z 56
_cell_length_a 30.562648
_cell_length_b 15.170731
_cell_length_c 6.836360
_cell_angle_alpha 90.000000
_cell_angle_beta 85.299448
_cell_angle_gamma 90.000000
_cell_volume 3159.069951
_symmetry_space_group_name_H-M "C 2/M"
_symmetry_group_IT_number 12
_symmetry_cell_setting 'monoclinic'
loop_
_space_group_symop_operation_xyz
x,y,z
-x,y,-z
-x,-y,-z
x,-y,z
1/2+x,1/2+y,z
1/2-x,1/2+y,-z
1/2-x,1/2-y,-z
1/2+x,1/2-y,z
loop_
_atom_site_type_symbol
_atom_site_label
_atom_site_fract_x
_atom_site_fract_y
_atom_site_fract_z
Si Si1 0.818511 0.820315 0.622700
Si Si2 0.616826 0.598856 0.123995
Si Si3 0.785308 0.679656 0.906548
Si Si4 0.948032 0.102656 0.494626
Si Si5 0.844601 0.601658 0.228970
Si Si6 0.763056 0.401786 0.529359
Si Si7 0.113681 0.216398 0.743134
O O1 0.818756 0.734520 0.758415
O O2 0.769014 0.838336 0.577017
O O3 0.846400 0.810059 0.415938
O O4 0.840576 0.893027 0.752538
O O5 0.613081 0.500000 0.045639
O O6 0.618480 0.668387 0.948892
O O7 0.576672 0.615577 0.288839
O O8 0.761674 0.616416 0.760074
O O9 0.750000 0.750000 0.000000
O O10 0.812222 0.629617 0.063058
O O11 0.928193 0.173275 0.350091
O O12 0.000000 0.111844 0.500000
O O13 0.938765 0.000000 0.438637
O O14 0.859475 0.500000 0.200331
O O15 0.812262 0.605199 0.428408
O O16 0.881308 0.677964 0.234017
O O17 0.747113 0.500000 0.494177
#
# Coordination Sequence:
#
# PCOD9205476 Si02
#       7
#     8   8   8   8   8   8   8
#     4  11  21  35  52  76 110 144 188 236 281 326
#     4  10  21  35  56  85 115 148 181 219 271 333
#     4  12  21  36  53  72 102 148 195 242 285 323
#     4   9  20  39  62  91 120 141 172 216 268 340
#     4  11  23  38  55  79 109 148 198 241 277 323
#     4  11  23  36  51  74 106 149 196 240 283 322
#     4  11  21  37  58  81 114 148 182 223 280 332
#
# _framework density 17.726737
#
# number of rings (size 3 to 8) (size 9 to 14) (size 15 to 20)
#    0.000    1.286    4.286    2.571    0.000    2.286 
#    0.000    2.143    0.000    0.429    0.000    1.000 
#    0.000    0.000    0.000    0.000    0.000    0.000 
#
# Total GULP energy -156191.774251 kJ/mol
# GULP energy per Si atom -5578.277652 kJ/mol
# Density = 1.768639 g / cm^3
# Si number density = 17.726737 Si / 1000 Ang^3
#
#
#
# Elastic Constant Matrix: (Units=GPa)
#
#
# Indices 1 2 3 4 5 6 
#
# 1 59.1938 42.8504 22.5122 0.0000 7.1888 0.0000
# 2 42.8504 133.5867 56.4196 0.0000 12.8000 0.0000
# 3 22.5122 56.4196 90.2863 0.0000 5.4881 0.0000
# 4 0.0000 0.0000 0.0000 28.9024 0.0000 4.3188
# 5 7.1888 12.8000 5.4881 0.0000 13.1737 0.0000
# 6 0.0000 0.0000 0.0000 4.3188 0.0000 22.4613
#
#
#
# Elastic Compliance Matrix: (Units=1/GPa)
#
#
# Indices 1 2 3 4 5 6 
#
# 1 0.022541 -0.006045 -0.001490 0.000000 -0.005807 0.000000
# 2 -0.006045 0.012551 -0.005946 0.000000 -0.006419 0.000000
# 3 -0.001490 -0.005946 0.015146 0.000000 0.000280 0.000000
# 4 0.000000 0.000000 0.000000 0.035623 0.000000 -0.006849
# 5 -0.005807 -0.006419 0.000280 0.000000 0.085198 0.000000
# 6 0.000000 0.000000 0.000000 -0.006849 0.000000 0.045838
#
#
# Mechanical properties :
#
#
# Convention : Reuss Voigt Hill
#
# Bulk Modulus (GPa) = 42.96099 58.51457 50.73778
# Shear Modulus (GPa) = 19.87147 23.65979 21.76563
#
# Velocity S-wave (km/s) = 3.35175 3.65731 3.50786
# Velocity P-wave (km/s) = 6.26632 7.13551 6.71499
#
# Compressibility (1/GPa) = 0.02327693
#
# Stress axis : x y z
#
# Youngs Moduli (GPa) = 44.36275 79.67523 66.02496
#
# Poissons Ratio (x) = 0.48162 0.09839
# Poissons Ratio (y) = 0.26817 0.39256
# Poissons Ratio (z) = 0.06611 0.47372
#
# Static dielectric constant tensor:
#      x y z
#    x 1.590570 0.000000 0.002210 
#    y 0.000000 1.654610 0.000000 
#    z 0.002210 0.000000 1.618000 
# 
# From -- ./inp_files/31502.got.cif
#   From: 2010.05.17/outbox.cif.g08.bks.cpg/sg12_16_cif.got.tgz:31502.got - 2010.06.03 13:09:07.
