data_PCOD9205708
_publ_section_title
;
Structure prediction by ZEFSAII (Michael W. Deem and Ramdas Pophale) SiO2 
 PCOD9205708
Probable space group: C 2/M
;
_chemical_formula_sum "Si O2"
_cell_formula_units_Z 50
_cell_length_a 29.197745
_cell_length_b 7.327255
_cell_length_c 15.608515
_cell_angle_alpha 90.000000
_cell_angle_beta 130.408180
_cell_angle_gamma 90.000000
_cell_volume 2542.676921
_symmetry_space_group_name_H-M "C 2/M"
_symmetry_group_IT_number 12
_symmetry_cell_setting 'monoclinic'
loop_
_space_group_symop_operation_xyz
x,y,z
-x,y,-z
-x,-y,-z
x,-y,z
1/2+x,1/2+y,z
1/2-x,1/2+y,-z
1/2-x,1/2-y,-z
1/2+x,1/2-y,z
loop_
_atom_site_type_symbol
_atom_site_label
_atom_site_fract_x
_atom_site_fract_y
_atom_site_fract_z
Si Si1 0.500000 0.000000 0.500000
Si Si2 0.799325 0.778977 0.252945
Si Si3 0.666643 0.220921 0.057733
Si Si4 0.999935 0.219221 0.261566
Si Si5 0.912620 0.780740 0.487625
Si Si6 0.875405 0.212955 0.183590
Si Si7 0.958609 0.289527 0.023928
O O1 0.451774 0.160378 0.470905
O O2 0.730787 0.715011 0.170118
O O3 0.842934 0.738677 0.385207
O O4 0.834949 0.713099 0.211259
O O5 0.795599 0.000000 0.242387
O O6 0.664943 0.000000 0.058163
O O7 0.658489 0.271342 0.948116
O O8 0.607495 0.288758 0.036078
O O9 0.060111 0.263153 0.386012
O O10 0.942315 0.289590 0.246795
O O11 0.992807 0.286197 0.156478
O O12 0.994688 0.000000 0.250617
O O13 0.921237 0.000000 0.483895
O O14 0.884527 0.000000 0.214920
O O15 0.948041 0.500000 0.986223
O O16 0.000000 0.207203 0.000000
#
# Coordination Sequence:
#
# PCOD9205708 Si02
#       7
#     2   8   8   8   8   8   8
#     4  12  22  32  52  78 102 148 192 208 244 300
#     4   9  17  31  48  65  97 139 171 204 245 303
#     4   9  17  30  47  68  94 130 170 203 256 314
#     4   9  18  32  51  71  99 133 166 213 261 305
#     4  10  21  36  50  73 108 141 179 224 255 295
#     4   9  16  27  43  66  94 127 162 203 251 291
#     4   9  18  32  52  77 102 126 162 219 273 316
#
# _framework density 19.664314999999998
#
# number of rings (size 3 to 8) (size 9 to 14) (size 15 to 20)
#    0.000    2.720    0.000    1.680    1.120    2.880 
#    8.640    0.000    0.000    0.960    0.000    0.000 
#    0.000    0.000    0.000    0.000    0.000    0.000 
#
# Total GULP energy -139182.089958 kJ/mol
# GULP energy per Si atom -5567.283598 kJ/mol
# Density = 1.961956 g / cm^3
# Si number density = 19.664315 Si / 1000 Ang^3
#
#
#
# Elastic Constant Matrix: (Units=GPa)
#
#
# Indices 1 2 3 4 5 6 
#
# 1 120.8017 4.1998 85.0932 0.0000 4.6204 0.0000
# 2 4.1998 81.1263 -4.3031 0.0000 -0.0683 0.0000
# 3 85.0932 -4.3031 140.0486 0.0000 30.9038 0.0000
# 4 0.0000 0.0000 0.0000 12.0913 0.0000 -3.0626
# 5 4.6204 -0.0683 30.9038 0.0000 22.5872 0.0000
# 6 0.0000 0.0000 0.0000 -3.0626 0.0000 -0.0022
#
#
#
# Elastic Compliance Matrix: (Units=1/GPa)
#
#
# Indices 1 2 3 4 5 6 
#
# 1 0.017961 -0.001688 -0.014544 0.000000 0.016220 0.000000
# 2 -0.001688 0.012513 0.001899 0.000000 -0.002215 0.000000
# 3 -0.014544 0.001899 0.022029 0.000000 -0.027159 0.000000
# 4 0.000000 0.000000 0.000000 0.000232 0.000000 -0.325603
# 5 0.016220 -0.002215 -0.027159 0.000000 0.078107 0.000000
# 6 0.000000 0.000000 0.000000 -0.325603 0.000000 -1.285496
#
#
# Mechanical properties :
#
#
# Convention : Reuss Voigt Hill
#
# Bulk Modulus (GPa) = 41.95352 56.88404 49.41878
# Shear Modulus (GPa) = -4.47211 24.06772 9.79781
#
# Velocity S-wave (km/s) = -1.50969 3.50226 2.23458
# Velocity P-wave (km/s) = 4.28279 6.73386 5.64301
#
# Compressibility (1/GPa) = 0.02383590
#
# Stress axis : x y z
#
# Youngs Moduli (GPa) = 55.67467 79.91899 45.39484
#
# Poissons Ratio (x) = 0.13488 0.66024
# Poissons Ratio (y) = 0.09396 -0.08618
# Poissons Ratio (z) = 0.80976 -0.15173
#
# Static dielectric constant tensor:
#      x y z
#    x 1.677400 0.000000 0.022150 
#    y 0.000000 1.741680 0.000000 
#    z 0.022150 0.000000 1.717060 
# 
# From -- ./inp_files/242918.got.cif
#   From: 2010.05.17/outbox.cif.g08.bks.cpg/sg12_122_cif.got.tgz:242918.got - 2010.06.03 13:09:07.
