data_PCOD9205356
_publ_section_title
;
Structure prediction by ZEFSAII (Michael W. Deem and Ramdas Pophale) SiO2 
 PCOD9205356
Probable space group: C 2/M
;
_chemical_formula_sum "Si O2"
_cell_formula_units_Z 56
_cell_length_a 14.968482
_cell_length_b 9.572922
_cell_length_c 20.690129
_cell_angle_alpha 90.000000
_cell_angle_beta 71.181909
_cell_angle_gamma 90.000000
_cell_volume 2806.259780
_symmetry_space_group_name_H-M "C 2/M"
_symmetry_group_IT_number 12
_symmetry_cell_setting 'monoclinic'
loop_
_space_group_symop_operation_xyz
x,y,z
-x,y,-z
-x,-y,-z
x,-y,z
1/2+x,1/2+y,z
1/2-x,1/2+y,-z
1/2-x,1/2-y,-z
1/2+x,1/2-y,z
loop_
_atom_site_type_symbol
_atom_site_label
_atom_site_fract_x
_atom_site_fract_y
_atom_site_fract_z
Si Si1 0.098706 0.836500 0.670441
Si Si2 0.063730 0.842423 0.043160
Si Si3 0.724006 0.839848 0.819555
Si Si4 0.974161 0.166316 0.580171
Si Si5 0.198952 0.666929 0.319982
Si Si6 0.518095 0.220898 0.818902
Si Si7 0.685656 0.842361 0.093639
O O1 0.061043 0.804148 0.608277
O O2 0.209150 0.813388 0.656106
O O3 0.042337 0.758858 0.740204
O O4 0.081109 0.000000 0.686144
O O5 0.150631 0.741934 0.038748
O O6 0.003711 0.842767 0.123865
O O7 0.090393 0.000000 0.021275
O O8 0.000000 0.786141 0.000000
O O9 0.776222 0.753175 0.750665
O O10 0.613375 0.845042 0.826153
O O11 0.745761 0.751546 0.878802
O O12 0.758771 0.000000 0.817150
O O13 0.000000 0.193469 0.500000
O O14 0.889770 0.262519 0.625095
O O15 0.950532 0.000000 0.591430
O O16 0.187739 0.500000 0.310420
O O17 0.416399 0.147683 0.845282
O O18 0.717831 0.000000 0.075277
#
# Coordination Sequence:
#
# PCOD9205356 Si02
#       7
#     8   8   8   8   8   8   8
#     4   9  18  34  55  80 109 145 185 226 281 335
#     4   9  19  36  58  83 112 151 194 235 285 341
#     4  11  21  36  58  85 115 147 187 235 288 340
#     4  10  21  37  57  82 113 150 190 230 276 337
#     4  10  21  36  55  81 112 145 186 234 282 335
#     4   9  20  34  58  82 111 147 189 237 283 336
#     4  10  21  35  54  83 114 146 187 233 283 335
#
# _framework density 19.955387000000002
#
# number of rings (size 3 to 8) (size 9 to 14) (size 15 to 20)
#    0.857    1.429    0.000    3.000    0.000    4.000 
#    0.000    4.286    0.000    0.000    0.000    0.000 
#    0.000    0.000    0.000    0.000    0.000    0.000 
#
# Total GULP energy -156039.598844 kJ/mol
# GULP energy per Si atom -5572.842816 kJ/mol
# Density = 1.990997 g / cm^3
# Si number density = 19.955387 Si / 1000 Ang^3
#
#
#
# Elastic Constant Matrix: (Units=GPa)
#
#
# Indices 1 2 3 4 5 6 
#
# 1 85.2449 49.8498 44.2491 0.0000 19.9113 0.0000
# 2 49.8498 97.6607 32.5966 0.0000 10.3385 0.0000
# 3 44.2491 32.5966 71.8071 0.0000 22.9075 0.0000
# 4 0.0000 0.0000 0.0000 14.9338 0.0000 10.4604
# 5 19.9113 10.3385 22.9075 0.0000 39.8588 0.0000
# 6 0.0000 0.0000 0.0000 10.4604 0.0000 -6.9463
#
#
#
# Elastic Compliance Matrix: (Units=1/GPa)
#
#
# Indices 1 2 3 4 5 6 
#
# 1 0.021623 -0.007769 -0.008565 0.000000 -0.003864 0.000000
# 2 -0.007769 0.014860 -0.002408 0.000000 0.001411 0.000000
# 3 -0.008565 -0.002408 0.022939 0.000000 -0.008280 0.000000
# 4 0.000000 0.000000 0.000000 0.032588 0.000000 0.049074
# 5 -0.003864 0.001411 -0.008280 0.000000 0.031412 0.000000
# 6 0.000000 0.000000 0.000000 0.049074 0.000000 -0.070061
#
#
# Mechanical properties :
#
#
# Convention : Reuss Voigt Hill
#
# Bulk Modulus (GPa) = 45.58558 56.45598 51.02078
# Shear Modulus (GPa) = 50.93914 18.10372 34.52143
#
# Velocity S-wave (km/s) = 5.05786 3.01526 4.16376
# Velocity P-wave (km/s) = 7.55000 6.36199 6.98131
#
# Compressibility (1/GPa) = 0.02193676
#
# Stress axis : x y z
#
# Youngs Moduli (GPa) = 46.24776 67.29642 43.59461
#
# Poissons Ratio (x) = 0.52284 0.37338
# Poissons Ratio (y) = 0.35931 0.10497
# Poissons Ratio (z) = 0.39611 0.16205
#
# Static dielectric constant tensor:
#      x y z
#    x 1.725070 0.000000 -0.016490 
#    y 0.000000 1.699390 0.000000 
#    z -0.016490 0.000000 1.694990 
# 
# From -- ./inp_files/337864.got.cif
#   From: 2010.05.17/outbox.cif.g08.bks.cpg/sg12_169_cif.got.tgz:337864.got - 2010.06.03 13:09:07.
