data_PCOD9205670
_publ_section_title
;
Structure prediction by ZEFSAII (Michael W. Deem and Ramdas Pophale) SiO2 
 PCOD9205670
Probable space group: C 2/M
;
_chemical_formula_sum "Si O2"
_cell_formula_units_Z 56
_cell_length_a 8.891530
_cell_length_b 27.953197
_cell_length_c 17.038857
_cell_angle_alpha 90.000000
_cell_angle_beta 40.095033
_cell_angle_gamma 90.000000
_cell_volume 2727.551499
_symmetry_space_group_name_H-M "C 2/M"
_symmetry_group_IT_number 12
_symmetry_cell_setting 'monoclinic'
loop_
_space_group_symop_operation_xyz
x,y,z
-x,y,-z
-x,-y,-z
x,-y,z
1/2+x,1/2+y,z
1/2-x,1/2+y,-z
1/2-x,1/2-y,-z
1/2+x,1/2-y,z
loop_
_atom_site_type_symbol
_atom_site_label
_atom_site_fract_x
_atom_site_fract_y
_atom_site_fract_z
Si Si1 0.075080 0.554636 0.238081
Si Si2 0.679681 0.650715 0.836370
Si Si3 0.675741 0.055695 0.491925
Si Si4 0.182212 0.197978 0.272394
Si Si5 0.215738 0.296827 0.354554
Si Si6 0.198092 0.303864 0.048786
Si Si7 0.880423 0.901181 0.631115
O O1 0.149921 0.500000 0.193791
O O2 0.266147 0.596520 0.160484
O O3 0.952389 0.556579 0.372879
O O4 0.863214 0.571164 0.266115
O O5 0.802373 0.663200 0.705722
O O6 0.774917 0.685959 0.867780
O O7 0.406650 0.662782 0.934118
O O8 0.500000 0.077163 0.500000
O O9 0.921860 0.081701 0.388824
O O10 0.718429 0.000000 0.456516
O O11 0.208909 0.247195 0.308966
O O12 0.430726 0.187189 0.132006
O O13 0.152693 0.154869 0.345462
O O14 0.959586 0.199955 0.304323
O O15 0.000000 0.298510 0.500000
O O16 0.250000 0.250000 0.000000
O O17 0.000000 0.912120 0.500000
#
# Coordination Sequence:
#
# PCOD9205670 Si02
#       7
#     8   8   8   8   8   8   8
#     4  10  21  39  64  93 131 172 222 281 339 395
#     4  11  25  43  69  98 135 175 229 281 323 397
#     4   9  19  35  59  90 130 176 220 272 335 407
#     4  12  25  42  65  97 133 181 216 277 334 400
#     4  12  28  42  66 101 144 176 217 270 349 412
#     4  11  24  45  71  92 129 176 233 278 317 387
#     4  10  21  35  61  91 134 172 224 267 337 408
#
# _framework density 20.531234000000001
#
# number of rings (size 3 to 8) (size 9 to 14) (size 15 to 20)
#    0.000    1.286    2.857    2.143    8.000    2.286 
#    0.000    1.429    0.000    0.000    0.000    1.000 
#    0.000    0.000    0.000    0.000    0.000    0.000 
#
# Total GULP energy -156396.245868 kJ/mol
# GULP energy per Si atom -5585.580210 kJ/mol
# Density = 2.048450 g / cm^3
# Si number density = 20.531234 Si / 1000 Ang^3
#
#
#
# Elastic Constant Matrix: (Units=GPa)
#
#
# Indices 1 2 3 4 5 6 
#
# 1 104.4947 42.7327 34.9393 0.0000 -26.4598 0.0000
# 2 42.7327 124.7693 48.6919 0.0000 -25.3829 0.0000
# 3 34.9393 48.6919 71.0568 0.0000 -18.6030 0.0000
# 4 0.0000 0.0000 0.0000 22.0796 0.0000 -5.3241
# 5 -26.4598 -25.3829 -18.6030 0.0000 39.0334 0.0000
# 6 0.0000 0.0000 0.0000 -5.3241 0.0000 26.4042
#
#
#
# Elastic Compliance Matrix: (Units=1/GPa)
#
#
# Indices 1 2 3 4 5 6 
#
# 1 0.013026 -0.001860 -0.003582 0.000000 0.005913 0.000000
# 2 -0.001860 0.011796 -0.006273 0.000000 0.003420 0.000000
# 3 -0.003582 -0.006273 0.021057 0.000000 0.003528 0.000000
# 4 0.000000 0.000000 0.000000 0.047605 0.000000 0.009599
# 5 0.005913 0.003420 0.003528 0.000000 0.033533 0.000000
# 6 0.000000 0.000000 0.000000 0.009599 0.000000 0.039808
#
#
# Mechanical properties :
#
#
# Convention : Reuss Voigt Hill
#
# Bulk Modulus (GPa) = 44.54845 61.44987 52.99916
# Shear Modulus (GPa) = 25.28605 29.10056 27.19330
#
# Velocity S-wave (km/s) = 3.51321 3.76890 3.64330
# Velocity P-wave (km/s) = 6.18076 6.99531 6.60061
#
# Compressibility (1/GPa) = 0.02244747
#
# Stress axis : x y z
#
# Youngs Moduli (GPa) = 76.77202 84.77623 47.49061
#
# Poissons Ratio (x) = 0.15772 0.17011
# Poissons Ratio (y) = 0.14283 0.29791
# Poissons Ratio (z) = 0.27499 0.53180
#
# Static dielectric constant tensor:
#      x y z
#    x 1.771010 0.000000 0.006560 
#    y 0.000000 1.731010 0.000000 
#    z 0.006560 0.000000 1.750830 
# 
# From -- ./inp_files/259816.got.cif
#   From: 2010.05.17/outbox.cif.g08.bks.cpg/sg12_130_cif.got.tgz:259816.got - 2010.06.03 13:09:07.
