data_PCOD9205795
_publ_section_title
;
Structure prediction by ZEFSAII (Michael W. Deem and Ramdas Pophale) SiO2 
 PCOD9205795
Probable space group: C 2/M
;
_chemical_formula_sum "Si O2"
_cell_formula_units_Z 48
_cell_length_a 14.223133
_cell_length_b 23.999375
_cell_length_c 13.871142
_cell_angle_alpha 90.000000
_cell_angle_beta 143.083998
_cell_angle_gamma 90.000000
_cell_volume 2843.964912
_symmetry_space_group_name_H-M "C 2/M"
_symmetry_group_IT_number 12
_symmetry_cell_setting 'monoclinic'
loop_
_space_group_symop_operation_xyz
x,y,z
-x,y,-z
-x,-y,-z
x,-y,z
1/2+x,1/2+y,z
1/2-x,1/2+y,-z
1/2-x,1/2-y,-z
1/2+x,1/2-y,z
loop_
_atom_site_type_symbol
_atom_site_label
_atom_site_fract_x
_atom_site_fract_y
_atom_site_fract_z
Si Si1 0.869226 0.500000 0.011035
Si Si2 0.183250 0.699401 0.382414
Si Si3 0.713393 0.616337 0.898642
Si Si4 0.684325 0.798626 0.877395
Si Si5 0.270427 0.000000 0.703779
Si Si6 0.816993 0.281345 0.843075
Si Si7 0.915197 0.107183 0.526462
O O1 0.807999 0.559965 0.993352
O O2 0.809596 0.500000 0.849991
O O3 0.052241 0.500000 0.187407
O O4 0.250000 0.750000 0.500000
O O5 0.208118 0.711051 0.289950
O O6 0.288459 0.644576 0.477929
O O7 0.999463 0.691692 0.254449
O O8 0.785600 0.661872 0.880450
O O9 0.551565 0.598457 0.716269
O O10 0.716910 0.648933 0.003168
O O11 0.716938 0.770378 0.801601
O O12 0.750000 0.750000 0.000000
O O13 0.172308 0.053300 0.588478
O O14 0.000000 0.267916 0.000000
O O15 0.000000 0.133005 0.500000
#
# Coordination Sequence:
#
# PCOD9205795 Si02
#       7
#     4   8   8   8   4   8   8
#     4  11  21  32  55  74 111 145 190 220 276 338
#     4  12  23  34  55  82 112 147 186 232 280 323
#     4  11  21  35  54  78 108 150 186 224 271 334
#     4  10  21  36  53  77 106 144 191 219 271 331
#     4  11  22  33  48  81 107 151 180 223 281 342
#     4  11  21  36  57  77 114 148 184 230 272 327
#     4  12  22  34  51  76 116 144 182 227 277 328
#
# _framework density 16.877844
#
# number of rings (size 3 to 8) (size 9 to 14) (size 15 to 20)
#    0.000    0.833    6.667    3.750    2.333    0.000 
#    0.000    0.000    0.000    0.000    0.000    1.750 
#    0.000    4.000    0.000    0.000    0.000    0.000 
#
# Total GULP energy -133635.270218 kJ/mol
# GULP energy per Si atom -5568.136259 kJ/mol
# Density = 1.683943 g / cm^3
# Si number density = 16.877844 Si / 1000 Ang^3
#
#
#
# Elastic Constant Matrix: (Units=GPa)
#
#
# Indices 1 2 3 4 5 6 
#
# 1 51.2059 26.1543 17.1073 0.0000 14.5360 0.0000
# 2 26.1543 89.6637 23.5983 0.0000 13.5119 0.0000
# 3 17.1073 23.5983 88.0511 0.0000 26.4356 0.0000
# 4 0.0000 0.0000 0.0000 25.2669 0.0000 4.4783
# 5 14.5360 13.5119 26.4356 0.0000 28.2142 0.0000
# 6 0.0000 0.0000 0.0000 4.4783 0.0000 27.3361
#
#
#
# Elastic Compliance Matrix: (Units=1/GPa)
#
#
# Indices 1 2 3 4 5 6 
#
# 1 0.025462 -0.005822 -0.000397 0.000000 -0.009958 0.000000
# 2 -0.005822 0.013631 -0.002035 0.000000 -0.001622 0.000000
# 3 -0.000397 -0.002035 0.016176 0.000000 -0.013977 0.000000
# 4 0.000000 0.000000 0.000000 0.040761 0.000000 -0.006678
# 5 -0.009958 -0.001622 -0.013977 0.000000 0.054446 0.000000
# 6 0.000000 0.000000 0.000000 -0.006678 0.000000 0.037676
#
#
# Mechanical properties :
#
#
# Convention : Reuss Voigt Hill
#
# Bulk Modulus (GPa) = 25.79939 40.29340 33.04640
# Shear Modulus (GPa) = 22.98001 26.96749 24.97375
#
# Velocity S-wave (km/s) = 3.69392 4.00159 3.85083
# Velocity P-wave (km/s) = 5.78900 6.72872 6.27647
#
# Compressibility (1/GPa) = 0.03876061
#
# Stress axis : x y z
#
# Youngs Moduli (GPa) = 39.27405 73.36199 61.82015
#
# Poissons Ratio (x) = 0.42712 0.02454
# Poissons Ratio (y) = 0.22866 0.12582
# Poissons Ratio (z) = 0.01559 0.14931
#
# Static dielectric constant tensor:
#      x y z
#    x 1.615720 0.000000 -0.004360 
#    y 0.000000 1.589610 0.000000 
#    z -0.004360 0.000000 1.607110 
# 
# From -- ./inp_files/78673.got.cif
#   From: 2010.05.17/outbox.cif.g08.bks.cpg/sg12_40_cif.got.tgz:78673.got - 2010.06.03 13:09:07.
