data_PCOD9205326
_publ_section_title
;
Structure prediction by ZEFSAII (Michael W. Deem and Ramdas Pophale) SiO2 
 PCOD9205326
Probable space group: C 2/M
;
_chemical_formula_sum "Si O2"
_cell_formula_units_Z 64
_cell_length_a 15.198344
_cell_length_b 8.073658
_cell_length_c 30.161101
_cell_angle_alpha 90.000000
_cell_angle_beta 125.979074
_cell_angle_gamma 90.000000
_cell_volume 2994.929831
_symmetry_space_group_name_H-M "C 2/M"
_symmetry_group_IT_number 12
_symmetry_cell_setting 'monoclinic'
loop_
_space_group_symop_operation_xyz
x,y,z
-x,y,-z
-x,-y,-z
x,-y,z
1/2+x,1/2+y,z
1/2-x,1/2+y,-z
1/2-x,1/2-y,-z
1/2+x,1/2-y,z
loop_
_atom_site_type_symbol
_atom_site_label
_atom_site_fract_x
_atom_site_fract_y
_atom_site_fract_z
Si Si1 0.288942 0.806643 0.323042
Si Si2 0.611601 0.194624 0.558689
Si Si3 0.861953 0.296828 0.870197
Si Si4 0.302672 0.817545 0.560439
Si Si5 0.653972 0.308102 0.755482
Si Si6 0.412338 0.196724 0.676704
Si Si7 0.819498 0.303715 0.955137
Si Si8 0.598062 0.200922 0.924520
O O1 0.383229 0.773933 0.387446
O O2 0.307051 0.706670 0.283824
O O3 0.175547 0.771871 0.315224
O O4 0.293832 0.000000 0.312654
O O5 0.500000 0.216794 0.500000
O O6 0.699450 0.312325 0.562513
O O7 0.644386 0.000000 0.562549
O O8 0.859972 0.500000 0.869657
O O9 0.752208 0.238785 0.814275
O O10 0.864698 0.239998 0.922091
O O11 0.973955 0.249666 0.879323
O O12 0.250000 0.750000 0.500000
O O13 0.390659 0.736378 0.619814
O O14 0.343996 0.000000 0.561197
O O15 0.639614 0.500000 0.762929
O O16 0.536748 0.225475 0.726106
O O17 0.391758 0.000000 0.669014
O O18 0.840157 0.500000 0.961446
O O19 0.690657 0.271219 0.920161
O O20 0.870560 0.240750 0.016226
O O21 0.605511 0.000000 0.925536
#
# Coordination Sequence:
#
# PCOD9205326 Si02
#       8
#     8   8   8   8   8   8   8   8
#     4  10  21  39  60  82 111 145 185 231 281 337
#     4   9  19  35  55  79 106 136 170 215 272 329
#     4   9  19  35  54  79 109 145 188 228 270 326
#     4  10  21  35  54  80 108 137 172 217 270 330
#     4  11  23  38  58  83 113 151 193 235 282 335
#     4  10  22  41  60  80 110 147 188 232 279 333
#     4   9  17  32  55  81 110 145 184 226 273 325
#     4   9  17  32  55  81 110 145 183 225 276 327
#
# _framework density 21.369448999999999
#
# number of rings (size 3 to 8) (size 9 to 14) (size 15 to 20)
#    0.000    2.375    0.000    1.875    1.750    4.750 
#    0.000    5.625    0.000    3.000    0.000    0.000 
#    0.000    0.000    0.000    0.000    0.000    0.000 
#
# Total GULP energy -178479.362356 kJ/mol
# GULP energy per Si atom -5577.480074 kJ/mol
# Density = 2.132081 g / cm^3
# Si number density = 21.369449 Si / 1000 Ang^3
#
#
#
# Elastic Constant Matrix: (Units=GPa)
#
#
# Indices 1 2 3 4 5 6 
#
# 1 49.7143 -12.2244 1.2391 0.0000 13.6243 0.0000
# 2 -12.2244 11.7544 -2.0468 0.0000 0.7275 0.0000
# 3 1.2391 -2.0468 35.4125 0.0000 23.4451 0.0000
# 4 0.0000 0.0000 0.0000 16.3848 0.0000 5.7479
# 5 13.6243 0.7275 23.4451 0.0000 34.7272 0.0000
# 6 0.0000 0.0000 0.0000 5.7479 0.0000 22.9843
#
#
#
# Elastic Compliance Matrix: (Units=1/GPa)
#
#
# Indices 1 2 3 4 5 6 
#
# 1 0.039897 0.047348 0.022350 0.000000 -0.031733 0.000000
# 2 0.047348 0.143830 0.037881 0.000000 -0.047163 0.000000
# 3 0.022350 0.037881 0.065054 0.000000 -0.053481 0.000000
# 4 0.000000 0.000000 0.000000 0.066901 0.000000 -0.016731
# 5 -0.031733 -0.047163 -0.053481 0.000000 0.078340 0.000000
# 6 0.000000 0.000000 0.000000 -0.016731 0.000000 0.047692
#
#
# Mechanical properties :
#
#
# Convention : Reuss Voigt Hill
#
# Bulk Modulus (GPa) = 2.15546 7.86855 5.01201
# Shear Modulus (GPa) = 13.11640 22.14681 17.63160
#
# Velocity S-wave (km/s) = 2.48017 3.22277 2.87554
# Velocity P-wave (km/s) = 3.03521 4.18790 3.65725
#
# Compressibility (1/GPa) = 0.46393828
#
# Stress axis : x y z
#
# Youngs Moduli (GPa) = 25.06459 6.95265 15.37192
#
# Poissons Ratio (x) = -0.32919 -0.34356
# Poissons Ratio (y) = -1.18675 -0.58231
# Poissons Ratio (z) = -0.56019 -0.26338
#
# Static dielectric constant tensor:
#      x y z
#    x 1.744320 0.000000 -0.000470 
#    y 0.000000 1.758880 0.000000 
#    z -0.000470 0.000000 1.820510 
# 
# From -- ./inp_files/375548.got.cif
#   From: 2010.05.17/outbox.cif.g08.bks.cpg/sg12_188_cif.got.tgz:375548.got - 2010.06.03 13:09:07.
