data_PCOD9205542
_publ_section_title
;
Structure prediction by ZEFSAII (Michael W. Deem and Ramdas Pophale) SiO2 
 PCOD9205542
Probable space group: C 2/M
;
_chemical_formula_sum "Si O2"
_cell_formula_units_Z 56
_cell_length_a 8.039523
_cell_length_b 33.110484
_cell_length_c 14.285649
_cell_angle_alpha 90.000000
_cell_angle_beta 127.251317
_cell_angle_gamma 90.000000
_cell_volume 3026.929846
_symmetry_space_group_name_H-M "C 2/M"
_symmetry_group_IT_number 12
_symmetry_cell_setting 'monoclinic'
loop_
_space_group_symop_operation_xyz
x,y,z
-x,y,-z
-x,-y,-z
x,-y,z
1/2+x,1/2+y,z
1/2-x,1/2+y,-z
1/2-x,1/2-y,-z
1/2+x,1/2-y,z
loop_
_atom_site_type_symbol
_atom_site_label
_atom_site_fract_x
_atom_site_fract_y
_atom_site_fract_z
Si Si1 0.284666 0.296047 0.482656
Si Si2 0.143210 0.955067 0.142094
Si Si3 0.937061 0.833113 0.721738
Si Si4 0.592701 0.894321 0.884120
Si Si5 0.324759 0.409265 0.154461
Si Si6 0.875807 0.317015 0.226491
Si Si7 0.227026 0.732439 0.095102
O O1 0.500000 0.299968 0.500000
O O2 0.250000 0.250000 0.500000
O O3 0.309037 0.320305 0.587120
O O4 0.092773 0.308394 0.352151
O O5 0.311752 0.921630 0.167070
O O6 0.991714 0.942696 0.176882
O O7 0.231426 0.000000 0.187739
O O8 0.000000 0.957241 0.000000
O O9 0.782851 0.837791 0.756240
O O10 0.054451 0.874791 0.748732
O O11 0.108201 0.799079 0.807858
O O12 0.383375 0.915592 0.854208
O O13 0.577513 0.848413 0.841082
O O14 0.744276 0.892734 0.026170
O O15 0.762946 0.274008 0.165640
O O16 0.250000 0.750000 0.000000
O O17 0.000000 0.712860 0.000000
#
# Coordination Sequence:
#
# PCOD9205542 Si02
#       7
#     8   8   8   8   8   8   8
#     4  12  26  42  58  79 109 154 206 260 303 349
#     4   9  18  35  58  86 122 160 194 236 298 365
#     4  12  24  40  59  80 113 155 204 248 300 351
#     4  10  21  35  57  88 122 156 195 246 297 355
#     4  10  21  35  57  88 121 156 194 244 298 357
#     4  12  24  41  59  80 114 157 203 251 303 349
#     4  12  26  36  53  82 112 154 196 244 295 353
#
# _framework density 18.500594
#
# number of rings (size 3 to 8) (size 9 to 14) (size 15 to 20)
#    0.000    1.000    4.286    3.000    6.000    0.571 
#    0.000    2.857    0.000    0.000    0.000    2.000 
#    0.000    3.429    0.000    0.000    0.000    0.000 
#
# Total GULP energy -156071.433791 kJ/mol
# GULP energy per Si atom -5573.979778 kJ/mol
# Density = 1.845849 g / cm^3
# Si number density = 18.500594 Si / 1000 Ang^3
#
#
#
# Elastic Constant Matrix: (Units=GPa)
#
#
# Indices 1 2 3 4 5 6 
#
# 1 81.8370 15.2045 12.8812 0.0000 2.5836 0.0000
# 2 15.2045 82.7680 22.6071 0.0000 1.5867 0.0000
# 3 12.8812 22.6071 74.1781 0.0000 9.9016 0.0000
# 4 0.0000 0.0000 0.0000 7.7655 0.0000 1.5478
# 5 2.5836 1.5867 9.9016 0.0000 26.7396 0.0000
# 6 0.0000 0.0000 0.0000 1.5478 0.0000 22.1365
#
#
#
# Elastic Compliance Matrix: (Units=1/GPa)
#
#
# Indices 1 2 3 4 5 6 
#
# 1 0.012841 -0.001919 -0.001572 0.000000 -0.000545 0.000000
# 2 -0.001919 0.013480 -0.003885 0.000000 0.000824 0.000000
# 3 -0.001572 -0.003885 0.015661 0.000000 -0.005417 0.000000
# 4 0.000000 0.000000 0.000000 0.130595 0.000000 -0.009131
# 5 -0.000545 0.000824 -0.005417 0.000000 0.039407 0.000000
# 6 0.000000 0.000000 0.000000 -0.009131 0.000000 0.045813
#
#
# Mechanical properties :
#
#
# Convention : Reuss Voigt Hill
#
# Bulk Modulus (GPa) = 36.72530 37.79653 37.26092
# Shear Modulus (GPa) = 17.75409 23.86768 20.81088
#
# Velocity S-wave (km/s) = 3.10118 3.59570 3.35756
# Velocity P-wave (km/s) = 5.71988 6.14109 5.93422
#
# Compressibility (1/GPa) = 0.02722918
#
# Stress axis : x y z
#
# Youngs Moduli (GPa) = 77.87794 74.18500 63.85213
#
# Poissons Ratio (x) = 0.14236 0.10039
# Poissons Ratio (y) = 0.14944 0.24807
# Poissons Ratio (z) = 0.12245 0.28821
#
# Static dielectric constant tensor:
#      x y z
#    x 2.058440 0.000000 0.064740 
#    y 0.000000 1.670730 0.000000 
#    z 0.064740 0.000000 1.581840 
# 
# From -- ./inp_files/200981.got.cif
#   From: 2010.05.17/outbox.cif.g08.bks.cpg/sg12_101_cif.got.tgz:200981.got - 2010.06.03 13:09:07.
