data_PCOD9205415
_publ_section_title
;
Structure prediction by ZEFSAII (Michael W. Deem and Ramdas Pophale) SiO2 
 PCOD9205415
Probable space group: C 2/M
;
_chemical_formula_sum "Si O2"
_cell_formula_units_Z 48
_cell_length_a 24.605695
_cell_length_b 8.397287
_cell_length_c 12.300602
_cell_angle_alpha 90.000000
_cell_angle_beta 90.622831
_cell_angle_gamma 90.000000
_cell_volume 2541.413541
_symmetry_space_group_name_H-M "C 2/M"
_symmetry_group_IT_number 12
_symmetry_cell_setting 'monoclinic'
loop_
_space_group_symop_operation_xyz
x,y,z
-x,y,-z
-x,-y,-z
x,-y,z
1/2+x,1/2+y,z
1/2-x,1/2+y,-z
1/2-x,1/2-y,-z
1/2+x,1/2-y,z
loop_
_atom_site_type_symbol
_atom_site_label
_atom_site_fract_x
_atom_site_fract_y
_atom_site_fract_z
Si Si1 0.762939 0.192578 0.829327
Si Si2 0.586846 0.192468 0.466205
Si Si3 0.793476 0.809623 0.588296
Si Si4 0.335302 0.690500 0.034619
Si Si5 0.955443 0.307570 0.086037
Si Si6 0.517537 0.805958 0.670863
O O1 0.778106 0.248372 0.709236
O O2 0.704945 0.252781 0.870748
O O3 0.761666 0.000000 0.829353
O O4 0.807126 0.243834 0.920826
O O5 0.646093 0.256614 0.442278
O O6 0.541396 0.242143 0.376713
O O7 0.562578 0.242226 0.582817
O O8 0.589060 0.000000 0.465752
O O9 0.750000 0.750000 0.500000
O O10 0.791634 0.000000 0.590262
O O11 0.337111 0.500000 0.034454
O O12 0.395299 0.756664 0.051222
O O13 0.957203 0.500000 0.088018
O O14 0.969729 0.250148 0.207833
O O15 0.000000 0.251682 0.000000
O O16 0.517613 0.000000 0.671678
#
# Coordination Sequence:
#
# PCOD9205415 Si02
#       6
#     8   8   8   8   8   8
#     4   9  21  41  60  79 111 151 186 228 283 337
#     4   9  18  36  60  81 107 147 189 230 273 325
#     4  11  24  39  57  84 115 147 186 232 281 334
#     4  10  21  38  60  85 111 145 189 235 281 330
#     4  10  21  35  55  84 116 150 186 226 274 333
#     4   8  17  35  57  81 110 147 187 223 272 329
#
# _framework density 18.887125999999999
#
# number of rings (size 3 to 8) (size 9 to 14) (size 15 to 20)
#    0.000    2.500    0.000    2.000    4.667    2.333 
#    0.000    2.500    0.000    0.000    0.000    0.000 
#    0.000    0.000    0.000    0.000    0.000    0.000 
#
# Total GULP energy -133969.751830 kJ/mol
# GULP energy per Si atom -5582.072993 kJ/mol
# Density = 1.884414 g / cm^3
# Si number density = 18.887126 Si / 1000 Ang^3
#
#
#
# Elastic Constant Matrix: (Units=GPa)
#
#
# Indices 1 2 3 4 5 6 
#
# 1 205.3163 21.8541 127.9449 0.0000 -11.6300 0.0000
# 2 21.8541 12.0043 25.5748 0.0000 -2.1562 0.0000
# 3 127.9449 25.5748 178.8133 0.0000 -11.4567 0.0000
# 4 0.0000 0.0000 0.0000 18.0316 0.0000 -0.1402
# 5 -11.6300 -2.1562 -11.4567 0.0000 16.0419 0.0000
# 6 0.0000 0.0000 0.0000 -0.1402 0.0000 37.0907
#
#
#
# Elastic Compliance Matrix: (Units=1/GPa)
#
#
# Indices 1 2 3 4 5 6 
#
# 1 0.008962 -0.003700 -0.005763 0.000000 0.001885 0.000000
# 2 -0.003700 0.121591 -0.014533 0.000000 0.003281 0.000000
# 3 -0.005763 -0.014533 0.011948 0.000000 0.002402 0.000000
# 4 0.000000 0.000000 0.000000 0.055460 0.000000 0.000210
# 5 0.001885 0.003281 0.002402 0.000000 0.065859 0.000000
# 6 0.000000 0.000000 0.000000 0.000210 0.000000 0.026962
#
#
# Mechanical properties :
#
#
# Convention : Reuss Voigt Hill
#
# Bulk Modulus (GPa) = 10.58088 82.98683 46.78386
# Shear Modulus (GPa) = 13.50341 28.95018 21.22680
#
# Velocity S-wave (km/s) = 2.67676 3.91935 3.35606
# Velocity P-wave (km/s) = 3.89458 8.03215 6.31202
#
# Compressibility (1/GPa) = 0.09451006
#
# Stress axis : x y z
#
# Youngs Moduli (GPa) = 111.57954 8.22430 83.69445
#
# Poissons Ratio (x) = 0.03043 0.48231
# Poissons Ratio (y) = 0.41286 1.21631
# Poissons Ratio (z) = 0.64300 0.11952
#
# Static dielectric constant tensor:
#      x y z
#    x 1.609850 0.000000 0.004150 
#    y 0.000000 1.653570 0.000000 
#    z 0.004150 0.000000 1.662200 
# 
# From -- ./inp_files/172282.got.cif
#   From: 2010.05.17/outbox.cif.g08.bks.cpg/sg12_87_cif.got.tgz:172282.got - 2010.06.03 13:09:07.
