data_PCOD9205791
_publ_section_title
;
Structure prediction by ZEFSAII (Michael W. Deem and Ramdas Pophale) SiO2 
 PCOD9205791
Probable space group: C 2/M
;
_chemical_formula_sum "Si O2"
_cell_formula_units_Z 42
_cell_length_a 12.505806
_cell_length_b 33.993200
_cell_length_c 13.965236
_cell_angle_alpha 90.000000
_cell_angle_beta 20.779574
_cell_angle_gamma 90.000000
_cell_volume 2106.218393
_symmetry_space_group_name_H-M "C 2/M"
_symmetry_group_IT_number 12
_symmetry_cell_setting 'monoclinic'
loop_
_space_group_symop_operation_xyz
x,y,z
-x,y,-z
-x,-y,-z
x,-y,z
1/2+x,1/2+y,z
1/2-x,1/2+y,-z
1/2-x,1/2-y,-z
1/2+x,1/2-y,z
loop_
_atom_site_type_symbol
_atom_site_label
_atom_site_fract_x
_atom_site_fract_y
_atom_site_fract_z
Si Si1 0.164250 0.222253 0.967809
Si Si2 0.366072 0.878276 0.335461
Si Si3 0.739464 0.918667 0.874249
Si Si4 0.161366 0.325830 0.466908
Si Si5 0.342482 0.200626 0.232177
Si Si6 0.500000 0.000000 0.000000
O O1 0.002871 0.187430 0.162059
O O2 0.054680 0.264782 0.096823
O O3 0.000000 0.221980 0.000000
O O4 0.499558 0.210190 0.658396
O O5 0.381951 0.863886 0.431342
O O6 0.321652 0.837785 0.314299
O O7 0.072288 0.905342 0.569126
O O8 0.643371 0.901920 0.057725
O O9 0.500000 0.900029 0.000000
O O10 0.683344 0.964844 0.904829
O O11 0.000000 0.330763 0.500000
O O12 0.000000 0.215033 0.500000
O O13 0.500000 0.190550 0.000000
#
# Coordination Sequence:
#
# PCOD9205791 Si02
#       6
#     8   8   8   8   8   2
#     4   9  18  34  51  68 104 155 204 241 281 330
#     4  12  22  34  57  86 115 147 186 241 286 329
#     4  10  22  39  60  88 117 142 174 213 280 364
#     4  10  21  36  53  76 109 154 204 247 273 315
#     4  11  21  33  51  77 111 152 191 244 300 336
#     4   8  24  42  68  86 126 150 168 206 288 374
#
# _framework density 19.940951999999999
#
# number of rings (size 3 to 8) (size 9 to 14) (size 15 to 20)
#    0.571    1.143    0.000    7.429    0.000    3.048 
#    0.000    0.000    0.000    3.429    0.000    4.000 
#    0.000    0.000    0.000    0.000    0.000    0.000 
#
# Total GULP energy -117055.068700 kJ/mol
# GULP energy per Si atom -5574.050890 kJ/mol
# Density = 1.989557 g / cm^3
# Si number density = 19.940952 Si / 1000 Ang^3
#
#
#
# Elastic Constant Matrix: (Units=GPa)
#
#
# Indices 1 2 3 4 5 6 
#
# 1 57.8568 32.4633 18.0026 -0.0002 15.0659 0.0003
# 2 32.4633 132.9947 25.1162 0.0000 6.7818 0.0001
# 3 18.0026 25.1162 99.7352 -0.0002 4.5323 0.0008
# 4 -0.0002 0.0000 -0.0002 2.9192 0.0001 -11.2729
# 5 15.0659 6.7818 4.5323 0.0001 30.8986 -0.0005
# 6 0.0003 0.0001 0.0008 -11.2729 -0.0005 5.6074
#
#
#
# Elastic Compliance Matrix: (Units=1/GPa)
#
#
# Indices 1 2 3 4 5 6 
#
# 1 0.023313 -0.004697 -0.002573 0.000001 -0.009959 0.000000
# 2 -0.004697 0.008906 -0.001420 0.000000 0.000544 0.000000
# 3 -0.002573 -0.001420 0.010850 0.000001 -0.000025 0.000000
# 4 0.000001 0.000000 0.000001 -0.050650 -0.000002 -0.101824
# 5 -0.009959 0.000544 -0.000025 -0.000002 0.037104 0.000000
# 6 0.000000 0.000000 0.000000 -0.101824 0.000000 -0.026368
#
#
# Mechanical properties :
#
#
# Convention : Reuss Voigt Hill
#
# Bulk Modulus (GPa) = 38.92532 49.08344 44.00438
# Shear Modulus (GPa) = 171.83653 22.21867 97.02760
#
# Velocity S-wave (km/s) = 9.29300 3.34162 6.98306
# Velocity P-wave (km/s) = 11.60642 6.28939 9.33449
#
# Compressibility (1/GPa) = 0.02569022
#
# Stress axis : x y z
#
# Youngs Moduli (GPa) = 42.89380 112.28405 92.16918
#
# Poissons Ratio (x) = 0.52739 0.23713
# Poissons Ratio (y) = 0.20147 0.13085
# Poissons Ratio (z) = 0.11035 0.15941
#
# Static dielectric constant tensor:
#      x y z
#    x 1.978210 0.000000 0.064970 
#    y 0.000000 1.678700 0.000000 
#    z 0.064970 0.000000 1.730480 
# 
# From -- ./inp_files/219403.got.cif
#   From: 2010.05.17/outbox.cif.g08.bks.cpg/sg12_110_cif.got.tgz:219403.got - 2010.06.03 13:09:07.
