data_PCOD9205941
_publ_section_title
;
Structure prediction by ZEFSAII (Michael W. Deem and Ramdas Pophale) SiO2 
 PCOD9205941
Probable space group: C 2/M
;
_chemical_formula_sum "Si O2"
_cell_formula_units_Z 40
_cell_length_a 10.469371
_cell_length_b 21.722082
_cell_length_c 10.588002
_cell_angle_alpha 90.000000
_cell_angle_beta 48.160366
_cell_angle_gamma 90.000000
_cell_volume 1793.911135
_symmetry_space_group_name_H-M "C 2/M"
_symmetry_group_IT_number 12
_symmetry_cell_setting 'monoclinic'
loop_
_space_group_symop_operation_xyz
x,y,z
-x,y,-z
-x,-y,-z
x,-y,z
1/2+x,1/2+y,z
1/2-x,1/2+y,-z
1/2-x,1/2-y,-z
1/2+x,1/2-y,z
loop_
_atom_site_type_symbol
_atom_site_label
_atom_site_fract_x
_atom_site_fract_y
_atom_site_fract_z
Si Si1 0.500000 0.677851 0.000000
Si Si2 0.926586 0.602722 0.689265
Si Si3 0.500000 0.674159 0.500000
Si Si4 0.765556 0.933570 0.583154
Si Si5 0.330391 0.763317 0.809306
Si Si6 0.426398 0.432599 0.199179
O O1 0.654124 0.720433 0.850468
O O2 0.469083 0.628784 0.906230
O O3 0.915816 0.669913 0.756794
O O4 0.742975 0.572586 0.778916
O O5 0.000000 0.610647 0.500000
O O6 0.064939 0.567914 0.681981
O O7 0.661414 0.627220 0.399856
O O8 0.453014 0.717300 0.651502
O O9 0.860930 0.930700 0.384805
O O10 0.804061 0.000000 0.619373
O O11 0.250000 0.750000 0.000000
O O12 0.507724 0.500000 0.129404
#
# Coordination Sequence:
#
# PCOD9205941 Si02
#       6
#     4   8   4   8   8   8
#     4  10  21  36  54  88 123 150 206 250 304 356
#     4   9  18  36  59  90 121 153 201 251 308 357
#     4  12  25  40  62  88 127 168 204 250 308 366
#     4  10  21  37  61  89 120 160 206 252 304 370
#     4  11  24  39  59  89 122 163 201 250 302 367
#     4   9  17  33  59  89 120 157 199 257 310 356
#
# _framework density 22.297650000000001
#
# number of rings (size 3 to 8) (size 9 to 14) (size 15 to 20)
#    0.000    2.000    1.000    2.400    2.800    3.200 
#    0.000    0.000    0.000    4.800    0.000    0.000 
#    0.000    0.000    0.000    0.000    0.000    0.000 
#
# Total GULP energy -111335.270446 kJ/mol
# GULP energy per Si atom -5566.763522 kJ/mol
# Density = 2.224690 g / cm^3
# Si number density = 22.297650 Si / 1000 Ang^3
#
#
#
# Elastic Constant Matrix: (Units=GPa)
#
#
# Indices 1 2 3 4 5 6 
#
# 1 36.6960 24.7368 0.4258 0.0000 -6.0209 0.0000
# 2 24.7368 147.9476 27.8151 0.0000 3.5267 0.0000
# 3 0.4258 27.8151 57.2339 0.0000 -1.7107 0.0000
# 4 0.0000 0.0000 0.0000 14.4635 0.0000 -2.5159
# 5 -6.0209 3.5267 -1.7107 0.0000 23.9039 0.0000
# 6 0.0000 0.0000 0.0000 -2.5159 0.0000 16.7414
#
#
#
# Elastic Compliance Matrix: (Units=1/GPa)
#
#
# Indices 1 2 3 4 5 6 
#
# 1 0.033042 -0.006337 0.003117 0.000000 0.009480 0.000000
# 2 -0.006337 0.008698 -0.004275 0.000000 -0.003185 0.000000
# 3 0.003117 -0.004275 0.019611 0.000000 0.002819 0.000000
# 4 0.000000 0.000000 0.000000 0.070995 0.000000 0.010669
# 5 0.009480 -0.003185 0.002819 0.000000 0.044894 0.000000
# 6 0.000000 0.000000 0.000000 0.010669 0.000000 0.061335
#
#
# Mechanical properties :
#
#
# Convention : Reuss Voigt Hill
#
# Bulk Modulus (GPa) = 21.56968 38.64809 30.10888
# Shear Modulus (GPa) = 18.58604 23.61509 21.10057
#
# Velocity S-wave (km/s) = 2.89025 3.25789 3.07956
# Velocity P-wave (km/s) = 4.56427 5.61447 5.11638
#
# Compressibility (1/GPa) = 0.04636138
#
# Stress axis : x y z
#
# Youngs Moduli (GPa) = 30.26474 114.96424 50.99165
#
# Poissons Ratio (x) = 0.72848 -0.15895
# Poissons Ratio (y) = 0.19178 0.21801
# Poissons Ratio (z) = -0.09434 0.49152
#
# Static dielectric constant tensor:
#      x y z
#    x 1.944780 0.000000 -0.032050 
#    y 0.000000 1.865740 0.000000 
#    z -0.032050 0.000000 1.837860 
# 
# From -- ./inp_files/132348.got.cif
#   From: 2010.05.17/outbox.cif.g08.bks.cpg/sg12_67_cif.got.tgz:132348.got - 2010.06.03 13:09:07.
