data_PCOD9205710
_publ_section_title
;
Structure prediction by ZEFSAII (Michael W. Deem and Ramdas Pophale) SiO2 
 PCOD9205710
Probable space group: C 2/M
;
_chemical_formula_sum "Si O2"
_cell_formula_units_Z 40
_cell_length_a 24.799573
_cell_length_b 20.266096
_cell_length_c 7.409493
_cell_angle_alpha 90.000000
_cell_angle_beta 28.984032
_cell_angle_gamma 90.000000
_cell_volume 1804.494633
_symmetry_space_group_name_H-M "C 2/M"
_symmetry_group_IT_number 12
_symmetry_cell_setting 'monoclinic'
loop_
_space_group_symop_operation_xyz
x,y,z
-x,y,-z
-x,-y,-z
x,-y,z
1/2+x,1/2+y,z
1/2-x,1/2+y,-z
1/2-x,1/2-y,-z
1/2+x,1/2-y,z
loop_
_atom_site_type_symbol
_atom_site_label
_atom_site_fract_x
_atom_site_fract_y
_atom_site_fract_z
Si Si1 0.688104 0.857241 0.191352
Si Si2 0.733519 0.422074 0.400795
Si Si3 0.323128 0.733678 0.019115
Si Si4 0.899481 0.202501 0.160615
Si Si5 0.527023 0.922413 0.205035
O O1 0.786581 0.834689 0.034390
O O2 0.574641 0.888059 0.599400
O O3 0.736856 0.905587 0.894794
O O4 0.650257 0.789493 0.204127
O O5 0.717073 0.500000 0.472238
O O6 0.632856 0.374845 0.747957
O O7 0.845030 0.400287 0.184708
O O8 0.208366 0.761138 0.442331
O O9 0.410655 0.725965 0.922816
O O10 0.000000 0.214578 0.000000
O O11 0.500000 0.914471 0.500000
O O12 0.524019 0.000000 0.175095
#
# Coordination Sequence:
#
# PCOD9205710 Si02
#       5
#     8   8   8   8   8
#     4   9  16  31  54  77 102 127 156 204 256 293
#     4   9  18  33  51  73 100 131 168 203 241 292
#     4   9  20  34  50  77 102 127 164 203 245 295
#     4  10  21  36  51  69  99 136 168 198 240 296
#     4   8  14  26  49  77  99 123 156 197 247 293
#
# _framework density 22.166869999999999
#
# number of rings (size 3 to 8) (size 9 to 14) (size 15 to 20)
#    0.000    3.000    0.000    1.800    0.000    8.400 
#    0.000   10.000    0.000    3.600    0.000    0.000 
#    0.000    0.800    0.000    0.000    0.000    0.000 
#
# Total GULP energy -111714.238412 kJ/mol
# GULP energy per Si atom -5585.711921 kJ/mol
# Density = 2.211642 g / cm^3
# Si number density = 22.166870 Si / 1000 Ang^3
#
#
#
# Elastic Constant Matrix: (Units=GPa)
#
#
# Indices 1 2 3 4 5 6 
#
# 1 103.5786 10.5742 22.6588 0.0000 -30.6424 0.0000
# 2 10.5742 42.3213 8.6243 0.0000 -6.4432 0.0000
# 3 22.6588 8.6243 38.3233 0.0000 -12.1926 0.0000
# 4 0.0000 0.0000 0.0000 27.1164 0.0000 -10.4206
# 5 -30.6424 -6.4432 -12.1926 0.0000 32.4291 0.0000
# 6 0.0000 0.0000 0.0000 -10.4206 0.0000 24.3304
#
#
#
# Elastic Compliance Matrix: (Units=1/GPa)
#
#
# Indices 1 2 3 4 5 6 
#
# 1 0.014125 -0.000863 -0.004504 0.000000 0.011481 0.000000
# 2 -0.000863 0.025115 -0.004332 0.000000 0.002546 0.000000
# 3 -0.004504 -0.004332 0.031922 0.000000 0.006885 0.000000
# 4 0.000000 0.000000 0.000000 0.044144 0.000000 0.018906
# 5 0.011481 0.002546 0.006885 0.000000 0.044780 0.000000
# 6 0.000000 0.000000 0.000000 0.018906 0.000000 0.049198
#
#
# Mechanical properties :
#
#
# Convention : Reuss Voigt Hill
#
# Bulk Modulus (GPa) = 19.31855 29.77089 24.54472
# Shear Modulus (GPa) = 20.33051 26.26624 23.29837
#
# Velocity S-wave (km/s) = 3.03175 3.44602 3.24550
# Velocity P-wave (km/s) = 4.58141 5.41229 5.01409
#
# Compressibility (1/GPa) = 0.05176372
#
# Stress axis : x y z
#
# Youngs Moduli (GPa) = 70.79860 39.81729 31.32609
#
# Poissons Ratio (x) = 0.03437 0.14110
# Poissons Ratio (y) = 0.06112 0.13569
# Poissons Ratio (z) = 0.31889 0.17247
#
# Static dielectric constant tensor:
#      x y z
#    x 1.878460 0.000000 0.017700 
#    y 0.000000 1.805810 0.000000 
#    z 0.017700 0.000000 1.853320 
# 
# From -- ./inp_files/62574.got.cif
#   From: 2010.05.17/outbox.cif.g08.bks.cpg/sg12_32_cif.got.tgz:62574.got - 2010.06.03 13:09:07.
