data_PCOD9205239
_publ_section_title
;
Structure prediction by ZEFSAII (Michael W. Deem and Ramdas Pophale) SiO2 
 PCOD9205239
Probable space group: C 2/M
;
_chemical_formula_sum "Si O2"
_cell_formula_units_Z 64
_cell_length_a 29.921243
_cell_length_b 24.844581
_cell_length_c 15.116872
_cell_angle_alpha 90.000000
_cell_angle_beta 161.153082
_cell_angle_gamma 90.000000
_cell_volume 3630.200271
_symmetry_space_group_name_H-M "C 2/M"
_symmetry_group_IT_number 12
_symmetry_cell_setting 'monoclinic'
loop_
_space_group_symop_operation_xyz
x,y,z
-x,y,-z
-x,-y,-z
x,-y,z
1/2+x,1/2+y,z
1/2-x,1/2+y,-z
1/2-x,1/2-y,-z
1/2+x,1/2-y,z
loop_
_atom_site_type_symbol
_atom_site_label
_atom_site_fract_x
_atom_site_fract_y
_atom_site_fract_z
Si Si1 0.099473 0.563294 0.962594
Si Si2 0.045075 0.140766 0.491484
Si Si3 0.814716 0.847388 0.422149
Si Si4 0.563129 0.647557 0.021553
Si Si5 0.788246 0.562251 0.007877
Si Si6 0.799007 0.937803 0.971871
Si Si7 0.644267 0.764311 0.222782
Si Si8 0.711016 0.937452 0.605069
O O1 0.127139 0.500000 0.029483
O O2 0.219577 0.600652 0.225249
O O3 0.097536 0.572631 0.852480
O O4 0.947665 0.575419 0.714502
O O5 0.120680 0.171258 0.551780
O O6 0.157679 0.097946 0.736624
O O7 0.000000 0.169131 0.500000
O O8 0.918984 0.106017 0.213732
O O9 0.718736 0.805694 0.296140
O O10 0.944875 0.861528 0.727543
O O11 0.612858 0.709375 0.110791
O O12 0.685510 0.605140 0.242124
O O13 0.500000 0.641669 0.000000
O O14 0.749801 0.500000 0.924785
O O15 0.811113 0.570014 0.154799
O O16 0.734691 0.933148 0.754954
O O17 0.852039 0.000000 0.078851
O O18 0.750000 0.750000 0.500000
O O19 0.500000 0.782082 0.000000
O O20 0.738346 0.000000 0.632020
#
# Coordination Sequence:
#
# PCOD9205239 Si02
#       8
#     8   8   8   8   8   8   8   8
#     4   9  20  34  51  81 120 156 190 226 277 340
#     4   9  16  28  49  82 116 151 187 227 270 339
#     4  11  21  37  62  88 113 152 186 235 292 331
#     4  11  23  40  61  86 110 140 188 236 289 340
#     4   8  14  25  43  73 110 150 194 234 269 315
#     4   9  15  25  47  75 110 153 193 234 272 312
#     4  11  23  42  65  92 110 132 187 250 295 335
#     4  10  21  35  52  81 118 156 189 227 280 337
#
# _framework density 17.629881000000001
#
# number of rings (size 3 to 8) (size 9 to 14) (size 15 to 20)
#    0.000    2.250    3.750    0.375    1.750    3.250 
#    0.000    2.500    0.000    2.625    3.250    0.000 
#    0.000    0.000    0.000    0.000    0.000    0.000 
#
# Total GULP energy -178161.010807 kJ/mol
# GULP energy per Si atom -5567.531588 kJ/mol
# Density = 1.758975 g / cm^3
# Si number density = 17.629881 Si / 1000 Ang^3
#
#
#
# Elastic Constant Matrix: (Units=GPa)
#
#
# Indices 1 2 3 4 5 6 
#
# 1 97.7147 44.1728 30.4321 0.0000 17.1885 0.0000
# 2 44.1728 52.1406 28.0208 0.0000 16.5782 0.0000
# 3 30.4321 28.0208 64.1884 0.0000 11.1245 0.0000
# 4 0.0000 0.0000 0.0000 20.5954 0.0000 6.4279
# 5 17.1885 16.5782 11.1245 0.0000 27.8262 0.0000
# 6 0.0000 0.0000 0.0000 6.4279 0.0000 45.5574
#
#
#
# Elastic Compliance Matrix: (Units=1/GPa)
#
#
# Indices 1 2 3 4 5 6 
#
# 1 0.016943 -0.012484 -0.002212 0.000000 -0.002144 0.000000
# 2 -0.012484 0.038097 -0.008719 0.000000 -0.011500 0.000000
# 3 -0.002212 -0.008719 0.020733 0.000000 -0.001728 0.000000
# 4 0.000000 0.000000 0.000000 0.050791 0.000000 -0.007166
# 5 -0.002144 -0.011500 -0.001728 0.000000 0.044804 0.000000
# 6 0.000000 0.000000 0.000000 -0.007166 0.000000 0.022961
#
#
# Mechanical properties :
#
#
# Convention : Reuss Voigt Hill
#
# Bulk Modulus (GPa) = 34.54854 46.58835 40.56844
# Shear Modulus (GPa) = 19.93554 26.22365 23.07959
#
# Velocity S-wave (km/s) = 3.36636 3.86094 3.62210
# Velocity P-wave (km/s) = 5.89482 6.80874 6.36820
#
# Compressibility (1/GPa) = 0.02894479
#
# Stress axis : x y z
#
# Youngs Moduli (GPa) = 59.02062 26.24864 48.23122
#
# Poissons Ratio (x) = 0.32768 0.10667
# Poissons Ratio (y) = 0.73680 0.42054
# Poissons Ratio (z) = 0.13053 0.22887
#
# Static dielectric constant tensor:
#      x y z
#    x 1.658010 0.000000 0.012600 
#    y 0.000000 1.586420 0.000000 
#    z 0.012600 0.000000 1.595480 
# 
# From -- ./inp_files/251936.got.cif
#   From: 2010.05.17/outbox.cif.g08.bks.cpg/sg12_126_cif.got.tgz:251936.got - 2010.06.03 13:09:07.
