data_PCOD9205143
_publ_section_title
;
Structure prediction by ZEFSAII (Michael W. Deem and Ramdas Pophale) SiO2 
 PCOD9205143
Probable space group: C 2/M
;
_chemical_formula_sum "Si O2"
_cell_formula_units_Z 56
_cell_length_a 9.582905
_cell_length_b 14.521943
_cell_length_c 30.258775
_cell_angle_alpha 90.000000
_cell_angle_beta 142.348976
_cell_angle_gamma 90.000000
_cell_volume 2572.220384
_symmetry_space_group_name_H-M "C 2/M"
_symmetry_group_IT_number 12
_symmetry_cell_setting 'monoclinic'
loop_
_space_group_symop_operation_xyz
x,y,z
-x,y,-z
-x,-y,-z
x,-y,z
1/2+x,1/2+y,z
1/2-x,1/2+y,-z
1/2-x,1/2-y,-z
1/2+x,1/2-y,z
loop_
_atom_site_type_symbol
_atom_site_label
_atom_site_fract_x
_atom_site_fract_y
_atom_site_fract_z
Si Si1 0.084157 0.112429 0.069655
Si Si2 0.735880 0.387571 0.930345
Si Si3 0.752726 0.892556 0.338636
Si Si4 0.429108 0.612704 0.208254
Si Si5 0.112163 0.387296 0.208254
Si Si6 0.666278 0.656838 0.500000
Si Si7 0.059546 0.607444 0.661364
O O1 0.346968 0.139398 0.142222
O O2 0.918747 0.144871 0.067499
O O3 0.078101 0.000000 0.069121
O O4 0.000000 0.140188 0.000000
O O5 0.732497 0.500000 0.930879
O O6 0.635859 0.360603 0.857778
O O7 0.000000 0.359812 0.000000
O O8 0.729751 0.856405 0.283394
O O9 0.575940 0.851339 0.330376
O O10 0.005148 0.888958 0.422868
O O11 0.692856 0.000000 0.319981
O O12 0.421146 0.500000 0.207654
O O13 0.249435 0.645762 0.199774
O O14 0.687218 0.643595 0.283394
O O15 0.117122 0.500000 0.207654
O O16 0.500000 0.670181 0.500000
O O17 0.750000 0.750000 0.500000
O O18 0.890809 0.611042 0.577132
O O19 0.092951 0.500000 0.680019
#
# Coordination Sequence:
#
# PCOD9205143 Si02
#       7
#     8   8   8   8   8   8   8
#     4   9  15  22  33  51  79 116 153 187 225 270
#     4   9  15  22  33  51  79 116 153 187 225 270
#     4   9  17  31  50  69  90 120 158 195 231 275
#     4   9  16  25  38  59  86 115 149 189 231 274
#     4   9  16  25  38  59  86 115 149 189 231 274
#     4  10  21  35  51  71  95 122 152 190 236 284
#     4   9  17  31  50  69  90 120 158 195 231 275
#
# _framework density 21.771075
#
# number of rings (size 3 to 8) (size 9 to 14) (size 15 to 20)
#    0.000    2.857    0.000    2.143    0.000    9.714 
#    0.000    0.000    0.000    4.286    0.000    0.000 
#    0.000    1.143    0.000   12.000    0.000   18.000 
#
# Total GULP energy -156286.883485 kJ/mol
# GULP energy per Si atom -5581.674410 kJ/mol
# Density = 2.172152 g / cm^3
# Si number density = 21.771075 Si / 1000 Ang^3
#
#
#
# Elastic Constant Matrix: (Units=GPa)
#
#
# Indices 1 2 3 4 5 6 
#
# 1 192.0750 10.3064 135.6779 0.0000 1.1632 0.0000
# 2 10.3064 43.2887 -6.8062 0.0000 -0.8981 0.0000
# 3 135.6779 -6.8062 184.0083 0.0001 -1.5866 0.0000
# 4 0.0000 0.0000 0.0001 -44.7566 0.0000 -2.7574
# 5 1.1632 -0.8981 -1.5866 0.0000 39.1366 0.0000
# 6 0.0000 0.0000 0.0000 -2.7574 0.0000 7.7850
#
#
#
# Elastic Compliance Matrix: (Units=1/GPa)
#
#
# Indices 1 2 3 4 5 6 
#
# 1 0.011575 -0.004139 -0.008695 0.000000 -0.000791 0.000000
# 2 -0.004139 0.024729 0.003974 0.000000 0.000852 0.000000
# 3 -0.008695 0.003974 0.012000 0.000000 0.000836 0.000000
# 4 0.000000 0.000000 0.000000 -0.021866 0.000000 -0.007745
# 5 -0.000791 0.000852 0.000836 0.000000 0.025629 0.000000
# 6 0.000000 0.000000 0.000000 -0.007745 0.000000 0.125709
#
#
# Mechanical properties :
#
#
# Convention : Reuss Voigt Hill
#
# Bulk Modulus (GPa) = 32.69713 77.52536 55.11124
# Shear Modulus (GPa) = 24.30856 19.11259 21.71057
#
# Velocity S-wave (km/s) = 3.34511 2.96613 3.16131
# Velocity P-wave (km/s) = 5.47457 6.88602 6.22046
#
# Compressibility (1/GPa) = 0.03058373
#
# Stress axis : x y z
#
# Youngs Moduli (GPa) = 86.39347 40.43874 83.33518
#
# Poissons Ratio (x) = 0.16739 0.72457
# Poissons Ratio (y) = 0.35761 -0.33118
# Poissons Ratio (z) = 0.75116 -0.16071
#
# Static dielectric constant tensor:
#      x y z
#    x 1.763060 0.000000 0.001640 
#    y 0.000000 1.820120 0.000000 
#    z 0.001640 0.000000 1.794240 
# 
# From -- ./inp_files/301794.got.cif
#   From: 2010.05.17/outbox.cif.g08.bks.cpg/sg12_151_cif.got.tgz:301794.got - 2010.06.03 13:09:07.
