data_PCOD9205544
_publ_section_title
;
Structure prediction by ZEFSAII (Michael W. Deem and Ramdas Pophale) SiO2 
 PCOD9205544
Probable space group: C 2/M
;
_chemical_formula_sum "Si O2"
_cell_formula_units_Z 48
_cell_length_a 22.770464
_cell_length_b 13.613994
_cell_length_c 11.483650
_cell_angle_alpha 90.000000
_cell_angle_beta 35.535258
_cell_angle_gamma 90.000000
_cell_volume 2069.025522
_symmetry_space_group_name_H-M "C 2/M"
_symmetry_group_IT_number 12
_symmetry_cell_setting 'monoclinic'
loop_
_space_group_symop_operation_xyz
x,y,z
-x,y,-z
-x,-y,-z
x,-y,z
1/2+x,1/2+y,z
1/2-x,1/2+y,-z
1/2-x,1/2-y,-z
1/2+x,1/2-y,z
loop_
_atom_site_type_symbol
_atom_site_label
_atom_site_fract_x
_atom_site_fract_y
_atom_site_fract_z
Si Si1 0.189718 0.110339 0.607230
Si Si2 0.463683 0.700198 0.319027
Si Si3 0.138062 0.254872 0.293346
Si Si4 0.186698 0.616071 0.012844
Si Si5 0.927991 0.389375 0.225970
Si Si6 0.169218 0.783679 0.879235
O O1 0.122569 0.135630 0.603849
O O2 0.308754 0.114072 0.389571
O O3 0.165782 0.000000 0.686158
O O4 0.165515 0.184835 0.751689
O O5 0.443562 0.710285 0.487572
O O6 0.447250 0.807570 0.290423
O O7 0.574464 0.667974 0.098601
O O8 0.118052 0.332364 0.222890
O O9 0.202490 0.162628 0.139044
O O10 0.221390 0.309138 0.243217
O O11 0.182533 0.500000 0.017698
O O12 0.163133 0.668572 0.927243
O O13 0.950383 0.500000 0.231529
O O14 0.000000 0.369616 0.000000
#
# Coordination Sequence:
#
# PCOD9205544 Si02
#       6
#     8   8   8   8   8   8
#     4  11  24  42  62  88 131 174 207 250 308 373
#     4  12  23  38  62  91 131 161 209 253 309 374
#     4   9  22  41  62  95 122 164 205 258 321 361
#     4   9  20  44  69  91 122 161 208 263 321 368
#     4  10  21  35  57  88 121 162 206 251 303 361
#     4  10  22  41  63  94 122 165 209 261 307 373
#
# _framework density 23.199327
#
# number of rings (size 3 to 8) (size 9 to 14) (size 15 to 20)
#    1.000    0.833    1.667    2.000    2.333    4.667 
#    0.000    1.667    0.000    1.000    0.000    0.000 
#    0.000    0.000    0.000    0.000    0.000    0.000 
#
# Total GULP energy -134043.819575 kJ/mol
# GULP energy per Si atom -5585.159149 kJ/mol
# Density = 2.314652 g / cm^3
# Si number density = 23.199327 Si / 1000 Ang^3
#
#
#
# Elastic Constant Matrix: (Units=GPa)
#
#
# Indices 1 2 3 4 5 6 
#
# 1 92.1621 34.1677 17.3571 0.0000 12.6090 0.0000
# 2 34.1677 131.0387 19.5252 0.0000 18.1539 0.0000
# 3 17.3571 19.5252 124.8444 0.0000 5.6510 0.0000
# 4 0.0000 0.0000 0.0000 20.9187 0.0000 0.1961
# 5 12.6090 18.1539 5.6510 0.0000 43.7833 0.0000
# 6 0.0000 0.0000 0.0000 0.1961 0.0000 7.4688
#
#
#
# Elastic Compliance Matrix: (Units=1/GPa)
#
#
# Indices 1 2 3 4 5 6 
#
# 1 0.012403 -0.002740 -0.001193 0.000000 -0.002282 0.000000
# 2 -0.002740 0.008861 -0.000879 0.000000 -0.002771 0.000000
# 3 -0.001193 -0.000879 0.008330 0.000000 -0.000367 0.000000
# 4 0.000000 0.000000 0.000000 0.047816 0.000000 -0.001255
# 5 -0.002282 -0.002771 -0.000367 0.000000 0.024693 0.000000
# 6 0.000000 0.000000 0.000000 -0.001255 0.000000 0.133923
#
#
# Mechanical properties :
#
#
# Convention : Reuss Voigt Hill
#
# Bulk Modulus (GPa) = 50.07641 54.46061 52.26851
# Shear Modulus (GPa) = 19.81711 32.90052 26.35882
#
# Velocity S-wave (km/s) = 2.92586 3.76994 3.37440
# Velocity P-wave (km/s) = 5.74860 6.51736 6.14501
#
# Compressibility (1/GPa) = 0.01996948
#
# Stress axis : x y z
#
# Youngs Moduli (GPa) = 80.62480 112.85663 120.04923
#
# Poissons Ratio (x) = 0.30925 0.14317
# Poissons Ratio (y) = 0.22093 0.10557
# Poissons Ratio (z) = 0.09615 0.09924
#
# Static dielectric constant tensor:
#      x y z
#    x 1.953900 0.000000 -0.068660 
#    y 0.000000 1.825100 0.000000 
#    z -0.068660 0.000000 1.928540 
# 
# From -- ./inp_files/183687.got.cif
#   From: 2010.05.17/outbox.cif.g08.bks.cpg/sg12_92_cif.got.tgz:183687.got - 2010.06.03 13:09:07.
