data_PCOD9205308
_publ_section_title
;
Structure prediction by ZEFSAII (Michael W. Deem and Ramdas Pophale) SiO2 
 PCOD9205308
Probable space group: C 2/M
;
_chemical_formula_sum "Si O2"
_cell_formula_units_Z 56
_cell_length_a 21.134367
_cell_length_b 9.629524
_cell_length_c 15.284797
_cell_angle_alpha 90.000000
_cell_angle_beta 63.486252
_cell_angle_gamma 90.000000
_cell_volume 2783.511061
_symmetry_space_group_name_H-M "C 2/M"
_symmetry_group_IT_number 12
_symmetry_cell_setting 'monoclinic'
loop_
_space_group_symop_operation_xyz
x,y,z
-x,y,-z
-x,-y,-z
x,-y,z
1/2+x,1/2+y,z
1/2-x,1/2+y,-z
1/2-x,1/2-y,-z
1/2+x,1/2-y,z
loop_
_atom_site_type_symbol
_atom_site_label
_atom_site_fract_x
_atom_site_fract_y
_atom_site_fract_z
Si Si1 0.803417 0.652578 0.418311
Si Si2 0.659234 0.336605 0.288793
Si Si3 0.605799 0.339533 0.749472
Si Si4 0.272782 0.164232 0.071589
Si Si5 0.418079 0.844787 0.076560
Si Si6 0.003044 0.158789 0.341242
Si Si7 0.408179 0.156529 0.515396
O O1 0.776193 0.500000 0.412953
O O2 0.750000 0.750000 0.500000
O O3 0.832531 0.736819 0.318917
O O4 0.864160 0.640104 0.453116
O O5 0.667305 0.500000 0.307516
O O6 0.725377 0.295475 0.186581
O O7 0.586650 0.324835 0.277132
O O8 0.638807 0.245489 0.386795
O O9 0.627476 0.500000 0.734557
O O10 0.585117 0.282885 0.855582
O O11 0.541622 0.323133 0.719764
O O12 0.356252 0.177984 0.043162
O O13 0.258814 0.000000 0.065574
O O14 0.250000 0.250000 0.000000
O O15 0.401581 0.000000 0.125369
O O16 0.500000 0.851763 0.000000
O O17 0.975344 0.262058 0.433142
O O18 0.989908 0.000000 0.379551
O O19 0.420938 0.000000 0.541635
#
# Coordination Sequence:
#
# PCOD9205308 Si02
#       7
#     8   8   8   8   8   8   8
#     4  10  21  36  55  81 119 160 199 245 297 354
#     4  10  21  37  59  84 117 158 199 242 295 357
#     4  10  21  37  60  90 119 154 203 249 300 358
#     4  10  24  44  65  91 120 157 200 251 312 366
#     4  10  23  43  65  91 124 160 201 251 312 376
#     4   9  19  36  57  84 120 160 199 241 290 350
#     4  10  21  35  53  85 120 153 198 243 290 348
#
# _framework density 20.118476000000001
#
# number of rings (size 3 to 8) (size 9 to 14) (size 15 to 20)
#    0.000    2.143    0.000    1.714    4.000    6.000 
#    0.000    0.000    0.000    0.000    0.000    0.000 
#    0.000    0.000    0.000    0.000    0.000    0.000 
#
# Total GULP energy -156078.853030 kJ/mol
# GULP energy per Si atom -5574.244751 kJ/mol
# Density = 2.007269 g / cm^3
# Si number density = 20.118476 Si / 1000 Ang^3
#
#
#
# Elastic Constant Matrix: (Units=GPa)
#
#
# Indices 1 2 3 4 5 6 
#
# 1 78.5945 38.3907 31.2544 0.0000 -10.7049 0.0000
# 2 38.3907 114.2234 44.6820 0.0000 2.8307 0.0000
# 3 31.2544 44.6820 79.6020 0.0000 -6.2490 0.0000
# 4 0.0000 0.0000 0.0000 37.6591 0.0000 5.5681
# 5 -10.7049 2.8307 -6.2490 0.0000 31.1766 0.0000
# 6 0.0000 0.0000 0.0000 5.5681 0.0000 22.4743
#
#
#
# Elastic Compliance Matrix: (Units=1/GPa)
#
#
# Indices 1 2 3 4 5 6 
#
# 1 0.017149 -0.004403 -0.003828 0.000000 0.005521 0.000000
# 2 -0.004403 0.012516 -0.005592 0.000000 -0.003769 0.000000
# 3 -0.003828 -0.005592 0.017415 0.000000 0.002684 0.000000
# 4 0.000000 0.000000 0.000000 0.027564 0.000000 -0.006829
# 5 0.005521 -0.003769 0.002684 0.000000 0.034851 0.000000
# 6 0.000000 0.000000 0.000000 -0.006829 0.000000 0.046187
#
#
# Mechanical properties :
#
#
# Convention : Reuss Voigt Hill
#
# Bulk Modulus (GPa) = 51.46042 55.67490 53.56766
# Shear Modulus (GPa) = 26.34265 28.80151 27.57208
#
# Velocity S-wave (km/s) = 3.62246 3.78775 3.70602
# Velocity P-wave (km/s) = 6.56738 6.84565 6.70796
#
# Compressibility (1/GPa) = 0.01943241
#
# Stress axis : x y z
#
# Youngs Moduli (GPa) = 58.31410 79.89995 57.42037
#
# Poissons Ratio (x) = 0.35179 0.21982
# Poissons Ratio (y) = 0.25675 0.32112
# Poissons Ratio (z) = 0.22324 0.44683
#
# Static dielectric constant tensor:
#      x y z
#    x 1.847570 0.000000 -0.037010 
#    y 0.000000 2.039420 0.000000 
#    z -0.037010 0.000000 1.467600 
# 
# From -- ./inp_files/238414.got.cif
#   From: 2010.05.17/outbox.cif.g08.bks.cpg/sg12_120_cif.got.tgz:238414.got - 2010.06.03 13:09:07.
