data_PCOD9205571
_publ_section_title
;
Structure prediction by ZEFSAII (Michael W. Deem and Ramdas Pophale) SiO2 
 PCOD9205571
Probable space group: C 2/M
;
_chemical_formula_sum "Si O2"
_cell_formula_units_Z 58
_cell_length_a 22.411591
_cell_length_b 16.740162
_cell_length_c 14.797958
_cell_angle_alpha 90.000000
_cell_angle_beta 34.433148
_cell_angle_gamma 90.000000
_cell_volume 3139.235837
_symmetry_space_group_name_H-M "C 2/M"
_symmetry_group_IT_number 12
_symmetry_cell_setting 'monoclinic'
loop_
_space_group_symop_operation_xyz
x,y,z
-x,y,-z
-x,-y,-z
x,-y,z
1/2+x,1/2+y,z
1/2-x,1/2+y,-z
1/2-x,1/2-y,-z
1/2+x,1/2-y,z
loop_
_atom_site_type_symbol
_atom_site_label
_atom_site_fract_x
_atom_site_fract_y
_atom_site_fract_z
Si Si1 0.321489 0.906086 0.406109
Si Si2 0.340897 0.407419 0.550450
Si Si3 0.355042 0.353911 0.236679
Si Si4 0.500000 0.500000 0.000000
Si Si5 0.683310 0.300687 0.917871
Si Si6 0.118434 0.800562 0.328196
Si Si7 0.423385 0.594539 0.795491
Si Si8 0.491100 0.802783 0.113297
O O1 0.257225 0.895533 0.392658
O O2 0.247014 0.868604 0.575131
O O3 0.431301 0.861739 0.254725
O O4 0.333836 0.000000 0.407602
O O5 0.343170 0.500000 0.578613
O O6 0.340895 0.348185 0.634560
O O7 0.449537 0.394916 0.358903
O O8 0.319359 0.338680 0.178352
O O9 0.420358 0.277242 0.189083
O O10 0.431954 0.429884 0.138093
O O11 0.799053 0.268831 0.796741
O O12 0.635782 0.362544 0.048794
O O13 0.603215 0.225761 0.010800
O O14 0.109360 0.862278 0.256599
O O15 0.000000 0.772240 0.500000
O O16 0.402000 0.500000 0.820699
O O17 0.500000 0.836658 0.000000
#
# Coordination Sequence:
#
# PCOD9205571 Si02
#       8
#     8   8   8   2   8   8   8   8
#     4  11  22  35  55  85 122 159 190 225 277 349
#     4   9  18  32  56  80 107 141 182 231 280 316
#     4  11  22  35  58  87 124 151 190 242 278 333
#     4  12  20  36  60  88 126 146 200 240 278 308
#     4  11  22  36  58  81 111 153 180 227 287 345
#     4  10  21  39  57  80 106 137 187 241 284 330
#     4  10  21  35  58  83 105 135 185 239 285 326
#     4  10  21  37  54  82 118 156 192 230 281 344
#
# _framework density 18.475833999999999
#
# number of rings (size 3 to 8) (size 9 to 14) (size 15 to 20)
#    0.000    1.655    2.759    3.724    0.966    4.138 
#    0.000    1.379    0.000    0.414    0.000    0.000 
#    0.000    0.000    0.000    0.000    0.000    0.000 
#
# Total GULP energy -161794.508941 kJ/mol
# GULP energy per Si atom -5579.120998 kJ/mol
# Density = 1.843378 g / cm^3
# Si number density = 18.475834 Si / 1000 Ang^3
#
#
#
# Elastic Constant Matrix: (Units=GPa)
#
#
# Indices 1 2 3 4 5 6 
#
# 1 34.6010 10.9376 19.4031 0.0000 -2.5656 0.0000
# 2 10.9376 26.6385 24.2867 0.0000 -7.4947 0.0000
# 3 19.4031 24.2867 102.3359 0.0000 1.0470 0.0000
# 4 0.0000 0.0000 0.0000 25.1357 0.0000 -4.0415
# 5 -2.5656 -7.4947 1.0470 0.0000 17.8369 0.0000
# 6 0.0000 0.0000 0.0000 -4.0415 0.0000 1.8977
#
#
#
# Elastic Compliance Matrix: (Units=1/GPa)
#
#
# Indices 1 2 3 4 5 6 
#
# 1 0.034495 -0.010110 -0.004151 0.000000 0.000958 0.000000
# 2 -0.010110 0.060069 -0.012590 0.000000 0.024525 0.000000
# 3 -0.004151 -0.012590 0.013615 0.000000 -0.006686 0.000000
# 4 0.000000 0.000000 0.000000 0.060501 0.000000 0.128848
# 5 0.000958 0.024525 -0.006686 0.000000 0.066898 0.000000
# 6 0.000000 0.000000 0.000000 0.128848 0.000000 0.801365
#
#
# Mechanical properties :
#
#
# Convention : Reuss Voigt Hill
#
# Bulk Modulus (GPa) = 18.35591 30.31446 24.33519
# Shear Modulus (GPa) = 4.50936 16.23726 10.37331
#
# Velocity S-wave (km/s) = 1.56396 2.96774 2.37207
# Velocity P-wave (km/s) = 3.63565 5.30910 4.54997
#
# Compressibility (1/GPa) = 0.05447837
#
# Stress axis : x y z
#
# Youngs Moduli (GPa) = 28.98937 16.64751 73.44817
#
# Poissons Ratio (x) = 0.16830 0.30488
# Poissons Ratio (y) = 0.29308 0.92470
# Poissons Ratio (z) = 0.12033 0.20959
#
# Static dielectric constant tensor:
#      x y z
#    x 1.640880 0.000000 0.000250 
#    y 0.000000 1.615580 0.000000 
#    z 0.000250 0.000000 1.640090 
# 
# From -- ./inp_files/241274.got.cif
#   From: 2010.05.17/outbox.cif.g08.bks.cpg/sg12_121_cif.got.tgz:241274.got - 2010.06.03 13:09:07.
