data_PCOD9205028
_publ_section_title
;
Structure prediction by ZEFSAII (Michael W. Deem and Ramdas Pophale) SiO2 
 PCOD9205028
Probable space group: C 2/M
;
_chemical_formula_sum "Si O2"
_cell_formula_units_Z 48
_cell_length_a 17.912845
_cell_length_b 30.509572
_cell_length_c 9.372114
_cell_angle_alpha 90.000000
_cell_angle_beta 154.985041
_cell_angle_gamma 90.000000
_cell_volume 2165.856018
_symmetry_space_group_name_H-M "C 2/M"
_symmetry_group_IT_number 12
_symmetry_cell_setting 'monoclinic'
loop_
_space_group_symop_operation_xyz
x,y,z
-x,y,-z
-x,-y,-z
x,-y,z
1/2+x,1/2+y,z
1/2-x,1/2+y,-z
1/2-x,1/2-y,-z
1/2+x,1/2-y,z
loop_
_atom_site_type_symbol
_atom_site_label
_atom_site_fract_x
_atom_site_fract_y
_atom_site_fract_z
Si Si1 0.798041 0.380412 0.510326
Si Si2 0.802363 0.051363 0.037865
Si Si3 0.007898 0.693661 0.339380
Si Si4 0.008709 0.449993 0.740987
Si Si5 0.387179 0.287966 0.444362
Si Si6 0.477853 0.621987 0.735385
O O1 0.901344 0.341646 0.607146
O O2 0.928541 0.420938 0.724304
O O3 0.713683 0.378948 0.521217
O O4 0.626324 0.384769 0.112542
O O5 0.958542 0.084574 0.265920
O O6 0.856684 0.000000 0.143825
O O7 0.648380 0.051278 0.650017
O O8 0.688990 0.065943 0.979355
O O9 0.107156 0.739708 0.478400
O O10 0.000000 0.683526 0.500000
O O11 0.807742 0.698938 0.940430
O O12 0.037452 0.500000 0.831948
O O13 0.500000 0.279911 0.500000
O O14 0.483539 0.328390 0.687742
#
# Coordination Sequence:
#
# PCOD9205028 Si02
#       6
#     8   8   8   8   8   8
#     4  10  21  34  57  88 122 163 195 244 287 348
#     4   8  15  29  53  83 118 158 200 245 289 342
#     4  11  23  40  64  88 115 151 194 240 296 354
#     4   8  15  28  51  85 118 156 203 244 287 341
#     4  11  23  40  62  88 117 151 195 244 292 353
#     4  10  21  36  55  88 126 157 199 239 297 339
#
# _framework density 22.162137000000001
#
# number of rings (size 3 to 8) (size 9 to 14) (size 15 to 20)
#    0.000    2.333    0.000    5.000    7.000    2.000 
#    0.000    3.333    0.000    1.500    0.000    2.333 
#    0.000    0.000    0.000    0.000    0.000    0.333 
#
# Total GULP energy -133822.255283 kJ/mol
# GULP energy per Si atom -5575.927303 kJ/mol
# Density = 2.211170 g / cm^3
# Si number density = 22.162137 Si / 1000 Ang^3
#
#
#
# Elastic Constant Matrix: (Units=GPa)
#
#
# Indices 1 2 3 4 5 6 
#
# 1 77.0407 62.8089 37.8823 0.0000 34.5740 0.0000
# 2 62.8089 83.5213 32.2669 0.0000 36.8059 0.0000
# 3 37.8823 32.2669 104.5109 0.0000 11.4797 0.0000
# 4 0.0000 0.0000 0.0000 146.4156 0.0000 64.5327
# 5 34.5740 36.8059 11.4797 0.0000 42.8109 0.0000
# 6 0.0000 0.0000 0.0000 64.5327 0.0000 25.5020
#
#
#
# Elastic Compliance Matrix: (Units=1/GPa)
#
#
# Indices 1 2 3 4 5 6 
#
# 1 0.038786 -0.022121 -0.006056 0.000000 -0.010682 0.000000
# 2 -0.022121 0.033923 -0.001251 0.000000 -0.010965 0.000000
# 3 -0.006056 -0.001251 0.011843 0.000000 0.002791 0.000000
# 4 0.000000 0.000000 0.000000 -0.059228 0.000000 0.149875
# 5 -0.010682 -0.010965 0.002791 0.000000 0.040664 0.000000
# 6 0.000000 0.000000 0.000000 0.149875 0.000000 -0.340045
#
#
# Mechanical properties :
#
#
# Convention : Reuss Voigt Hill
#
# Bulk Modulus (GPa) = 38.91480 58.99879 48.95680
# Shear Modulus (GPa) = -24.19722 51.75337 13.77807
#
# Velocity S-wave (km/s) = -3.30787 4.83765 2.49608
# Velocity P-wave (km/s) = 1.73435 7.60809 5.51774
#
# Compressibility (1/GPa) = 0.02569717
#
# Stress axis : x y z
#
# Youngs Moduli (GPa) = 25.78255 29.47830 84.43665
#
# Poissons Ratio (x) = 0.65208 0.51134
# Poissons Ratio (y) = 0.57033 0.10563
# Poissons Ratio (z) = 0.15614 0.03688
#
# Static dielectric constant tensor:
#      x y z
#    x 1.837350 0.000000 -0.021660 
#    y 0.000000 1.853950 0.000000 
#    z -0.021660 0.000000 1.838470 
# 
# From -- ./inp_files/170828.got.cif
#   From: 2010.05.17/outbox.cif.g08.bks.cpg/sg12_86_cif.got.tgz:170828.got - 2010.06.03 13:09:07.
