data_PCOD9205445
_publ_section_title
;
Structure prediction by ZEFSAII (Michael W. Deem and Ramdas Pophale) SiO2 
 PCOD9205445
Probable space group: C 2/M
;
_chemical_formula_sum "Si O2"
_cell_formula_units_Z 48
_cell_length_a 15.302789
_cell_length_b 25.506369
_cell_length_c 9.979819
_cell_angle_alpha 90.000000
_cell_angle_beta 143.401000
_cell_angle_gamma 90.000000
_cell_volume 2322.425428
_symmetry_space_group_name_H-M "C 2/M"
_symmetry_group_IT_number 12
_symmetry_cell_setting 'monoclinic'
loop_
_space_group_symop_operation_xyz
x,y,z
-x,y,-z
-x,-y,-z
x,-y,z
1/2+x,1/2+y,z
1/2-x,1/2+y,-z
1/2-x,1/2-y,-z
1/2+x,1/2-y,z
loop_
_atom_site_type_symbol
_atom_site_label
_atom_site_fract_x
_atom_site_fract_y
_atom_site_fract_z
Si Si1 0.986956 0.711906 0.826430
Si Si2 0.110585 0.087484 0.032465
Si Si3 0.586515 0.129393 0.478392
Si Si4 0.450946 0.323811 0.668953
Si Si5 0.780008 0.163922 0.200376
Si Si6 0.177131 0.441004 0.942010
O O1 0.935085 0.769897 0.729036
O O2 0.905589 0.669637 0.634243
O O3 0.156157 0.703107 0.995807
O O4 0.000000 0.701359 0.000000
O O5 0.250916 0.112779 0.280308
O O6 0.196939 0.058728 0.018233
O O7 0.004035 0.130741 0.833756
O O8 0.000000 0.059586 0.000000
O O9 0.500000 0.153942 0.500000
O O10 0.478185 0.080886 0.306540
O O11 0.583005 0.322826 0.724038
O O12 0.315805 0.331768 0.401486
O O13 0.728351 0.104394 0.106671
O O14 0.161435 0.500000 0.975057
#
# Coordination Sequence:
#
# PCOD9205445 Si02
#       6
#     8   8   8   8   8   8
#     4  11  23  34  57  88 120 159 199 243 289 344
#     4  10  21  35  55  88 124 151 190 245 305 348
#     4   9  21  38  59  87 117 162 204 239 286 355
#     4  10  21  36  56  80 122 161 194 237 287 360
#     4   9  21  38  56  86 113 156 202 240 291 352
#     4   9  19  41  66  84 109 153 206 250 293 353
#
# _framework density 20.668047999999999
#
# number of rings (size 3 to 8) (size 9 to 14) (size 15 to 20)
#    0.000    2.333    0.000    2.000    7.000    4.000 
#    0.000    6.667    0.000    8.000    0.000    0.000 
#    0.000    0.000    0.000    0.000    0.000    0.000 
#
# Total GULP energy -133788.351301 kJ/mol
# GULP energy per Si atom -5574.514638 kJ/mol
# Density = 2.062101 g / cm^3
# Si number density = 20.668048 Si / 1000 Ang^3
#
#
#
# Elastic Constant Matrix: (Units=GPa)
#
#
# Indices 1 2 3 4 5 6 
#
# 1 69.9831 7.7761 15.3351 0.0000 -5.5347 0.0000
# 2 7.7761 76.8398 27.8261 0.0000 -15.3753 0.0000
# 3 15.3351 27.8261 113.7751 0.0000 -7.0159 0.0000
# 4 0.0000 0.0000 0.0000 -3.4042 0.0000 9.6094
# 5 -5.5347 -15.3753 -7.0159 0.0000 23.9078 0.0000
# 6 0.0000 0.0000 0.0000 9.6094 0.0000 -6.8777
#
#
#
# Elastic Compliance Matrix: (Units=1/GPa)
#
#
# Indices 1 2 3 4 5 6 
#
# 1 0.014928 -0.000326 -0.001764 0.000000 0.002729 0.000000
# 2 -0.000326 0.016114 -0.003323 0.000000 0.009312 0.000000
# 3 -0.001764 -0.003323 0.009861 0.000000 0.000349 0.000000
# 4 0.000000 0.000000 0.000000 0.099780 0.000000 0.139412
# 5 0.002729 0.009312 0.000349 0.000000 0.048550 0.000000
# 6 0.000000 0.000000 0.000000 0.139412 0.000000 0.049387
#
#
# Mechanical properties :
#
#
# Convention : Reuss Voigt Hill
#
# Bulk Modulus (GPa) = 33.24784 40.27475 36.76130
# Shear Modulus (GPa) = 19.26997 16.70256 17.98627
#
# Velocity S-wave (km/s) = 3.05676 2.84585 2.95319
# Velocity P-wave (km/s) = 5.34602 5.50702 5.42712
#
# Compressibility (1/GPa) = 0.03007714
#
# Stress axis : x y z
#
# Youngs Moduli (GPa) = 66.98946 62.05901 101.40768
#
# Poissons Ratio (x) = 0.02022 0.17889
# Poissons Ratio (y) = 0.02183 0.33696
# Poissons Ratio (z) = 0.11817 0.20621
#
# Static dielectric constant tensor:
#      x y z
#    x 1.793550 0.000000 0.006330 
#    y 0.000000 1.698640 0.000000 
#    z 0.006330 0.000000 1.759760 
# 
# From -- ./inp_files/67321.got.cif
#   From: 2010.05.17/outbox.cif.g08.bks.cpg/sg12_34_cif.got.tgz:67321.got - 2010.06.03 13:09:07.
