data_PCOD9205313
_publ_section_title
;
Structure prediction by ZEFSAII (Michael W. Deem and Ramdas Pophale) SiO2 
 PCOD9205313
Probable space group: C 2/M
;
_chemical_formula_sum "Si O2"
_cell_formula_units_Z 56
_cell_length_a 13.534569
_cell_length_b 26.630061
_cell_length_c 15.989603
_cell_angle_alpha 90.000000
_cell_angle_beta 147.630733
_cell_angle_gamma 90.000000
_cell_volume 3085.399527
_symmetry_space_group_name_H-M "C 2/M"
_symmetry_group_IT_number 12
_symmetry_cell_setting 'monoclinic'
loop_
_space_group_symop_operation_xyz
x,y,z
-x,y,-z
-x,-y,-z
x,-y,z
1/2+x,1/2+y,z
1/2-x,1/2+y,-z
1/2-x,1/2-y,-z
1/2+x,1/2-y,z
loop_
_atom_site_type_symbol
_atom_site_label
_atom_site_fract_x
_atom_site_fract_y
_atom_site_fract_z
Si Si1 0.375773 0.889534 0.833218
Si Si2 0.988287 0.891031 0.320224
Si Si3 0.298004 0.778254 0.348976
Si Si4 0.937772 0.000000 0.589085
Si Si5 0.914527 0.820689 0.129284
Si Si6 0.661880 0.776292 0.814019
Si Si7 0.684771 0.000000 0.249123
Si Si8 0.202274 0.321098 0.378738
O O1 0.419742 0.947814 0.842742
O O2 0.384929 0.854675 0.758307
O O3 0.165443 0.889068 0.716677
O O4 0.500000 0.872579 0.000000
O O5 0.149773 0.853752 0.465450
O O6 0.899456 0.871242 0.171125
O O7 0.062836 0.947301 0.364100
O O8 0.500000 0.802168 0.500000
O O9 0.271804 0.767433 0.232147
O O10 0.295475 0.726725 0.400241
O O11 0.127505 0.810539 0.259475
O O12 0.772159 0.000000 0.403881
O O13 0.133961 0.000000 0.680433
O O14 0.847995 0.776378 0.144071
O O15 0.796413 0.813019 0.961581
O O16 0.457845 0.799913 0.676050
#
# Coordination Sequence:
#
# PCOD9205313 Si02
#       8
#     8   8   8   4   8   8   4   8
#     4  11  20  30  48  74 106 140 173 211 257 308
#     4  11  20  35  53  77 103 140 178 215 259 307
#     4  11  21  34  52  76 103 139 174 214 254 307
#     4   9  18  32  54  72 105 133 173 221 257 303
#     4  10  21  35  54  75 106 140 173 215 262 311
#     4  10  21  36  50  77 109 136 175 216 258 308
#     4   9  17  32  46  72 101 138 171 212 258 307
#     4  11  21  32  53  75 104 140 177 211 252 309
#
# _framework density 18.149999000000001
#
# number of rings (size 3 to 8) (size 9 to 14) (size 15 to 20)
#    0.000    1.571    1.429    5.357    0.000    4.571 
#    0.000    0.000    0.000    0.000    0.000    7.500 
#    0.000    0.000    0.000    0.000    0.000    0.000 
#
# Total GULP energy -156440.446757 kJ/mol
# GULP energy per Si atom -5587.158813 kJ/mol
# Density = 1.810869 g / cm^3
# Si number density = 18.149999 Si / 1000 Ang^3
#
#
#
# Elastic Constant Matrix: (Units=GPa)
#
#
# Indices 1 2 3 4 5 6 
#
# 1 62.5139 22.2803 1.4676 -0.0001 -8.1264 -0.0001
# 2 22.2803 66.4233 13.0162 -0.0001 -1.1597 0.0000
# 3 1.4676 13.0162 54.6406 -0.0003 -10.0884 -0.0001
# 4 -0.0001 -0.0001 -0.0003 26.8836 -0.0001 -8.4186
# 5 -8.1264 -1.1597 -10.0884 -0.0001 21.1722 -0.0001
# 6 -0.0001 0.0000 -0.0001 -8.4186 -0.0001 14.3350
#
#
#
# Elastic Compliance Matrix: (Units=1/GPa)
#
#
# Indices 1 2 3 4 5 6 
#
# 1 0.019486 -0.006913 0.002669 0.000000 0.008372 0.000000
# 2 -0.006913 0.018265 -0.004902 0.000000 -0.003989 0.000000
# 3 0.002669 -0.004902 0.021422 0.000000 0.010963 0.000001
# 4 0.000000 0.000000 0.000000 0.045580 0.000001 0.026768
# 5 0.008372 -0.003989 0.010963 0.000001 0.055451 0.000001
# 6 0.000000 0.000000 0.000001 0.026768 0.000001 0.085480
#
#
# Mechanical properties :
#
#
# Convention : Reuss Voigt Hill
#
# Bulk Modulus (GPa) = 24.46110 28.56733 26.51421
# Shear Modulus (GPa) = 18.01150 22.26574 20.13862
#
# Velocity S-wave (km/s) = 3.15361 3.50632 3.33463
# Velocity P-wave (km/s) = 5.17366 5.67152 5.42830
#
# Compressibility (1/GPa) = 0.04088124
#
# Stress axis : x y z
#
# Youngs Moduli (GPa) = 51.31892 54.75045 46.68202
#
# Poissons Ratio (x) = 0.37849 -0.12461
# Poissons Ratio (y) = 0.35477 0.22882
# Poissons Ratio (z) = -0.13698 0.26837
#
# Static dielectric constant tensor:
#      x y z
#    x 1.605250 0.000000 0.005460 
#    y 0.000000 1.621420 0.000000 
#    z 0.005460 0.000000 1.675740 
# 
# From -- ./inp_files/80147.got.cif
#   From: 2010.05.17/outbox.cif.g08.bks.cpg/sg12_41_cif.got.tgz:80147.got - 2010.06.03 13:09:07.
