data_PCOD9205864
_publ_section_title
;
Structure prediction by ZEFSAII (Michael W. Deem and Ramdas Pophale) SiO2 
 PCOD9205864
Probable space group: C 2/M
;
_chemical_formula_sum "Si O2"
_cell_formula_units_Z 58
_cell_length_a 10.324248
_cell_length_b 9.191906
_cell_length_c 33.791323
_cell_angle_alpha 90.000000
_cell_angle_beta 107.560806
_cell_angle_gamma 90.000000
_cell_volume 3057.335571
_symmetry_space_group_name_H-M "C 2/M"
_symmetry_group_IT_number 12
_symmetry_cell_setting 'monoclinic'
loop_
_space_group_symop_operation_xyz
x,y,z
-x,y,-z
-x,-y,-z
x,-y,z
1/2+x,1/2+y,z
1/2-x,1/2+y,-z
1/2-x,1/2-y,-z
1/2+x,1/2-y,z
loop_
_atom_site_type_symbol
_atom_site_label
_atom_site_fract_x
_atom_site_fract_y
_atom_site_fract_z
Si Si1 0.832269 0.337270 0.040524
Si Si2 0.500000 0.000000 0.000000
Si Si3 0.136691 0.828371 0.874511
Si Si4 0.268488 0.325280 0.730547
Si Si5 0.180666 0.827871 0.173713
Si Si6 0.040066 0.675014 0.314322
Si Si7 0.310731 0.825000 0.590749
Si Si8 0.002921 0.825567 0.546741
O O1 0.771236 0.500000 0.040774
O O2 0.842100 0.251936 0.081894
O O3 0.974358 0.375256 0.032038
O O4 0.750000 0.250000 0.000000
O O5 0.234391 0.761943 0.850313
O O6 0.980063 0.807628 0.847343
O O7 0.162210 0.000000 0.881607
O O8 0.284582 0.500000 0.728935
O O9 0.281232 0.286617 0.777934
O O10 0.381523 0.247779 0.714722
O O11 0.118571 0.285553 0.701228
O O12 0.210590 0.000000 0.171388
O O13 0.049024 0.500000 0.311552
O O14 0.112617 0.718185 0.361925
O O15 0.151980 0.785250 0.576884
O O16 0.386780 0.753062 0.560864
O O17 0.318249 0.000000 0.587626
O O18 0.000000 0.788998 0.500000
O O19 0.986202 0.000000 0.548744
#
# Coordination Sequence:
#
# PCOD9205864 Si02
#       8
#     8   2   8   8   8   8   8   8
#     4  10  22  40  62  86 116 151 189 233 277 331
#     4   8  24  40  62  86 120 148 194 232 282 332
#     4  11  24  39  61  89 118 152 193 234 281 335
#     4  10  21  38  59  83 115 148 189 232 283 340
#     4  10  23  41  59  87 118 152 191 235 281 338
#     4  10  21  36  57  84 113 147 187 236 286 338
#     4  10  21  36  54  81 112 143 189 236 282 342
#     4  10  21  36  54  78 110 147 188 235 285 341
#
# _framework density 18.970766000000001
#
# number of rings (size 3 to 8) (size 9 to 14) (size 15 to 20)
#    0.414    1.517    0.000    2.897    1.931    3.586 
#    0.000    0.690    0.000    0.000    0.000    0.000 
#    0.000    0.000    0.000    0.000    0.000    0.000 
#
# Total GULP energy -161636.475917 kJ/mol
# GULP energy per Si atom -5573.671583 kJ/mol
# Density = 1.892759 g / cm^3
# Si number density = 18.970766 Si / 1000 Ang^3
#
#
#
# Elastic Constant Matrix: (Units=GPa)
#
#
# Indices 1 2 3 4 5 6 
#
# 1 39.3171 18.4487 -16.3138 0.0000 -12.6435 0.0000
# 2 18.4487 40.2274 16.3620 0.0000 -3.2678 0.0000
# 3 -16.3138 16.3620 58.0174 0.0000 -1.0164 0.0000
# 4 0.0000 0.0000 0.0000 29.0897 0.0000 -13.9851
# 5 -12.6435 -3.2678 -1.0164 0.0000 39.3477 0.0000
# 6 0.0000 0.0000 0.0000 -13.9851 0.0000 25.6089
#
#
#
# Elastic Compliance Matrix: (Units=1/GPa)
#
#
# Indices 1 2 3 4 5 6 
#
# 1 0.059824 -0.037310 0.027639 0.000000 0.016838 0.000000
# 2 -0.037310 0.051527 -0.025169 0.000000 -0.008359 0.000000
# 3 0.027639 -0.025169 0.032240 0.000000 0.007624 0.000000
# 4 0.000000 0.000000 0.000000 0.046615 0.000000 0.025456
# 5 0.016838 -0.008359 0.007624 0.000000 0.030328 0.000000
# 6 0.000000 0.000000 0.000000 0.025456 0.000000 0.052951
#
#
# Mechanical properties :
#
#
# Convention : Reuss Voigt Hill
#
# Bulk Modulus (GPa) = 13.52985 19.39510 16.46247
# Shear Modulus (GPa) = 13.59430 26.74693 20.17061
#
# Velocity S-wave (km/s) = 2.67983 3.75894 3.26428
# Velocity P-wave (km/s) = 4.08934 5.39309 4.78582
#
# Compressibility (1/GPa) = 0.07391064
#
# Stress axis : x y z
#
# Youngs Moduli (GPa) = 16.71575 19.40713 31.01774
#
# Poissons Ratio (x) = 0.72407 -0.85729
# Poissons Ratio (y) = 0.62366 0.78069
# Poissons Ratio (z) = -0.46200 0.48846
#
# Static dielectric constant tensor:
#      x y z
#    x 1.639730 0.000000 0.027330 
#    y 0.000000 1.640330 0.000000 
#    z 0.027330 0.000000 1.629040 
# 
# From -- ./inp_files/373482.got.cif
#   From: 2010.05.17/outbox.cif.g08.bks.cpg/sg12_187_cif.got.tgz:373482.got - 2010.06.03 13:09:07.
