data_PCOD9205017
_publ_section_title
;
Structure prediction by ZEFSAII (Michael W. Deem and Ramdas Pophale) SiO2 
 PCOD9205017
Probable space group: C 2/M
;
_chemical_formula_sum "Si O2"
_cell_formula_units_Z 56
_cell_length_a 21.144971
_cell_length_b 21.967558
_cell_length_c 5.850092
_cell_angle_alpha 90.000000
_cell_angle_beta 109.356068
_cell_angle_gamma 90.000000
_cell_volume 2563.792780
_symmetry_space_group_name_H-M "C 2/M"
_symmetry_group_IT_number 12
_symmetry_cell_setting 'monoclinic'
loop_
_space_group_symop_operation_xyz
x,y,z
-x,y,-z
-x,-y,-z
x,-y,z
1/2+x,1/2+y,z
1/2-x,1/2+y,-z
1/2-x,1/2-y,-z
1/2+x,1/2-y,z
loop_
_atom_site_type_symbol
_atom_site_label
_atom_site_fract_x
_atom_site_fract_y
_atom_site_fract_z
Si Si1 0.663854 0.596915 0.043977
Si Si2 0.193767 0.433726 0.009891
Si Si3 0.518221 0.431099 0.770087
Si Si4 0.138293 0.338815 0.617109
Si Si5 0.738086 0.626604 0.523291
Si Si6 0.317753 0.281804 0.170834
Si Si7 0.462413 0.930583 0.705969
O O1 0.677913 0.591727 0.328504
O O2 0.732947 0.572290 0.019446
O O3 0.598451 0.566228 0.872592
O O4 0.656839 0.669003 0.981540
O O5 0.164733 0.500000 0.936610
O O6 0.213063 0.420103 0.291042
O O7 0.146929 0.382343 0.847804
O O8 0.500000 0.402834 0.500000
O O9 0.489258 0.500000 0.735588
O O10 0.500000 0.403652 0.000000
O O11 0.211716 0.339694 0.588342
O O12 0.129833 0.269783 0.689935
O O13 0.087199 0.373092 0.388939
O O14 0.706257 0.675765 0.651057
O O15 0.250000 0.250000 0.000000
O O16 0.500000 0.929967 0.500000
O O17 0.433229 0.000000 0.683529
O O18 0.500000 0.923642 0.000000
#
# Coordination Sequence:
#
# PCOD9205017 Si02
#       7
#     8   8   8   8   8   8   8
#     4  10  22  38  60  86 124 162 206 253 314 370
#     4  10  21  34  56  92 125 153 197 258 318 377
#     4  10  23  42  66  91 123 168 214 258 309 371
#     4  11  22  38  63  87 123 159 213 252 315 380
#     4  10  21  35  60  92 121 161 195 258 313 381
#     4  11  20  38  60  90 122 164 199 248 317 379
#     4  10  24  45  67  91 125 169 215 266 320 372
#
# _framework density 21.842637
#
# number of rings (size 3 to 8) (size 9 to 14) (size 15 to 20)
#    0.000    1.714    4.286    1.286    6.000    3.429 
#    0.000    0.714    0.000    0.000    0.000    0.000 
#    0.000    0.000    0.000    0.000    0.000    0.000 
#
# Total GULP energy -156002.794468 kJ/mol
# GULP energy per Si atom -5571.528374 kJ/mol
# Density = 2.179292 g / cm^3
# Si number density = 21.842637 Si / 1000 Ang^3
#
#
#
# Elastic Constant Matrix: (Units=GPa)
#
#
# Indices 1 2 3 4 5 6 
#
# 1 32.4007 -0.8995 19.7283 0.0000 0.8412 0.0000
# 2 -0.8995 101.4400 23.9636 0.0000 10.8179 0.0000
# 3 19.7283 23.9636 145.9269 0.0000 8.6913 0.0000
# 4 0.0000 0.0000 0.0000 20.1347 0.0000 8.8985
# 5 0.8412 10.8179 8.6913 0.0000 28.8054 0.0000
# 6 0.0000 0.0000 0.0000 8.8985 0.0000 17.0798
#
#
#
# Elastic Compliance Matrix: (Units=1/GPa)
#
#
# Indices 1 2 3 4 5 6 
#
# 1 0.033832 0.001444 -0.004806 0.000000 -0.000080 0.000000
# 2 0.001444 0.010656 -0.001735 0.000000 -0.003521 0.000000
# 3 -0.004806 -0.001735 0.007882 0.000000 -0.001586 0.000000
# 4 0.000000 0.000000 0.000000 0.064522 0.000000 -0.033616
# 5 -0.000080 -0.003521 -0.001586 0.000000 0.036519 0.000000
# 6 0.000000 0.000000 0.000000 -0.033616 0.000000 0.076062
#
#
# Mechanical properties :
#
#
# Convention : Reuss Voigt Hill
#
# Bulk Modulus (GPa) = 23.71079 40.59471 32.15275
# Shear Modulus (GPa) = 19.70621 29.00230 24.35425
#
# Velocity S-wave (km/s) = 3.00691 3.64783 3.34276
# Velocity P-wave (km/s) = 4.78896 6.03056 5.44526
#
# Compressibility (1/GPa) = 0.04217489
#
# Stress axis : x y z
#
# Youngs Moduli (GPa) = 29.55768 93.84150 126.87184
#
# Poissons Ratio (x) = -0.13550 0.60977
# Poissons Ratio (y) = -0.04268 0.22018
# Poissons Ratio (z) = 0.14206 0.16286
#
# Static dielectric constant tensor:
#      x y z
#    x 1.841450 0.000000 -0.053200 
#    y 0.000000 1.823940 0.000000 
#    z -0.053200 0.000000 1.913330 
# 
# From -- ./inp_files/21920.got.cif
#   From: 2010.05.17/outbox.cif.g08.bks.cpg/sg12_11_cif.got.tgz:21920.got - 2010.06.03 13:09:07.
