data_PCOD9205287
_publ_section_title
;
Structure prediction by ZEFSAII (Michael W. Deem and Ramdas Pophale) SiO2 
 PCOD9205287
Probable space group: C 2/M
;
_chemical_formula_sum "Si O2"
_cell_formula_units_Z 64
_cell_length_a 13.893651
_cell_length_b 26.093386
_cell_length_c 9.159394
_cell_angle_alpha 90.000000
_cell_angle_beta 101.240451
_cell_angle_gamma 90.000000
_cell_volume 3256.881038
_symmetry_space_group_name_H-M "C 2/M"
_symmetry_group_IT_number 12
_symmetry_cell_setting 'monoclinic'
loop_
_space_group_symop_operation_xyz
x,y,z
-x,y,-z
-x,-y,-z
x,-y,z
1/2+x,1/2+y,z
1/2-x,1/2+y,-z
1/2-x,1/2-y,-z
1/2+x,1/2-y,z
loop_
_atom_site_type_symbol
_atom_site_label
_atom_site_fract_x
_atom_site_fract_y
_atom_site_fract_z
Si Si1 0.099448 0.698561 0.264974
Si Si2 0.608466 0.718545 0.014488
Si Si3 0.774524 0.442833 0.612007
Si Si4 0.691145 0.335829 0.546567
Si Si5 0.912813 0.252472 0.321388
Si Si6 0.648200 0.057343 0.692351
Si Si7 0.036747 0.584508 0.174905
Si Si8 0.253585 0.838396 0.247217
O O1 0.112164 0.733078 0.125289
O O2 0.203581 0.687344 0.369826
O O3 0.024787 0.728405 0.348632
O O4 0.048888 0.645296 0.205366
O O5 0.695748 0.682770 0.092270
O O6 0.500000 0.694613 0.000000
O O7 0.615054 0.736045 0.851741
O O8 0.731582 0.500000 0.598144
O O9 0.699189 0.395404 0.597034
O O10 0.836508 0.436424 0.478117
O O11 0.855819 0.438021 0.761965
O O12 0.613164 0.297465 0.592695
O O13 0.684411 0.336444 0.369484
O O14 0.843540 0.301930 0.321902
O O15 0.540031 0.063485 0.727934
O O16 0.709154 0.104746 0.772575
O O17 0.682878 0.000000 0.738421
O O18 0.000000 0.574437 0.000000
#
# Coordination Sequence:
#
# PCOD9205287 Si02
#       8
#     8   8   8   8   8   8   8   8
#     4  10  21  35  53  80 115 149 184 210 271 331
#     4  10  22  37  54  78 108 150 180 212 275 341
#     4   9  20  37  52  70 107 149 183 220 270 328
#     4  10  22  35  54  84 111 140 183 231 266 314
#     4  11  20  35  56  78 110 149 176 220 272 324
#     4  10  21  36  53  74 102 146 187 222 274 324
#     4  11  20  31  50  77 111 145 184 224 257 316
#     4  11  21  36  55  78 109 140 182 229 265 319
#
# _framework density 19.650701999999999
#
# number of rings (size 3 to 8) (size 9 to 14) (size 15 to 20)
#    0.000    1.750    2.500    2.625    0.000    3.500 
#    2.250    0.000    0.000    0.375    0.000    2.625 
#    0.000   16.000    0.000    0.000    0.000    0.000 
#
# Total GULP energy -178771.738928 kJ/mol
# GULP energy per Si atom -5586.616841 kJ/mol
# Density = 1.960598 g / cm^3
# Si number density = 19.650702 Si / 1000 Ang^3
#
#
#
# Elastic Constant Matrix: (Units=GPa)
#
#
# Indices 1 2 3 4 5 6 
#
# 1 38.6259 41.0649 2.8499 0.0000 1.5282 0.0000
# 2 41.0649 146.9229 12.6092 0.0000 -2.7952 0.0000
# 3 2.8499 12.6092 32.7610 0.0000 4.1603 0.0000
# 4 0.0000 0.0000 0.0000 6.4191 0.0000 0.3536
# 5 1.5282 -2.7952 4.1603 0.0000 23.9195 0.0000
# 6 0.0000 0.0000 0.0000 0.3536 0.0000 16.9620
#
#
#
# Elastic Compliance Matrix: (Units=1/GPa)
#
#
# Indices 1 2 3 4 5 6 
#
# 1 0.037195 -0.010583 0.001326 0.000000 -0.003844 0.000000
# 2 -0.010583 0.010091 -0.003271 0.000000 0.002424 0.000000
# 3 0.001326 -0.003271 0.032444 0.000000 -0.006110 0.000000
# 4 0.000000 0.000000 0.000000 0.155964 0.000000 -0.003251
# 5 -0.003844 0.002424 -0.006110 0.000000 0.043399 0.000000
# 6 0.000000 0.000000 0.000000 -0.003251 0.000000 0.059023
#
#
# Mechanical properties :
#
#
# Convention : Reuss Voigt Hill
#
# Bulk Modulus (GPa) = 18.29059 36.81754 27.55407
# Shear Modulus (GPa) = 13.10972 20.24582 16.67777
#
# Velocity S-wave (km/s) = 2.58570 3.21329 2.91643
# Velocity P-wave (km/s) = 4.27113 5.70470 5.03915
#
# Compressibility (1/GPa) = 0.05467291
#
# Stress axis : x y z
#
# Youngs Moduli (GPa) = 26.88555 99.09769 30.82268
#
# Poissons Ratio (x) = 1.04873 -0.04086
# Poissons Ratio (y) = 0.28452 0.10083
# Poissons Ratio (z) = -0.03564 0.32416
#
# Static dielectric constant tensor:
#      x y z
#    x 1.705650 0.000000 -0.010150 
#    y 0.000000 1.702750 0.000000 
#    z -0.010150 0.000000 1.706450 
# 
# From -- ./inp_files/66973.got.cif
#   From: 2010.05.17/outbox.cif.g08.bks.cpg/sg12_34_cif.got.tgz:66973.got - 2010.06.03 13:09:07.
