data_PCOD9205030
_publ_section_title
;
Structure prediction by ZEFSAII (Michael W. Deem and Ramdas Pophale) SiO2 
 PCOD9205030
Probable space group: C 2/M
;
_chemical_formula_sum "Si O2"
_cell_formula_units_Z 64
_cell_length_a 17.316207
_cell_length_b 21.003359
_cell_length_c 9.109787
_cell_angle_alpha 90.000000
_cell_angle_beta 96.024406
_cell_angle_gamma 90.000000
_cell_volume 3294.918013
_symmetry_space_group_name_H-M "C 2/M"
_symmetry_group_IT_number 12
_symmetry_cell_setting 'monoclinic'
loop_
_space_group_symop_operation_xyz
x,y,z
-x,y,-z
-x,-y,-z
x,-y,z
1/2+x,1/2+y,z
1/2-x,1/2+y,-z
1/2-x,1/2-y,-z
1/2+x,1/2-y,z
loop_
_atom_site_type_symbol
_atom_site_label
_atom_site_fract_x
_atom_site_fract_y
_atom_site_fract_z
Si Si1 0.306037 0.266034 0.201994
Si Si2 0.947843 0.174543 0.751824
Si Si3 0.054940 0.070085 0.655958
Si Si4 0.529842 0.199675 0.838739
Si Si5 0.538737 0.071787 0.667526
Si Si6 0.177494 0.852973 0.525320
Si Si7 0.275276 0.073094 0.318452
Si Si8 0.690569 0.660364 0.080795
O O1 0.381078 0.223798 0.168673
O O2 0.308662 0.293363 0.366019
O O3 0.231479 0.221862 0.163451
O O4 0.301075 0.325503 0.088843
O O5 0.887732 0.164285 0.607474
O O6 0.898708 0.161187 0.888210
O O7 0.017394 0.124683 0.747460
O O8 0.980049 0.245326 0.751631
O O9 0.138628 0.092101 0.616885
O O10 0.000000 0.067526 0.500000
O O11 0.055283 0.000000 0.723179
O O12 0.516876 0.130531 0.766564
O O13 0.500000 0.199233 0.000000
O O14 0.500000 0.080007 0.500000
O O15 0.632167 0.074324 0.674168
O O16 0.517798 0.000000 0.715304
O O17 0.247844 0.882044 0.446661
O O18 0.234423 0.100988 0.163571
O O19 0.249982 0.000000 0.337303
#
# Coordination Sequence:
#
# PCOD9205030 Si02
#       8
#     8   8   8   8   8   8   8   8
#     4  11  22  38  57  88 124 154 201 254 309 351
#     4  10  21  34  57  90 118 156 202 248 299 355
#     4   9  17  31  52  81 116 152 190 233 285 344
#     4  12  23  39  64  89 122 167 197 253 305 367
#     4  10  24  44  66  93 122 153 204 260 309 366
#     4  10  21  35  60  90 121 154 200 258 295 361
#     4  10  21  41  63  86 119 166 205 246 308 367
#     4  10  22  39  58  84 121 159 197 249 304 370
#
# _framework density 19.423853000000001
#
# number of rings (size 3 to 8) (size 9 to 14) (size 15 to 20)
#    0.000    1.750    3.750    0.375    1.750    6.250 
#    0.000    1.250    0.000    1.125    0.000    0.000 
#    0.000    0.000    0.000    0.000    0.000    0.000 
#
# Total GULP energy -178612.546375 kJ/mol
# GULP energy per Si atom -5581.642074 kJ/mol
# Density = 1.937964 g / cm^3
# Si number density = 19.423853 Si / 1000 Ang^3
#
#
#
# Elastic Constant Matrix: (Units=GPa)
#
#
# Indices 1 2 3 4 5 6 
#
# 1 32.7211 22.1530 -0.3443 0.0000 -5.1130 0.0000
# 2 22.1530 131.0992 47.4206 0.0000 -9.9980 0.0000
# 3 -0.3443 47.4206 56.4487 0.0000 -9.1260 0.0000
# 4 0.0000 0.0000 0.0000 17.2309 0.0000 4.6198
# 5 -5.1130 -9.9980 -9.1260 0.0000 18.8837 0.0000
# 6 0.0000 0.0000 0.0000 4.6198 0.0000 21.4882
#
#
#
# Elastic Compliance Matrix: (Units=1/GPa)
#
#
# Indices 1 2 3 4 5 6 
#
# 1 0.038487 -0.009204 0.009615 0.000000 0.010194 0.000000
# 2 -0.009204 0.013196 -0.011298 0.000000 -0.000965 0.000000
# 3 0.009615 -0.011298 0.028983 0.000000 0.010628 0.000000
# 4 0.000000 0.000000 0.000000 0.061585 0.000000 -0.013240
# 5 0.010194 -0.000965 0.010628 0.000000 0.060341 0.000000
# 6 0.000000 0.000000 0.000000 -0.013240 0.000000 0.049384
#
#
# Mechanical properties :
#
#
# Convention : Reuss Voigt Hill
#
# Bulk Modulus (GPa) = 16.98027 39.85861 28.41944
# Shear Modulus (GPa) = 17.04275 21.58988 19.31631
#
# Velocity S-wave (km/s) = 2.96533 3.33755 3.15693
# Velocity P-wave (km/s) = 4.52606 5.95125 5.28690
#
# Compressibility (1/GPa) = 0.05889189
#
# Stress axis : x y z
#
# Youngs Moduli (GPa) = 25.98307 75.78066 34.50310
#
# Poissons Ratio (x) = 0.69746 -0.33173
# Poissons Ratio (y) = 0.23914 0.38980
# Poissons Ratio (z) = -0.24982 0.85614
#
# Static dielectric constant tensor:
#      x y z
#    x 1.683440 0.000000 -0.002350 
#    y 0.000000 1.683930 0.000000 
#    z -0.002350 0.000000 1.686930 
# 
# From -- ./inp_files/77490.got.cif
#   From: 2010.05.17/outbox.cif.g08.bks.cpg/sg12_39_cif.got.tgz:77490.got - 2010.06.03 13:09:07.
