data_PCOD9205538
_publ_section_title
;
Structure prediction by ZEFSAII (Michael W. Deem and Ramdas Pophale) SiO2 
 PCOD9205538
Probable space group: C 2/M
;
_chemical_formula_sum "Si O2"
_cell_formula_units_Z 40
_cell_length_a 19.924821
_cell_length_b 17.150221
_cell_length_c 9.444813
_cell_angle_alpha 90.000000
_cell_angle_beta 41.867461
_cell_angle_gamma 90.000000
_cell_volume 2154.021609
_symmetry_space_group_name_H-M "C 2/M"
_symmetry_group_IT_number 12
_symmetry_cell_setting 'monoclinic'
loop_
_space_group_symop_operation_xyz
x,y,z
-x,y,-z
-x,-y,-z
x,-y,z
1/2+x,1/2+y,z
1/2-x,1/2+y,-z
1/2-x,1/2-y,-z
1/2+x,1/2-y,z
loop_
_atom_site_type_symbol
_atom_site_label
_atom_site_fract_x
_atom_site_fract_y
_atom_site_fract_z
Si Si1 0.724610 0.685606 0.878045
Si Si2 0.584148 0.090301 0.988254
Si Si3 0.381109 0.410253 0.207898
Si Si4 0.726614 0.310938 0.411766
Si Si5 0.089248 0.692899 0.247560
O O1 0.676638 0.631185 0.832615
O O2 0.785501 0.756108 0.704624
O O3 0.811874 0.650876 0.839469
O O4 0.636004 0.727795 0.106038
O O5 0.680967 0.133136 0.771307
O O6 0.603966 0.000000 0.991828
O O7 0.500000 0.093377 0.000000
O O8 0.552228 0.139485 0.175822
O O9 0.348079 0.500000 0.269284
O O10 0.358716 0.364635 0.388404
O O11 0.500000 0.407477 0.000000
O O12 0.750000 0.250000 0.500000
O O13 0.000000 0.703828 0.500000
#
# Coordination Sequence:
#
# PCOD9205538 Si02
#       5
#     8   8   8   8   8
#     4   9  21  38  56  85 113 154 193 237 288 333
#     4  10  22  38  57  85 119 152 187 232 289 346
#     4  10  21  35  57  87 116 151 193 235 286 341
#     4   9  19  34  58  82 110 147 189 234 281 329
#     4  10  22  37  59  86 115 152 196 235 286 341
#
# _framework density 18.569915000000002
#
# number of rings (size 3 to 8) (size 9 to 14) (size 15 to 20)
#    0.000    2.400    0.000    0.600    8.400    6.800 
#    0.000    0.000    0.000    0.600    0.000    0.000 
#    0.000    0.000    0.000    0.000    0.000    0.000 
#
# Total GULP energy -111455.716223 kJ/mol
# GULP energy per Si atom -5572.785811 kJ/mol
# Density = 1.852765 g / cm^3
# Si number density = 18.569915 Si / 1000 Ang^3
#
#
#
# Elastic Constant Matrix: (Units=GPa)
#
#
# Indices 1 2 3 4 5 6 
#
# 1 63.9302 24.3842 4.5726 0.0000 9.0972 0.0000
# 2 24.3842 86.5012 45.5866 0.0000 3.8323 0.0000
# 3 4.5726 45.5866 125.9095 0.0000 16.5621 0.0000
# 4 0.0000 0.0000 0.0000 20.4094 0.0000 3.6712
# 5 9.0972 3.8323 16.5621 0.0000 21.5796 0.0000
# 6 0.0000 0.0000 0.0000 3.6712 0.0000 67.4842
#
#
#
# Elastic Compliance Matrix: (Units=1/GPa)
#
#
# Indices 1 2 3 4 5 6 
#
# 1 0.019228 -0.006526 0.002868 0.000000 -0.009148 0.000000
# 2 -0.006526 0.016551 -0.006374 0.000000 0.004704 0.000000
# 3 0.002868 -0.006374 0.011296 0.000000 -0.008747 0.000000
# 4 0.000000 0.000000 0.000000 0.049481 0.000000 -0.002692
# 5 -0.009148 0.004704 -0.008747 0.000000 0.056074 0.000000
# 6 0.000000 0.000000 0.000000 -0.002692 0.000000 0.014965
#
#
# Mechanical properties :
#
#
# Convention : Reuss Voigt Hill
#
# Bulk Modulus (GPa) = 37.02301 47.26974 42.14638
# Shear Modulus (GPa) = 25.42400 35.34782 30.38591
#
# Velocity S-wave (km/s) = 3.70414 4.36764 4.04951
# Velocity P-wave (km/s) = 6.18665 7.13760 6.67907
#
# Compressibility (1/GPa) = 0.02701023
#
# Stress axis : x y z
#
# Youngs Moduli (GPa) = 52.00761 60.41884 88.52309
#
# Poissons Ratio (x) = 0.39432 -0.25388
# Poissons Ratio (y) = 0.33942 0.56427
# Poissons Ratio (z) = -0.14916 0.38512
#
# Static dielectric constant tensor:
#      x y z
#    x 1.710960 0.000000 0.041350 
#    y 0.000000 1.645090 0.000000 
#    z 0.041350 0.000000 1.657470 
# 
# From -- ./inp_files/87625.got.cif
#   From: 2010.05.17/outbox.cif.g08.bks.cpg/sg12_44_cif.got.tgz:87625.got - 2010.06.03 13:09:07.
