data_PCOD9205296
_publ_section_title
;
Structure prediction by ZEFSAII (Michael W. Deem and Ramdas Pophale) SiO2 
 PCOD9205296
Probable space group: C 2/M
;
_chemical_formula_sum "Si O2"
_cell_formula_units_Z 64
_cell_length_a 19.691250
_cell_length_b 10.324178
_cell_length_c 22.938421
_cell_angle_alpha 90.000000
_cell_angle_beta 47.671471
_cell_angle_gamma 90.000000
_cell_volume 3447.550074
_symmetry_space_group_name_H-M "C 2/M"
_symmetry_group_IT_number 12
_symmetry_cell_setting 'monoclinic'
loop_
_space_group_symop_operation_xyz
x,y,z
-x,y,-z
-x,-y,-z
x,-y,z
1/2+x,1/2+y,z
1/2-x,1/2+y,-z
1/2-x,1/2-y,-z
1/2+x,1/2-y,z
loop_
_atom_site_type_symbol
_atom_site_label
_atom_site_fract_x
_atom_site_fract_y
_atom_site_fract_z
Si Si1 0.108109 0.356465 0.425111
Si Si2 0.165791 0.656126 0.879240
Si Si3 0.459153 0.642654 0.356814
Si Si4 0.118931 0.352561 0.687301
Si Si5 0.303878 0.282093 0.527834
Si Si6 0.821997 0.341652 0.991952
Si Si7 0.967561 0.656227 0.141115
Si Si8 0.656497 0.650049 0.300418
O O1 0.122367 0.500000 0.392549
O O2 0.161473 0.339370 0.455053
O O3 0.142524 0.246498 0.361842
O O4 0.000000 0.339688 0.500000
O O5 0.157307 0.500000 0.886621
O O6 0.078670 0.705101 0.892085
O O7 0.256036 0.685431 0.789224
O O8 0.177466 0.693713 0.939547
O O9 0.445530 0.500000 0.338055
O O10 0.428054 0.754799 0.331007
O O11 0.395379 0.648795 0.451631
O O12 0.564072 0.657208 0.315364
O O13 0.085462 0.500000 0.698426
O O14 0.227682 0.351337 0.611357
O O15 0.093771 0.310063 0.767264
O O16 0.250000 0.250000 0.500000
O O17 0.806138 0.500000 0.995060
O O18 0.926066 0.311028 0.911293
O O19 0.750000 0.250000 0.000000
O O20 0.965669 0.500000 0.138147
O O21 0.667502 0.500000 0.313152
#
# Coordination Sequence:
#
# PCOD9205296 Si02
#       8
#     8   8   8   8   8   8   8   8
#     4  11  23  39  59  84 114 150 192 241 290 338
#     4   9  18  35  60  85 113 150 194 233 274 335
#     4  10  21  35  53  81 117 155 193 237 288 338
#     4  10  21  35  57  83 112 149 193 241 288 337
#     4  10  21  37  55  79 111 150 192 234 279 336
#     4  10  21  37  61  89 117 148 184 230 284 339
#     4   9  18  35  58  87 114 145 190 237 280 332
#     4  10  21  37  58  85 115 151 195 238 284 339
#
# _framework density 18.563908000000001
#
# number of rings (size 3 to 8) (size 9 to 14) (size 15 to 20)
#    0.000    2.125    1.250    1.500    1.750    8.250 
#    0.000    0.625    0.000    3.000    0.000    0.000 
#    0.000    0.000    0.000    0.000    0.000    0.000 
#
# Total GULP energy -178355.960725 kJ/mol
# GULP energy per Si atom -5573.623773 kJ/mol
# Density = 1.852166 g / cm^3
# Si number density = 18.563908 Si / 1000 Ang^3
#
#
#
# Elastic Constant Matrix: (Units=GPa)
#
#
# Indices 1 2 3 4 5 6 
#
# 1 111.3498 37.2893 51.9616 0.0000 -1.3175 0.0000
# 2 37.2893 71.6694 29.4819 0.0000 9.0165 0.0000
# 3 51.9616 29.4819 96.8937 0.0000 5.0865 0.0000
# 4 0.0000 0.0000 0.0000 17.5452 0.0000 3.8510
# 5 -1.3175 9.0165 5.0865 0.0000 24.6028 0.0000
# 6 0.0000 0.0000 0.0000 3.8510 0.0000 21.1428
#
#
#
# Elastic Compliance Matrix: (Units=1/GPa)
#
#
# Indices 1 2 3 4 5 6 
#
# 1 0.013465 -0.005065 -0.005879 0.000000 0.003793 0.000000
# 2 -0.005065 0.018459 -0.002559 0.000000 -0.006507 0.000000
# 3 -0.005879 -0.002559 0.014375 0.000000 -0.002349 0.000000
# 4 0.000000 0.000000 0.000000 0.059369 0.000000 -0.010814
# 5 0.003793 -0.006507 -0.002349 0.000000 0.043719 0.000000
# 6 0.000000 0.000000 0.000000 -0.010814 0.000000 0.049267
#
#
# Mechanical properties :
#
#
# Convention : Reuss Voigt Hill
#
# Bulk Modulus (GPa) = 51.82846 57.48650 54.65748
# Shear Modulus (GPa) = 21.54316 23.40350 22.47333
#
# Velocity S-wave (km/s) = 3.41029 3.55448 3.48313
# Velocity P-wave (km/s) = 6.59441 6.91953 6.75893
#
# Compressibility (1/GPa) = 0.01929442
#
# Stress axis : x y z
#
# Youngs Moduli (GPa) = 74.26602 54.17308 69.56352
#
# Poissons Ratio (x) = 0.27436 0.40897
# Poissons Ratio (y) = 0.37612 0.17802
# Poissons Ratio (z) = 0.43662 0.13863
#
# Static dielectric constant tensor:
#      x y z
#    x 1.662240 0.000000 -0.003670 
#    y 0.000000 1.635130 0.000000 
#    z -0.003670 0.000000 1.658940 
# 
# From -- ./inp_files/315667.got.cif
#   From: 2010.05.17/outbox.cif.g08.bks.cpg/sg12_158_cif.got.tgz:315667.got - 2010.06.03 13:09:07.
