data_PCOD9205973
_publ_section_title
;
Structure prediction by ZEFSAII (Michael W. Deem and Ramdas Pophale) SiO2 
 PCOD9205973
Probable space group: C 2/M
;
_chemical_formula_sum "Si O2"
_cell_formula_units_Z 64
_cell_length_a 14.689083
_cell_length_b 9.148251
_cell_length_c 26.133747
_cell_angle_alpha 90.000000
_cell_angle_beta 100.053849
_cell_angle_gamma 90.000000
_cell_volume 3457.910346
_symmetry_space_group_name_H-M "C 2/M"
_symmetry_group_IT_number 12
_symmetry_cell_setting 'monoclinic'
loop_
_space_group_symop_operation_xyz
x,y,z
-x,y,-z
-x,-y,-z
x,-y,z
1/2+x,1/2+y,z
1/2-x,1/2+y,-z
1/2-x,1/2-y,-z
1/2+x,1/2-y,z
loop_
_atom_site_type_symbol
_atom_site_label
_atom_site_fract_x
_atom_site_fract_y
_atom_site_fract_z
Si Si1 0.841782 0.825229 0.487457
Si Si2 0.553078 0.668609 0.400146
Si Si3 0.918279 0.175728 0.146857
Si Si4 0.375094 0.173852 0.382143
Si Si5 0.203573 0.675029 0.130544
Si Si6 0.038998 0.175453 0.058838
Si Si7 0.685428 0.670564 0.319938
Si Si8 0.417680 0.826350 0.780806
O O1 0.750000 0.750000 0.500000
O O2 0.918581 0.799506 0.538781
O O3 0.863702 0.755124 0.435162
O O4 0.830259 0.000000 0.481793
O O5 0.520651 0.500000 0.394594
O O6 0.474474 0.775715 0.372546
O O7 0.641747 0.680248 0.372363
O O8 0.810896 0.221187 0.139119
O O9 0.964996 0.209925 0.096415
O O10 0.985596 0.251113 0.194548
O O11 0.921792 0.000000 0.154120
O O12 0.291800 0.216325 0.336321
O O13 0.369534 0.000000 0.389264
O O14 0.201207 0.500000 0.122521
O O15 0.136165 0.751091 0.083072
O O16 0.155441 0.706016 0.180561
O O17 0.051007 0.000000 0.059557
O O18 0.000000 0.221304 0.000000
O O19 0.681252 0.500000 0.304057
O O20 0.626176 0.763859 0.274994
O O21 0.429870 0.000000 0.779270
#
# Coordination Sequence:
#
# PCOD9205973 Si02
#       8
#     8   8   8   8   8   8   8   8
#     4  11  21  37  60  83 111 146 182 221 269 324
#     4  10  22  40  58  80 110 144 178 217 269 327
#     4   9  18  35  56  76 105 147 183 216 272 327
#     4  11  23  39  58  85 113 142 181 222 268 327
#     4   9  19  35  54  77 106 142 183 223 265 322
#     4   9  18  32  51  79 113 145 181 224 267 316
#     4  10  22  41  58  76 110 145 175 217 275 331
#     4  10  21  36  55  80 105 132 179 231 269 313
#
# _framework density 18.508286999999999
#
# number of rings (size 3 to 8) (size 9 to 14) (size 15 to 20)
#    0.000    2.125    1.250    1.500    0.000    6.750 
#    0.000    3.750    0.000    0.000    0.000    0.000 
#    0.000    0.000    0.000    0.000    0.000    0.000 
#
# Total GULP energy -178609.896648 kJ/mol
# GULP energy per Si atom -5581.559270 kJ/mol
# Density = 1.846616 g / cm^3
# Si number density = 18.508287 Si / 1000 Ang^3
#
#
#
# Elastic Constant Matrix: (Units=GPa)
#
#
# Indices 1 2 3 4 5 6 
#
# 1 110.0659 36.7816 26.7950 0.0000 33.9561 0.0000
# 2 36.7816 34.0461 37.1870 0.0000 17.1559 0.0000
# 3 26.7950 37.1870 96.4987 0.0000 28.3472 0.0000
# 4 0.0000 0.0000 0.0000 25.6983 0.0000 4.9014
# 5 33.9561 17.1559 28.3472 0.0000 23.1998 0.0000
# 6 0.0000 0.0000 0.0000 4.9014 0.0000 30.9735
#
#
#
# Elastic Compliance Matrix: (Units=1/GPa)
#
#
# Indices 1 2 3 4 5 6 
#
# 1 0.023374 -0.021217 0.011117 0.000000 -0.032105 0.000000
# 2 -0.021217 0.077723 -0.025425 0.000000 0.004644 0.000000
# 3 0.011117 -0.025425 0.025474 0.000000 -0.028596 0.000000
# 4 0.000000 0.000000 0.000000 0.040124 0.000000 -0.006350
# 5 -0.032105 0.004644 -0.028596 0.000000 0.121599 0.000000
# 6 0.000000 0.000000 0.000000 -0.006350 0.000000 0.033291
#
#
# Mechanical properties :
#
#
# Convention : Reuss Voigt Hill
#
# Bulk Modulus (GPa) = 18.01084 49.12644 33.56864
# Shear Modulus (GPa) = 12.16129 25.29745 18.72937
#
# Velocity S-wave (km/s) = 2.56612 3.70106 3.18456
# Velocity P-wave (km/s) = 4.30492 6.69809 5.63013
#
# Compressibility (1/GPa) = 0.05552212
#
# Stress axis : x y z
#
# Youngs Moduli (GPa) = 42.78301 12.86618 39.25593
#
# Poissons Ratio (x) = 0.27298 -0.43640
# Poissons Ratio (y) = 0.90771 0.99806
# Poissons Ratio (z) = -0.47561 0.32712
#
# Static dielectric constant tensor:
#      x y z
#    x 1.658970 0.000000 -0.012500 
#    y 0.000000 1.615760 0.000000 
#    z -0.012500 0.000000 1.620470 
# 
# From -- ./inp_files/359977.got.cif
#   From: 2010.05.17/outbox.cif.g08.bks.cpg/sg12_180_cif.got.tgz:359977.got - 2010.06.03 13:09:07.
