data_PCOD9205369
_publ_section_title
;
Structure prediction by ZEFSAII (Michael W. Deem and Ramdas Pophale) SiO2 
 PCOD9205369
Probable space group: C 2/M
;
_chemical_formula_sum "Si O2"
_cell_formula_units_Z 64
_cell_length_a 26.200142
_cell_length_b 14.182664
_cell_length_c 20.011471
_cell_angle_alpha 90.000000
_cell_angle_beta 154.114618
_cell_angle_gamma 90.000000
_cell_volume 3246.359548
_symmetry_space_group_name_H-M "C 2/M"
_symmetry_group_IT_number 12
_symmetry_cell_setting 'monoclinic'
loop_
_space_group_symop_operation_xyz
x,y,z
-x,y,-z
-x,-y,-z
x,-y,z
1/2+x,1/2+y,z
1/2-x,1/2+y,-z
1/2-x,1/2-y,-z
1/2+x,1/2-y,z
loop_
_atom_site_type_symbol
_atom_site_label
_atom_site_fract_x
_atom_site_fract_y
_atom_site_fract_z
Si Si1 0.658568 0.391410 0.428569
Si Si2 0.986596 0.197904 0.619935
Si Si3 0.779883 0.895376 0.159354
Si Si4 0.633451 0.194904 0.884563
Si Si5 0.507579 0.718122 0.159741
Si Si6 0.115930 0.894843 0.091350
Si Si7 0.746004 0.292522 0.734221
Si Si8 0.886729 0.391907 0.784413
O O1 0.630475 0.500000 0.379953
O O2 0.578939 0.355533 0.396463
O O3 0.628390 0.326252 0.329695
O O4 0.790382 0.388475 0.611431
O O5 0.094297 0.136146 0.720331
O O6 0.044867 0.294709 0.717724
O O7 0.887818 0.209234 0.447863
O O8 0.747388 0.825303 0.181367
O O9 0.785570 0.000000 0.194303
O O10 0.687679 0.892157 0.989263
O O11 0.562925 0.246872 0.859689
O O12 0.750000 0.250000 0.000000
O O13 0.527059 0.806122 0.132648
O O14 0.433158 0.635970 0.038176
O O15 0.201777 0.811678 0.214100
O O16 0.165802 0.000000 0.151337
O O17 0.000000 0.893196 0.000000
O O18 0.819537 0.363207 0.773150
O O19 0.932012 0.500000 0.841291
#
# Coordination Sequence:
#
# PCOD9205369 Si02
#       8
#     8   8   8   8   8   8   8   8
#     4   9  18  33  55  84 113 149 194 241 289 343
#     4   9  20  36  60  83 122 158 197 243 292 346
#     4  11  21  35  61  93 123 159 200 242 295 357
#     4   9  20  38  57  82 116 155 191 238 287 342
#     4  11  19  36  58  81 111 149 194 240 289 342
#     4  11  23  40  60  83 110 145 197 247 291 348
#     4  11  21  39  59  88 120 158 193 246 299 349
#     4  10  21  35  54  84 122 154 186 230 295 364
#
# _framework density 19.714390000000002
#
# number of rings (size 3 to 8) (size 9 to 14) (size 15 to 20)
#    0.000    1.875    2.500    1.875    0.000    2.500 
#    0.000    1.875    0.000    1.500    0.000    0.000 
#    0.000    0.000    0.000    0.000    0.000    0.000 
#
# Total GULP energy -178373.271368 kJ/mol
# GULP energy per Si atom -5574.164730 kJ/mol
# Density = 1.966952 g / cm^3
# Si number density = 19.714390 Si / 1000 Ang^3
#
#
#
# Elastic Constant Matrix: (Units=GPa)
#
#
# Indices 1 2 3 4 5 6 
#
# 1 25.7653 5.6520 -1.7528 0.0000 4.8203 0.0000
# 2 5.6520 121.6909 28.5507 0.0000 -0.8304 0.0000
# 3 -1.7528 28.5507 65.2203 0.0000 -4.2407 0.0000
# 4 0.0000 0.0000 0.0000 22.8517 0.0000 0.0687
# 5 4.8203 -0.8304 -4.2407 0.0000 20.5409 0.0000
# 6 0.0000 0.0000 0.0000 0.0687 0.0000 34.0382
#
#
#
# Elastic Compliance Matrix: (Units=1/GPa)
#
#
# Indices 1 2 3 4 5 6 
#
# 1 0.041194 -0.002333 0.001514 0.000000 -0.009449 0.000000
# 2 -0.002333 0.009295 -0.004127 0.000000 0.000071 0.000000
# 3 0.001514 -0.004127 0.017379 0.000000 0.003066 0.000000
# 4 0.000000 0.000000 0.000000 0.043761 0.000000 -0.000088
# 5 -0.009449 0.000071 0.003066 0.000000 0.051536 0.000000
# 6 0.000000 0.000000 0.000000 -0.000088 0.000000 0.029379
#
#
# Mechanical properties :
#
#
# Convention : Reuss Voigt Hill
#
# Bulk Modulus (GPa) = 17.24835 30.84181 24.04508
# Shear Modulus (GPa) = 22.54676 27.50128 25.02402
#
# Velocity S-wave (km/s) = 3.38549 3.73900 3.56663
# Velocity P-wave (km/s) = 4.90410 5.85820 5.40225
#
# Compressibility (1/GPa) = 0.05797655
#
# Stress axis : x y z
#
# Youngs Moduli (GPa) = 24.27519 107.58918 57.53993
#
# Poissons Ratio (x) = 0.25101 -0.08712
# Poissons Ratio (y) = 0.05663 0.23746
# Poissons Ratio (z) = -0.03675 0.44400
#
# Static dielectric constant tensor:
#      x y z
#    x 1.680790 0.000000 -0.024430 
#    y 0.000000 1.682280 0.000000 
#    z -0.024430 0.000000 1.738070 
# 
# From -- ./inp_files/290143.got.cif
#   From: 2010.05.17/outbox.cif.g08.bks.cpg/sg12_146_cif.got.tgz:290143.got - 2010.06.03 13:09:07.
