data_PCOD9205485
_publ_section_title
;
Structure prediction by ZEFSAII (Michael W. Deem and Ramdas Pophale) SiO2 
 PCOD9205485
Probable space group: C 2/M
;
_chemical_formula_sum "Si O2"
_cell_formula_units_Z 56
_cell_length_a 23.134518
_cell_length_b 22.345615
_cell_length_c 5.249213
_cell_angle_alpha 90.000000
_cell_angle_beta 74.981070
_cell_angle_gamma 90.000000
_cell_volume 2620.910970
_symmetry_space_group_name_H-M "C 2/M"
_symmetry_group_IT_number 12
_symmetry_cell_setting 'monoclinic'
loop_
_space_group_symop_operation_xyz
x,y,z
-x,y,-z
-x,-y,-z
x,-y,z
1/2+x,1/2+y,z
1/2-x,1/2+y,-z
1/2-x,1/2-y,-z
1/2+x,1/2-y,z
loop_
_atom_site_type_symbol
_atom_site_label
_atom_site_fract_x
_atom_site_fract_y
_atom_site_fract_z
Si Si1 0.150383 0.160924 0.402982
Si Si2 0.762210 0.931383 0.616963
Si Si3 0.539576 0.261836 0.705849
Si Si4 0.809654 0.664223 0.978231
Si Si5 0.698382 0.286430 0.828470
Si Si6 0.849291 0.567161 0.617802
Si Si7 0.040376 0.621936 0.708935
O O1 0.169532 0.092972 0.451312
O O2 0.090310 0.188996 0.587623
O O3 0.160559 0.178042 0.094210
O O4 0.196940 0.193331 0.539669
O O5 0.718375 0.927866 0.419684
O O6 0.760602 0.000000 0.699676
O O7 0.729451 0.886712 0.845447
O O8 0.500000 0.263174 0.500000
O O9 0.559051 0.192205 0.703273
O O10 0.500000 0.275828 0.000000
O O11 0.827021 0.719302 0.133604
O O12 0.859176 0.624368 0.788268
O O13 0.766229 0.700019 0.835494
O O14 0.855333 0.500000 0.716110
O O15 0.901239 0.579471 0.354919
O O16 0.000000 0.612782 0.500000
O O17 0.000000 0.609650 0.000000
#
# Coordination Sequence:
#
# PCOD9205485 Si02
#       7
#     8   8   8   8   8   8   8
#     4  11  21  40  61  92 124 159 194 246 305 366
#     4  10  23  39  59  88 126 164 199 241 297 360
#     4  10  21  38  62  88 117 152 196 250 306 358
#     4  10  21  35  56  86 123 155 198 243 304 354
#     4  10  22  33  60  89 123 154 194 244 304 363
#     4  11  23  39  60  84 119 164 209 249 289 352
#     4  10  24  42  60  84 115 155 202 255 303 347
#
# _framework density 21.366614999999999
#
# number of rings (size 3 to 8) (size 9 to 14) (size 15 to 20)
#    0.000    1.714    1.429    2.143    6.000    3.429 
#    0.000    0.000    0.000    0.857    0.000    0.000 
#    0.000    0.000    0.000    0.000    0.000    0.000 
#
# Total GULP energy -156055.011071 kJ/mol
# GULP energy per Si atom -5573.393253 kJ/mol
# Density = 2.131798 g / cm^3
# Si number density = 21.366615 Si / 1000 Ang^3
#
#
#
# Elastic Constant Matrix: (Units=GPa)
#
#
# Indices 1 2 3 4 5 6 
#
# 1 34.8651 16.5940 10.8642 0.0000 -3.6076 0.0000
# 2 16.5940 130.3817 32.8687 0.0000 -4.0326 0.0000
# 3 10.8642 32.8687 102.9435 0.0000 -2.0143 0.0000
# 4 0.0000 0.0000 0.0000 12.3492 0.0000 0.3162
# 5 -3.6076 -4.0326 -2.0143 0.0000 28.9059 0.0000
# 6 0.0000 0.0000 0.0000 0.3162 0.0000 17.9074
#
#
#
# Elastic Compliance Matrix: (Units=1/GPa)
#
#
# Indices 1 2 3 4 5 6 
#
# 1 0.031285 -0.003332 -0.002173 0.000000 0.003288 0.000000
# 2 -0.003332 0.008724 -0.002421 0.000000 0.000632 0.000000
# 3 -0.002173 -0.002421 0.010719 0.000000 0.000138 0.000000
# 4 0.000000 0.000000 0.000000 0.081014 0.000000 -0.001430
# 5 0.003288 0.000632 0.000138 0.000000 0.035103 0.000000
# 6 0.000000 0.000000 0.000000 -0.001430 0.000000 0.055868
#
#
# Mechanical properties :
#
#
# Convention : Reuss Voigt Hill
#
# Bulk Modulus (GPa) = 28.67422 43.20490 35.93956
# Shear Modulus (GPa) = 19.98462 25.69007 22.83734
#
# Velocity S-wave (km/s) = 3.06162 3.47125 3.27285
# Velocity P-wave (km/s) = 5.09384 6.02750 5.58023
#
# Compressibility (1/GPa) = 0.03487453
#
# Stress axis : x y z
#
# Youngs Moduli (GPa) = 31.96380 114.62809 93.28994
#
# Poissons Ratio (x) = 0.38196 0.20276
# Poissons Ratio (y) = 0.10651 0.22589
# Poissons Ratio (z) = 0.06947 0.27756
#
# Static dielectric constant tensor:
#      x y z
#    x 1.896870 0.000000 -0.016290 
#    y 0.000000 1.821210 0.000000 
#    z -0.016290 0.000000 1.858250 
# 
# From -- ./inp_files/25419.got.cif
#   From: 2010.05.17/outbox.cif.g08.bks.cpg/sg12_13_cif.got.tgz:25419.got - 2010.06.03 13:09:07.
