data_PCOD9205652
_publ_section_title
;
Structure prediction by ZEFSAII (Michael W. Deem and Ramdas Pophale) SiO2 
 PCOD9205652
Probable space group: C 2/M
;
_chemical_formula_sum "Si O2"
_cell_formula_units_Z 44
_cell_length_a 13.721965
_cell_length_b 18.302561
_cell_length_c 14.163273
_cell_angle_alpha 90.000000
_cell_angle_beta 148.503181
_cell_angle_gamma 90.000000
_cell_volume 1858.392951
_symmetry_space_group_name_H-M "C 2/M"
_symmetry_group_IT_number 12
_symmetry_cell_setting 'monoclinic'
loop_
_space_group_symop_operation_xyz
x,y,z
-x,y,-z
-x,-y,-z
x,-y,z
1/2+x,1/2+y,z
1/2-x,1/2+y,-z
1/2-x,1/2-y,-z
1/2+x,1/2-y,z
loop_
_atom_site_type_symbol
_atom_site_label
_atom_site_fract_x
_atom_site_fract_y
_atom_site_fract_z
Si Si1 0.914972 0.500000 0.532959
Si Si2 0.063940 0.894534 0.261265
Si Si3 0.500000 0.867591 0.000000
Si Si4 0.492581 0.764649 0.597554
Si Si5 0.425018 0.220796 0.746614
Si Si6 0.340655 0.500000 0.952121
Si Si7 0.391042 0.609152 0.316319
O O1 0.769507 0.431201 0.420346
O O2 0.000000 0.500000 0.500000
O O3 0.885151 0.500000 0.246214
O O4 0.050782 0.808497 0.229361
O O5 0.002252 0.911594 0.316080
O O6 0.909686 0.930656 0.067773
O O7 0.491564 0.821311 0.894134
O O8 0.317608 0.916721 0.853482
O O9 0.500000 0.802587 0.500000
O O10 0.505899 0.803431 0.710439
O O11 0.299393 0.718561 0.444041
O O12 0.637261 0.698220 0.711325
O O13 0.500000 0.500000 0.000000
O O14 0.500000 0.590161 0.500000
#
# Coordination Sequence:
#
# PCOD9205652 Si02
#       7
#     4   8   4   8   8   4   8
#     4  11  23  46  73  87 122 171 204 278 345 376
#     4  10  24  42  67  96 125 169 219 266 329 380
#     4  12  22  36  62  96 142 184 208 260 322 368
#     4   9  17  38  54  80 134 174 207 262 292 372
#     4  10  21  35  60  95 129 176 218 252 318 386
#     4  11  23  48  63  96 130 150 214 283 316 396
#     4  10  21  42  62  92 137 174 211 263 306 388
#
# _framework density 23.676368
#
# number of rings (size 3 to 8) (size 9 to 14) (size 15 to 20)
#    0.000    1.818    5.455    0.000    1.273    5.091 
#    3.273    1.818    0.000    3.273    0.000    0.000 
#    0.000    0.000    0.000    0.000    0.000    0.000 
#
# Total GULP energy -122678.571131 kJ/mol
# GULP energy per Si atom -5576.298688 kJ/mol
# Density = 2.362248 g / cm^3
# Si number density = 23.676368 Si / 1000 Ang^3
#
#
#
# Elastic Constant Matrix: (Units=GPa)
#
#
# Indices 1 2 3 4 5 6 
#
# 1 217.5693 33.3907 74.3779 0.0000 -21.8290 0.0000
# 2 33.3907 86.6924 33.2017 0.0000 -6.7971 0.0000
# 3 74.3779 33.2017 183.6702 0.0000 7.2468 0.0000
# 4 0.0000 0.0000 0.0000 -329.1994 0.0000 -10.9728
# 5 -21.8290 -6.7971 7.2468 0.0000 54.8128 0.0000
# 6 0.0000 0.0000 0.0000 -10.9728 0.0000 14.5826
#
#
#
# Elastic Compliance Matrix: (Units=1/GPa)
#
#
# Indices 1 2 3 4 5 6 
#
# 1 0.005785 -0.001184 -0.002225 0.000000 0.002451 0.000000
# 2 -0.001184 0.012823 -0.001893 0.000000 0.001369 0.000000
# 3 -0.002225 -0.001893 0.006767 0.000000 -0.002016 0.000000
# 4 0.000000 0.000000 0.000000 -0.002963 0.000000 -0.002230
# 5 0.002451 0.001369 -0.002016 0.000000 0.019656 0.000000
# 6 0.000000 0.000000 0.000000 -0.002230 0.000000 0.066897
#
#
# Mechanical properties :
#
#
# Convention : Reuss Voigt Hill
#
# Bulk Modulus (GPa) = 67.69606 85.54138 76.61872
# Shear Modulus (GPa) = 40.16322 -28.83002 5.66660
#
# Velocity S-wave (km/s) = 4.12314 -3.49330 1.54873
# Velocity P-wave (km/s) = 7.16389 4.46509 5.96902
#
# Compressibility (1/GPa) = 0.01477191
#
# Stress axis : x y z
#
# Youngs Moduli (GPa) = 172.87548 77.98411 147.76898
#
# Poissons Ratio (x) = 0.09230 0.32882
# Poissons Ratio (y) = 0.20461 0.27969
# Poissons Ratio (z) = 0.38468 0.14760
#
# Static dielectric constant tensor:
#      x y z
#    x 1.990620 0.000000 -0.008910 
#    y 0.000000 2.009180 0.000000 
#    z -0.008910 0.000000 2.031260 
# 
# From -- ./inp_files/218339.got.cif
#   From: 2010.05.17/outbox.cif.g08.bks.cpg/sg12_110_cif.got.tgz:218339.got - 2010.06.03 13:09:07.
