data_PCOD9205849
_publ_section_title
;
Structure prediction by ZEFSAII (Michael W. Deem and Ramdas Pophale) SiO2 
 PCOD9205849
Probable space group: C 2/M
;
_chemical_formula_sum "Si O2"
_cell_formula_units_Z 56
_cell_length_a 10.114215
_cell_length_b 7.503511
_cell_length_c 31.481128
_cell_angle_alpha 90.000000
_cell_angle_beta 101.873925
_cell_angle_gamma 90.000000
_cell_volume 2338.047937
_symmetry_space_group_name_H-M "C 2/M"
_symmetry_group_IT_number 12
_symmetry_cell_setting 'monoclinic'
loop_
_space_group_symop_operation_xyz
x,y,z
-x,y,-z
-x,-y,-z
x,-y,z
1/2+x,1/2+y,z
1/2-x,1/2+y,-z
1/2-x,1/2-y,-z
1/2+x,1/2-y,z
loop_
_atom_site_type_symbol
_atom_site_label
_atom_site_fract_x
_atom_site_fract_y
_atom_site_fract_z
Si Si1 0.987250 0.788973 0.876466
Si Si2 0.746022 0.783534 0.729914
Si Si3 0.464878 0.207851 0.678965
Si Si4 0.396364 0.286364 0.027995
Si Si5 0.744311 0.207607 0.402608
Si Si6 0.708436 0.214893 0.824186
Si Si7 0.525590 0.283841 0.453321
O O1 0.067284 0.716965 0.922650
O O2 0.072469 0.764468 0.839316
O O3 0.836641 0.717444 0.859707
O O4 0.972338 0.000000 0.881953
O O5 0.615907 0.719829 0.694137
O O6 0.884980 0.720895 0.718189
O O7 0.723769 0.724089 0.776764
O O8 0.746943 0.000000 0.729498
O O9 0.360482 0.289465 0.638109
O O10 0.481205 0.000000 0.668972
O O11 0.410048 0.500000 0.030657
O O12 0.500000 0.215858 0.000000
O O13 0.250000 0.250000 0.000000
O O14 0.664443 0.219344 0.441882
O O15 0.895353 0.280176 0.417563
O O16 0.761066 0.000000 0.392500
O O17 0.713307 0.000000 0.823283
O O18 0.500000 0.228200 0.500000
O O19 0.527667 0.500000 0.452752
#
# Coordination Sequence:
#
# PCOD9205849 Si02
#       7
#     8   8   8   8   8   8   8
#     4  10  21  36  55  80 107 138 177 216 259 312
#     4  10  21  36  55  80 107 138 177 216 259 313
#     4  10  21  36  54  79 109 139 175 218 262 312
#     4  10  21  37  56  79 108 140 175 217 262 309
#     4  10  21  36  54  78 107 139 176 217 263 315
#     4  10  21  37  56  79 108 140 175 217 262 309
#     4  10  21  36  54  78 106 137 177 221 264 314
#
# _framework density 23.951606000000002
#
# number of rings (size 3 to 8) (size 9 to 14) (size 15 to 20)
#    0.000    2.000    0.000    3.000    0.000    5.143 
#    0.000    0.000    0.000    0.000    0.000    0.000 
#    0.000    0.000    0.000    0.000    0.000    0.000 
#
# Total GULP energy -156608.748896 kJ/mol
# GULP energy per Si atom -5593.169603 kJ/mol
# Density = 2.389709 g / cm^3
# Si number density = 23.951606 Si / 1000 Ang^3
#
#
#
# Elastic Constant Matrix: (Units=GPa)
#
#
# Indices 1 2 3 4 5 6 
#
# 1 91.8008 -9.2641 -22.6598 0.0000 5.8967 0.0000
# 2 -9.2641 70.3281 5.0196 0.0000 9.1257 0.0000
# 3 -22.6598 5.0196 64.7939 0.0000 2.8570 0.0000
# 4 0.0000 0.0000 0.0000 4.4860 0.0000 3.4744
# 5 5.8967 9.1257 2.8570 0.0000 43.7198 0.0000
# 6 0.0000 0.0000 0.0000 3.4744 0.0000 -32.4088
#
#
#
# Elastic Compliance Matrix: (Units=1/GPa)
#
#
# Indices 1 2 3 4 5 6 
#
# 1 0.012252 0.001604 0.004261 0.000000 -0.002266 0.000000
# 2 0.001604 0.014890 -0.000447 0.000000 -0.003295 0.000000
# 3 0.004261 -0.000447 0.017028 0.000000 -0.001594 0.000000
# 4 0.000000 0.000000 0.000000 0.205826 0.000000 0.022066
# 5 -0.002266 -0.003295 -0.001594 0.000000 0.023970 0.000000
# 6 0.000000 0.000000 0.000000 0.022066 0.000000 -0.028490
#
#
# Mechanical properties :
#
#
# Convention : Reuss Voigt Hill
#
# Bulk Modulus (GPa) = 18.18031 19.23491 18.70761
# Shear Modulus (GPa) = 19.76463 20.08120 19.92292
#
# Velocity S-wave (km/s) = 2.87573 2.89867 2.88722
# Velocity P-wave (km/s) = 4.31663 4.38762 4.35227
#
# Compressibility (1/GPa) = 0.05500455
#
# Stress axis : x y z
#
# Youngs Moduli (GPa) = 81.61809 67.15995 58.72509
#
# Poissons Ratio (x) = -0.10771 -0.25020
# Poissons Ratio (y) = -0.13090 0.02627
# Poissons Ratio (z) = -0.34773 0.03004
#
# Static dielectric constant tensor:
#      x y z
#    x 1.829980 0.000000 0.022070 
#    y 0.000000 1.946610 0.000000 
#    z 0.022070 0.000000 1.946010 
# 
# From -- ./inp_files/357527.got.cif
#   From: 2010.05.17/outbox.cif.g08.bks.cpg/sg12_179_cif.got.tgz:357527.got - 2010.06.03 13:09:07.
