data_PCOD9205061
_publ_section_title
;
Structure prediction by ZEFSAII (Michael W. Deem and Ramdas Pophale) SiO2 
 PCOD9205061
Probable space group: C 2/M
;
_chemical_formula_sum "Si O2"
_cell_formula_units_Z 64
_cell_length_a 12.129331
_cell_length_b 14.349356
_cell_length_c 28.999473
_cell_angle_alpha 90.000000
_cell_angle_beta 35.663884
_cell_angle_gamma 90.000000
_cell_volume 2942.724961
_symmetry_space_group_name_H-M "C 2/M"
_symmetry_group_IT_number 12
_symmetry_cell_setting 'monoclinic'
loop_
_space_group_symop_operation_xyz
x,y,z
-x,y,-z
-x,-y,-z
x,-y,z
1/2+x,1/2+y,z
1/2-x,1/2+y,-z
1/2-x,1/2-y,-z
1/2+x,1/2-y,z
loop_
_atom_site_type_symbol
_atom_site_label
_atom_site_fract_x
_atom_site_fract_y
_atom_site_fract_z
Si Si1 0.843639 0.812430 0.666000
Si Si2 0.612624 0.839686 0.833006
Si Si3 0.719960 0.692750 0.412831
Si Si4 0.180504 0.898049 0.963321
Si Si5 0.986533 0.606627 0.616586
Si Si6 0.730004 0.392497 0.563049
Si Si7 0.605674 0.682404 0.077573
Si Si8 0.798759 0.398243 0.094540
O O1 0.750264 0.852079 0.743842
O O2 0.741568 0.833468 0.652955
O O3 0.857231 0.699210 0.664033
O O4 0.049602 0.860467 0.594045
O O5 0.400088 0.866418 0.888802
O O6 0.595547 0.730909 0.852344
O O7 0.668531 0.885449 0.862375
O O8 0.500000 0.678772 0.500000
O O9 0.850062 0.631984 0.402112
O O10 0.757873 0.804156 0.406789
O O11 0.188315 0.000000 0.939072
O O12 0.120885 0.902139 0.037462
O O13 0.000000 0.846978 0.000000
O O14 0.914542 0.500000 0.647761
O O15 0.087738 0.609159 0.532092
O O16 0.708967 0.500000 0.587270
O O17 0.672376 0.669348 0.106955
O O18 0.750000 0.750000 0.000000
O O19 0.714108 0.500000 0.116445
O O20 0.000000 0.395206 0.000000
#
# Coordination Sequence:
#
# PCOD9205061 Si02
#       8
#     8   8   8   8   8   8   8   8
#     4  11  23  42  60  93 133 166 209 273 327 382
#     4  11  25  38  64  92 126 164 207 262 332 382
#     4  11  19  37  64  92 126 172 222 258 311 385
#     4  10  21  39  62  88 122 158 204 255 309 386
#     4  10  21  39  63  92 127 172 220 268 316 379
#     4  10  21  37  63  95 127 167 222 271 313 372
#     4  10  21  34  60  90 117 154 206 249 307 375
#     4  11  21  39  67  93 120 158 212 264 308 381
#
# _framework density 21.748550000000002
#
# number of rings (size 3 to 8) (size 9 to 14) (size 15 to 20)
#    0.000    1.500    5.000    1.500    3.500    4.500 
#    0.000    1.250    0.000    0.000    0.000    0.000 
#    0.000    0.000    0.000    0.000    0.000    0.000 
#
# Total GULP energy -178202.924605 kJ/mol
# GULP energy per Si atom -5568.841394 kJ/mol
# Density = 2.169905 g / cm^3
# Si number density = 21.748550 Si / 1000 Ang^3
#
#
#
# Elastic Constant Matrix: (Units=GPa)
#
#
# Indices 1 2 3 4 5 6 
#
# 1 86.7796 5.1896 13.9277 0.0005 22.0085 0.0005
# 2 5.1896 69.0892 1.7113 0.0002 4.1584 0.0003
# 3 13.9277 1.7113 54.0573 0.0028 28.2954 0.0009
# 4 0.0005 0.0002 0.0028 -1.0641 -0.0010 -9.2895
# 5 22.0085 4.1584 28.2954 -0.0010 29.7346 -0.0008
# 6 0.0005 0.0003 0.0009 -9.2895 -0.0008 35.1827
#
#
#
# Elastic Compliance Matrix: (Units=1/GPa)
#
#
# Indices 1 2 3 4 5 6 
#
# 1 0.014568 -0.000326 0.003740 0.000011 -0.014296 0.000002
# 2 -0.000326 0.014644 0.001128 0.000003 -0.002880 0.000001
# 3 0.003740 0.001128 0.037918 0.000048 -0.039009 0.000011
# 4 0.000011 0.000003 0.000048 -0.284345 -0.000066 -0.075078
# 5 -0.014296 -0.002880 -0.039009 -0.000066 0.081736 -0.000014
# 6 0.000002 0.000001 0.000011 -0.075078 -0.000014 0.008600
#
#
# Mechanical properties :
#
#
# Convention : Reuss Voigt Hill
#
# Bulk Modulus (GPa) = 13.12105 27.95368 20.53736
# Shear Modulus (GPa) = -45.22562 25.37714 -9.92424
#
# Velocity S-wave (km/s) = -4.56508 3.41961 -2.13848
# Velocity P-wave (km/s) = 4.66266 5.33598 1.83471
#
# Compressibility (1/GPa) = 0.07621344
#
# Stress axis : x y z
#
# Youngs Moduli (GPa) = 68.64128 68.28756 26.37259
#
# Poissons Ratio (x) = 0.02229 -0.09864
# Poissons Ratio (y) = 0.02241 -0.02974
# Poissons Ratio (z) = -0.25672 -0.07701
#
# Static dielectric constant tensor:
#      x y z
#    x 1.856140 0.000000 -0.011880 
#    y 0.000000 1.941270 0.000000 
#    z -0.011880 0.000000 1.824650 
# 
# From -- ./inp_files/358424.got.cif
#   From: 2010.05.17/outbox.cif.g08.bks.cpg/sg12_180_cif.got.tgz:358424.got - 2010.06.03 13:09:07.
