data_PCOD9205968
_publ_section_title
;
Structure prediction by ZEFSAII (Michael W. Deem and Ramdas Pophale) SiO2 
 PCOD9205968
Probable space group: C 2/M
;
_chemical_formula_sum "Si O2"
_cell_formula_units_Z 56
_cell_length_a 18.545547
_cell_length_b 8.475004
_cell_length_c 29.926781
_cell_angle_alpha 90.000000
_cell_angle_beta 38.939221
_cell_angle_gamma 90.000000
_cell_volume 2956.254627
_symmetry_space_group_name_H-M "C 2/M"
_symmetry_group_IT_number 12
_symmetry_cell_setting 'monoclinic'
loop_
_space_group_symop_operation_xyz
x,y,z
-x,y,-z
-x,-y,-z
x,-y,z
1/2+x,1/2+y,z
1/2-x,1/2+y,-z
1/2-x,1/2-y,-z
1/2+x,1/2-y,z
loop_
_atom_site_type_symbol
_atom_site_label
_atom_site_fract_x
_atom_site_fract_y
_atom_site_fract_z
Si Si1 0.543645 0.310856 0.430246
Si Si2 0.301030 0.309070 0.293629
Si Si3 0.220577 0.691705 0.156504
Si Si4 0.089119 0.816682 0.998896
Si Si5 0.121248 0.312340 0.568133
Si Si6 0.965719 0.810791 0.294894
Si Si7 0.607623 0.307106 0.846392
O O1 0.500000 0.257000 0.500000
O O2 0.543127 0.500000 0.429934
O O3 0.671975 0.251520 0.359737
O O4 0.541062 0.250153 0.567145
O O5 0.298205 0.500000 0.294393
O O6 0.376650 0.258686 0.299531
O O7 0.358739 0.256272 0.219302
O O8 0.218139 0.500000 0.156413
O O9 0.093251 0.756188 0.220883
O O10 0.293573 0.736230 0.165561
O O11 0.293788 0.749978 0.078208
O O12 0.014809 0.748330 0.075421
O O13 0.112588 0.000000 0.998503
O O14 0.000000 0.816730 0.000000
O O15 0.122586 0.500000 0.566110
O O16 0.250000 0.250000 0.500000
O O17 0.071132 0.256924 0.639650
O O18 0.962847 0.000000 0.298687
O O19 0.602694 0.500000 0.849217
#
# Coordination Sequence:
#
# PCOD9205968 Si02
#       7
#     8   8   8   8   8   8   8
#     4  11  24  41  62  88 116 145 178 220 271 326
#     4  10  21  36  55  79 109 149 191 230 274 325
#     4   9  16  29  53  80 103 136 184 234 283 335
#     4   7  11  22  45  76 103 129 173 231 280 329
#     4  12  25  42  64  87 113 145 183 225 270 323
#     4  11  23  37  53  78 114 151 188 231 277 324
#     4   8  14  28  51  77 102 133 180 233 281 331
#
# _framework density 18.942888
#
# number of rings (size 3 to 8) (size 9 to 14) (size 15 to 20)
#    0.000    2.286    0.000    5.571    0.000    5.714 
#    0.000    0.714    0.000    4.714    0.000    0.000 
#    0.000    0.000    0.000    0.000    0.000    0.000 
#
# Total GULP energy -156263.877933 kJ/mol
# GULP energy per Si atom -5580.852783 kJ/mol
# Density = 1.889977 g / cm^3
# Si number density = 18.942888 Si / 1000 Ang^3
#
#
#
# Elastic Constant Matrix: (Units=GPa)
#
#
# Indices 1 2 3 4 5 6 
#
# 1 142.0652 20.3730 103.2625 0.0000 4.9432 0.0002
# 2 20.3730 12.4515 21.0543 -0.0001 7.8054 -0.0003
# 3 103.2625 21.0543 210.5702 0.0000 5.1707 0.0001
# 4 0.0000 -0.0001 0.0000 18.7742 0.0000 -9.1680
# 5 4.9432 7.8054 5.1707 0.0000 31.9401 0.0000
# 6 0.0002 -0.0003 0.0001 -9.1680 0.0000 14.1191
#
#
#
# Elastic Compliance Matrix: (Units=1/GPa)
#
#
# Indices 1 2 3 4 5 6 
#
# 1 0.012369 -0.013538 -0.004765 0.000000 0.002165 -0.000001
# 2 -0.013538 0.130071 -0.005660 0.000003 -0.028775 0.000005
# 3 -0.004765 -0.005660 0.007630 0.000000 0.000885 0.000000
# 4 0.000000 0.000003 0.000000 0.077996 -0.000001 0.050645
# 5 0.002165 -0.028775 0.000885 -0.000001 0.037862 -0.000001
# 6 -0.000001 0.000005 0.000000 0.050645 -0.000001 0.103712
#
#
# Mechanical properties :
#
#
# Convention : Reuss Voigt Hill
#
# Bulk Modulus (GPa) = 9.79013 72.71851 41.25432
# Shear Modulus (GPa) = 11.07144 27.65981 19.36562
#
# Velocity S-wave (km/s) = 2.42019 3.82536 3.20084
# Velocity P-wave (km/s) = 3.60406 7.61464 5.95701
#
# Compressibility (1/GPa) = 0.10214372
#
# Stress axis : x y z
#
# Youngs Moduli (GPa) = 80.84955 7.68813 131.06196
#
# Poissons Ratio (x) = 0.10408 0.62452
# Poissons Ratio (y) = 1.09451 0.74182
# Poissons Ratio (z) = 0.38526 0.04352
#
# Static dielectric constant tensor:
#      x y z
#    x 1.623960 0.000000 0.015540 
#    y 0.000000 1.649420 0.000000 
#    z 0.015540 0.000000 1.667020 
# 
# From -- ./inp_files/362931.got.cif
#   From: 2010.05.17/outbox.cif.g08.bks.cpg/sg12_182_cif.got.tgz:362931.got - 2010.06.03 13:09:07.
