data_PCOD9205025
_publ_section_title
;
Structure prediction by ZEFSAII (Michael W. Deem and Ramdas Pophale) SiO2 
 PCOD9205025
Probable space group: C 2/M
;
_chemical_formula_sum "Si O2"
_cell_formula_units_Z 52
_cell_length_a 18.309923
_cell_length_b 13.741155
_cell_length_c 11.906905
_cell_angle_alpha 90.000000
_cell_angle_beta 81.716685
_cell_angle_gamma 90.000000
_cell_volume 2964.518695
_symmetry_space_group_name_H-M "C 2/M"
_symmetry_group_IT_number 12
_symmetry_cell_setting 'monoclinic'
loop_
_space_group_symop_operation_xyz
x,y,z
-x,y,-z
-x,-y,-z
x,-y,z
1/2+x,1/2+y,z
1/2-x,1/2+y,-z
1/2-x,1/2-y,-z
1/2+x,1/2-y,z
loop_
_atom_site_type_symbol
_atom_site_label
_atom_site_fract_x
_atom_site_fract_y
_atom_site_fract_z
Si Si1 0.674231 0.388646 0.261748
Si Si2 0.000000 0.751758 0.500000
Si Si3 0.920230 0.609004 0.962471
Si Si4 0.205264 0.726696 0.897149
Si Si5 0.138339 0.112591 0.525499
Si Si6 0.759585 0.115875 0.285050
Si Si7 0.096230 0.305461 0.278637
O O1 0.657010 0.500000 0.235270
O O2 0.748020 0.351144 0.185655
O O3 0.678830 0.382913 0.395943
O O4 0.612105 0.308390 0.246770
O O5 0.933320 0.818955 0.467540
O O6 0.964222 0.691264 0.609966
O O7 0.887676 0.500000 0.973983
O O8 0.923352 0.641106 0.832049
O O9 0.870621 0.681898 0.045147
O O10 0.000000 0.607029 0.000000
O O11 0.202414 0.823850 0.823482
O O12 0.250000 0.750000 0.000000
O O13 0.195245 0.138086 0.611500
O O14 0.114802 0.000000 0.547418
O O15 0.674761 0.152583 0.305163
O O16 0.760452 0.000000 0.266957
#
# Coordination Sequence:
#
# PCOD9205025 Si02
#       7
#     8   4   8   8   8   8   8
#     4   9  18  34  58  86 113 143 189 236 279 331
#     4  10  21  34  57  86 116 154 182 226 282 342
#     4  11  24  42  59  79 116 153 186 232 284 341
#     4  11  21  36  60  86 109 151 193 236 281 335
#     4   9  19  36  58  85 115 148 186 236 289 335
#     4  10  21  38  61  86 115 148 190 241 285 328
#     4  10  21  38  57  84 113 152 190 233 280 334
#
# _framework density 17.540789
#
# number of rings (size 3 to 8) (size 9 to 14) (size 15 to 20)
#    0.000    2.000    3.077    1.154    2.154    6.769 
#    0.000    1.538    0.000    0.923    0.000    0.000 
#    0.000    0.000    0.000    0.000    0.000    0.000 
#
# Total GULP energy -144993.778584 kJ/mol
# GULP energy per Si atom -5576.683792 kJ/mol
# Density = 1.750087 g / cm^3
# Si number density = 17.540789 Si / 1000 Ang^3
#
#
#
# Elastic Constant Matrix: (Units=GPa)
#
#
# Indices 1 2 3 4 5 6 
#
# 1 88.1183 35.6546 61.5419 0.0000 -1.5960 0.0000
# 2 35.6546 95.3420 40.9422 0.0000 -0.1882 0.0000
# 3 61.5419 40.9422 107.6664 0.0000 -8.2327 0.0000
# 4 0.0000 0.0000 0.0000 29.9397 0.0000 1.2438
# 5 -1.5960 -0.1882 -8.2327 0.0000 38.3887 0.0000
# 6 0.0000 0.0000 0.0000 1.2438 0.0000 18.6513
#
#
#
# Elastic Compliance Matrix: (Units=1/GPa)
#
#
# Indices 1 2 3 4 5 6 
#
# 1 0.019657 -0.002968 -0.010214 0.000000 -0.001388 0.000000
# 2 -0.002968 0.013020 -0.003313 0.000000 -0.000770 0.000000
# 3 -0.010214 -0.003313 0.016625 0.000000 0.003124 0.000000
# 4 0.000000 0.000000 0.000000 0.033493 0.000000 -0.002234
# 5 -0.001388 -0.000770 0.003124 0.000000 0.026658 0.000000
# 6 0.000000 0.000000 0.000000 -0.002234 0.000000 0.053764
#
#
# Mechanical properties :
#
#
# Convention : Reuss Voigt Hill
#
# Bulk Modulus (GPa) = 61.30411 63.04490 62.17451
# Shear Modulus (GPa) = 24.79605 27.59513 26.19559
#
# Velocity S-wave (km/s) = 3.76390 3.97066 3.86866
# Velocity P-wave (km/s) = 7.34265 7.55258 7.44835
#
# Compressibility (1/GPa) = 0.01631212
#
# Stress axis : x y z
#
# Youngs Moduli (GPa) = 50.87169 76.80591 60.15065
#
# Poissons Ratio (x) = 0.22795 0.61435
# Poissons Ratio (y) = 0.15098 0.19931
# Poissons Ratio (z) = 0.51958 0.25449
#
# Static dielectric constant tensor:
#      x y z
#    x 1.512060 0.000000 0.024010 
#    y 0.000000 1.621120 0.000000 
#    z 0.024010 0.000000 1.575050 
# 
# From -- ./inp_files/155327.got.cif
#   From: 2010.05.17/outbox.cif.g08.bks.cpg/sg12_78_cif.got.tgz:155327.got - 2010.06.03 13:09:07.
