data_PCOD9205595
_publ_section_title
;
Structure prediction by ZEFSAII (Michael W. Deem and Ramdas Pophale) SiO2 
 PCOD9205595
Probable space group: C 2/M
;
_chemical_formula_sum "Si O2"
_cell_formula_units_Z 56
_cell_length_a 17.412340
_cell_length_b 18.105718
_cell_length_c 10.168597
_cell_angle_alpha 90.000000
_cell_angle_beta 70.787197
_cell_angle_gamma 90.000000
_cell_volume 3027.228695
_symmetry_space_group_name_H-M "C 2/M"
_symmetry_group_IT_number 12
_symmetry_cell_setting 'monoclinic'
loop_
_space_group_symop_operation_xyz
x,y,z
-x,y,-z
-x,-y,-z
x,-y,z
1/2+x,1/2+y,z
1/2-x,1/2+y,-z
1/2-x,1/2-y,-z
1/2+x,1/2-y,z
loop_
_atom_site_type_symbol
_atom_site_label
_atom_site_fract_x
_atom_site_fract_y
_atom_site_fract_z
Si Si1 0.835985 0.217618 0.908897
Si Si2 0.010507 0.322315 0.139936
Si Si3 0.571751 0.416281 0.060155
Si Si4 0.036292 0.083822 0.621627
Si Si5 0.133410 0.223184 0.659657
Si Si6 0.687157 0.782798 0.347304
Si Si7 0.932113 0.413782 0.651702
O O1 0.910651 0.269679 0.907466
O O2 0.854334 0.139899 0.967621
O O3 0.836681 0.221886 0.749154
O O4 0.750000 0.250000 0.000000
O O5 0.026976 0.385359 0.237160
O O6 0.935056 0.271231 0.228313
O O7 0.000000 0.352411 0.000000
O O8 0.594183 0.500000 0.009330
O O9 0.532689 0.417225 0.227489
O O10 0.500000 0.392071 0.000000
O O11 0.099689 0.143291 0.638161
O O12 0.000000 0.104774 0.500000
O O13 0.068812 0.000000 0.592240
O O14 0.215543 0.214954 0.696690
O O15 0.154692 0.262395 0.509699
O O16 0.643899 0.859309 0.331235
O O17 0.909899 0.500000 0.668635
O O18 0.000000 0.403328 0.500000
#
# Coordination Sequence:
#
# PCOD9205595 Si02
#       7
#     8   8   8   8   8   8   8
#     4  11  22  36  58  86 121 155 200 244 293 358
#     4  11  22  37  63  89 118 155 198 249 300 352
#     4  10  21  37  59  86 117 156 195 240 299 355
#     4  10  21  35  58  88 118 154 193 238 297 362
#     4  11  21  37  61  88 122 153 198 249 297 352
#     4  10  23  37  58  91 117 156 201 250 293 351
#     4  10  21  40  63  86 118 161 203 245 298 355
#
# _framework density 18.498767000000001
#
# number of rings (size 3 to 8) (size 9 to 14) (size 15 to 20)
#    0.000    1.571    2.857    2.143    4.000    0.857 
#    0.000    2.857    0.000    3.429    0.000    0.000 
#    0.000    0.000    0.000    0.000    0.000    0.000 
#
# Total GULP energy -156328.171619 kJ/mol
# GULP energy per Si atom -5583.148986 kJ/mol
# Density = 1.845666 g / cm^3
# Si number density = 18.498767 Si / 1000 Ang^3
#
#
#
# Elastic Constant Matrix: (Units=GPa)
#
#
# Indices 1 2 3 4 5 6 
#
# 1 119.2069 67.6772 42.9986 0.0000 3.0964 0.0000
# 2 67.6772 103.7111 22.8686 0.0000 6.4744 0.0000
# 3 42.9986 22.8686 101.0247 0.0000 16.7607 0.0000
# 4 0.0000 0.0000 0.0000 16.0646 0.0000 -2.1828
# 5 3.0964 6.4744 16.7607 0.0000 37.8242 0.0000
# 6 0.0000 0.0000 0.0000 -2.1828 0.0000 11.2662
#
#
#
# Elastic Compliance Matrix: (Units=1/GPa)
#
#
# Indices 1 2 3 4 5 6 
#
# 1 0.015168 -0.008986 -0.004826 0.000000 0.002435 0.000000
# 2 -0.008986 0.015493 0.000686 0.000000 -0.002220 0.000000
# 3 -0.004826 0.000686 0.012684 0.000000 -0.005343 0.000000
# 4 0.000000 0.000000 0.000000 0.063932 0.000000 0.012386
# 5 0.002435 -0.002220 -0.005343 0.000000 0.028986 0.000000
# 6 0.000000 0.000000 0.000000 0.012386 0.000000 0.091161
#
#
# Mechanical properties :
#
#
# Convention : Reuss Voigt Hill
#
# Bulk Modulus (GPa) = 58.50206 65.67015 62.08611
# Shear Modulus (GPa) = 19.27733 25.72421 22.50077
#
# Velocity S-wave (km/s) = 3.23164 3.73311 3.49139
# Velocity P-wave (km/s) = 6.75412 7.35923 7.06316
#
# Compressibility (1/GPa) = 0.01709341
#
# Stress axis : x y z
#
# Youngs Moduli (GPa) = 65.93034 64.54460 78.84180
#
# Poissons Ratio (x) = 0.57997 0.38046
# Poissons Ratio (y) = 0.59242 -0.05406
# Poissons Ratio (z) = 0.31815 -0.04426
#
# Static dielectric constant tensor:
#      x y z
#    x 1.625410 0.000000 0.010730 
#    y 0.000000 1.640370 0.000000 
#    z 0.010730 0.000000 1.667600 
# 
# From -- ./inp_files/75902.got.cif
#   From: 2010.05.17/outbox.cif.g08.bks.cpg/sg12_38_cif.got.tgz:75902.got - 2010.06.03 13:09:07.
