data_PCOD9205620
_publ_section_title
;
Structure prediction by ZEFSAII (Michael W. Deem and Ramdas Pophale) SiO2 
 PCOD9205620
Probable space group: C 2/M
;
_chemical_formula_sum "Si O2"
_cell_formula_units_Z 56
_cell_length_a 9.588998
_cell_length_b 28.238284
_cell_length_c 15.980085
_cell_angle_alpha 90.000000
_cell_angle_beta 42.408667
_cell_angle_gamma 90.000000
_cell_volume 2918.214736
_symmetry_space_group_name_H-M "C 2/M"
_symmetry_group_IT_number 12
_symmetry_cell_setting 'monoclinic'
loop_
_space_group_symop_operation_xyz
x,y,z
-x,y,-z
-x,-y,-z
x,-y,z
1/2+x,1/2+y,z
1/2-x,1/2+y,-z
1/2-x,1/2-y,-z
1/2+x,1/2-y,z
loop_
_atom_site_type_symbol
_atom_site_label
_atom_site_fract_x
_atom_site_fract_y
_atom_site_fract_z
Si Si1 0.565532 0.724557 0.202019
Si Si2 0.832023 0.870780 0.250316
Si Si3 0.762312 0.446855 0.572965
Si Si4 0.579791 0.711329 0.556935
Si Si5 0.500000 0.187100 0.000000
Si Si6 0.000000 0.863576 0.000000
Si Si7 0.136668 0.624420 0.598851
Si Si8 0.537398 0.830993 0.165229
O O1 0.430720 0.680561 0.227172
O O2 0.573644 0.717630 0.298323
O O3 0.488271 0.776518 0.211678
O O4 0.800399 0.718583 0.069458
O O5 0.851953 0.909306 0.315413
O O6 0.585918 0.864548 0.345051
O O7 0.934358 0.888005 0.117144
O O8 0.677560 0.500000 0.613660
O O9 0.785438 0.425780 0.469364
O O10 0.000000 0.448751 0.500000
O O11 0.500000 0.719654 0.500000
O O12 0.750000 0.750000 0.500000
O O13 0.692223 0.661111 0.507965
O O14 0.520176 0.158514 0.905054
O O15 0.215599 0.836985 0.927081
O O16 0.089983 0.634885 0.716311
#
# Coordination Sequence:
#
# PCOD9205620 Si02
#       8
#     8   8   8   8   4   4   8   8
#     4  12  24  35  57  79 122 160 205 237 284 337
#     4  10  21  35  59  87 116 159 190 247 292 354
#     4   9  18  36  62  92 117 141 185 250 316 368
#     4  12  26  38  56  85 123 160 202 244 289 349
#     4  12  25  38  50  84 114 165 203 246 266 333
#     4  10  21  38  51  80 119 157 199 228 286 337
#     4  10  21  37  59  85 117 150 197 237 305 352
#     4  11  23  35  54  79 117 159 196 239 275 339
#
# _framework density 19.189813999999998
#
# number of rings (size 3 to 8) (size 9 to 14) (size 15 to 20)
#    0.000    1.286    4.286    1.714    6.000    0.000 
#    0.000    0.357    0.000    1.286    0.000    1.000 
#    0.000    0.000    0.000    0.000    0.000    0.000 
#
# Total GULP energy -156189.538513 kJ/mol
# GULP energy per Si atom -5578.197804 kJ/mol
# Density = 1.914614 g / cm^3
# Si number density = 19.189814 Si / 1000 Ang^3
#
#
#
# Elastic Constant Matrix: (Units=GPa)
#
#
# Indices 1 2 3 4 5 6 
#
# 1 64.0649 34.7002 34.1828 0.0000 20.3974 0.0000
# 2 34.7002 82.8525 39.0948 0.0000 23.2088 0.0000
# 3 34.1828 39.0948 109.6702 0.0000 32.6871 0.0000
# 4 0.0000 0.0000 0.0000 13.0721 0.0000 2.3144
# 5 20.3974 23.2088 32.6871 0.0000 40.2114 0.0000
# 6 0.0000 0.0000 0.0000 2.3144 0.0000 11.8902
#
#
#
# Elastic Compliance Matrix: (Units=1/GPa)
#
#
# Indices 1 2 3 4 5 6 
#
# 1 0.022419 -0.006477 -0.003172 0.000000 -0.005056 0.000000
# 2 -0.006477 0.017367 -0.002856 0.000000 -0.004417 0.000000
# 3 -0.003172 -0.002856 0.013401 0.000000 -0.007636 0.000000
# 4 0.000000 0.000000 0.000000 0.079229 0.000000 -0.015422
# 5 -0.005056 -0.004417 -0.007636 0.000000 0.036189 0.000000
# 6 0.000000 0.000000 0.000000 -0.015422 0.000000 0.087104
#
#
# Mechanical properties :
#
#
# Convention : Reuss Voigt Hill
#
# Bulk Modulus (GPa) = 35.48868 52.50480 43.99674
# Shear Modulus (GPa) = 17.23470 22.94208 20.08839
#
# Velocity S-wave (km/s) = 3.00011 3.46140 3.23898
# Velocity P-wave (km/s) = 5.52581 6.58751 6.07988
#
# Compressibility (1/GPa) = 0.02817800
#
# Stress axis : x y z
#
# Youngs Moduli (GPa) = 44.60415 57.58040 74.62184
#
# Poissons Ratio (x) = 0.37293 0.23672
# Poissons Ratio (y) = 0.28889 0.21310
# Poissons Ratio (z) = 0.14150 0.16443
#
# Static dielectric constant tensor:
#      x y z
#    x 1.720200 0.000000 -0.064770 
#    y 0.000000 1.641070 0.000000 
#    z -0.064770 0.000000 2.089520 
# 
# From -- ./inp_files/200862.got.cif
#   From: 2010.05.17/outbox.cif.g08.bks.cpg/sg12_101_cif.got.tgz:200862.got - 2010.06.03 13:09:07.
