data_PCOD9205942
_publ_section_title
;
Structure prediction by ZEFSAII (Michael W. Deem and Ramdas Pophale) SiO2 
 PCOD9205942
Probable space group: C 2/M
;
_chemical_formula_sum "Si O2"
_cell_formula_units_Z 64
_cell_length_a 16.161486
_cell_length_b 23.675437
_cell_length_c 19.029161
_cell_angle_alpha 90.000000
_cell_angle_beta 155.924800
_cell_angle_gamma 90.000000
_cell_volume 2970.231044
_symmetry_space_group_name_H-M "C 2/M"
_symmetry_group_IT_number 12
_symmetry_cell_setting 'monoclinic'
loop_
_space_group_symop_operation_xyz
x,y,z
-x,y,-z
-x,-y,-z
x,-y,z
1/2+x,1/2+y,z
1/2-x,1/2+y,-z
1/2-x,1/2-y,-z
1/2+x,1/2-y,z
loop_
_atom_site_type_symbol
_atom_site_label
_atom_site_fract_x
_atom_site_fract_y
_atom_site_fract_z
Si Si1 0.974311 0.286071 0.403003
Si Si2 0.621251 0.147475 0.799842
Si Si3 0.899980 0.875156 0.145977
Si Si4 0.982992 0.410518 0.067131
Si Si5 0.429498 0.743303 0.724753
Si Si6 0.753627 0.567949 0.488509
Si Si7 0.613551 0.218700 0.156259
Si Si8 0.857897 0.936082 0.447316
O O1 0.843812 0.323488 0.248380
O O2 0.848227 0.230108 0.323431
O O3 0.000000 0.314010 0.500000
O O4 0.189501 0.270712 0.534280
O O5 0.500625 0.197253 0.748553
O O6 0.473714 0.095562 0.666426
O O7 0.798653 0.128331 0.990191
O O8 0.942332 0.810247 0.202468
O O9 0.115136 0.906649 0.319454
O O10 0.740799 0.906786 0.073736
O O11 0.061914 0.346279 0.126110
O O12 0.135517 0.438700 0.240586
O O13 0.000000 0.432252 0.000000
O O14 0.458526 0.748392 0.831043
O O15 0.760764 0.500000 0.492128
O O16 0.649059 0.588367 0.480654
O O17 0.500000 0.239016 0.000000
O O18 0.000000 0.907219 0.500000
O O19 0.937016 0.000000 0.518475
#
# Coordination Sequence:
#
# PCOD9205942 Si02
#       8
#     8   8   8   8   8   8   8   8
#     4  10  23  39  62  93 129 172 206 253 325 394
#     4  12  23  42  66  93 131 170 209 265 323 393
#     4  12  24  39  64  96 127 174 214 268 325 380
#     4  11  23  35  56  89 132 172 216 260 314 372
#     4  11  22  38  62  95 133 169 212 258 323 394
#     4  11  25  43  64  93 128 169 225 276 318 374
#     4  10  21  36  54  88 130 169 205 256 307 388
#     4  10  21  40  59  81 121 171 224 274 313 359
#
# _framework density 21.547146000000001
#
# number of rings (size 3 to 8) (size 9 to 14) (size 15 to 20)
#    0.000    1.125    3.750    2.250    3.500    3.750 
#    0.000    0.000    0.000    0.375    0.000    0.875 
#    0.000    0.000    0.000    0.000    0.000    0.000 
#
# Total GULP energy -178689.821076 kJ/mol
# GULP energy per Si atom -5584.056909 kJ/mol
# Density = 2.149810 g / cm^3
# Si number density = 21.547146 Si / 1000 Ang^3
#
#
#
# Elastic Constant Matrix: (Units=GPa)
#
#
# Indices 1 2 3 4 5 6 
#
# 1 55.3667 3.3330 16.5345 0.0283 -23.4685 0.0006
# 2 3.3330 79.2359 34.0070 -0.0105 -5.9301 -0.0117
# 3 16.5345 34.0070 121.1406 -0.1088 -24.2710 -0.0222
# 4 0.0283 -0.0105 -0.1088 18.5657 -0.0271 -3.9322
# 5 -23.4685 -5.9301 -24.2710 -0.0271 39.3109 -0.0016
# 6 0.0006 -0.0117 -0.0222 -3.9322 -0.0016 9.5825
#
#
#
# Elastic Compliance Matrix: (Units=1/GPa)
#
#
# Indices 1 2 3 4 5 6 
#
# 1 0.024209 0.000275 -0.000545 -0.000021 0.014157 -0.000009
# 2 0.000275 0.014357 -0.004109 -0.000016 -0.000207 0.000001
# 3 -0.000545 -0.004109 0.010606 0.000080 0.005603 0.000053
# 4 -0.000021 -0.000016 0.000080 0.058990 0.000076 0.024207
# 5 0.014157 -0.000207 0.005603 0.000076 0.037318 0.000049
# 6 -0.000009 0.000001 0.000053 0.024207 0.000049 0.114291
#
#
# Mechanical properties :
#
#
# Convention : Reuss Voigt Hill
#
# Bulk Modulus (GPa) = 24.74473 40.38802 32.56637
# Shear Modulus (GPa) = 17.73051 26.94973 22.34012
#
# Velocity S-wave (km/s) = 2.87168 3.54041 3.22343
# Velocity P-wave (km/s) = 4.74387 5.95797 5.38524
#
# Compressibility (1/GPa) = 0.04041265
#
# Stress axis : x y z
#
# Youngs Moduli (GPa) = 41.30764 69.65144 94.29068
#
# Poissons Ratio (x) = -0.01916 0.05139
# Poissons Ratio (y) = -0.01137 0.38749
# Poissons Ratio (z) = 0.02251 0.28623
#
# Static dielectric constant tensor:
#      x y z
#    x 1.832010 0.000000 -0.003210 
#    y 0.000000 1.769470 0.000010 
#    z -0.003210 0.000010 1.860150 
# 
# From -- ./inp_files/318385.got.cif
#   From: 2010.05.17/outbox.cif.g08.bks.cpg/sg12_160_cif.got.tgz:318385.got - 2010.06.03 13:09:07.
