data_PCOD9205873
_publ_section_title
;
Structure prediction by ZEFSAII (Michael W. Deem and Ramdas Pophale) SiO2 
 PCOD9205873
Probable space group: C 2/M
;
_chemical_formula_sum "Si O2"
_cell_formula_units_Z 64
_cell_length_a 14.920157
_cell_length_b 7.704819
_cell_length_c 24.131304
_cell_angle_alpha 90.000000
_cell_angle_beta 100.217357
_cell_angle_gamma 90.000000
_cell_volume 2730.073596
_symmetry_space_group_name_H-M "C 2/M"
_symmetry_group_IT_number 12
_symmetry_cell_setting 'monoclinic'
loop_
_space_group_symop_operation_xyz
x,y,z
-x,y,-z
-x,-y,-z
x,-y,z
1/2+x,1/2+y,z
1/2-x,1/2+y,-z
1/2-x,1/2-y,-z
1/2+x,1/2-y,z
loop_
_atom_site_type_symbol
_atom_site_label
_atom_site_fract_x
_atom_site_fract_y
_atom_site_fract_z
Si Si1 0.933407 0.211423 0.753259
Si Si2 0.819370 0.805476 0.460150
Si Si3 0.884447 0.790049 0.279685
Si Si4 0.220591 0.798839 0.919977
Si Si5 0.099679 0.701956 0.999803
Si Si6 0.221543 0.200113 0.191179
Si Si7 0.841732 0.210194 0.626511
Si Si8 0.525385 0.287575 0.593570
O O1 0.875255 0.273908 0.799106
O O2 0.880875 0.258343 0.690725
O O3 0.037461 0.263821 0.755870
O O4 0.932654 0.000000 0.754969
O O5 0.750000 0.750000 0.500000
O O6 0.753457 0.795321 0.399278
O O7 0.913770 0.721187 0.450714
O O8 0.844445 0.000000 0.478190
O O9 0.789172 0.712792 0.250840
O O10 0.922911 0.738581 0.343826
O O11 0.877505 0.000000 0.278386
O O12 0.314966 0.724481 0.955876
O O13 0.230429 0.787651 0.855461
O O14 0.214153 0.000000 0.935153
O O15 0.134308 0.712891 0.940275
O O16 0.094111 0.500000 0.015915
O O17 0.000000 0.778912 0.000000
O O18 0.209044 0.000000 0.174519
O O19 0.920434 0.262392 0.590828
O O20 0.831692 0.000000 0.623364
O O21 0.525524 0.500000 0.592109
#
# Coordination Sequence:
#
# PCOD9205873 Si02
#       8
#     8   8   8   8   8   8   8   8
#     4   8  17  33  54  77 103 135 170 206 253 309
#     4  11  22  35  50  74 102 131 167 210 259 309
#     4   9  17  34  56  77 100 133 175 212 249 305
#     4  10  21  36  54  79 108 140 177 212 252 306
#     4   9  19  38  61  81 104 135 173 220 267 305
#     4  11  21  33  50  77 112 142 167 208 258 299
#     4   9  17  35  58  76  96 130 171 210 252 304
#     4   8  17  34  56  75  98 133 170 206 253 312
#
# _framework density 23.442592000000001
#
# number of rings (size 3 to 8) (size 9 to 14) (size 15 to 20)
#    0.000    2.625    0.000    3.375    0.000    2.250 
#    0.000   11.250    0.000    0.000    0.000    0.000 
#    0.000    0.000    0.000    0.000    0.000    0.000 
#
# Total GULP energy -178632.970957 kJ/mol
# GULP energy per Si atom -5582.280342 kJ/mol
# Density = 2.338924 g / cm^3
# Si number density = 23.442592 Si / 1000 Ang^3
#
#
#
# Elastic Constant Matrix: (Units=GPa)
#
#
# Indices 1 2 3 4 5 6 
#
# 1 147.1715 -0.9904 33.1443 0.0000 -37.6908 0.0000
# 2 -0.9904 37.5746 1.6518 0.0000 -0.1351 0.0000
# 3 33.1443 1.6518 50.3710 0.0000 -22.4978 0.0000
# 4 0.0000 0.0000 0.0000 14.5187 0.0000 4.1116
# 5 -37.6908 -0.1351 -22.4978 0.0000 30.4026 0.0000
# 6 0.0000 0.0000 0.0000 4.1116 0.0000 7.9714
#
#
#
# Elastic Compliance Matrix: (Units=1/GPa)
#
#
# Indices 1 2 3 4 5 6 
#
# 1 0.010043 0.000375 -0.001582 0.000000 0.011281 0.000000
# 2 0.000375 0.026679 -0.001286 0.000000 -0.000368 0.000000
# 3 -0.001582 -0.001286 0.029959 0.000000 0.020203 0.000000
# 4 0.000000 0.000000 0.000000 0.080658 0.000000 -0.041602
# 5 0.011281 -0.000368 0.020203 0.000000 0.061826 0.000000
# 6 0.000000 0.000000 0.000000 -0.041602 0.000000 0.146906
#
#
# Mechanical properties :
#
#
# Convention : Reuss Voigt Hill
#
# Bulk Modulus (GPa) = 16.20881 33.63648 24.92265
# Shear Modulus (GPa) = 13.10198 23.99932 18.55065
#
# Velocity S-wave (km/s) = 2.36666 3.20308 2.81610
# Velocity P-wave (km/s) = 3.79439 5.29709 4.60742
#
# Compressibility (1/GPa) = 0.06169484
#
# Stress axis : x y z
#
# Youngs Moduli (GPa) = 99.57469 37.48297 33.37875
#
# Poissons Ratio (x) = -0.01405 0.05279
# Poissons Ratio (y) = -0.03732 0.04293
# Poissons Ratio (z) = 0.15750 0.04820
#
# Static dielectric constant tensor:
#      x y z
#    x 1.890880 0.000000 -0.027500 
#    y 0.000000 1.885750 0.000000 
#    z -0.027500 0.000000 1.936460 
# 
# From -- ./inp_files/338696.got.cif
#   From: 2010.05.17/outbox.cif.g08.bks.cpg/sg12_170_cif.got.tgz:338696.got - 2010.06.03 13:09:07.
