data_PCOD9205215
_publ_section_title
;
Structure prediction by ZEFSAII (Michael W. Deem and Ramdas Pophale) SiO2 
 PCOD9205215
Probable space group: C 2/M
;
_chemical_formula_sum "Si O2"
_cell_formula_units_Z 64
_cell_length_a 19.038573
_cell_length_b 8.892348
_cell_length_c 31.693422
_cell_angle_alpha 90.000000
_cell_angle_beta 41.495697
_cell_angle_gamma 90.000000
_cell_volume 3555.066102
_symmetry_space_group_name_H-M "C 2/M"
_symmetry_group_IT_number 12
_symmetry_cell_setting 'monoclinic'
loop_
_space_group_symop_operation_xyz
x,y,z
-x,y,-z
-x,-y,-z
x,-y,z
1/2+x,1/2+y,z
1/2-x,1/2+y,-z
1/2-x,1/2-y,-z
1/2+x,1/2-y,z
loop_
_atom_site_type_symbol
_atom_site_label
_atom_site_fract_x
_atom_site_fract_y
_atom_site_fract_z
Si Si1 0.252132 0.177128 0.931491
Si Si2 0.177819 0.679760 0.323683
Si Si3 0.477602 0.180941 0.683024
Si Si4 0.647136 0.319585 0.821750
Si Si5 0.279014 0.181440 0.441902
Si Si6 0.378691 0.318532 0.561837
Si Si7 0.305578 0.679415 0.818345
Si Si8 0.582301 0.822786 0.066360
O O1 0.287292 0.260153 0.873436
O O2 0.342618 0.194266 0.926468
O O3 0.237224 0.000000 0.930143
O O4 0.145909 0.247652 0.999172
O O5 0.174440 0.500000 0.331200
O O6 0.084200 0.719406 0.332620
O O7 0.287128 0.717615 0.250367
O O8 0.162484 0.758978 0.374997
O O9 0.600551 0.221824 0.624548
O O10 0.414996 0.260734 0.748888
O O11 0.468318 0.000000 0.692562
O O12 0.647324 0.500000 0.826037
O O13 0.714068 0.247798 0.829686
O O14 0.529378 0.255891 0.875309
O O15 0.250000 0.250000 0.500000
O O16 0.196622 0.230104 0.442805
O O17 0.274444 0.000000 0.447023
O O18 0.500000 0.268962 0.500000
O O19 0.377642 0.500000 0.563255
O O20 0.302496 0.500000 0.818621
O O21 0.567611 0.000000 0.065074
#
# Coordination Sequence:
#
# PCOD9205215 Si02
#       8
#     8   8   8   8   8   8   8   8
#     4  10  21  38  58  80 112 150 183 225 282 331
#     4   9  19  35  55  77 102 137 178 218 261 317
#     4   9  19  37  56  76 106 142 180 222 273 327
#     4  10  21  38  58  82 114 147 181 224 278 332
#     4  10  21  36  55  79 107 141 180 222 268 321
#     4  10  21  35  52  78 110 140 173 217 269 320
#     4  11  22  36  57  84 111 142 186 232 273 327
#     4  10  21  37  58  84 111 143 187 231 272 326
#
# _framework density 18.002478
#
# number of rings (size 3 to 8) (size 9 to 14) (size 15 to 20)
#    0.000    2.125    0.000    3.750    0.000    6.750 
#    0.000    6.250    0.000    0.000    0.000    0.000 
#    0.000    0.000    0.000    0.000    0.000    0.000 
#
# Total GULP energy -178709.875910 kJ/mol
# GULP energy per Si atom -5584.683622 kJ/mol
# Density = 1.796150 g / cm^3
# Si number density = 18.002478 Si / 1000 Ang^3
#
#
#
# Elastic Constant Matrix: (Units=GPa)
#
#
# Indices 1 2 3 4 5 6 
#
# 1 96.9930 54.1929 105.1050 0.0000 -2.7230 0.0006
# 2 54.1929 78.4649 79.1574 0.0008 -0.8139 0.0007
# 3 105.1050 79.1574 182.5037 0.0000 -3.8677 0.0001
# 4 0.0000 0.0008 0.0000 35.4020 0.0000 7.3675
# 5 -2.7230 -0.8139 -3.8677 0.0000 37.2093 0.0001
# 6 0.0006 0.0007 0.0001 7.3675 0.0001 23.9053
#
#
#
# Elastic Compliance Matrix: (Units=1/GPa)
#
#
# Indices 1 2 3 4 5 6 
#
# 1 0.028758 -0.005618 -0.014115 0.000000 0.000515 -0.000001
# 2 -0.005618 0.023767 -0.007086 0.000000 -0.000628 0.000000
# 3 -0.014115 -0.007086 0.016693 0.000000 0.000547 0.000000
# 4 0.000000 0.000000 0.000000 0.030183 0.000000 -0.009302
# 5 0.000515 -0.000628 0.000547 0.000000 0.026956 0.000000
# 6 -0.000001 0.000000 0.000000 -0.009302 0.000000 0.044699
#
#
# Mechanical properties :
#
#
# Convention : Reuss Voigt Hill
#
# Bulk Modulus (GPa) = 64.18123 92.76360 78.47241
# Shear Modulus (GPa) = 21.74976 27.27041 24.51008
#
# Velocity S-wave (km/s) = 3.47962 3.89628 3.69383
# Velocity P-wave (km/s) = 7.20225 8.47829 7.86619
#
# Compressibility (1/GPa) = 0.01558088
#
# Stress axis : x y z
#
# Youngs Moduli (GPa) = 34.77241 42.07490 59.90459
#
# Poissons Ratio (x) = 0.23637 0.84553
# Poissons Ratio (y) = 0.19535 0.42451
# Poissons Ratio (z) = 0.49080 0.29816
#
# Static dielectric constant tensor:
#      x y z
#    x 1.599270 0.000000 -0.012230 
#    y 0.000000 1.601220 0.000000 
#    z -0.012230 0.000000 1.589390 
# 
# From -- ./inp_files/378128.got.cif
#   From: 2010.05.17/outbox.cif.g08.bks.cpg/sg12_190_cif.got.tgz:378128.got - 2010.06.03 13:09:07.
