data_PCOD9205729
_publ_section_title
;
Structure prediction by ZEFSAII (Michael W. Deem and Ramdas Pophale) SiO2 
 PCOD9205729
Probable space group: C 2/M
;
_chemical_formula_sum "Si O2"
_cell_formula_units_Z 40
_cell_length_a 13.100788
_cell_length_b 28.062948
_cell_length_c 5.468566
_cell_angle_alpha 90.000000
_cell_angle_beta 99.323256
_cell_angle_gamma 90.000000
_cell_volume 1983.941793
_symmetry_space_group_name_H-M "C 2/M"
_symmetry_group_IT_number 12
_symmetry_cell_setting 'monoclinic'
loop_
_space_group_symop_operation_xyz
x,y,z
-x,y,-z
-x,-y,-z
x,-y,z
1/2+x,1/2+y,z
1/2-x,1/2+y,-z
1/2-x,1/2-y,-z
1/2+x,1/2-y,z
loop_
_atom_site_type_symbol
_atom_site_label
_atom_site_fract_x
_atom_site_fract_y
_atom_site_fract_z
Si Si1 0.754800 0.700009 0.360857
Si Si2 0.374600 0.054760 0.967433
Si Si3 0.556631 0.234897 0.778981
Si Si4 0.125195 0.606857 0.529215
Si Si5 0.524331 0.660042 0.255166
O O1 0.750000 0.750000 0.500000
O O2 0.828475 0.714274 0.164038
O O3 0.819965 0.656993 0.501591
O O4 0.640079 0.680478 0.286023
O O5 0.342844 0.086002 0.191809
O O6 0.342916 0.000000 0.992000
O O7 0.500000 0.055684 0.000000
O O8 0.344079 0.073899 0.688200
O O9 0.500000 0.222142 0.500000
O O10 0.549016 0.292484 0.775285
O O11 0.500000 0.217739 0.000000
O O12 0.000000 0.611090 0.500000
O O13 0.500000 0.635132 0.500000
O O14 0.500000 0.632102 0.000000
#
# Coordination Sequence:
#
# PCOD9205729 Si02
#       5
#     8   8   8   8   8
#     4  12  23  39  58  81 121 169 195 249 288 334
#     4   9  18  38  61  83 115 149 181 241 308 357
#     4  10  21  36  52  73 100 148 204 234 277 328
#     4  10  22  35  55  91 117 150 201 234 280 363
#     4  10  22  38  52  74 101 153 208 236 280 331
#
# _framework density 20.16188
#
# number of rings (size 3 to 8) (size 9 to 14) (size 15 to 20)
#    0.000    1.800    4.000    1.200    0.000   12.800 
#    0.000    0.000    0.000    0.000    0.000    0.000 
#    0.000   16.000    0.000    0.000    0.000    0.000 
#
# Total GULP energy -111509.065371 kJ/mol
# GULP energy per Si atom -5575.453269 kJ/mol
# Density = 2.011599 g / cm^3
# Si number density = 20.161880 Si / 1000 Ang^3
#
#
#
# Elastic Constant Matrix: (Units=GPa)
#
#
# Indices 1 2 3 4 5 6 
#
# 1 54.5148 6.2070 34.5762 0.0000 -14.3516 0.0000
# 2 6.2070 77.4970 28.0127 0.0000 -4.1771 0.0000
# 3 34.5762 28.0127 173.7424 0.0000 -21.1695 0.0000
# 4 0.0000 0.0000 0.0000 -122.8686 0.0000 -88.7704
# 5 -14.3516 -4.1771 -21.1695 0.0000 25.1118 0.0000
# 6 0.0000 0.0000 0.0000 -88.7704 0.0000 -42.0206
#
#
#
# Elastic Compliance Matrix: (Units=1/GPa)
#
#
# Indices 1 2 3 4 5 6 
#
# 1 0.023218 -0.000092 -0.003333 0.000000 0.010444 0.000000
# 2 -0.000092 0.013708 -0.002140 0.000000 0.000423 0.000000
# 3 -0.003333 -0.002140 0.007231 0.000000 0.003835 0.000000
# 4 0.000000 0.000000 0.000000 0.015465 0.000000 -0.032670
# 5 0.010444 0.000423 0.003835 0.000000 0.049094 0.000000
# 6 0.000000 0.000000 0.000000 -0.032670 0.000000 0.045219
#
#
# Mechanical properties :
#
#
# Convention : Reuss Voigt Hill
#
# Bulk Modulus (GPa) = 30.27910 49.26067 39.76989
# Shear Modulus (GPa) = 28.39713 -12.15829 8.11942
#
# Velocity S-wave (km/s) = 3.75701 -2.45834 2.00894
# Velocity P-wave (km/s) = 5.81986 4.05311 5.01490
#
# Compressibility (1/GPa) = 0.03302608
#
# Stress axis : x y z
#
# Youngs Moduli (GPa) = 43.07070 72.95261 138.28697
#
# Poissons Ratio (x) = 0.00670 0.46093
# Poissons Ratio (y) = 0.00396 0.29596
# Poissons Ratio (z) = 0.14356 0.15613
#
# Static dielectric constant tensor:
#      x y z
#    x 1.771710 0.000000 0.045630 
#    y 0.000000 1.706750 0.000000 
#    z 0.045630 0.000000 1.930780 
# 
# From -- ./inp_files/8154.got.cif
#   From: 2010.05.17/outbox.cif.g08.bks.cpg/sg12_5_cif.got.tgz:8154.got - 2010.06.03 13:09:07.
