data_PCOD9205363
_publ_section_title
;
Structure prediction by ZEFSAII (Michael W. Deem and Ramdas Pophale) SiO2 
 PCOD9205363
Probable space group: C 2/M
;
_chemical_formula_sum "Si O2"
_cell_formula_units_Z 64
_cell_length_a 26.128242
_cell_length_b 8.052291
_cell_length_c 14.412056
_cell_angle_alpha 90.000000
_cell_angle_beta 87.705562
_cell_angle_gamma 90.000000
_cell_volume 3029.753338
_symmetry_space_group_name_H-M "C 2/M"
_symmetry_group_IT_number 12
_symmetry_cell_setting 'monoclinic'
loop_
_space_group_symop_operation_xyz
x,y,z
-x,y,-z
-x,-y,-z
x,-y,z
1/2+x,1/2+y,z
1/2-x,1/2+y,-z
1/2-x,1/2-y,-z
1/2+x,1/2-y,z
loop_
_atom_site_type_symbol
_atom_site_label
_atom_site_fract_x
_atom_site_fract_y
_atom_site_fract_z
Si Si1 0.492513 0.701107 0.642706
Si Si2 0.444551 0.313132 0.004478
Si Si3 0.413970 0.699773 0.484684
Si Si4 0.928963 0.309988 0.813139
Si Si5 0.184115 0.302262 0.167781
Si Si6 0.664662 0.195333 0.956965
Si Si7 0.198955 0.697553 0.559474
Si Si8 0.287208 0.806220 0.234503
O O1 0.492001 0.500000 0.649991
O O2 0.448584 0.748169 0.570909
O O3 0.548800 0.751564 0.603320
O O4 0.473987 0.781274 0.738519
O O5 0.448252 0.500000 0.043035
O O6 0.433264 0.316336 0.896484
O O7 0.500000 0.229879 0.000000
O O8 0.396114 0.221005 0.049795
O O9 0.412305 0.500000 0.484640
O O10 0.355807 0.760142 0.482816
O O11 0.929457 0.500000 0.849006
O O12 0.871429 0.283588 0.780853
O O13 0.195601 0.500000 0.165901
O O14 0.226757 0.208406 0.222196
O O15 0.180982 0.243794 0.059246
O O16 0.690146 0.269591 0.862771
O O17 0.676544 0.000000 0.958829
O O18 0.202091 0.500000 0.566068
O O19 0.250000 0.750000 0.500000
O O20 0.199097 0.766243 0.665726
O O21 0.303009 0.000000 0.234559
#
# Coordination Sequence:
#
# PCOD9205363 Si02
#       8
#     8   8   8   8   8   8   8   8
#     4   9  19  37  62  88 115 148 188 238 295 349
#     4  10  21  36  54  80 112 147 187 227 274 335
#     4   9  20  40  62  85 114 149 190 240 296 349
#     4  10  21  35  54  84 116 147 188 232 281 338
#     4   9  19  34  54  83 115 145 184 232 280 335
#     4   9  19  37  57  81 113 144 182 233 284 338
#     4  11  25  42  59  84 117 156 200 244 293 351
#     4  10  22  38  57  81 109 148 191 231 285 343
#
# _framework density 21.123832
#
# number of rings (size 3 to 8) (size 9 to 14) (size 15 to 20)
#    0.000    2.375    0.000    3.000    1.750    7.000 
#    0.000    3.750    0.000    0.000    0.000    0.000 
#    0.000    0.000    0.000    0.000    0.000    0.000 
#
# Total GULP energy -178330.919866 kJ/mol
# GULP energy per Si atom -5572.841246 kJ/mol
# Density = 2.107575 g / cm^3
# Si number density = 21.123832 Si / 1000 Ang^3
#
#
#
# Elastic Constant Matrix: (Units=GPa)
#
#
# Indices 1 2 3 4 5 6 
#
# 1 104.1942 2.3088 11.2433 0.0000 -2.2218 0.0000
# 2 2.3088 17.7090 3.7829 0.0000 -2.8121 0.0000
# 3 11.2433 3.7829 27.6760 0.0000 -12.2329 0.0000
# 4 0.0000 0.0000 0.0000 21.4791 0.0000 -5.6566
# 5 -2.2218 -2.8121 -12.2329 0.0000 28.3920 0.0000
# 6 0.0000 0.0000 0.0000 -5.6566 0.0000 37.2137
#
#
#
# Elastic Compliance Matrix: (Units=1/GPa)
#
#
# Indices 1 2 3 4 5 6 
#
# 1 0.010076 -0.000534 -0.004564 0.000000 -0.001231 0.000000
# 2 -0.000534 0.058387 -0.006455 0.000000 0.002960 0.000000
# 3 -0.004564 -0.006455 0.047468 0.000000 0.019456 0.000000
# 4 0.000000 0.000000 0.000000 0.048498 0.000000 0.007372
# 5 -0.001231 0.002960 0.019456 0.000000 0.043801 0.000000
# 6 0.000000 0.000000 0.000000 0.007372 0.000000 0.027992
#
#
# Mechanical properties :
#
#
# Convention : Reuss Voigt Hill
#
# Bulk Modulus (GPa) = 10.77312 20.47213 15.62262
# Shear Modulus (GPa) = 17.22527 26.23324 21.72926
#
# Velocity S-wave (km/s) = 2.85869 3.52785 3.21075
# Velocity P-wave (km/s) = 4.00090 5.12902 4.59968
#
# Compressibility (1/GPa) = 0.09282363
#
# Stress axis : x y z
#
# Youngs Moduli (GPa) = 99.24997 17.12704 21.06662
#
# Poissons Ratio (x) = 0.00915 0.09615
# Poissons Ratio (y) = 0.05301 0.13599
# Poissons Ratio (z) = 0.45300 0.11056
#
# Static dielectric constant tensor:
#      x y z
#    x 1.796240 0.000000 0.007250 
#    y 0.000000 1.784910 0.000000 
#    z 0.007250 0.000000 1.799220 
# 
# From -- ./inp_files/238716.got.cif
#   From: 2010.05.17/outbox.cif.g08.bks.cpg/sg12_120_cif.got.tgz:238716.got - 2010.06.03 13:09:07.
