data_PCOD9205702
_publ_section_title
;
Structure prediction by ZEFSAII (Michael W. Deem and Ramdas Pophale) SiO2 
 PCOD9205702
Probable space group: C 2/M
;
_chemical_formula_sum "Si O2"
_cell_formula_units_Z 44
_cell_length_a 21.305997
_cell_length_b 16.636560
_cell_length_c 8.732790
_cell_angle_alpha 90.000000
_cell_angle_beta 120.182005
_cell_angle_gamma 90.000000
_cell_volume 2675.775162
_symmetry_space_group_name_H-M "C 2/M"
_symmetry_group_IT_number 12
_symmetry_cell_setting 'monoclinic'
loop_
_space_group_symop_operation_xyz
x,y,z
-x,y,-z
-x,-y,-z
x,-y,z
1/2+x,1/2+y,z
1/2-x,1/2+y,-z
1/2-x,1/2-y,-z
1/2+x,1/2-y,z
loop_
_atom_site_type_symbol
_atom_site_label
_atom_site_fract_x
_atom_site_fract_y
_atom_site_fract_z
Si Si1 0.889895 0.239145 0.087884
Si Si2 0.291681 0.406436 0.008178
Si Si3 0.162975 0.686953 0.672131
Si Si4 0.000000 0.311576 0.000000
Si Si5 0.738525 0.832535 0.249585
Si Si6 0.625791 0.904419 0.332273
O O1 0.863041 0.147422 0.065663
O O2 0.886885 0.278592 0.252595
O O3 0.962384 0.257301 0.084045
O O4 0.825671 0.284332 0.916093
O O5 0.299571 0.500000 0.983928
O O6 0.270506 0.391939 0.160109
O O7 0.226276 0.366653 0.829302
O O8 0.201581 0.764641 0.642122
O O9 0.123551 0.634446 0.497151
O O10 0.061134 0.367261 0.151913
O O11 0.701492 0.877112 0.345478
O O12 0.621129 0.000000 0.331484
#
# Coordination Sequence:
#
# PCOD9205702 Si02
#       6
#     8   8   8   4   8   8
#     4   8  17  32  48  64  90 126 156 179 221 276
#     4   9  15  28  50  75  95 114 144 189 232 270
#     4   9  17  30  48  72  94 117 149 187 229 274
#     4  10  21  36  45  58  92 134 162 182 217 272
#     4   8  16  30  48  68  95 122 144 176 233 288
#     4  11  20  30  46  70  94 121 154 191 224 261
#
# _framework density 16.443833999999999
#
# number of rings (size 3 to 8) (size 9 to 14) (size 15 to 20)
#    0.000    2.909    0.000    4.091    0.000    0.727 
#    0.000    4.091    0.000    0.000    0.000   11.455 
#    0.000    0.000    0.000    0.000    0.000    0.000 
#
# Total GULP energy -122559.524081 kJ/mol
# GULP energy per Si atom -5570.887458 kJ/mol
# Density = 1.640641 g / cm^3
# Si number density = 16.443834 Si / 1000 Ang^3
#
#
#
# Elastic Constant Matrix: (Units=GPa)
#
#
# Indices 1 2 3 4 5 6 
#
# 1 103.7400 57.3891 23.9068 0.0000 -11.9171 0.0000
# 2 57.3891 131.6239 38.1581 0.0000 -8.3242 0.0000
# 3 23.9068 38.1581 50.7933 0.0000 -13.2090 0.0000
# 4 0.0000 0.0000 0.0000 21.9024 0.0000 -1.1021
# 5 -11.9171 -8.3242 -13.2090 0.0000 10.3337 0.0000
# 6 0.0000 0.0000 0.0000 -1.1021 0.0000 11.3643
#
#
#
# Elastic Compliance Matrix: (Units=1/GPa)
#
#
# Indices 1 2 3 4 5 6 
#
# 1 0.013968 -0.005549 0.000930 0.000000 0.012827 0.000000
# 2 -0.005549 0.011952 -0.008280 0.000000 -0.007355 0.000000
# 3 0.000930 -0.008280 0.035972 0.000000 0.040384 0.000000
# 4 0.000000 0.000000 0.000000 0.045881 0.000000 0.004450
# 5 0.012827 -0.007355 0.040384 0.000000 0.157259 0.000000
# 6 0.000000 0.000000 0.000000 0.004450 0.000000 0.088426
#
#
# Mechanical properties :
#
#
# Convention : Reuss Voigt Hill
#
# Bulk Modulus (GPa) = 27.70479 58.34057 43.02268
# Shear Modulus (GPa) = 12.77833 19.83364 16.30598
#
# Velocity S-wave (km/s) = 2.79066 3.47673 3.15241
# Velocity P-wave (km/s) = 5.22192 7.18836 6.28255
#
# Compressibility (1/GPa) = 0.03609484
#
# Stress axis : x y z
#
# Youngs Moduli (GPa) = 71.59102 83.66922 27.79932
#
# Poissons Ratio (x) = 0.46424 -0.02585
# Poissons Ratio (y) = 0.39723 0.23017
# Poissons Ratio (z) = -0.06656 0.69277
#
# Static dielectric constant tensor:
#      x y z
#    x 1.563430 0.000000 -0.012160 
#    y 0.000000 1.532880 0.000000 
#    z -0.012160 0.000000 1.550500 
# 
# From -- ./inp_files/72920.got.cif
#   From: 2010.05.17/outbox.cif.g08.bks.cpg/sg12_37_cif.got.tgz:72920.got - 2010.06.03 13:09:07.
