data_PCOD9205623
_publ_section_title
;
Structure prediction by ZEFSAII (Michael W. Deem and Ramdas Pophale) SiO2 
 PCOD9205623
Probable space group: C 2/M
;
_chemical_formula_sum "Si O2"
_cell_formula_units_Z 64
_cell_length_a 18.275665
_cell_length_b 30.445166
_cell_length_c 8.664787
_cell_angle_alpha 90.000000
_cell_angle_beta 139.966147
_cell_angle_gamma 90.000000
_cell_volume 3101.148372
_symmetry_space_group_name_H-M "C 2/M"
_symmetry_group_IT_number 12
_symmetry_cell_setting 'monoclinic'
loop_
_space_group_symop_operation_xyz
x,y,z
-x,y,-z
-x,-y,-z
x,-y,z
1/2+x,1/2+y,z
1/2-x,1/2+y,-z
1/2-x,1/2-y,-z
1/2+x,1/2-y,z
loop_
_atom_site_type_symbol
_atom_site_label
_atom_site_fract_x
_atom_site_fract_y
_atom_site_fract_z
Si Si1 0.338669 0.824328 0.416957
Si Si2 0.558733 0.741552 0.264962
Si Si3 0.402521 0.632567 0.958816
Si Si4 0.642375 0.221186 0.871935
Si Si5 0.435683 0.593454 0.537392
Si Si6 0.772881 0.832852 0.331985
Si Si7 0.814531 0.950159 0.626271
Si Si8 0.613042 0.893436 0.282138
O O1 0.366292 0.785340 0.582442
O O2 0.204702 0.835896 0.195378
O O3 0.377342 0.808035 0.311700
O O4 0.402449 0.867967 0.581270
O O5 0.458673 0.747954 0.230278
O O6 0.640409 0.701301 0.446681
O O7 0.500000 0.742003 0.000000
O O8 0.361775 0.586285 0.820449
O O9 0.500000 0.649375 0.000000
O O10 0.466780 0.620835 0.217483
O O11 0.750000 0.250000 0.000000
O O12 0.682557 0.191931 0.080556
O O13 0.500000 0.571319 0.500000
O O14 0.343656 0.631107 0.348620
O O15 0.375554 0.561197 0.562266
O O16 0.704966 0.861863 0.345885
O O17 0.680257 0.939136 0.401696
O O18 0.837076 0.000000 0.707270
O O19 0.500000 0.895769 0.000000
#
# Coordination Sequence:
#
# PCOD9205623 Si02
#       8
#     8   8   8   8   8   8   8   8
#     4  11  22  40  60  84 118 155 208 256 302 356
#     4  12  28  41  59  82 117 163 209 261 311 354
#     4   9  20  37  61  90 119 161 200 243 303 367
#     4  12  26  41  58  86 115 160 210 264 304 348
#     4  10  21  35  59  89 120 160 197 246 306 354
#     4  11  25  40  59  83 119 161 209 256 301 364
#     4   9  20  39  62  92 124 154 196 239 294 372
#     4  10  22  42  64  90 118 157 199 247 305 364
#
# _framework density 20.637516000000002
#
# number of rings (size 3 to 8) (size 9 to 14) (size 15 to 20)
#    0.000    1.500    1.250    3.750    5.250    6.250 
#    0.000    0.625    0.000    0.000    0.000    0.000 
#    0.000   16.000    0.000    0.000    0.000    0.000 
#
# Total GULP energy -178819.690132 kJ/mol
# GULP energy per Si atom -5588.115317 kJ/mol
# Density = 2.059054 g / cm^3
# Si number density = 20.637516 Si / 1000 Ang^3
#
#
#
# Elastic Constant Matrix: (Units=GPa)
#
#
# Indices 1 2 3 4 5 6 
#
# 1 89.7452 14.9822 16.7133 0.0000 9.7231 0.0000
# 2 14.9822 79.8703 10.0837 0.0000 14.3956 0.0000
# 3 16.7133 10.0837 84.4747 0.0000 13.8882 0.0000
# 4 0.0000 0.0000 0.0000 17.7599 0.0000 1.6730
# 5 9.7231 14.3956 13.8882 0.0000 39.9511 0.0000
# 6 0.0000 0.0000 0.0000 1.6730 0.0000 12.5139
#
#
#
# Elastic Compliance Matrix: (Units=1/GPa)
#
#
# Indices 1 2 3 4 5 6 
#
# 1 0.011958 -0.001709 -0.001893 0.000000 -0.001636 0.000000
# 2 -0.001709 0.013693 -0.000587 0.000000 -0.004314 0.000000
# 3 -0.001893 -0.000587 0.012910 0.000000 -0.003816 0.000000
# 4 0.000000 0.000000 0.000000 0.057025 0.000000 -0.007624
# 5 -0.001636 -0.004314 -0.003816 0.000000 0.028310 0.000000
# 6 0.000000 0.000000 0.000000 -0.007624 0.000000 0.080930
#
#
# Mechanical properties :
#
#
# Convention : Reuss Voigt Hill
#
# Bulk Modulus (GPa) = 33.13238 37.51653 35.32446
# Shear Modulus (GPa) = 22.39506 28.19904 25.29705
#
# Velocity S-wave (km/s) = 3.29775 3.70049 3.50491
# Velocity P-wave (km/s) = 5.53078 6.03957 5.79077
#
# Compressibility (1/GPa) = 0.03018195
#
# Stress axis : x y z
#
# Youngs Moduli (GPa) = 83.62767 73.03250 77.46084
#
# Poissons Ratio (x) = 0.12482 0.14662
# Poissons Ratio (y) = 0.14293 0.04548
# Poissons Ratio (z) = 0.15829 0.04288
#
# Static dielectric constant tensor:
#      x y z
#    x 1.792750 0.000000 -0.004660 
#    y 0.000000 1.733830 0.000000 
#    z -0.004660 0.000000 1.731530 
# 
# From -- ./inp_files/80743.got.cif
#   From: 2010.05.17/outbox.cif.g08.bks.cpg/sg12_41_cif.got.tgz:80743.got - 2010.06.03 13:09:07.
