data_PCOD9205206
_publ_section_title
;
Structure prediction by ZEFSAII (Michael W. Deem and Ramdas Pophale) SiO2 
 PCOD9205206
Probable space group: C 2/M
;
_chemical_formula_sum "Si O2"
_cell_formula_units_Z 48
_cell_length_a 14.803588
_cell_length_b 8.837705
_cell_length_c 16.544639
_cell_angle_alpha 90.000000
_cell_angle_beta 78.154673
_cell_angle_gamma 90.000000
_cell_volume 2118.437854
_symmetry_space_group_name_H-M "C 2/M"
_symmetry_group_IT_number 12
_symmetry_cell_setting 'monoclinic'
loop_
_space_group_symop_operation_xyz
x,y,z
-x,y,-z
-x,-y,-z
x,-y,z
1/2+x,1/2+y,z
1/2-x,1/2+y,-z
1/2-x,1/2-y,-z
1/2+x,1/2-y,z
loop_
_atom_site_type_symbol
_atom_site_label
_atom_site_fract_x
_atom_site_fract_y
_atom_site_fract_z
Si Si1 0.116135 0.319707 0.802296
Si Si2 0.557851 0.178714 0.064301
Si Si3 0.552701 0.820247 0.572418
Si Si4 0.286882 0.321530 0.368407
Si Si5 0.614613 0.322349 0.318151
Si Si6 0.715148 0.324104 0.126185
O O1 0.131730 0.500000 0.781024
O O2 0.151946 0.219820 0.722165
O O3 0.180924 0.282747 0.867824
O O4 0.011208 0.298722 0.847309
O O5 0.657589 0.239347 0.069022
O O6 0.567350 0.000000 0.048267
O O7 0.500000 0.244684 0.000000
O O8 0.500000 0.776339 0.500000
O O9 0.650047 0.740695 0.570802
O O10 0.478693 0.771594 0.653875
O O11 0.566719 0.000000 0.570397
O O12 0.271506 0.500000 0.378337
O O13 0.190615 0.238354 0.367905
O O14 0.596146 0.500000 0.334668
O O15 0.660574 0.304925 0.221628
O O16 0.714854 0.500000 0.105276
#
# Coordination Sequence:
#
# PCOD9205206 Si02
#       6
#     8   8   8   8   8   8
#     4   9  19  37  57  77 108 145 181 227 279 328
#     4  10  21  35  52  77 109 145 182 222 273 330
#     4  11  24  40  58  83 116 152 188 228 277 331
#     4  11  22  37  60  87 113 145 188 233 280 334
#     4  10  21  39  62  86 113 145 186 234 281 332
#     4   9  19  35  55  79 105 138 179 224 274 324
#
# _framework density 22.658204000000001
#
# number of rings (size 3 to 8) (size 9 to 14) (size 15 to 20)
#    0.000    2.000    0.000    4.500    0.000    9.667 
#    0.000    0.000    0.000    0.000    0.000    0.000 
#    0.000    0.000    0.000    0.000    0.000    0.000 
#
# Total GULP energy -134228.716545 kJ/mol
# GULP energy per Si atom -5592.863189 kJ/mol
# Density = 2.260663 g / cm^3
# Si number density = 22.658204 Si / 1000 Ang^3
#
#
#
# Elastic Constant Matrix: (Units=GPa)
#
#
# Indices 1 2 3 4 5 6 
#
# 1 120.6893 10.5848 15.1674 0.0000 25.9251 0.0000
# 2 10.5848 15.1046 15.6175 0.0000 10.8564 0.0000
# 3 15.1674 15.6175 56.6242 0.0000 20.7817 0.0000
# 4 0.0000 0.0000 0.0000 23.4543 0.0000 13.6116
# 5 25.9251 10.8564 20.7817 0.0000 40.4381 0.0000
# 6 0.0000 0.0000 0.0000 13.6116 0.0000 25.3412
#
#
#
# Elastic Compliance Matrix: (Units=1/GPa)
#
#
# Indices 1 2 3 4 5 6 
#
# 1 0.009713 -0.003130 0.000294 0.000000 -0.005538 0.000000
# 2 -0.003130 0.101041 -0.021951 0.000000 -0.013839 0.000000
# 3 0.000294 -0.021951 0.026550 0.000000 -0.007940 0.000000
# 4 0.000000 0.000000 0.000000 0.061946 0.000000 -0.033274
# 5 -0.005538 -0.013839 -0.007940 0.000000 0.036075 0.000000
# 6 0.000000 0.000000 0.000000 -0.033274 0.000000 0.057334
#
#
# Mechanical properties :
#
#
# Convention : Reuss Voigt Hill
#
# Bulk Modulus (GPa) = 11.39859 30.57306 20.98583
# Shear Modulus (GPa) = 13.45981 27.91660 20.68820
#
# Velocity S-wave (km/s) = 2.43993 3.51390 3.02496
# Velocity P-wave (km/s) = 3.60268 5.47593 4.63492
#
# Compressibility (1/GPa) = 0.08773014
#
# Stress axis : x y z
#
# Youngs Moduli (GPa) = 102.95620 9.89693 37.66529
#
# Poissons Ratio (x) = 0.03098 -0.01108
# Poissons Ratio (y) = 0.32229 0.82678
# Poissons Ratio (z) = -0.03028 0.21724
#
# Static dielectric constant tensor:
#      x y z
#    x 1.830460 0.000000 0.001320 
#    y 0.000000 1.757100 0.000000 
#    z 0.001320 0.000000 1.934190 
# 
# From -- ./inp_files/267637.got.cif
#   From: 2010.05.17/outbox.cif.g08.bks.cpg/sg12_134_cif.got.tgz:267637.got - 2010.06.03 13:09:07.
