data_PCOD9205216
_publ_section_title
;
Structure prediction by ZEFSAII (Michael W. Deem and Ramdas Pophale) SiO2 
 PCOD9205216
Probable space group: C 2/M
;
_chemical_formula_sum "Si O2"
_cell_formula_units_Z 56
_cell_length_a 19.140985
_cell_length_b 8.818264
_cell_length_c 30.035791
_cell_angle_alpha 90.000000
_cell_angle_beta 37.362845
_cell_angle_gamma 90.000000
_cell_volume 3076.630643
_symmetry_space_group_name_H-M "C 2/M"
_symmetry_group_IT_number 12
_symmetry_cell_setting 'monoclinic'
loop_
_space_group_symop_operation_xyz
x,y,z
-x,y,-z
-x,-y,-z
x,-y,z
1/2+x,1/2+y,z
1/2-x,1/2+y,-z
1/2-x,1/2-y,-z
1/2+x,1/2-y,z
loop_
_atom_site_type_symbol
_atom_site_label
_atom_site_fract_x
_atom_site_fract_y
_atom_site_fract_z
Si Si1 0.789833 0.183219 0.432920
Si Si2 0.632674 0.817028 0.429631
Si Si3 0.330822 0.681637 0.996864
Si Si4 0.758367 0.818588 0.133602
Si Si5 0.292115 0.318411 0.701229
Si Si6 0.055560 0.817275 0.291372
Si Si7 0.583688 0.818172 0.870526
O O1 0.750000 0.250000 0.500000
O O2 0.706454 0.232804 0.435048
O O3 0.922323 0.226121 0.356397
O O4 0.785686 0.000000 0.437643
O O5 0.500000 0.765822 0.500000
O O6 0.686650 0.759166 0.356428
O O7 0.633269 0.000000 0.428929
O O8 0.333849 0.500000 0.991742
O O9 0.281848 0.720873 0.070565
O O10 0.250000 0.750000 0.000000
O O11 0.459071 0.746900 0.927853
O O12 0.636474 0.758763 0.213544
O O13 0.855169 0.744298 0.116028
O O14 0.763886 0.000000 0.135597
O O15 0.296106 0.500000 0.693598
O O16 0.389884 0.276742 0.688122
O O17 0.170885 0.279426 0.786008
O O18 0.065324 0.000000 0.282052
O O19 0.576268 0.000000 0.876906
#
# Coordination Sequence:
#
# PCOD9205216 Si02
#       7
#     8   8   8   8   8   8   8
#     4  10  21  36  54  78 107 140 180 223 268 323
#     4  10  21  35  52  78 110 141 176 220 270 324
#     4  11  24  39  56  82 115 149 188 233 278 327
#     4  10  21  37  58  84 111 142 185 231 275 331
#     4   9  19  35  55  79 105 136 177 221 264 318
#     4   9  19  36  56  79 107 140 181 225 270 325
#     4  10  21  38  60  85 113 146 185 227 274 332
#
# _framework density 18.201730000000001
#
# number of rings (size 3 to 8) (size 9 to 14) (size 15 to 20)
#    0.000    2.143    0.000    3.429    0.000    9.429 
#    0.000    2.857    0.000    0.000    0.000    0.000 
#    0.000    0.000    0.000    0.000    0.000    0.000 
#
# Total GULP energy -156387.661322 kJ/mol
# GULP energy per Si atom -5585.273619 kJ/mol
# Density = 1.816030 g / cm^3
# Si number density = 18.201730 Si / 1000 Ang^3
#
#
#
# Elastic Constant Matrix: (Units=GPa)
#
#
# Indices 1 2 3 4 5 6 
#
# 1 176.4954 53.9730 142.1325 0.0001 -4.2376 0.0001
# 2 53.9730 31.7311 56.3073 0.0004 2.6664 0.0005
# 3 142.1325 56.3073 160.7171 0.0000 -0.0415 0.0000
# 4 0.0001 0.0004 0.0000 36.9426 -0.0001 5.0442
# 5 -4.2376 2.6664 -0.0415 -0.0001 36.4416 0.0001
# 6 0.0001 0.0005 0.0000 5.0442 0.0001 21.1450
#
#
#
# Elastic Compliance Matrix: (Units=1/GPa)
#
#
# Indices 1 2 3 4 5 6 
#
# 1 0.020572 -0.007816 -0.015454 0.000000 0.002947 0.000000
# 2 -0.007816 0.087668 -0.023804 -0.000001 -0.007351 -0.000002
# 3 -0.015454 -0.023804 0.028229 0.000000 -0.000023 0.000001
# 4 0.000000 -0.000001 0.000000 0.027980 0.000000 -0.006675
# 5 0.002947 -0.007351 -0.000023 0.000000 0.028322 0.000000
# 6 0.000000 -0.000002 0.000001 -0.006675 0.000000 0.048885
#
#
# Mechanical properties :
#
#
# Convention : Reuss Voigt Hill
#
# Bulk Modulus (GPa) = 23.62929 97.08547 60.35738
# Shear Modulus (GPa) = 14.28935 26.67458 20.48197
#
# Velocity S-wave (km/s) = 2.80492 3.83233 3.35815
# Velocity P-wave (km/s) = 4.84770 8.54616 6.94755
#
# Compressibility (1/GPa) = 0.04232036
#
# Stress axis : x y z
#
# Youngs Moduli (GPa) = 48.60977 11.40667 35.42472
#
# Poissons Ratio (x) = 0.08916 0.54745
# Poissons Ratio (y) = 0.37994 0.84325
# Poissons Ratio (z) = 0.75122 0.27153
#
# Static dielectric constant tensor:
#      x y z
#    x 1.602810 0.000000 -0.010270 
#    y 0.000000 1.615470 0.000000 
#    z -0.010270 0.000000 1.602330 
# 
# From -- ./inp_files/342264.got.cif
#   From: 2010.05.17/outbox.cif.g08.bks.cpg/sg12_172_cif.got.tgz:342264.got - 2010.06.03 13:09:07.
