data_PCOD9205157
_publ_section_title
;
Structure prediction by ZEFSAII (Michael W. Deem and Ramdas Pophale) SiO2 
 PCOD9205157
Probable space group: C 2/M
;
_chemical_formula_sum "Si O2"
_cell_formula_units_Z 64
_cell_length_a 7.633207
_cell_length_b 19.311620
_cell_length_c 21.746634
_cell_angle_alpha 90.000000
_cell_angle_beta 89.991453
_cell_angle_gamma 90.000000
_cell_volume 3205.662431
_symmetry_space_group_name_H-M "C 2/M"
_symmetry_group_IT_number 12
_symmetry_cell_setting 'monoclinic'
loop_
_space_group_symop_operation_xyz
x,y,z
-x,y,-z
-x,-y,-z
x,-y,z
1/2+x,1/2+y,z
1/2-x,1/2+y,-z
1/2-x,1/2-y,-z
1/2+x,1/2-y,z
loop_
_atom_site_type_symbol
_atom_site_label
_atom_site_fract_x
_atom_site_fract_y
_atom_site_fract_z
Si Si1 0.711029 0.579041 0.747745
Si Si2 0.290182 0.079264 0.885442
Si Si3 0.211183 0.831474 0.633694
Si Si4 0.710347 0.420954 0.252187
Si Si5 0.210360 0.420742 0.885517
Si Si6 0.710768 0.668541 0.366244
Si Si7 0.210124 0.167936 0.499971
Si Si8 0.710786 0.168950 0.000034
O O1 0.776612 0.500000 0.742967
O O2 0.752147 0.604425 0.816430
O O3 0.778139 0.626058 0.692115
O O4 0.500335 0.576926 0.742971
O O5 0.500257 0.075766 0.891413
O O6 0.223713 0.129237 0.939077
O O7 0.223217 0.000000 0.891429
O O8 0.250235 0.750013 0.639787
O O9 0.276259 0.857069 0.566498
O O10 0.000205 0.838180 0.632771
O O11 0.775934 0.500000 0.256958
O O12 0.751365 0.395586 0.183484
O O13 0.777571 0.373910 0.307780
O O14 0.277303 0.500000 0.891532
O O15 0.276585 0.370780 0.939189
O O16 0.776057 0.642947 0.433409
O O17 0.250000 0.250000 0.500000
O O18 0.000000 0.158552 0.500000
O O19 0.500000 0.162753 0.000000
O O20 0.750000 0.250000 0.000000
#
# Coordination Sequence:
#
# PCOD9205157 Si02
#       8
#     8   8   8   8   8   8   8   8
#     4   9  18  32  48  68  95 123 151 187 230 273
#     4   9  18  34  54  71  89 120 159 191 221 265
#     4   9  17  29  46  67  91 120 154 191 229 270
#     4   9  18  32  48  68  95 123 151 187 230 273
#     4   9  18  34  54  71  89 120 159 191 221 265
#     4   9  17  29  46  67  91 120 154 191 229 270
#     4   8  14  26  43  63  87 117 153 188 224 268
#     4  10  21  35  51  73  99 122 148 188 232 270
#
# _framework density 19.964670999999999
#
# number of rings (size 3 to 8) (size 9 to 14) (size 15 to 20)
#    0.000    3.000    0.000    0.375    0.000    4.500 
#    0.000    5.625    0.000    7.500    0.000    0.000 
#    0.000   14.000    0.000    0.000    0.000    0.000 
#
# Total GULP energy -178352.240364 kJ/mol
# GULP energy per Si atom -5573.507511 kJ/mol
# Density = 1.991923 g / cm^3
# Si number density = 19.964671 Si / 1000 Ang^3
#
#
#
# Elastic Constant Matrix: (Units=GPa)
#
#
# Indices 1 2 3 4 5 6 
#
# 1 40.8843 1.6725 6.7451 0.0000 0.1814 0.0000
# 2 1.6725 77.1041 112.6669 0.0000 0.1732 0.0000
# 3 6.7451 112.6669 261.4763 0.0000 0.3415 0.0000
# 4 0.0000 0.0000 0.0000 47.8283 0.0000 -0.0050
# 5 0.1814 0.1732 0.3415 0.0000 11.1886 0.0000
# 6 0.0000 0.0000 0.0000 -0.0050 0.0000 17.2290
#
#
#
# Elastic Compliance Matrix: (Units=1/GPa)
#
#
# Indices 1 2 3 4 5 6 
#
# 1 0.024598 0.001063 -0.001092 0.000000 -0.000382 0.000000
# 2 0.001063 0.035063 -0.015136 0.000000 -0.000098 0.000000
# 3 -0.001092 -0.015136 0.010374 0.000000 -0.000065 0.000000
# 4 0.000000 0.000000 0.000000 0.020908 0.000000 0.000006
# 5 -0.000382 -0.000098 -0.000065 0.000000 0.089387 0.000000
# 6 0.000000 0.000000 0.000000 0.000006 0.000000 0.058042
#
#
# Mechanical properties :
#
#
# Convention : Reuss Voigt Hill
#
# Bulk Modulus (GPa) = 25.18500 69.07043 47.12772
# Shear Modulus (GPa) = 17.73449 32.47452 25.10450
#
# Velocity S-wave (km/s) = 2.98366 4.03749 3.54990
# Velocity P-wave (km/s) = 4.95094 7.51043 6.36075
#
# Compressibility (1/GPa) = 0.03970617
#
# Stress axis : x y z
#
# Youngs Moduli (GPa) = 40.65425 28.51989 96.39070
#
# Poissons Ratio (x) = -0.03032 0.10527
# Poissons Ratio (y) = -0.04322 1.45893
# Poissons Ratio (z) = 0.04440 0.43167
#
# Static dielectric constant tensor:
#      x y z
#    x 1.750790 0.000000 -0.000040 
#    y 0.000000 1.669010 0.000000 
#    z -0.000040 0.000000 1.737430 
# 
# From -- ./inp_files/258132.got.cif
#   From: 2010.05.17/outbox.cif.g08.bks.cpg/sg12_130_cif.got.tgz:258132.got - 2010.06.03 13:09:07.
