data_PCOD9205345
_publ_section_title
;
Structure prediction by ZEFSAII (Michael W. Deem and Ramdas Pophale) SiO2 
 PCOD9205345
Probable space group: C 2/M
;
_chemical_formula_sum "Si O2"
_cell_formula_units_Z 48
_cell_length_a 14.871500
_cell_length_b 17.801997
_cell_length_c 16.035408
_cell_angle_alpha 90.000000
_cell_angle_beta 152.752562
_cell_angle_gamma 90.000000
_cell_volume 1943.621563
_symmetry_space_group_name_H-M "C 2/M"
_symmetry_group_IT_number 12
_symmetry_cell_setting 'monoclinic'
loop_
_space_group_symop_operation_xyz
x,y,z
-x,y,-z
-x,-y,-z
x,-y,z
1/2+x,1/2+y,z
1/2-x,1/2+y,-z
1/2-x,1/2-y,-z
1/2+x,1/2-y,z
loop_
_atom_site_type_symbol
_atom_site_label
_atom_site_fract_x
_atom_site_fract_y
_atom_site_fract_z
Si Si1 0.589472 0.854098 0.985692
Si Si2 0.771545 0.759998 0.706788
Si Si3 0.850048 0.085326 0.945701
Si Si4 0.026471 0.787788 0.663143
Si Si5 0.044047 0.358518 0.302138
Si Si6 0.196413 0.084642 0.349582
O O1 0.494095 0.769604 0.897107
O O2 0.512869 0.888321 0.836146
O O3 0.500000 0.882541 0.000000
O O4 0.824677 0.851463 0.182847
O O5 0.666476 0.703194 0.553438
O O6 0.668528 0.748466 0.709696
O O7 0.726148 0.842981 0.637041
O O8 0.972648 0.085289 0.132978
O O9 0.820022 0.000000 0.892287
O O10 0.636430 0.116018 0.786956
O O11 0.000000 0.119213 0.000000
O O12 0.972069 0.731586 0.693262
O O13 0.240137 0.393547 0.504674
O O14 0.269154 0.000000 0.391536
#
# Coordination Sequence:
#
# PCOD9205345 Si02
#       6
#     8   8   8   8   8   8
#     4  10  21  36  55  78 108 147 190 235 278 323
#     4   9  18  33  50  74 110 144 181 223 272 336
#     4  10  21  36  55  81 114 150 183 220 272 335
#     4   9  18  31  49  75 106 143 179 220 272 331
#     4  11  21  34  55  81 110 146 188 230 276 327
#     4  10  21  35  54  81 113 146 181 224 274 333
#
# _framework density 24.696166000000002
#
# number of rings (size 3 to 8) (size 9 to 14) (size 15 to 20)
#    0.000    2.167    0.000    3.000    0.000    7.333 
#    0.000   12.500    0.000    2.000    0.000    2.333 
#    0.000    0.000    0.000    0.000    0.000    0.167 
#
# Total GULP energy -133842.091013 kJ/mol
# GULP energy per Si atom -5576.753792 kJ/mol
# Density = 2.463996 g / cm^3
# Si number density = 24.696166 Si / 1000 Ang^3
#
#
#
# Elastic Constant Matrix: (Units=GPa)
#
#
# Indices 1 2 3 4 5 6 
#
# 1 92.0348 -6.6669 29.2680 0.0185 -19.3835 0.0123
# 2 -6.6669 25.2460 -7.6008 0.0166 -4.4922 0.0116
# 3 29.2680 -7.6008 168.4660 0.0160 -9.0876 0.0171
# 4 0.0185 0.0166 0.0160 30.8688 0.0174 3.2872
# 5 -19.3835 -4.4922 -9.0876 0.0174 60.7011 0.0144
# 6 0.0123 0.0116 0.0171 3.2872 0.0144 3.9292
#
#
#
# Elastic Compliance Matrix: (Units=1/GPa)
#
#
# Indices 1 2 3 4 5 6 
#
# 1 0.012531 0.003476 -0.001805 -0.000005 0.003989 -0.000052
# 2 0.003476 0.041774 0.001520 -0.000012 0.004429 -0.000147
# 3 -0.001805 0.001520 0.006344 0.000000 0.000486 -0.000028
# 4 -0.000005 -0.000012 0.000000 0.035563 -0.000006 -0.029753
# 5 0.003989 0.004429 0.000486 -0.000006 0.018148 -0.000089
# 6 -0.000052 -0.000147 -0.000028 -0.029753 -0.000089 0.279399
#
#
# Mechanical properties :
#
#
# Convention : Reuss Voigt Hill
#
# Bulk Modulus (GPa) = 14.91872 35.08304 25.00088
# Shear Modulus (GPa) = 12.20337 37.14957 24.67647
#
# Velocity S-wave (km/s) = 2.22534 3.88269 3.16445
# Velocity P-wave (km/s) = 3.55765 5.85979 4.84737
#
# Compressibility (1/GPa) = 0.06702990
#
# Stress axis : x y z
#
# Youngs Moduli (GPa) = 79.80018 23.93844 157.62157
#
# Poissons Ratio (x) = -0.08320 0.28453
# Poissons Ratio (y) = -0.27735 -0.23956
# Poissons Ratio (z) = 0.14405 -0.03638
#
# Static dielectric constant tensor:
#      x y z
#    x 2.037140 0.000000 -0.020410 
#    y 0.000000 2.017440 -0.000010 
#    z -0.020410 -0.000010 2.057820 
# 
# From -- ./inp_files/226921.got.cif
#   From: 2010.05.17/outbox.cif.g08.bks.cpg/sg12_114_cif.got.tgz:226921.got - 2010.06.03 13:09:07.
