data_PCOD9205411
_publ_section_title
;
Structure prediction by ZEFSAII (Michael W. Deem and Ramdas Pophale) SiO2 
 PCOD9205411
Probable space group: C 2/M
;
_chemical_formula_sum "Si O2"
_cell_formula_units_Z 58
_cell_length_a 29.616183
_cell_length_b 9.467633
_cell_length_c 12.499010
_cell_angle_alpha 90.000000
_cell_angle_beta 104.374307
_cell_angle_gamma 90.000000
_cell_volume 3394.946904
_symmetry_space_group_name_H-M "C 2/M"
_symmetry_group_IT_number 12
_symmetry_cell_setting 'monoclinic'
loop_
_space_group_symop_operation_xyz
x,y,z
-x,y,-z
-x,-y,-z
x,-y,z
1/2+x,1/2+y,z
1/2-x,1/2+y,-z
1/2-x,1/2-y,-z
1/2+x,1/2-y,z
loop_
_atom_site_type_symbol
_atom_site_label
_atom_site_fract_x
_atom_site_fract_y
_atom_site_fract_z
Si Si1 0.444995 0.833747 0.492529
Si Si2 0.551941 0.266874 0.882903
Si Si3 0.198172 0.333414 0.851607
Si Si4 0.804823 0.166202 0.925910
Si Si5 0.111053 0.663261 0.108461
Si Si6 0.000000 0.000000 0.000000
Si Si7 0.885751 0.835464 0.284322
Si Si8 0.545231 0.167840 0.262807
O O1 0.500000 0.828182 0.500000
O O2 0.416987 0.739256 0.392763
O O3 0.440039 0.779930 0.611616
O O4 0.431114 0.000000 0.476242
O O5 0.586722 0.324404 0.812654
O O6 0.508493 0.197714 0.795632
O O7 0.581683 0.170181 0.980943
O O8 0.527973 0.379756 0.946310
O O9 0.186777 0.500000 0.855229
O O10 0.252342 0.322480 0.849842
O O11 0.161848 0.252636 0.755689
O O12 0.194646 0.255089 0.963881
O O13 0.844589 0.235946 0.877498
O O14 0.814228 0.000000 0.951873
O O15 0.124468 0.500000 0.135266
O O16 0.077932 0.716491 0.185003
O O17 0.877464 0.000000 0.302395
O O18 0.550097 0.000000 0.270016
#
# Coordination Sequence:
#
# PCOD9205411 Si02
#       8
#     8   8   8   8   8   2   8   8
#     4  10  21  38  59  79 107 150 193 235 277 325
#     4  12  22  34  52  79 114 155 187 223 275 331
#     4  10  21  37  57  81 111 148 185 227 279 337
#     4  10  21  35  55  84 115 144 180 227 282 339
#     4  11  22  34  56  84 114 149 187 227 279 339
#     4  12  24  36  46  78 124 160 190 216 290 336
#     4  12  24  36  55  84 114 147 187 234 281 327
#     4  10  21  38  56  78 108 146 195 235 269 323
#
# _framework density 17.084215
#
# number of rings (size 3 to 8) (size 9 to 14) (size 15 to 20)
#    0.000    1.241    4.828    1.655    0.966    4.138 
#    1.241    0.000    0.000    0.828    0.000    0.000 
#    0.000    0.000    0.000    0.000    0.000    0.000 
#
# Total GULP energy -161545.827799 kJ/mol
# GULP energy per Si atom -5570.545786 kJ/mol
# Density = 1.704533 g / cm^3
# Si number density = 17.084215 Si / 1000 Ang^3
#
#
#
# Elastic Constant Matrix: (Units=GPa)
#
#
# Indices 1 2 3 4 5 6 
#
# 1 93.7298 55.1402 38.8646 0.0000 11.1613 0.0000
# 2 55.1402 108.4575 47.6616 0.0000 12.1224 0.0000
# 3 38.8646 47.6616 91.7880 0.0000 9.1259 0.0000
# 4 0.0000 0.0000 0.0000 1.6897 0.0000 -13.7350
# 5 11.1613 12.1224 9.1259 0.0000 22.3096 0.0000
# 6 0.0000 0.0000 0.0000 -13.7350 0.0000 43.8805
#
#
#
# Elastic Compliance Matrix: (Units=1/GPa)
#
#
# Indices 1 2 3 4 5 6 
#
# 1 0.016177 -0.006466 -0.003165 0.000000 -0.003285 0.000000
# 2 -0.006466 0.014906 -0.004710 0.000000 -0.002938 0.000000
# 3 -0.003165 -0.004710 0.014874 0.000000 -0.001941 0.000000
# 4 0.000000 0.000000 0.000000 -0.383225 0.000000 -0.119953
# 5 -0.003285 -0.002938 -0.001941 0.000000 0.048858 0.000000
# 6 0.000000 0.000000 0.000000 -0.119953 0.000000 -0.014757
#
#
# Mechanical properties :
#
#
# Convention : Reuss Voigt Hill
#
# Bulk Modulus (GPa) = 57.89320 64.14533 61.01927
# Shear Modulus (GPa) = -18.60615 23.72988 2.56186
#
# Velocity S-wave (km/s) = -3.30371 3.73096 1.22589
# Velocity P-wave (km/s) = 4.40544 7.49588 6.14801
#
# Compressibility (1/GPa) = 0.01727318
#
# Stress axis : x y z
#
# Youngs Moduli (GPa) = 61.81803 67.08830 67.23317
#
# Poissons Ratio (x) = 0.43380 0.21281
# Poissons Ratio (y) = 0.39972 0.31667
# Poissons Ratio (z) = 0.19567 0.31598
#
# Static dielectric constant tensor:
#      x y z
#    x 1.585520 0.000000 -0.003250 
#    y 0.000000 1.578340 0.000000 
#    z -0.003250 0.000000 1.584800 
# 
# From -- ./inp_files/186714.got.cif
#   From: 2010.05.17/outbox.cif.g08.bks.cpg/sg12_94_cif.got.tgz:186714.got - 2010.06.03 13:09:07.
