data_PCOD9205343
_publ_section_title
;
Structure prediction by ZEFSAII (Michael W. Deem and Ramdas Pophale) SiO2 
 PCOD9205343
Probable space group: C 2/M
;
_chemical_formula_sum "Si O2"
_cell_formula_units_Z 50
_cell_length_a 25.113490
_cell_length_b 21.428920
_cell_length_c 4.820880
_cell_angle_alpha 90.000000
_cell_angle_beta 65.857997
_cell_angle_gamma 90.000000
_cell_volume 2367.461963
_symmetry_space_group_name_H-M "C 2/M"
_symmetry_group_IT_number 12
_symmetry_cell_setting 'monoclinic'
loop_
_space_group_symop_operation_xyz
x,y,z
-x,y,-z
-x,-y,-z
x,-y,z
1/2+x,1/2+y,z
1/2-x,1/2+y,-z
1/2-x,1/2-y,-z
1/2+x,1/2-y,z
loop_
_atom_site_type_symbol
_atom_site_label
_atom_site_fract_x
_atom_site_fract_y
_atom_site_fract_z
Si Si1 0.613748 0.571728 0.856056
Si Si2 0.219396 0.834849 0.595447
Si Si3 0.106313 0.568325 0.552074
Si Si4 0.342443 0.862558 0.063874
Si Si5 0.000000 0.500000 0.500000
Si Si6 0.435931 0.634365 0.533528
Si Si7 0.667531 0.729923 0.207489
O O1 0.617639 0.500000 0.775345
O O2 0.673833 0.608246 0.675993
O O3 0.567388 0.608715 0.768427
O O4 0.593392 0.581146 0.213436
O O5 0.280617 0.859318 0.353956
O O6 0.154484 0.703578 0.101694
O O7 0.213328 0.808509 0.918495
O O8 0.125154 0.500000 0.627251
O O9 0.042263 0.553630 0.561471
O O10 0.112234 0.618069 0.788126
O O11 0.146912 0.588422 0.207597
O O12 0.306036 0.721294 0.542491
O O13 0.500000 0.648169 0.500000
O O14 0.393194 0.692808 0.659469
#
# Coordination Sequence:
#
# PCOD9205343 Si02
#       7
#     8   8   8   8   2   8   8
#     4  10  21  35  54  81 112 158 196 236 303 352
#     4  10  21  37  58  87 131 157 187 260 307 355
#     4  10  24  41  65  87 123 161 202 257 314 360
#     4  12  21  38  66  96 112 161 214 238 297 402
#     4   8  24  50  64  82 140 166 192 274 328 346
#     4  10  21  37  55  78 116 151 195 251 293 341
#     4  10  21  38  59  87 124 160 195 246 319 357
#
# _framework density 21.119662000000002
#
# number of rings (size 3 to 8) (size 9 to 14) (size 15 to 20)
#    0.480    1.280    0.000    4.320    0.000    4.480 
#    1.440    0.000    7.040    0.000    0.000    0.000 
#    0.000    0.000    0.000    0.000    0.000    0.000 
#
# Total GULP energy -139281.135233 kJ/mol
# GULP energy per Si atom -5571.245409 kJ/mol
# Density = 2.107159 g / cm^3
# Si number density = 21.119662 Si / 1000 Ang^3
#
#
#
# Elastic Constant Matrix: (Units=GPa)
#
#
# Indices 1 2 3 4 5 6 
#
# 1 80.4648 42.0474 12.7757 0.0000 2.5434 0.0000
# 2 42.0474 64.1070 16.8065 0.0000 -8.4242 0.0000
# 3 12.7757 16.8065 66.5811 0.0000 14.3284 0.0000
# 4 0.0000 0.0000 0.0000 5.7503 0.0000 -9.8944
# 5 2.5434 -8.4242 14.3284 0.0000 28.3845 0.0000
# 6 0.0000 0.0000 0.0000 -9.8944 0.0000 1.6655
#
#
#
# Elastic Compliance Matrix: (Units=1/GPa)
#
#
# Indices 1 2 3 4 5 6 
#
# 1 0.019877 -0.014219 0.001197 0.000000 -0.006605 0.000000
# 2 -0.014219 0.028644 -0.007411 0.000000 0.013516 0.000000
# 3 0.001197 -0.007411 0.019248 0.000000 -0.012023 0.000000
# 4 0.000000 0.000000 0.000000 -0.018858 0.000000 -0.112026
# 5 -0.006605 0.013516 -0.012023 0.000000 0.045903 0.000000
# 6 0.000000 0.000000 0.000000 -0.112026 0.000000 -0.065106
#
#
# Mechanical properties :
#
#
# Convention : Reuss Voigt Hill
#
# Bulk Modulus (GPa) = 37.17134 39.37914 38.27524
# Shear Modulus (GPa) = 62.86144 16.46163 39.66153
#
# Velocity S-wave (km/s) = 5.46160 2.79488 4.33823
# Velocity P-wave (km/s) = 7.57698 5.39457 6.57693
#
# Compressibility (1/GPa) = 0.02690245
#
# Stress axis : x y z
#
# Youngs Moduli (GPa) = 50.31045 34.91166 51.95435
#
# Poissons Ratio (x) = 0.49639 -0.06216
# Poissons Ratio (y) = 0.71534 0.38502
# Poissons Ratio (z) = -0.06020 0.25872
#
# Static dielectric constant tensor:
#      x y z
#    x 1.767460 0.000000 0.010850 
#    y 0.000000 1.752030 0.000000 
#    z 0.010850 0.000000 1.763340 
# 
# From -- ./inp_files/28478.got.cif
#   From: 2010.05.17/outbox.cif.g08.bks.cpg/sg12_15_cif.got.tgz:28478.got - 2010.06.03 13:09:07.
