data_PCOD9205560
_publ_section_title
;
Structure prediction by ZEFSAII (Michael W. Deem and Ramdas Pophale) SiO2 
 PCOD9205560
Probable space group: C 2/M
;
_chemical_formula_sum "Si O2"
_cell_formula_units_Z 40
_cell_length_a 8.561374
_cell_length_b 24.308578
_cell_length_c 14.097666
_cell_angle_alpha 90.000000
_cell_angle_beta 141.863495
_cell_angle_gamma 90.000000
_cell_volume 1811.812773
_symmetry_space_group_name_H-M "C 2/M"
_symmetry_group_IT_number 12
_symmetry_cell_setting 'monoclinic'
loop_
_space_group_symop_operation_xyz
x,y,z
-x,y,-z
-x,-y,-z
x,-y,z
1/2+x,1/2+y,z
1/2-x,1/2+y,-z
1/2-x,1/2-y,-z
1/2+x,1/2-y,z
loop_
_atom_site_type_symbol
_atom_site_label
_atom_site_fract_x
_atom_site_fract_y
_atom_site_fract_z
Si Si1 0.554714 0.301352 0.915002
Si Si2 0.303280 0.869930 0.667502
Si Si3 0.357307 0.640583 0.213537
Si Si4 0.020231 0.735038 0.674457
Si Si5 0.701816 0.938671 0.513009
O O1 0.664763 0.353269 0.910060
O O2 0.268003 0.288721 0.738006
O O3 0.500000 0.310336 0.000000
O O4 0.750000 0.250000 0.000000
O O5 0.322483 0.881963 0.788541
O O6 0.444339 0.813604 0.709893
O O7 0.389887 0.915325 0.632473
O O8 0.000000 0.862516 0.500000
O O9 0.376777 0.705739 0.244713
O O10 0.604683 0.605961 0.354426
O O11 0.750000 0.750000 0.500000
O O12 0.500000 0.942397 0.500000
O O13 0.811107 0.000000 0.550510
#
# Coordination Sequence:
#
# PCOD9205560 Si02
#       5
#     8   8   8   8   8
#     4  12  27  42  57  89 137 182 217 261 320 389
#     4  10  21  35  57  95 128 165 203 262 328 384
#     4  11  23  36  61  89 129 172 214 261 322 386
#     4  12  22  38  64  94 133 170 213 261 328 396
#     4  10  21  38  61  94 133 166 208 270 339 391
#
# _framework density 22.077338000000001
#
# number of rings (size 3 to 8) (size 9 to 14) (size 15 to 20)
#    0.000    1.000    6.000    2.400    0.000    3.600 
#    0.000    0.000    0.000    0.600    0.000    2.800 
#    0.000    0.000    0.000    0.000    0.000    0.000 
#
# Total GULP energy -111384.171316 kJ/mol
# GULP energy per Si atom -5569.208566 kJ/mol
# Density = 2.202709 g / cm^3
# Si number density = 22.077338 Si / 1000 Ang^3
#
#
#
# Elastic Constant Matrix: (Units=GPa)
#
#
# Indices 1 2 3 4 5 6 
#
# 1 172.4928 34.8853 50.4217 0.0000 -31.3462 0.0000
# 2 34.8853 86.2836 5.9011 0.0000 -21.2448 0.0000
# 3 50.4217 5.9011 81.9118 0.0000 5.7480 0.0000
# 4 0.0000 0.0000 0.0000 2.1119 0.0000 -4.2182
# 5 -31.3462 -21.2448 5.7480 0.0000 49.1798 0.0000
# 6 0.0000 0.0000 0.0000 -4.2182 0.0000 24.2852
#
#
#
# Elastic Compliance Matrix: (Units=1/GPa)
#
#
# Indices 1 2 3 4 5 6 
#
# 1 0.008830 -0.001826 -0.005690 0.000000 0.005505 0.000000
# 2 -0.001826 0.013494 -0.000177 0.000000 0.004686 0.000000
# 3 -0.005690 -0.000177 0.016116 0.000000 -0.005587 0.000000
# 4 0.000000 0.000000 0.000000 0.725061 0.000000 0.125940
# 5 0.005505 0.004686 -0.005587 0.000000 0.026519 0.000000
# 6 0.000000 0.000000 0.000000 0.125940 0.000000 0.063053
#
#
# Mechanical properties :
#
#
# Convention : Reuss Voigt Hill
#
# Bulk Modulus (GPa) = 43.37723 58.12270 50.74996
# Shear Modulus (GPa) = 5.70683 31.74740 18.72712
#
# Velocity S-wave (km/s) = 1.60951 3.79622 2.91563
# Velocity P-wave (km/s) = 4.81088 6.75271 5.86275
#
# Compressibility (1/GPa) = 0.02305357
#
# Stress axis : x y z
#
# Youngs Moduli (GPa) = 113.24732 74.10842 62.05095
#
# Poissons Ratio (x) = 0.13529 0.35309
# Poissons Ratio (y) = 0.20675 0.01099
# Poissons Ratio (z) = 0.64441 0.01313
#
# Static dielectric constant tensor:
#      x y z
#    x 1.970020 0.000000 -0.070630 
#    y 0.000000 1.740010 0.000000 
#    z -0.070630 0.000000 2.035540 
# 
# From -- ./inp_files/198686.got.cif
#   From: 2010.05.17/outbox.cif.g08.bks.cpg/sg12_100_cif.got.tgz:198686.got - 2010.06.03 13:09:07.
