data_PCOD9205819
_publ_section_title
;
Structure prediction by ZEFSAII (Michael W. Deem and Ramdas Pophale) SiO2 
 PCOD9205819
Probable space group: C 2/M
;
_chemical_formula_sum "Si O2"
_cell_formula_units_Z 50
_cell_length_a 14.752029
_cell_length_b 12.007494
_cell_length_c 24.727352
_cell_angle_alpha 90.000000
_cell_angle_beta 145.619989
_cell_angle_gamma 90.000000
_cell_volume 2473.337985
_symmetry_space_group_name_H-M "C 2/M"
_symmetry_group_IT_number 12
_symmetry_cell_setting 'monoclinic'
loop_
_space_group_symop_operation_xyz
x,y,z
-x,y,-z
-x,-y,-z
x,-y,z
1/2+x,1/2+y,z
1/2-x,1/2+y,-z
1/2-x,1/2-y,-z
1/2+x,1/2-y,z
loop_
_atom_site_type_symbol
_atom_site_label
_atom_site_fract_x
_atom_site_fract_y
_atom_site_fract_z
Si Si1 0.968829 0.872778 0.112415
Si Si2 0.846393 0.296044 0.871433
Si Si3 0.000000 0.500000 0.000000
Si Si4 0.766467 0.624748 0.095226
Si Si5 0.582071 0.755767 0.265100
Si Si6 0.409237 0.630775 0.398555
Si Si7 0.012828 0.869329 0.334485
O O1 0.082432 0.787049 0.137438
O O2 0.988165 0.839204 0.184211
O O3 0.020962 0.000000 0.131226
O O4 0.796554 0.864247 0.997484
O O5 0.818220 0.218836 0.910441
O O6 0.674018 0.346158 0.771040
O O7 0.958310 0.401319 0.935922
O O8 0.720401 0.500000 0.090217
O O9 0.954884 0.643671 0.197239
O O10 0.750850 0.793673 0.323895
O O11 0.602836 0.709115 0.335905
O O12 0.500000 0.641274 0.500000
O O13 0.363683 0.500000 0.369182
O O14 0.521741 0.658264 0.402543
O O15 0.051264 0.000000 0.345255
#
# Coordination Sequence:
#
# PCOD9205819 Si02
#       7
#     8   8   2   8   8   8   8
#     4  11  21  36  55  84 124 168 207 246 300 365
#     4  11  20  34  56  85 119 168 206 254 294 351
#     4  12  20  32  54  92 122 160 224 250 286 356
#     4  10  21  36  53  83 122 163 207 249 293 353
#     4  11  22  37  61  90 121 160 207 249 311 362
#     4  10  22  42  67  91 117 155 203 257 316 377
#     4  10  21  38  60  88 123 157 199 256 310 361
#
# _framework density 20.215596000000001
#
# number of rings (size 3 to 8) (size 9 to 14) (size 15 to 20)
#    0.000    1.440    4.000    1.920    0.000    1.920 
#    1.440    0.000    0.000    1.920    0.000    0.000 
#    0.000    0.000    0.000    0.000    0.000    0.000 
#
# Total GULP energy -139230.053000 kJ/mol
# GULP energy per Si atom -5569.202120 kJ/mol
# Density = 2.016958 g / cm^3
# Si number density = 20.215596 Si / 1000 Ang^3
#
#
#
# Elastic Constant Matrix: (Units=GPa)
#
#
# Indices 1 2 3 4 5 6 
#
# 1 67.5025 32.5751 16.9003 0.0000 -21.2632 0.0000
# 2 32.5751 129.8666 23.0529 0.0000 -14.1477 0.0000
# 3 16.9003 23.0529 50.9709 0.0001 -25.0679 0.0000
# 4 0.0000 0.0000 0.0001 17.3253 0.0000 -6.1699
# 5 -21.2632 -14.1477 -25.0679 0.0000 31.2092 0.0000
# 6 0.0000 0.0000 0.0000 -6.1699 0.0000 17.6941
#
#
#
# Elastic Compliance Matrix: (Units=1/GPa)
#
#
# Indices 1 2 3 4 5 6 
#
# 1 0.020589 -0.003979 0.001628 0.000000 0.013531 0.000000
# 2 -0.003979 0.009171 -0.003500 0.000000 -0.001365 0.000000
# 3 0.001628 -0.003500 0.033766 0.000000 0.026644 0.000000
# 4 0.000000 0.000000 0.000000 0.065903 0.000000 0.022980
# 5 0.013531 -0.001365 0.026644 0.000000 0.062044 0.000000
# 6 0.000000 0.000000 0.000000 0.022980 0.000000 0.064529
#
#
# Mechanical properties :
#
#
# Convention : Reuss Voigt Hill
#
# Bulk Modulus (GPa) = 19.29603 43.71072 31.50338
# Shear Modulus (GPa) = 17.54519 24.96652 21.25586
#
# Velocity S-wave (km/s) = 2.94922 3.51809 3.24614
# Velocity P-wave (km/s) = 4.60033 6.17833 5.44678
#
# Compressibility (1/GPa) = 0.05182412
#
# Stress axis : x y z
#
# Youngs Moduli (GPa) = 48.56857 109.04042 29.61569
#
# Poissons Ratio (x) = 0.43391 -0.04821
# Poissons Ratio (y) = 0.19327 0.10364
# Poissons Ratio (z) = -0.07906 0.38159
#
# Static dielectric constant tensor:
#      x y z
#    x 1.761640 0.000000 -0.034830 
#    y 0.000000 1.689000 0.000000 
#    z -0.034830 0.000000 1.754240 
# 
# From -- ./inp_files/213486.got.cif
#   From: 2010.05.17/outbox.cif.g08.bks.cpg/sg12_107_cif.got.tgz:213486.got - 2010.06.03 13:09:07.
