data_PCOD9205953
_publ_section_title
;
Structure prediction by ZEFSAII (Michael W. Deem and Ramdas Pophale) SiO2 
 PCOD9205953
Probable space group: C 2/M
;
_chemical_formula_sum "Si O2"
_cell_formula_units_Z 52
_cell_length_a 5.673283
_cell_length_b 28.263962
_cell_length_c 17.150333
_cell_angle_alpha 90.000000
_cell_angle_beta 88.815649
_cell_angle_gamma 90.000000
_cell_volume 2749.459049
_symmetry_space_group_name_H-M "C 2/M"
_symmetry_group_IT_number 12
_symmetry_cell_setting 'monoclinic'
loop_
_space_group_symop_operation_xyz
x,y,z
-x,y,-z
-x,-y,-z
x,-y,z
1/2+x,1/2+y,z
1/2-x,1/2+y,-z
1/2-x,1/2-y,-z
1/2+x,1/2-y,z
loop_
_atom_site_type_symbol
_atom_site_label
_atom_site_fract_x
_atom_site_fract_y
_atom_site_fract_z
Si Si1 0.606854 0.053599 0.293713
Si Si2 0.464392 0.446711 0.144306
Si Si3 0.752875 0.056112 0.467516
Si Si4 0.645935 0.273548 0.168683
Si Si5 0.000000 0.791838 0.000000
Si Si6 0.177183 0.627694 0.068598
Si Si7 0.828012 0.374199 0.206119
O O1 0.792758 0.053683 0.221367
O O2 0.740774 0.059785 0.374252
O O3 0.426842 0.097149 0.280199
O O4 0.496825 0.000000 0.295582
O O5 0.527244 0.500000 0.125198
O O6 0.325118 0.419549 0.078619
O O7 0.687707 0.415061 0.162142
O O8 0.500000 0.075243 0.500000
O O9 0.000000 0.075449 0.500000
O O10 0.751825 0.000000 0.488300
O O11 0.390240 0.252092 0.192595
O O12 0.645362 0.270569 0.072659
O O13 0.670968 0.326793 0.203871
O O14 0.829848 0.827460 0.046752
O O15 0.048065 0.638800 0.150246
O O16 0.000000 0.620978 0.000000
#
# Coordination Sequence:
#
# PCOD9205953 Si02
#       7
#     8   8   8   8   4   8   8
#     4   9  20  35  57  84 115 160 193 220 276 337
#     4  10  21  36  55  77 106 152 198 234 279 334
#     4   9  18  32  52  84 123 156 188 225 263 318
#     4  12  26  40  61  85 107 142 188 239 305 362
#     4  12  22  40  57  78 102 142 181 246 306 362
#     4  11  20  36  56  75 105 142 187 242 293 338
#     4  11  22  37  57  77 114 142 189 244 285 341
#
# _framework density 18.912811999999999
#
# number of rings (size 3 to 8) (size 9 to 14) (size 15 to 20)
#    0.000    1.538    3.077    1.846    4.308    0.923 
#    0.000    2.692    0.000    0.000    0.000    0.000 
#    0.000    3.692    0.000    0.000    0.000    0.000 
#
# Total GULP energy -144982.912381 kJ/mol
# GULP energy per Si atom -5576.265861 kJ/mol
# Density = 1.886977 g / cm^3
# Si number density = 18.912812 Si / 1000 Ang^3
#
#
#
# Elastic Constant Matrix: (Units=GPa)
#
#
# Indices 1 2 3 4 5 6 
#
# 1 107.6752 55.2012 20.6332 0.0000 21.2987 0.0000
# 2 55.2012 110.2139 26.4392 0.0000 18.0132 0.0000
# 3 20.6332 26.4392 47.2420 0.0000 14.0603 0.0000
# 4 0.0000 0.0000 0.0000 3.3436 0.0000 7.3366
# 5 21.2987 18.0132 14.0603 0.0000 20.4264 0.0000
# 6 0.0000 0.0000 0.0000 7.3366 0.0000 28.0560
#
#
#
# Elastic Compliance Matrix: (Units=1/GPa)
#
#
# Indices 1 2 3 4 5 6 
#
# 1 0.014006 -0.005375 -0.000218 0.000000 -0.009714 0.000000
# 2 -0.005375 0.013288 -0.004112 0.000000 -0.003283 0.000000
# 3 -0.000218 -0.004112 0.028193 0.000000 -0.015553 0.000000
# 4 0.000000 0.000000 0.000000 0.701713 0.000000 -0.183498
# 5 -0.009714 -0.003283 -0.015553 0.000000 0.072686 0.000000
# 6 0.000000 0.000000 0.000000 -0.183498 0.000000 0.083628
#
#
# Mechanical properties :
#
#
# Convention : Reuss Voigt Hill
#
# Bulk Modulus (GPa) = 27.71816 52.18648 39.95232
# Shear Modulus (GPa) = 5.29128 21.22237 13.25683
#
# Velocity S-wave (km/s) = 1.67445 3.35343 2.65041
# Velocity P-wave (km/s) = 4.29255 6.53048 5.52599
#
# Compressibility (1/GPa) = 0.03607743
#
# Stress axis : x y z
#
# Youngs Moduli (GPa) = 71.39773 75.25312 35.46968
#
# Poissons Ratio (x) = 0.40449 0.00773
# Poissons Ratio (y) = 0.38377 0.14586
# Poissons Ratio (z) = 0.01556 0.30945
#
# Static dielectric constant tensor:
#      x y z
#    x 1.753860 0.000000 -0.002620 
#    y 0.000000 1.704130 0.000000 
#    z -0.002620 0.000000 1.640030 
# 
# From -- ./inp_files/253471.got.cif
#   From: 2010.05.17/outbox.cif.g08.bks.cpg/sg12_127_cif.got.tgz:253471.got - 2010.06.03 13:09:07.
