data_PCOD9205846
_publ_section_title
;
Structure prediction by ZEFSAII (Michael W. Deem and Ramdas Pophale) SiO2 
 PCOD9205846
Probable space group: C 2/M
;
_chemical_formula_sum "Si O2"
_cell_formula_units_Z 64
_cell_length_a 9.376344
_cell_length_b 26.650532
_cell_length_c 13.165096
_cell_angle_alpha 90.000000
_cell_angle_beta 93.532926
_cell_angle_gamma 90.000000
_cell_volume 3283.502156
_symmetry_space_group_name_H-M "C 2/M"
_symmetry_group_IT_number 12
_symmetry_cell_setting 'monoclinic'
loop_
_space_group_symop_operation_xyz
x,y,z
-x,y,-z
-x,-y,-z
x,-y,z
1/2+x,1/2+y,z
1/2-x,1/2+y,-z
1/2-x,1/2-y,-z
1/2+x,1/2-y,z
loop_
_atom_site_type_symbol
_atom_site_label
_atom_site_fract_x
_atom_site_fract_y
_atom_site_fract_z
Si Si1 0.337392 0.701452 0.380139
Si Si2 0.941281 0.057642 0.300237
Si Si3 0.853277 0.559424 0.055047
Si Si4 0.845733 0.602980 0.279538
Si Si5 0.187877 0.943260 0.439863
Si Si6 0.173877 0.397233 0.359943
Si Si7 0.829042 0.195713 0.626470
Si Si8 0.105239 0.941979 0.911397
O O1 0.246949 0.655148 0.334274
O O2 0.258477 0.753552 0.353342
O O3 0.328229 0.693174 0.502517
O O4 0.500308 0.700011 0.347113
O O5 0.033205 0.079102 0.397920
O O6 0.771707 0.062626 0.305288
O O7 0.968707 0.080568 0.191205
O O8 0.986480 0.000000 0.304271
O O9 0.817608 0.500000 0.075360
O O10 0.848189 0.590120 0.160065
O O11 0.744512 0.581346 0.966418
O O12 0.000000 0.559532 0.000000
O O13 0.771618 0.557743 0.337476
O O14 0.753892 0.651014 0.317206
O O15 0.008777 0.605028 0.326590
O O16 0.284015 0.911913 0.522565
O O17 0.173125 0.000000 0.480079
O O18 0.140192 0.000000 0.884809
O O19 0.000000 0.943525 0.000000
#
# Coordination Sequence:
#
# PCOD9205846 Si02
#       8
#     8   8   8   8   8   8   8   8
#     4  10  21  38  60  84 116 153 192 241 293 350
#     4  10  21  36  54  77 110 152 199 246 296 352
#     4  10  21  37  57  83 118 157 202 255 303 345
#     4  12  23  36  56  85 118 158 201 244 298 356
#     4  11  23  36  51  76 116 161 201 240 289 351
#     4  12  23  34  53  80 117 160 193 235 284 352
#     4  10  21  38  61  85 114 151 192 245 297 348
#     4   9  17  32  53  75  99 137 190 249 299 338
#
# _framework density 19.491385000000001
#
# number of rings (size 3 to 8) (size 9 to 14) (size 15 to 20)
#    0.000    1.500    1.250    4.500    1.750    7.500 
#    0.000    0.000    0.000    0.000    0.000    8.750 
#    0.000    0.000    0.000    0.250    0.000    0.000 
#
# Total GULP energy -178279.866794 kJ/mol
# GULP energy per Si atom -5571.245837 kJ/mol
# Density = 1.944702 g / cm^3
# Si number density = 19.491385 Si / 1000 Ang^3
#
#
#
# Elastic Constant Matrix: (Units=GPa)
#
#
# Indices 1 2 3 4 5 6 
#
# 1 142.3792 42.5707 35.0828 0.0000 9.4046 0.0000
# 2 42.5707 97.5453 22.0646 0.0000 2.7189 0.0000
# 3 35.0828 22.0646 124.9945 0.0000 5.5998 0.0000
# 4 0.0000 0.0000 0.0000 20.0869 0.0000 -10.0587
# 5 9.4046 2.7189 5.5998 0.0000 28.6002 0.0000
# 6 0.0000 0.0000 0.0000 -10.0587 0.0000 35.0018
#
#
#
# Elastic Compliance Matrix: (Units=1/GPa)
#
#
# Indices 1 2 3 4 5 6 
#
# 1 0.008577 -0.003292 -0.001729 0.000000 -0.002169 0.000000
# 2 -0.003292 0.011953 -0.001194 0.000000 0.000180 0.000000
# 3 -0.001729 -0.001194 0.008743 0.000000 -0.001030 0.000000
# 4 0.000000 0.000000 0.000000 0.058152 0.000000 0.016712
# 5 -0.002169 0.000180 -0.001030 0.000000 0.035863 0.000000
# 6 0.000000 0.000000 0.000000 0.016712 0.000000 0.033373
#
#
# Mechanical properties :
#
#
# Convention : Reuss Voigt Hill
#
# Bulk Modulus (GPa) = 59.37196 62.70614 61.03905
# Shear Modulus (GPa) = 28.61975 34.41781 31.51878
#
# Velocity S-wave (km/s) = 3.83603 4.20670 4.02563
# Velocity P-wave (km/s) = 7.08145 7.47236 7.27953
#
# Compressibility (1/GPa) = 0.01684297
#
# Stress axis : x y z
#
# Youngs Moduli (GPa) = 116.59096 83.65905 114.38217
#
# Poissons Ratio (x) = 0.27537 0.19778
# Poissons Ratio (y) = 0.38377 0.13660
# Poissons Ratio (z) = 0.20160 0.09991
#
# Static dielectric constant tensor:
#      x y z
#    x 1.675600 0.000000 -0.019880 
#    y 0.000000 1.708780 0.000000 
#    z -0.019880 0.000000 1.747650 
# 
# From -- ./inp_files/125747.got.cif
#   From: 2010.05.17/outbox.cif.g08.bks.cpg/sg12_63_cif.got.tgz:125747.got - 2010.06.03 13:09:07.
