data_PCOD9205064
_publ_section_title
;
Structure prediction by ZEFSAII (Michael W. Deem and Ramdas Pophale) SiO2 
 PCOD9205064
Probable space group: C 2/M
;
_chemical_formula_sum "Si O2"
_cell_formula_units_Z 48
_cell_length_a 26.722443
_cell_length_b 17.644424
_cell_length_c 12.870167
_cell_angle_alpha 90.000000
_cell_angle_beta 22.827476
_cell_angle_gamma 90.000000
_cell_volume 2354.247465
_symmetry_space_group_name_H-M "C 2/M"
_symmetry_group_IT_number 12
_symmetry_cell_setting 'monoclinic'
loop_
_space_group_symop_operation_xyz
x,y,z
-x,y,-z
-x,-y,-z
x,-y,z
1/2+x,1/2+y,z
1/2-x,1/2+y,-z
1/2-x,1/2-y,-z
1/2+x,1/2-y,z
loop_
_atom_site_type_symbol
_atom_site_label
_atom_site_fract_x
_atom_site_fract_y
_atom_site_fract_z
Si Si1 0.535629 0.185682 0.657168
Si Si2 0.220376 0.085950 0.437248
Si Si3 0.974991 0.808714 0.931390
Si Si4 0.684063 0.086571 0.976873
Si Si5 0.221922 0.410157 0.444148
Si Si6 0.641492 0.712453 0.280008
O O1 0.456853 0.243184 0.882009
O O2 0.615353 0.129792 0.578200
O O3 0.627384 0.236671 0.410076
O O4 0.441951 0.136991 0.763312
O O5 0.103585 0.144746 0.656498
O O6 0.299076 0.087848 0.180564
O O7 0.300234 0.100136 0.389659
O O8 0.167085 0.000000 0.550239
O O9 0.000000 0.777981 0.000000
O O10 0.856161 0.866813 0.164482
O O11 0.806091 0.129459 0.791155
O O12 0.672457 0.000000 0.033210
O O13 0.229915 0.500000 0.407912
O O14 0.500000 0.709007 0.500000
O O15 0.750000 0.750000 0.000000
#
# Coordination Sequence:
#
# PCOD9205064 Si02
#       6
#     8   8   8   8   8   8
#     4  12  24  40  65  95 132 167 218 269 330 385
#     4   9  19  37  61  92 134 174 210 258 315 390
#     4  10  21  34  60  92 130 168 217 262 314 383
#     4  11  24  43  67  98 132 170 215 270 332 393
#     4  10  22  38  59  92 134 177 211 250 319 396
#     4  12  26  49  74  96 128 170 225 284 338 383
#
# _framework density 20.388680000000001
#
# number of rings (size 3 to 8) (size 9 to 14) (size 15 to 20)
#    0.000    1.333    3.333    2.000    2.333    3.667 
#    0.000    5.000    0.000    0.000    0.000    0.000 
#    0.000    0.000    0.000    0.000    0.000    0.000 
#
# Total GULP energy -134145.274809 kJ/mol
# GULP energy per Si atom -5589.386450 kJ/mol
# Density = 2.034227 g / cm^3
# Si number density = 20.388680 Si / 1000 Ang^3
#
#
#
# Elastic Constant Matrix: (Units=GPa)
#
#
# Indices 1 2 3 4 5 6 
#
# 1 65.2520 38.3274 14.2043 0.0002 -15.2371 -0.0003
# 2 38.3274 130.5607 18.2882 0.0000 -9.5995 0.0000
# 3 14.2043 18.2882 36.1856 -0.0001 -9.2718 0.0001
# 4 0.0002 0.0000 -0.0001 -64.0739 0.0000 109.9748
# 5 -15.2371 -9.5995 -9.2718 0.0000 38.1041 -0.0001
# 6 -0.0003 0.0000 0.0001 109.9748 -0.0001 -128.9510
#
#
#
# Elastic Compliance Matrix: (Units=1/GPa)
#
#
# Indices 1 2 3 4 5 6 
#
# 1 0.020546 -0.005033 -0.003990 0.000000 0.005977 0.000000
# 2 -0.005033 0.009522 -0.002920 0.000000 -0.000324 0.000000
# 3 -0.003990 -0.002920 0.032080 0.000000 0.005475 0.000000
# 4 0.000000 0.000000 0.000000 0.033651 0.000000 0.028699
# 5 0.005977 -0.000324 0.005475 0.000000 0.029885 0.000000
# 6 0.000000 0.000000 0.000000 0.028699 0.000000 0.016720
#
#
# Mechanical properties :
#
#
# Convention : Reuss Voigt Hill
#
# Bulk Modulus (GPa) = 26.13538 41.51534 33.82536
# Shear Modulus (GPa) = 27.92632 -20.23891 3.84370
#
# Velocity S-wave (km/s) = 3.70496 -3.15406 1.37452
# Velocity P-wave (km/s) = 5.58110 2.67246 4.37554
#
# Compressibility (1/GPa) = 0.03826231
#
# Stress axis : x y z
#
# Youngs Moduli (GPa) = 48.67193 105.02079 31.17211
#
# Poissons Ratio (x) = 0.52858 0.12437
# Poissons Ratio (y) = 0.24497 0.09102
# Poissons Ratio (z) = 0.19419 0.30664
#
# Static dielectric constant tensor:
#      x y z
#    x 1.729220 0.000000 0.001010 
#    y 0.000000 1.710090 0.000000 
#    z 0.001010 0.000000 1.715250 
# 
# From -- ./inp_files/205137.got.cif
#   From: 2010.05.17/outbox.cif.g08.bks.cpg/sg12_103_cif.got.tgz:205137.got - 2010.06.03 13:09:07.
