data_PCOD9205073
_publ_section_title
;
Structure prediction by ZEFSAII (Michael W. Deem and Ramdas Pophale) SiO2 
 PCOD9205073
Probable space group: C 2/M
;
_chemical_formula_sum "Si O2"
_cell_formula_units_Z 32
_cell_length_a 18.201455
_cell_length_b 12.200917
_cell_length_c 14.718072
_cell_angle_alpha 90.000000
_cell_angle_beta 148.486235
_cell_angle_gamma 90.000000
_cell_volume 1708.460021
_symmetry_space_group_name_H-M "C 2/M"
_symmetry_group_IT_number 12
_symmetry_cell_setting 'monoclinic'
loop_
_space_group_symop_operation_xyz
x,y,z
-x,y,-z
-x,-y,-z
x,-y,z
1/2+x,1/2+y,z
1/2-x,1/2+y,-z
1/2-x,1/2-y,-z
1/2+x,1/2-y,z
loop_
_atom_site_type_symbol
_atom_site_label
_atom_site_fract_x
_atom_site_fract_y
_atom_site_fract_z
Si Si1 0.321124 0.768123 0.974846
Si Si2 0.576492 0.123144 0.676397
Si Si3 0.413106 0.500000 0.540378
Si Si4 0.909227 0.773207 0.642458
Si Si5 0.269938 0.500000 0.201366
O O1 0.222741 0.686476 0.814865
O O2 0.301301 0.890212 0.914274
O O3 0.250000 0.750000 0.000000
O O4 0.482492 0.735431 0.159007
O O5 0.500000 0.118549 0.500000
O O6 0.476140 0.188372 0.640186
O O7 0.602613 0.000000 0.738741
O O8 0.408402 0.391883 0.595842
O O9 0.293412 0.500000 0.335409
O O10 0.569047 0.500000 0.662510
O O11 0.750000 0.750000 0.500000
#
# Coordination Sequence:
#
# PCOD9205073 Si02
#       5
#     8   8   4   8   4
#     4  10  21  34  62  87 119 151 201 243 287 349
#     4  10  21  38  61  85 116 153 196 242 289 350
#     4  11  22  39  65  87 122 156 198 250 300 351
#     4  11  25  38  59  89 124 154 193 245 303 353
#     4  11  20  39  65  93 112 155 212 250 284 350
#
# _framework density 18.730318
#
# number of rings (size 3 to 8) (size 9 to 14) (size 15 to 20)
#    0.000    1.500    5.000    1.500   10.500    0.000 
#    0.000    6.250    0.000    3.000    0.000    0.000 
#    0.000    0.000    0.000    0.000    0.000    0.000 
#
# Total GULP energy -89218.631912 kJ/mol
# GULP energy per Si atom -5576.164494 kJ/mol
# Density = 1.868769 g / cm^3
# Si number density = 18.730318 Si / 1000 Ang^3
#
#
#
# Elastic Constant Matrix: (Units=GPa)
#
#
# Indices 1 2 3 4 5 6 
#
# 1 30.7998 43.4944 45.7079 0.0000 12.9345 0.0000
# 2 43.4944 205.3939 81.1639 0.0000 -2.8354 0.0000
# 3 45.7079 81.1639 176.2921 0.0000 9.2097 0.0000
# 4 0.0000 0.0000 0.0000 39.0564 0.0000 -16.0897
# 5 12.9345 -2.8354 9.2097 0.0000 35.9118 0.0000
# 6 0.0000 0.0000 0.0000 -16.0897 0.0000 12.2588
#
#
#
# Elastic Compliance Matrix: (Units=1/GPa)
#
#
# Indices 1 2 3 4 5 6 
#
# 1 0.082034 -0.012091 -0.014301 0.000000 -0.026834 0.000000
# 2 -0.012091 0.007784 -0.000718 0.000000 0.005154 0.000000
# 3 -0.014301 -0.000718 0.009573 0.000000 0.002639 0.000000
# 4 0.000000 0.000000 0.000000 0.055746 0.000000 0.073166
# 5 -0.026834 0.005154 0.002639 0.000000 0.037241 0.000000
# 6 0.000000 0.000000 0.000000 0.073166 0.000000 0.177605
#
#
# Mechanical properties :
#
#
# Convention : Reuss Voigt Hill
#
# Bulk Modulus (GPa) = 22.13801 83.69092 52.91447
# Shear Modulus (GPa) = 11.38281 33.58669 22.48475
#
# Velocity S-wave (km/s) = 2.46787 4.23918 3.46851
# Velocity P-wave (km/s) = 4.46828 8.29095 6.65979
#
# Compressibility (1/GPa) = 0.04517117
#
# Stress axis : x y z
#
# Youngs Moduli (GPa) = 12.19010 128.46915 104.46084
#
# Poissons Ratio (x) = 1.55330 1.49388
# Poissons Ratio (y) = 0.14739 0.07501
# Poissons Ratio (z) = 0.17433 0.09225
#
# Static dielectric constant tensor:
#      x y z
#    x 1.666500 0.000000 -0.065100 
#    y 0.000000 1.673470 0.000000 
#    z -0.065100 0.000000 1.759250 
# 
# From -- ./inp_files/56941.got.cif
#   From: 2010.05.17/outbox.cif.g08.bks.cpg/sg12_29_cif.got.tgz:56941.got - 2010.06.03 13:09:07.
