data_PCOD9205909
_publ_section_title
;
Structure prediction by ZEFSAII (Michael W. Deem and Ramdas Pophale) SiO2 
 PCOD9205909
Probable space group: C 2/M
;
_chemical_formula_sum "Si O2"
_cell_formula_units_Z 50
_cell_length_a 9.824528
_cell_length_b 7.445079
_cell_length_c 30.683220
_cell_angle_alpha 90.000000
_cell_angle_beta 116.753873
_cell_angle_gamma 90.000000
_cell_volume 2004.049106
_symmetry_space_group_name_H-M "C 2/M"
_symmetry_group_IT_number 12
_symmetry_cell_setting 'monoclinic'
loop_
_space_group_symop_operation_xyz
x,y,z
-x,y,-z
-x,-y,-z
x,-y,z
1/2+x,1/2+y,z
1/2-x,1/2+y,-z
1/2-x,1/2-y,-z
1/2+x,1/2-y,z
loop_
_atom_site_type_symbol
_atom_site_label
_atom_site_fract_x
_atom_site_fract_y
_atom_site_fract_z
Si Si1 0.518553 0.781750 0.897469
Si Si2 0.039068 0.708203 0.802430
Si Si3 0.101674 0.704584 0.579890
Si Si4 0.065921 0.283659 0.358511
Si Si5 0.350324 0.708293 0.956304
Si Si6 0.295426 0.218060 0.256298
Si Si7 0.000000 0.000000 0.500000
O O1 0.517961 0.715126 0.847703
O O2 0.384609 0.718150 0.909551
O O3 0.681908 0.719538 0.940493
O O4 0.514160 0.000000 0.896950
O O5 0.079162 0.500000 0.814289
O O6 0.872900 0.718880 0.756184
O O7 0.160546 0.784077 0.785992
O O8 0.070865 0.500000 0.562269
O O9 0.267055 0.710217 0.626601
O O10 0.979008 0.763328 0.598388
O O11 0.095954 0.842825 0.539873
O O12 0.071214 0.500000 0.356326
O O13 0.929824 0.222061 0.307661
O O14 0.345224 0.500000 0.968366
O O15 0.500000 0.792496 0.000000
O O16 0.294104 0.000000 0.256105
#
# Coordination Sequence:
#
# PCOD9205909 Si02
#       7
#     8   8   8   8   8   8   2
#     4  10  21  36  54  80 118 151 192 248 296 359
#     4  10  21  36  55  87 119 156 196 240 301 357
#     4  11  25  44  68  98 129 171 215 261 316 379
#     4  10  22  43  65  96 129 163 210 260 309 369
#     4  10  21  37  57  81 108 149 199 248 302 360
#     4  10  21  38  63  89 122 158 198 246 295 360
#     4  12  26  48  68  96 136 172 210 270 320 370
#
# _framework density 24.949486
#
# number of rings (size 3 to 8) (size 9 to 14) (size 15 to 20)
#    0.000    1.760    0.800    2.640    1.120    4.800 
#    0.000    0.000    0.000    0.000    0.000    0.000 
#    0.000    0.000    0.000    0.000    0.000    0.000 
#
# Total GULP energy -139678.320316 kJ/mol
# GULP energy per Si atom -5587.132813 kJ/mol
# Density = 2.489270 g / cm^3
# Si number density = 24.949486 Si / 1000 Ang^3
#
#
#
# Elastic Constant Matrix: (Units=GPa)
#
#
# Indices 1 2 3 4 5 6 
#
# 1 92.4429 -3.6716 0.0654 0.0000 -30.2213 0.0000
# 2 -3.6716 103.2327 10.9380 0.0000 0.8246 0.0000
# 3 0.0654 10.9380 52.1280 0.0000 51.2282 0.0000
# 4 0.0000 0.0000 0.0000 16.4869 0.0000 6.4636
# 5 -30.2213 0.8246 51.2282 0.0000 -70.0334 0.0000
# 6 0.0000 0.0000 0.0000 6.4636 0.0000 0.4764
#
#
#
# Elastic Compliance Matrix: (Units=1/GPa)
#
#
# Indices 1 2 3 4 5 6 
#
# 1 0.009995 0.000117 0.002444 0.000000 -0.002524 0.000000
# 2 0.000117 0.009829 -0.001237 0.000000 -0.000840 0.000000
# 3 0.002444 -0.001237 0.011921 0.000000 0.007651 0.000000
# 4 0.000000 0.000000 0.000000 -0.014042 0.000000 0.190531
# 5 -0.002524 -0.000840 0.007651 0.000000 -0.007603 0.000000
# 6 0.000000 0.000000 0.000000 0.190531 0.000000 -0.485992
#
#
# Mechanical properties :
#
#
# Convention : Reuss Voigt Hill
#
# Bulk Modulus (GPa) = 29.07707 29.16301 29.12004
# Shear Modulus (GPa) = -10.70492 5.41742 -2.64375
#
# Velocity S-wave (km/s) = -2.07363 1.47515 -1.03051
# Velocity P-wave (km/s) = 2.43853 3.82304 3.20640
#
# Compressibility (1/GPa) = 0.03439136
#
# Stress axis : x y z
#
# Youngs Moduli (GPa) = 100.04844 101.74168 83.88454
#
# Poissons Ratio (x) = -0.01188 -0.20499
# Poissons Ratio (y) = -0.01168 0.10379
# Poissons Ratio (z) = -0.24449 0.12589
#
# Static dielectric constant tensor:
#      x y z
#    x 1.904300 0.000000 -0.007280 
#    y 0.000000 1.880470 0.000000 
#    z -0.007280 0.000000 2.032630 
# 
# From -- ./inp_files/373485.got.cif
#   From: 2010.05.17/outbox.cif.g08.bks.cpg/sg12_187_cif.got.tgz:373485.got - 2010.06.03 13:09:07.
