data_PCOD9205908
_publ_section_title
;
Structure prediction by ZEFSAII (Michael W. Deem and Ramdas Pophale) SiO2 
 PCOD9205908
Probable space group: C 2/M
;
_chemical_formula_sum "Si O2"
_cell_formula_units_Z 56
_cell_length_a 19.742499
_cell_length_b 16.905707
_cell_length_c 8.055820
_cell_angle_alpha 90.000000
_cell_angle_beta 94.378665
_cell_angle_gamma 90.000000
_cell_volume 2680.870069
_symmetry_space_group_name_H-M "C 2/M"
_symmetry_group_IT_number 12
_symmetry_cell_setting 'monoclinic'
loop_
_space_group_symop_operation_xyz
x,y,z
-x,y,-z
-x,-y,-z
x,-y,z
1/2+x,1/2+y,z
1/2-x,1/2+y,-z
1/2-x,1/2-y,-z
1/2+x,1/2-y,z
loop_
_atom_site_type_symbol
_atom_site_label
_atom_site_fract_x
_atom_site_fract_y
_atom_site_fract_z
Si Si1 0.213320 0.381484 0.660450
Si Si2 0.142883 0.910984 0.129696
Si Si3 0.425661 0.588313 0.557723
Si Si4 0.234638 0.584695 0.281484
Si Si5 0.574267 0.264282 0.949592
Si Si6 0.623656 0.912822 0.969119
Si Si7 0.844702 0.790804 0.343357
O O1 0.286738 0.400661 0.754355
O O2 0.210248 0.411819 0.469624
O O3 0.194942 0.289629 0.631871
O O4 0.161437 0.409180 0.796151
O O5 0.080164 0.915070 0.246559
O O6 0.146046 0.000000 0.051057
O O7 0.127342 0.828917 0.032858
O O8 0.500000 0.602708 0.500000
O O9 0.404729 0.500000 0.494235
O O10 0.374739 0.657681 0.497234
O O11 0.268765 0.500000 0.267804
O O12 0.176464 0.588614 0.132369
O O13 0.287968 0.652713 0.255002
O O14 0.590326 0.273120 0.758458
O O15 0.500000 0.285119 0.000000
O O16 0.585529 0.170760 0.985037
O O17 0.589105 0.000000 0.970122
#
# Coordination Sequence:
#
# PCOD9205908 Si02
#       7
#     8   8   8   8   8   8   8
#     4  11  22  38  61  94 128 157 196 256 320 368
#     4  11  22  37  60  87 122 162 197 248 312 369
#     4  10  21  36  54  80 117 162 207 246 292 358
#     4  11  21  36  62  92 122 157 196 250 315 375
#     4  11  25  42  60  86 121 164 212 258 305 362
#     4  10  23  41  64  93 123 160 206 259 315 372
#     4  11  22  36  57  87 116 159 201 252 306 364
#
# _framework density 20.888739999999999
#
# number of rings (size 3 to 8) (size 9 to 14) (size 15 to 20)
#    0.000    1.286    1.429    4.714    2.000    5.143 
#    0.000    0.000    0.000    0.000    0.000    5.000 
#    0.000    0.000    0.000    0.000    0.000    0.000 
#
# Total GULP energy -155945.119783 kJ/mol
# GULP energy per Si atom -5569.468564 kJ/mol
# Density = 2.084120 g / cm^3
# Si number density = 20.888740 Si / 1000 Ang^3
#
#
#
# Elastic Constant Matrix: (Units=GPa)
#
#
# Indices 1 2 3 4 5 6 
#
# 1 44.8180 25.9778 23.8397 0.0000 -13.6748 0.0000
# 2 25.9778 193.9687 31.2250 0.0000 6.5564 0.0000
# 3 23.8397 31.2250 81.5158 0.0000 -8.2556 0.0000
# 4 0.0000 0.0000 0.0000 -45.5540 0.0000 37.8307
# 5 -13.6748 6.5564 -8.2556 0.0000 22.3301 0.0000
# 6 0.0000 0.0000 0.0000 37.8307 0.0000 12.2464
#
#
#
# Elastic Compliance Matrix: (Units=1/GPa)
#
#
# Indices 1 2 3 4 5 6 
#
# 1 0.034203 -0.004224 -0.006376 0.000000 0.019829 0.000000
# 2 -0.004224 0.006152 -0.001627 0.000000 -0.004995 0.000000
# 3 -0.006376 -0.001627 0.014969 0.000000 0.002107 0.000000
# 4 0.000000 0.000000 0.000000 -0.006157 0.000000 0.019020
# 5 0.019829 -0.004995 0.002107 0.000000 0.059171 0.000000
# 6 0.000000 0.000000 0.000000 0.019020 0.000000 0.022903
#
#
# Mechanical properties :
#
#
# Convention : Reuss Voigt Hill
#
# Bulk Modulus (GPa) = 32.39588 53.59861 42.99724
# Shear Modulus (GPa) = 30.12312 13.75516 21.93914
#
# Velocity S-wave (km/s) = 3.80159 2.56890 3.24433
# Velocity P-wave (km/s) = 5.90016 5.87485 5.88751
#
# Compressibility (1/GPa) = 0.03086812
#
# Stress axis : x y z
#
# Youngs Moduli (GPa) = 29.23732 162.54937 66.80490
#
# Poissons Ratio (x) = 0.68668 0.42598
# Poissons Ratio (y) = 0.12351 0.10869
# Poissons Ratio (z) = 0.18643 0.26446
#
# Static dielectric constant tensor:
#      x y z
#    x 1.764790 0.000000 -0.017350 
#    y 0.000000 1.754870 0.000000 
#    z -0.017350 0.000000 1.785060 
# 
# From -- ./inp_files/86354.got.cif
#   From: 2010.05.17/outbox.cif.g08.bks.cpg/sg12_44_cif.got.tgz:86354.got - 2010.06.03 13:09:07.
