data_PCOD9205203
_publ_section_title
;
Structure prediction by ZEFSAII (Michael W. Deem and Ramdas Pophale) SiO2 
 PCOD9205203
Probable space group: C 2/M
;
_chemical_formula_sum "Si O2"
_cell_formula_units_Z 56
_cell_length_a 11.180909
_cell_length_b 28.034458
_cell_length_c 12.540474
_cell_angle_alpha 90.000000
_cell_angle_beta 49.803871
_cell_angle_gamma 90.000000
_cell_volume 3002.516612
_symmetry_space_group_name_H-M "C 2/M"
_symmetry_group_IT_number 12
_symmetry_cell_setting 'monoclinic'
loop_
_space_group_symop_operation_xyz
x,y,z
-x,y,-z
-x,-y,-z
x,-y,z
1/2+x,1/2+y,z
1/2-x,1/2+y,-z
1/2-x,1/2-y,-z
1/2+x,1/2-y,z
loop_
_atom_site_type_symbol
_atom_site_label
_atom_site_fract_x
_atom_site_fract_y
_atom_site_fract_z
Si Si1 0.069061 0.640930 0.210918
Si Si2 0.362813 0.646595 0.887002
Si Si3 0.860094 0.783758 0.288703
Si Si4 0.106850 0.556412 0.337148
Si Si5 0.971297 0.055487 0.143058
Si Si6 0.951074 0.715667 0.421607
Si Si7 0.853528 0.690716 0.164347
O O1 0.065392 0.587456 0.257153
O O2 0.061547 0.672985 0.321766
O O3 0.923280 0.658430 0.221263
O O4 0.226804 0.650638 0.054100
O O5 0.515724 0.678322 0.824605
O O6 0.422063 0.592261 0.853852
O O7 0.283934 0.665180 0.822818
O O8 0.945803 0.750752 0.326637
O O9 0.717853 0.803912 0.442481
O O10 0.811939 0.743845 0.229326
O O11 0.090897 0.500000 0.324057
O O12 0.287482 0.565221 0.264258
O O13 0.000000 0.568483 0.500000
O O14 0.003845 0.000000 0.148597
O O15 0.000000 0.062694 0.000000
O O16 0.000000 0.742467 0.500000
O O17 0.000000 0.696248 0.000000
#
# Coordination Sequence:
#
# PCOD9205203 Si02
#       7
#     8   8   8   8   8   8   8
#     4  10  21  36  56  82 114 150 187 236 279 340
#     4  11  22  37  60  84 112 156 188 231 292 331
#     4  10  22  36  55  80 110 153 194 234 278 326
#     4  10  21  38  61  87 116 146 183 234 292 345
#     4  10  21  38  60  90 116 141 186 239 282 334
#     4  10  21  35  52  76 112 147 189 237 273 331
#     4   9  21  39  54  81 118 149 194 232 274 344
#
# _framework density 18.651021
#
# number of rings (size 3 to 8) (size 9 to 14) (size 15 to 20)
#    0.000    2.000    1.429    1.286    4.000    6.857 
#    0.000    0.714    0.000    2.571    0.000    3.000 
#    0.000    0.000    0.000    0.000    0.000    0.000 
#
# Total GULP energy -156103.472008 kJ/mol
# GULP energy per Si atom -5575.124000 kJ/mol
# Density = 1.860857 g / cm^3
# Si number density = 18.651021 Si / 1000 Ang^3
#
#
#
# Elastic Constant Matrix: (Units=GPa)
#
#
# Indices 1 2 3 4 5 6 
#
# 1 44.1332 50.1972 15.3723 0.0000 -1.6776 0.0000
# 2 50.1972 94.0451 50.9345 0.0000 0.0216 0.0000
# 3 15.3723 50.9345 72.2159 0.0000 -16.0849 0.0000
# 4 0.0000 0.0000 0.0000 26.5990 0.0000 -2.0443
# 5 -1.6776 0.0216 -16.0849 0.0000 30.9203 0.0000
# 6 0.0000 0.0000 0.0000 -2.0443 0.0000 27.9245
#
#
#
# Elastic Compliance Matrix: (Units=1/GPa)
#
#
# Indices 1 2 3 4 5 6 
#
# 1 0.078107 -0.056507 0.027351 0.000000 0.018505 0.000000
# 2 -0.056507 0.059609 -0.034731 0.000000 -0.021175 0.000000
# 3 0.027351 -0.034731 0.037163 0.000000 0.020841 0.000000
# 4 0.000000 0.000000 0.000000 0.037808 0.000000 0.002768
# 5 0.018505 -0.021175 0.020841 0.000000 0.044202 0.000000
# 6 0.000000 0.000000 0.000000 0.002768 0.000000 0.036013
#
#
# Mechanical properties :
#
#
# Convention : Reuss Voigt Hill
#
# Bulk Modulus (GPa) = 21.22946 49.26690 35.24818
# Shear Modulus (GPa) = 11.45791 23.34811 17.40301
#
# Velocity S-wave (km/s) = 2.48126 3.54197 3.05796
# Velocity P-wave (km/s) = 4.42900 6.57266 5.60428
#
# Compressibility (1/GPa) = 0.04710436
#
# Stress axis : x y z
#
# Youngs Moduli (GPa) = 12.80294 16.77588 26.90827
#
# Poissons Ratio (x) = 0.94796 -0.73596
# Poissons Ratio (y) = 0.72346 0.93455
# Poissons Ratio (z) = -0.35017 0.58264
#
# Static dielectric constant tensor:
#      x y z
#    x 1.708590 0.000000 -0.019110 
#    y 0.000000 1.651700 0.000000 
#    z -0.019110 0.000000 1.644370 
# 
# From -- ./inp_files/53282.got.cif
#   From: 2010.05.17/outbox.cif.g08.bks.cpg/sg12_27_cif.got.tgz:53282.got - 2010.06.03 13:09:07.
