data_PCOD9205621
_publ_section_title
;
Structure prediction by ZEFSAII (Michael W. Deem and Ramdas Pophale) SiO2 
 PCOD9205621
Probable space group: C 2/M
;
_chemical_formula_sum "Si O2"
_cell_formula_units_Z 58
_cell_length_a 14.460957
_cell_length_b 19.444124
_cell_length_c 14.669222
_cell_angle_alpha 90.000000
_cell_angle_beta 135.701319
_cell_angle_gamma 90.000000
_cell_volume 2880.686439
_symmetry_space_group_name_H-M "C 2/M"
_symmetry_group_IT_number 12
_symmetry_cell_setting 'monoclinic'
loop_
_space_group_symop_operation_xyz
x,y,z
-x,y,-z
-x,-y,-z
x,-y,z
1/2+x,1/2+y,z
1/2-x,1/2+y,-z
1/2-x,1/2-y,-z
1/2+x,1/2-y,z
loop_
_atom_site_type_symbol
_atom_site_label
_atom_site_fract_x
_atom_site_fract_y
_atom_site_fract_z
Si Si1 0.711008 0.269096 0.823441
Si Si2 0.430088 0.796468 0.126270
Si Si3 0.856608 0.145397 0.856956
Si Si4 0.747470 0.577508 0.042582
Si Si5 0.500000 0.000000 0.000000
Si Si6 0.467943 0.582702 0.755332
Si Si7 0.168651 0.624103 0.215971
Si Si8 0.104050 0.917518 0.497955
O O1 0.582096 0.251829 0.793298
O O2 0.747998 0.205502 0.784178
O O3 0.731535 0.339680 0.784961
O O4 0.831713 0.265942 0.981459
O O5 0.363018 0.868816 0.107004
O O6 0.567039 0.816652 0.177009
O O7 0.805298 0.087546 0.891896
O O8 0.884503 0.118265 0.776157
O O9 0.000000 0.166328 0.000000
O O10 0.791731 0.500000 0.054725
O O11 0.622538 0.593841 0.889602
O O12 0.407985 0.061390 0.886281
O O13 0.449267 0.500000 0.748483
O O14 0.427476 0.606221 0.626280
O O15 0.251949 0.599954 0.361719
O O16 0.000000 0.891493 0.500000
O O17 0.090423 0.000000 0.485726
#
# Coordination Sequence:
#
# PCOD9205621 Si02
#       8
#     8   8   8   8   2   8   8   8
#     4  10  21  37  56  85 121 160 192 247 308 375
#     4  10  21  35  59  88 119 160 195 243 322 366
#     4   9  16  31  55  82 114 152 198 246 299 354
#     4   9  18  29  53  90 121 144 191 257 302 355
#     4  12  24  36  66 104 116 156 196 266 314 348
#     4   9  18  34  56  82 114 158 202 244 299 358
#     4  12  23  41  62  90 127 152 208 258 305 362
#     4  10  23  40  58  84 121 167 205 246 307 370
#
# _framework density 20.13409
#
# number of rings (size 3 to 8) (size 9 to 14) (size 15 to 20)
#    0.000    2.069    2.069    1.241    2.897    2.759 
#    2.483    0.690    0.000    2.483    0.000    8.690 
#    0.000    0.000    0.000    0.000    0.000    0.000 
#
# Total GULP energy -161671.140191 kJ/mol
# GULP energy per Si atom -5574.866903 kJ/mol
# Density = 2.008826 g / cm^3
# Si number density = 20.134090 Si / 1000 Ang^3
#
#
#
# Elastic Constant Matrix: (Units=GPa)
#
#
# Indices 1 2 3 4 5 6 
#
# 1 84.9494 31.8427 35.1664 0.0000 -25.4227 0.0000
# 2 31.8427 82.8179 22.9431 0.0000 -11.5269 0.0000
# 3 35.1664 22.9431 106.2934 0.0000 -26.1952 0.0000
# 4 0.0000 0.0000 0.0000 19.3260 0.0000 -2.0659
# 5 -25.4227 -11.5269 -26.1952 0.0000 30.3318 0.0000
# 6 0.0000 0.0000 0.0000 -2.0659 0.0000 25.7283
#
#
#
# Elastic Compliance Matrix: (Units=1/GPa)
#
#
# Indices 1 2 3 4 5 6 
#
# 1 0.017777 -0.004683 -0.002080 0.000000 0.011324 0.000000
# 2 -0.004683 0.014319 -0.001483 0.000000 0.000236 0.000000
# 3 -0.002080 -0.001483 0.012510 0.000000 0.008497 0.000000
# 4 0.000000 0.000000 0.000000 0.052192 0.000000 0.004191
# 5 0.011324 0.000236 0.008497 0.000000 0.049888 0.000000
# 6 0.000000 0.000000 0.000000 0.004191 0.000000 0.039204
#
#
# Mechanical properties :
#
#
# Convention : Reuss Voigt Hill
#
# Bulk Modulus (GPa) = 35.56942 50.44057 43.00499
# Shear Modulus (GPa) = 23.61239 27.35111 25.48175
#
# Velocity S-wave (km/s) = 3.42827 3.68971 3.56139
# Velocity P-wave (km/s) = 5.77714 6.57713 6.19007
#
# Compressibility (1/GPa) = 0.02811404
#
# Stress axis : x y z
#
# Youngs Moduli (GPa) = 56.25266 69.83787 79.93428
#
# Poissons Ratio (x) = 0.32703 0.16626
# Poissons Ratio (y) = 0.26342 0.11857
# Poissons Ratio (z) = 0.11700 0.10359
#
# Static dielectric constant tensor:
#      x y z
#    x 1.770800 0.000000 -0.021520 
#    y 0.000000 1.710340 0.000000 
#    z -0.021520 0.000000 1.676000 
# 
# From -- ./inp_files/217447.got.cif
#   From: 2010.05.17/outbox.cif.g08.bks.cpg/sg12_109_cif.got.tgz:217447.got - 2010.06.03 13:09:07.
