data_PCOD9205980
_publ_section_title
;
Structure prediction by ZEFSAII (Michael W. Deem and Ramdas Pophale) SiO2 
 PCOD9205980
Probable space group: C 2/M
;
_chemical_formula_sum "Si O2"
_cell_formula_units_Z 32
_cell_length_a 9.240969
_cell_length_b 27.050515
_cell_length_c 14.734244
_cell_angle_alpha 90.000000
_cell_angle_beta 23.884259
_cell_angle_gamma 90.000000
_cell_volume 1491.277222
_symmetry_space_group_name_H-M "C 2/M"
_symmetry_group_IT_number 12
_symmetry_cell_setting 'monoclinic'
loop_
_space_group_symop_operation_xyz
x,y,z
-x,y,-z
-x,-y,-z
x,-y,z
1/2+x,1/2+y,z
1/2-x,1/2+y,-z
1/2-x,1/2-y,-z
1/2+x,1/2-y,z
loop_
_atom_site_type_symbol
_atom_site_label
_atom_site_fract_x
_atom_site_fract_y
_atom_site_fract_z
Si Si1 0.059530 0.309203 0.687541
Si Si2 0.103211 0.000000 0.117790
Si Si3 0.824254 0.500000 0.462211
Si Si4 0.385770 0.920373 0.828285
Si Si5 0.318449 0.231644 0.195733
O O1 0.007859 0.274414 0.805250
O O2 0.449548 0.298746 0.423285
O O3 0.006036 0.363983 0.755263
O O4 0.792849 0.288250 0.763948
O O5 0.710347 0.000000 0.293345
O O6 0.998914 0.000000 0.282373
O O7 0.312181 0.048532 0.962098
O O8 0.841362 0.452313 0.388488
O O9 0.000000 0.921302 0.000000
O O10 0.500000 0.211674 0.000000
#
# Coordination Sequence:
#
# PCOD9205980 Si02
#       5
#     8   4   4   8   8
#     4  10  21  36  55  80 108 144 181 217 265 317
#     4   8  15  29  48  75 107 135 170 219 265 313
#     4   8  15  29  48  77 107 133 172 217 263 318
#     4   9  17  30  51  78 109 138 170 217 268 313
#     4  10  21  37  54  75 109 144 182 224 260 309
#
# _framework density 21.458114999999999
#
# number of rings (size 3 to 8) (size 9 to 14) (size 15 to 20)
#    0.000    2.750    0.000    3.000    0.000    2.000 
#    0.000   17.500    0.000   12.000    0.000   14.000 
#    0.000    8.000    0.000    0.000    0.000    0.000 
#
# Total GULP energy -89218.606503 kJ/mol
# GULP energy per Si atom -5576.162906 kJ/mol
# Density = 2.140928 g / cm^3
# Si number density = 21.458115 Si / 1000 Ang^3
#
#
#
# Elastic Constant Matrix: (Units=GPa)
#
#
# Indices 1 2 3 4 5 6 
#
# 1 77.3045 33.9806 27.8477 0.0000 22.2094 0.0000
# 2 33.9806 158.1775 54.0235 -0.0001 30.5790 0.0000
# 3 27.8477 54.0235 144.4794 0.0004 62.4986 -0.0002
# 4 0.0000 -0.0001 0.0004 19.0633 0.0000 -2.4451
# 5 22.2094 30.5790 62.4986 0.0000 42.4018 0.0000
# 6 0.0000 0.0000 -0.0002 -2.4451 0.0000 5.7396
#
#
#
# Elastic Compliance Matrix: (Units=1/GPa)
#
#
# Indices 1 2 3 4 5 6 
#
# 1 0.015977 -0.002232 0.001873 0.000000 -0.009520 0.000000
# 2 -0.002232 0.007741 -0.001532 0.000000 -0.002156 0.000000
# 3 0.001873 -0.001532 0.019536 0.000000 -0.028671 0.000001
# 4 0.000000 0.000000 0.000000 0.055489 0.000001 0.023639
# 5 -0.009520 -0.002156 -0.028671 0.000001 0.072386 -0.000001
# 6 0.000000 0.000000 0.000001 0.023639 -0.000001 0.184300
#
#
# Mechanical properties :
#
#
# Convention : Reuss Voigt Hill
#
# Bulk Modulus (GPa) = 25.33334 67.96277 46.64805
# Shear Modulus (GPa) = 13.42759 31.04824 22.23791
#
# Velocity S-wave (km/s) = 2.50423 3.80797 3.22272
# Velocity P-wave (km/s) = 4.49368 7.14669 5.96944
#
# Compressibility (1/GPa) = 0.03947368
#
# Stress axis : x y z
#
# Youngs Moduli (GPa) = 62.58943 129.17523 51.18831
#
# Poissons Ratio (x) = 0.28827 -0.09588
# Poissons Ratio (y) = 0.13967 0.07841
# Poissons Ratio (z) = -0.11724 0.19787
#
# Static dielectric constant tensor:
#      x y z
#    x 1.858890 0.000000 -0.085370 
#    y 0.000000 1.766690 0.000000 
#    z -0.085370 0.000000 1.854540 
# 
# From -- ./inp_files/146842.got.cif
#   From: 2010.05.17/outbox.cif.g08.bks.cpg/sg12_74_cif.got.tgz:146842.got - 2010.06.03 13:09:07.
