data_PCOD9205731
_publ_section_title
;
Structure prediction by ZEFSAII (Michael W. Deem and Ramdas Pophale) SiO2 
 PCOD9205731
Probable space group: C 2/M
;
_chemical_formula_sum "Si O2"
_cell_formula_units_Z 64
_cell_length_a 12.518972
_cell_length_b 11.866731
_cell_length_c 21.897113
_cell_angle_alpha 90.000000
_cell_angle_beta 106.236436
_cell_angle_gamma 90.000000
_cell_volume 3123.276011
_symmetry_space_group_name_H-M "C 2/M"
_symmetry_group_IT_number 12
_symmetry_cell_setting 'monoclinic'
loop_
_space_group_symop_operation_xyz
x,y,z
-x,y,-z
-x,-y,-z
x,-y,z
1/2+x,1/2+y,z
1/2-x,1/2+y,-z
1/2-x,1/2-y,-z
1/2+x,1/2-y,z
loop_
_atom_site_type_symbol
_atom_site_label
_atom_site_fract_x
_atom_site_fract_y
_atom_site_fract_z
Si Si1 0.688959 0.128528 0.560544
Si Si2 0.964648 0.330080 0.363376
Si Si3 0.707951 0.876270 0.417082
Si Si4 0.167103 0.365933 0.053146
Si Si5 0.945209 0.364786 0.086248
Si Si6 0.261964 0.371584 0.746130
Si Si7 0.482796 0.629444 0.706872
Si Si8 0.156216 0.775617 0.828722
O O1 0.569174 0.140510 0.573289
O O2 0.694574 0.127009 0.488520
O O3 0.742026 0.251057 0.588923
O O4 0.730772 0.000000 0.585863
O O5 0.856726 0.369054 0.308025
O O6 0.983984 0.201086 0.347075
O O7 0.084862 0.380350 0.368708
O O8 0.762500 0.000000 0.411117
O O9 0.156087 0.500000 0.049574
O O10 0.277671 0.338312 0.107464
O O11 0.061769 0.324943 0.076227
O O12 0.146743 0.331440 0.979675
O O13 0.946503 0.500000 0.091515
O O14 0.920042 0.313387 0.147654
O O15 0.283364 0.500000 0.769600
O O16 0.365102 0.338243 0.719450
O O17 0.243890 0.288898 0.799730
O O18 0.476469 0.500000 0.689692
O O19 0.578100 0.650695 0.772737
#
# Coordination Sequence:
#
# PCOD9205731 Si02
#       8
#     8   8   8   8   8   8   8   8
#     4  10  21  38  60  87 120 152 182 225 282 335
#     4  11  21  35  59  80 103 146 191 228 269 328
#     4  10  21  37  59  89 119 148 187 231 273 327
#     4   9  18  32  50  73 105 139 169 212 268 322
#     4   9  18  32  50  76 106 135 172 217 265 321
#     4  10  21  36  52  73 103 138 177 225 278 325
#     4  10  23  39  53  76 110 144 181 229 284 334
#     4  11  19  32  55  78  99 135 181 222 266 326
#
# _framework density 20.491306000000002
#
# number of rings (size 3 to 8) (size 9 to 14) (size 15 to 20)
#    0.000    2.000    0.000    4.875    0.000    3.000 
#    0.000    0.000    0.000   13.500    0.000   10.500 
#    0.000    0.000    0.000    0.000    0.000    0.000 
#
# Total GULP energy -178209.065002 kJ/mol
# GULP energy per Si atom -5569.033281 kJ/mol
# Density = 2.044467 g / cm^3
# Si number density = 20.491306 Si / 1000 Ang^3
#
#
#
# Elastic Constant Matrix: (Units=GPa)
#
#
# Indices 1 2 3 4 5 6 
#
# 1 47.1892 40.3690 -5.4152 0.0000 1.3099 0.0000
# 2 40.3690 114.4127 23.8606 0.0000 -8.6736 0.0000
# 3 -5.4152 23.8606 46.1075 0.0000 2.6648 0.0000
# 4 0.0000 0.0000 0.0000 42.5639 0.0000 -0.4752
# 5 1.3099 -8.6736 2.6648 0.0000 35.0958 0.0000
# 6 0.0000 0.0000 0.0000 -0.4752 0.0000 23.3328
#
#
#
# Elastic Compliance Matrix: (Units=1/GPa)
#
#
# Indices 1 2 3 4 5 6 
#
# 1 0.036662 -0.016132 0.013021 0.000000 -0.006344 0.000000
# 2 -0.016132 0.017182 -0.011115 0.000000 0.005692 0.000000
# 3 0.013021 -0.011115 0.029285 0.000000 -0.005457 0.000000
# 4 0.000000 0.000000 0.000000 0.023499 0.000000 0.000479
# 5 -0.006344 0.005692 -0.005457 0.000000 0.030551 0.000000
# 6 0.000000 0.000000 0.000000 0.000479 0.000000 0.042868
#
#
# Mechanical properties :
#
#
# Convention : Reuss Voigt Hill
#
# Bulk Modulus (GPa) = 18.28949 36.14867 27.21908
# Shear Modulus (GPa) = 22.05298 30.12483 26.08890
#
# Velocity S-wave (km/s) = 3.28413 3.83838 3.57202
# Velocity P-wave (km/s) = 4.82965 6.10930 5.50677
#
# Compressibility (1/GPa) = 0.05467622
#
# Stress axis : x y z
#
# Youngs Moduli (GPa) = 27.27603 58.20066 34.14689
#
# Poissons Ratio (x) = 0.93890 -0.44462
# Poissons Ratio (y) = 0.44002 0.37955
# Poissons Ratio (z) = -0.35516 0.64692
#
# Static dielectric constant tensor:
#      x y z
#    x 1.738780 0.000000 0.021490 
#    y 0.000000 1.759660 0.000000 
#    z 0.021490 0.000000 1.746210 
# 
# From -- ./inp_files/335653.got.cif
#   From: 2010.05.17/outbox.cif.g08.bks.cpg/sg12_168_cif.got.tgz:335653.got - 2010.06.03 13:09:07.
