data_PCOD9205442
_publ_section_title
;
Structure prediction by ZEFSAII (Michael W. Deem and Ramdas Pophale) SiO2 
 PCOD9205442
Probable space group: C 2/M
;
_chemical_formula_sum "Si O2"
_cell_formula_units_Z 56
_cell_length_a 26.343756
_cell_length_b 8.589225
_cell_length_c 18.107795
_cell_angle_alpha 90.000000
_cell_angle_beta 134.840104
_cell_angle_gamma 90.000000
_cell_volume 2905.299174
_symmetry_space_group_name_H-M "C 2/M"
_symmetry_group_IT_number 12
_symmetry_cell_setting 'monoclinic'
loop_
_space_group_symop_operation_xyz
x,y,z
-x,y,-z
-x,-y,-z
x,-y,z
1/2+x,1/2+y,z
1/2-x,1/2+y,-z
1/2-x,1/2-y,-z
1/2+x,1/2-y,z
loop_
_atom_site_type_symbol
_atom_site_label
_atom_site_fract_x
_atom_site_fract_y
_atom_site_fract_z
Si Si1 0.688867 0.312945 0.213268
Si Si2 0.554788 0.173275 0.990728
Si Si3 0.436638 0.320904 0.271513
Si Si4 0.686330 0.812947 0.379815
Si Si5 0.948296 0.325674 0.517290
Si Si6 0.025235 0.186770 0.228436
Si Si7 0.166477 0.313005 0.711541
O O1 0.690205 0.500000 0.223686
O O2 0.694671 0.242542 0.302310
O O3 0.753738 0.265424 0.225358
O O4 0.620044 0.260478 0.096762
O O5 0.510052 0.270120 0.885299
O O6 0.575486 0.000000 0.983604
O O7 0.500000 0.150761 0.000000
O O8 0.417692 0.500000 0.242741
O O9 0.510969 0.297571 0.391916
O O10 0.463450 0.253568 0.221569
O O11 0.374502 0.246694 0.257920
O O12 0.750000 0.750000 0.500000
O O13 0.605362 0.757189 0.319435
O O14 0.688399 0.000000 0.384341
O O15 0.940595 0.500000 0.543087
O O16 0.876056 0.267871 0.406676
O O17 0.000000 0.344725 0.500000
O O18 0.031882 0.000000 0.243803
O O19 0.162213 0.500000 0.710808
#
# Coordination Sequence:
#
# PCOD9205442 Si02
#       7
#     8   8   8   8   8   8   8
#     4  11  23  41  66  94 124 162 205 255 309 365
#     4  11  23  41  65  93 119 156 210 259 306 362
#     4  10  21  35  55  87 121 156 201 250 301 357
#     4  12  26  43  63  93 129 166 205 251 309 369
#     4   8  15  30  51  76 110 155 199 238 284 350
#     4  11  24  42  64  92 124 163 207 255 309 364
#     4   9  20  37  57  85 119 160 203 242 299 367
#
# _framework density 19.275124999999999
#
# number of rings (size 3 to 8) (size 9 to 14) (size 15 to 20)
#    0.000    1.714    1.429    3.857    2.000    6.571 
#    0.000    0.714    0.000    0.000    0.000    0.000 
#    0.000    0.000    0.000    0.000    0.000    0.000 
#
# Total GULP energy -155891.377849 kJ/mol
# GULP energy per Si atom -5567.549209 kJ/mol
# Density = 1.923125 g / cm^3
# Si number density = 19.275125 Si / 1000 Ang^3
#
#
#
# Elastic Constant Matrix: (Units=GPa)
#
#
# Indices 1 2 3 4 5 6 
#
# 1 113.5795 29.5163 40.0524 0.0000 15.9137 0.0000
# 2 29.5163 66.2914 25.8794 0.0000 8.4122 0.0000
# 3 40.0524 25.8794 108.1938 0.0000 19.8559 0.0000
# 4 0.0000 0.0000 0.0000 8.9280 0.0000 -17.9164
# 5 15.9137 8.4122 19.8559 0.0000 28.7800 0.0000
# 6 0.0000 0.0000 0.0000 -17.9164 0.0000 14.8388
#
#
#
# Elastic Compliance Matrix: (Units=1/GPa)
#
#
# Indices 1 2 3 4 5 6 
#
# 1 0.011115 -0.003487 -0.002679 0.000000 -0.003278 0.000000
# 2 -0.003487 0.017882 -0.002726 0.000000 -0.001418 0.000000
# 3 -0.002679 -0.002726 0.011986 0.000000 -0.005991 0.000000
# 4 0.000000 0.000000 0.000000 -0.078713 0.000000 -0.095038
# 5 -0.003278 -0.001418 -0.005991 0.000000 0.041107 0.000000
# 6 0.000000 0.000000 0.000000 -0.095038 0.000000 -0.047359
#
#
# Mechanical properties :
#
#
# Convention : Reuss Voigt Hill
#
# Bulk Modulus (GPa) = 43.10668 53.21790 48.16229
# Shear Modulus (GPa) = -270.76911 23.35046 -123.70932
#
# Velocity S-wave (km/s) = -11.86511 3.48434 -8.01998
# Velocity P-wave (km/s) = 12.85673 6.62246 7.79225
#
# Compressibility (1/GPa) = 0.02319826
#
# Stress axis : x y z
#
# Youngs Moduli (GPa) = 89.97208 55.92324 83.43101
#
# Poissons Ratio (x) = 0.19500 0.22350
# Poissons Ratio (y) = 0.31373 0.22745
# Poissons Ratio (z) = 0.24102 0.15246
#
# Static dielectric constant tensor:
#      x y z
#    x 1.710610 0.000000 -0.015680 
#    y 0.000000 1.685610 0.000000 
#    z -0.015680 0.000000 1.711330 
# 
# From -- ./inp_files/292590.got.cif
#   From: 2010.05.17/outbox.cif.g08.bks.cpg/sg12_147_cif.got.tgz:292590.got - 2010.06.03 13:09:07.
