data_PCOD9205036
_publ_section_title
;
Structure prediction by ZEFSAII (Michael W. Deem and Ramdas Pophale) SiO2 
 PCOD9205036
Probable space group: C 2/M
;
_chemical_formula_sum "Si O2"
_cell_formula_units_Z 44
_cell_length_a 5.359767
_cell_length_b 29.222660
_cell_length_c 12.809065
_cell_angle_alpha 90.000000
_cell_angle_beta 84.592955
_cell_angle_gamma 90.000000
_cell_volume 1997.313926
_symmetry_space_group_name_H-M "C 2/M"
_symmetry_group_IT_number 12
_symmetry_cell_setting 'monoclinic'
loop_
_space_group_symop_operation_xyz
x,y,z
-x,y,-z
-x,-y,-z
x,-y,z
1/2+x,1/2+y,z
1/2-x,1/2+y,-z
1/2-x,1/2-y,-z
1/2+x,1/2-y,z
loop_
_atom_site_type_symbol
_atom_site_label
_atom_site_fract_x
_atom_site_fract_y
_atom_site_fract_z
Si Si1 0.734009 0.398596 0.069874
Si Si2 0.410832 0.262788 0.340820
Si Si3 0.267099 0.500000 0.928805
Si Si4 0.461023 0.103903 0.625499
Si Si5 0.037454 0.051325 0.372635
Si Si6 0.722440 0.175781 0.754769
O O1 0.737928 0.355620 0.147316
O O2 0.500000 0.394702 0.000000
O O3 0.716149 0.449422 0.123208
O O4 0.000000 0.397787 0.000000
O O5 0.637096 0.241099 0.396500
O O6 0.384455 0.227933 0.241168
O O7 0.509145 0.312713 0.308465
O O8 0.500000 0.500000 0.000000
O O9 0.000000 0.500000 0.000000
O O10 0.500000 0.111361 0.500000
O O11 0.185460 0.083975 0.658548
O O12 0.539911 0.148320 0.686133
O O13 0.678663 0.068182 0.650639
O O14 0.000000 0.050349 0.500000
O O15 0.000181 0.000000 0.334274
#
# Coordination Sequence:
#
# PCOD9205036 Si02
#       6
#     8   8   4   8   8   8
#     4  10  22  36  61  84 110 150 187 228 285 337
#     4   8  20  36  58  76 112 150 178 238 294 324
#     4   8  16  36  52  76 111 138 177 224 266 322
#     4  10  21  34  58  84 110 152 193 233 281 339
#     4   9  18  34  52  77 115 149 182 232 283 326
#     4  10  22  39  61  79 121 144 196 233 294 328
#
# _framework density 22.029585000000001
#
# number of rings (size 3 to 8) (size 9 to 14) (size 15 to 20)
#    1.091    1.636    0.000    0.545    5.091    2.182 
#    3.273    3.636    4.000    0.000    0.000    0.000 
#    0.000    0.000    0.000    0.000    0.000    0.000 
#
# Total GULP energy -122479.551193 kJ/mol
# GULP energy per Si atom -5567.252327 kJ/mol
# Density = 2.197944 g / cm^3
# Si number density = 22.029585 Si / 1000 Ang^3
#
#
#
# Elastic Constant Matrix: (Units=GPa)
#
#
# Indices 1 2 3 4 5 6 
#
# 1 166.8492 42.2405 37.1326 0.0000 26.3454 0.0000
# 2 42.2405 119.5484 34.8620 0.0000 16.3404 0.0000
# 3 37.1326 34.8620 72.0806 0.0000 23.7657 0.0000
# 4 0.0000 0.0000 0.0000 113.1990 0.0000 -9.0328
# 5 26.3454 16.3404 23.7657 0.0000 21.8512 0.0000
# 6 0.0000 0.0000 0.0000 -9.0328 0.0000 44.7244
#
#
#
# Elastic Compliance Matrix: (Units=1/GPa)
#
#
# Indices 1 2 3 4 5 6 
#
# 1 0.007704 -0.001480 -0.000866 0.000000 -0.007240 0.000000
# 2 -0.001480 0.010184 -0.003493 0.000000 -0.002032 0.000000
# 3 -0.000866 -0.003493 0.023080 0.000000 -0.021446 0.000000
# 4 0.000000 0.000000 0.000000 0.008979 0.000000 0.001813
# 5 -0.007240 -0.002032 -0.021446 0.000000 0.079338 0.000000
# 6 0.000000 0.000000 0.000000 0.001813 0.000000 0.022725
#
#
# Mechanical properties :
#
#
# Convention : Reuss Voigt Hill
#
# Bulk Modulus (GPa) = 34.14129 65.21647 49.67888
# Shear Modulus (GPa) = 28.82655 52.23778 40.53217
#
# Velocity S-wave (km/s) = 3.62130 4.87484 4.29406
# Velocity P-wave (km/s) = 5.74601 7.83286 6.86915
#
# Compressibility (1/GPa) = 0.02929005
#
# Stress axis : x y z
#
# Youngs Moduli (GPa) = 129.80228 98.19163 43.32804
#
# Poissons Ratio (x) = 0.14532 0.03751
# Poissons Ratio (y) = 0.19211 0.15135
# Poissons Ratio (z) = 0.11238 0.34300
#
# Static dielectric constant tensor:
#      x y z
#    x 1.842970 0.000000 -0.020910 
#    y 0.000000 1.859850 0.000000 
#    z -0.020910 0.000000 1.811350 
# 
# From -- ./inp_files/191971.got.cif
#   From: 2010.05.17/outbox.cif.g08.bks.cpg/sg12_96_cif.got.tgz:191971.got - 2010.06.03 13:09:07.
