data_PCOD9205555
_publ_section_title
;
Structure prediction by ZEFSAII (Michael W. Deem and Ramdas Pophale) SiO2 
 PCOD9205555
Probable space group: C 2/M
;
_chemical_formula_sum "Si O2"
_cell_formula_units_Z 52
_cell_length_a 4.949811
_cell_length_b 27.860624
_cell_length_c 21.291989
_cell_angle_alpha 90.000000
_cell_angle_beta 59.667064
_cell_angle_gamma 90.000000
_cell_volume 2534.308702
_symmetry_space_group_name_H-M "C 2/M"
_symmetry_group_IT_number 12
_symmetry_cell_setting 'monoclinic'
loop_
_space_group_symop_operation_xyz
x,y,z
-x,y,-z
-x,-y,-z
x,-y,z
1/2+x,1/2+y,z
1/2-x,1/2+y,-z
1/2-x,1/2-y,-z
1/2+x,1/2-y,z
loop_
_atom_site_type_symbol
_atom_site_label
_atom_site_fract_x
_atom_site_fract_y
_atom_site_fract_z
Si Si1 0.390524 0.721021 0.844390
Si Si2 0.629161 0.055391 0.551448
Si Si3 0.270439 0.500000 0.880424
Si Si4 0.171600 0.412479 0.060593
Si Si5 0.097582 0.406790 0.292997
Si Si6 0.500000 0.177125 0.000000
Si Si7 0.704703 0.871126 0.784814
Si Si8 0.519078 0.000000 0.218907
O O1 0.736339 0.733903 0.826526
O O2 0.211556 0.709267 0.930447
O O3 0.317298 0.676172 0.808469
O O4 0.500000 0.072431 0.500000
O O5 0.525266 0.087116 0.622290
O O6 0.000000 0.054162 0.500000
O O7 0.517302 0.000000 0.574739
O O8 0.098205 0.451410 0.922573
O O9 0.222009 0.500000 0.810228
O O10 0.635056 0.500000 0.853054
O O11 0.166244 0.361710 0.025142
O O12 0.078432 0.396146 0.142205
O O13 0.500000 0.434396 0.000000
O O14 0.471860 0.401212 0.251245
O O15 0.000736 0.454395 0.266093
O O16 0.928257 0.366514 0.269971
#
# Coordination Sequence:
#
# PCOD9205555 Si02
#       8
#     8   8   4   8   8   4   8   4
#     4  11  24  43  64  86 112 143 193 255 321 386
#     4  10  21  35  57  91 128 168 207 239 274 326
#     4  12  25  39  54  77 114 161 219 254 298 330
#     4  11  25  38  55  80 115 158 209 267 291 346
#     4  12  21  41  61  88 125 165 202 244 286 348
#     4  10  26  37  62  80 110 150 192 251 328 370
#     4  11  25  39  63  87 116 155 205 252 306 359
#     4  12  22  38  58  83 114 165 207 246 286 351
#
# _framework density 20.518416999999999
#
# number of rings (size 3 to 8) (size 9 to 14) (size 15 to 20)
#    0.000    0.923    3.846    2.538   10.769    0.308 
#    0.000    0.000    0.000    0.000    0.000    0.000 
#    0.000   43.077    0.000    0.000    0.000    0.000 
#
# Total GULP energy -145255.318222 kJ/mol
# GULP energy per Si atom -5586.743009 kJ/mol
# Density = 2.047172 g / cm^3
# Si number density = 20.518417 Si / 1000 Ang^3
#
#
#
# Elastic Constant Matrix: (Units=GPa)
#
#
# Indices 1 2 3 4 5 6 
#
# 1 90.3508 4.1613 40.7236 0.0000 17.1411 0.0000
# 2 4.1613 52.7332 25.9442 0.0000 3.2154 0.0000
# 3 40.7236 25.9442 125.5710 0.0000 30.2434 0.0000
# 4 0.0000 0.0000 0.0000 25.9207 0.0000 7.9109
# 5 17.1411 3.2154 30.2434 0.0000 33.7139 0.0000
# 6 0.0000 0.0000 0.0000 7.9109 0.0000 32.2588
#
#
#
# Elastic Compliance Matrix: (Units=1/GPa)
#
#
# Indices 1 2 3 4 5 6 
#
# 1 0.013358 0.000969 -0.003666 0.000000 -0.003595 0.000000
# 2 0.000969 0.021336 -0.005247 0.000000 0.002180 0.000000
# 3 -0.003666 -0.005247 0.012332 0.000000 -0.008698 0.000000
# 4 0.000000 0.000000 0.000000 0.041700 0.000000 -0.010226
# 5 -0.003595 0.002180 -0.008698 0.000000 0.039084 0.000000
# 6 0.000000 0.000000 0.000000 -0.010226 0.000000 0.033507
#
#
# Mechanical properties :
#
#
# Convention : Reuss Voigt Hill
#
# Bulk Modulus (GPa) = 32.11770 45.59037 38.85404
# Shear Modulus (GPa) = 26.65467 31.56707 29.11087
#
# Velocity S-wave (km/s) = 3.60816 3.92660 3.77074
# Velocity P-wave (km/s) = 5.74852 6.54408 6.15916
#
# Compressibility (1/GPa) = 0.03113548
#
# Stress axis : x y z
#
# Youngs Moduli (GPa) = 74.86193 46.86987 81.09213
#
# Poissons Ratio (x) = -0.04541 0.29732
# Poissons Ratio (y) = -0.07254 0.42552
# Poissons Ratio (z) = 0.27448 0.24594
#
# Static dielectric constant tensor:
#      x y z
#    x 1.761730 0.000000 0.023550 
#    y 0.000000 1.783890 0.000000 
#    z 0.023550 0.000000 1.723390 
# 
# From -- ./inp_files/298359.got.cif
#   From: 2010.05.17/outbox.cif.g08.bks.cpg/sg12_150_cif.got.tgz:298359.got - 2010.06.03 13:09:07.
