data_PCOD9205388
_publ_section_title
;
Structure prediction by ZEFSAII (Michael W. Deem and Ramdas Pophale) SiO2 
 PCOD9205388
Probable space group: C 2/M
;
_chemical_formula_sum "Si O2"
_cell_formula_units_Z 42
_cell_length_a 5.054636
_cell_length_b 14.105290
_cell_length_c 27.275559
_cell_angle_alpha 90.000000
_cell_angle_beta 75.207037
_cell_angle_gamma 90.000000
_cell_volume 1880.211926
_symmetry_space_group_name_H-M "C 2/M"
_symmetry_group_IT_number 12
_symmetry_cell_setting 'monoclinic'
loop_
_space_group_symop_operation_xyz
x,y,z
-x,y,-z
-x,-y,-z
x,-y,z
1/2+x,1/2+y,z
1/2-x,1/2+y,-z
1/2-x,1/2-y,-z
1/2+x,1/2-y,z
loop_
_atom_site_type_symbol
_atom_site_label
_atom_site_fract_x
_atom_site_fract_y
_atom_site_fract_z
Si Si1 0.110616 0.386821 0.339322
Si Si2 0.188712 0.113274 0.282553
Si Si3 0.397099 0.820217 0.936727
Si Si4 0.500000 0.000000 0.000000
Si Si5 0.474340 0.191104 0.823261
Si Si6 0.859236 0.687872 0.553437
O O1 0.104441 0.500000 0.335487
O O2 0.377906 0.351625 0.297350
O O3 0.136428 0.363740 0.395051
O O4 0.839452 0.352080 0.324813
O O5 0.369544 0.137538 0.227083
O O6 0.172422 0.000000 0.285753
O O7 0.635884 0.748891 0.943773
O O8 0.468003 0.853244 0.877676
O O9 0.374571 0.914138 0.970313
O O10 0.165453 0.215881 0.822428
O O11 0.556729 0.721065 0.553176
O O12 0.000000 0.637571 0.500000
#
# Coordination Sequence:
#
# PCOD9205388 Si02
#       6
#     8   8   8   2   8   8
#     4  10  21  36  53  81 109 144 182 230 279 333
#     4  10  21  35  55  79 113 143 186 230 274 345
#     4  10  24  43  63  97 132 159 216 268 298 380
#     4  12  24  42  76  92 124 186 204 250 342 352
#     4  10  21  38  58  84 118 152 188 241 294 337
#     4  10  21  36  54  77 105 138 181 230 276 332
#
# _framework density 22.337907000000001
#
# number of rings (size 3 to 8) (size 9 to 14) (size 15 to 20)
#    0.000    1.905    0.000    2.857    1.333    6.476 
#    0.000    0.000    0.000    6.857    0.000    0.000 
#    0.000    0.000    0.000    0.000    0.000    0.000 
#
# Total GULP energy -117035.594320 kJ/mol
# GULP energy per Si atom -5573.123539 kJ/mol
# Density = 2.228706 g / cm^3
# Si number density = 22.337907 Si / 1000 Ang^3
#
#
#
# Elastic Constant Matrix: (Units=GPa)
#
#
# Indices 1 2 3 4 5 6 
#
# 1 97.0663 8.0923 12.2287 0.0000 13.7626 0.0000
# 2 8.0923 81.9930 7.2380 0.0000 12.4832 0.0000
# 3 12.2287 7.2380 102.0078 0.0000 11.8779 0.0000
# 4 0.0000 0.0000 0.0000 23.9251 0.0000 7.6428
# 5 13.7626 12.4832 11.8779 0.0000 31.1845 0.0000
# 6 0.0000 0.0000 0.0000 7.6428 0.0000 9.0023
#
#
#
# Elastic Compliance Matrix: (Units=1/GPa)
#
#
# Indices 1 2 3 4 5 6 
#
# 1 0.011060 -0.000346 -0.000784 0.000000 -0.004444 0.000000
# 2 -0.000346 0.013009 -0.000307 0.000000 -0.004938 0.000000
# 3 -0.000784 -0.000307 0.010322 0.000000 -0.003463 0.000000
# 4 0.000000 0.000000 0.000000 0.057351 0.000000 -0.048690
# 5 -0.004444 -0.004938 -0.003463 0.000000 0.037324 0.000000
# 6 0.000000 0.000000 0.000000 -0.048690 0.000000 0.152419
#
#
# Mechanical properties :
#
#
# Convention : Reuss Voigt Hill
#
# Bulk Modulus (GPa) = 31.72714 37.35391 34.54052
# Shear Modulus (GPa) = 16.95694 29.72293 23.33993
#
# Velocity S-wave (km/s) = 2.75819 3.65170 3.23593
# Velocity P-wave (km/s) = 4.93736 5.87694 5.42752
#
# Compressibility (1/GPa) = 0.03151876
#
# Stress axis : x y z
#
# Youngs Moduli (GPa) = 90.41650 76.86878 96.87932
#
# Poissons Ratio (x) = 0.02658 0.07594
# Poissons Ratio (y) = 0.03126 0.02970
# Poissons Ratio (z) = 0.07087 0.02357
#
# Static dielectric constant tensor:
#      x y z
#    x 1.818810 0.000000 -0.002790 
#    y 0.000000 1.763720 0.000000 
#    z -0.002790 0.000000 1.863640 
# 
# From -- ./inp_files/330883.got.cif
#   From: 2010.05.17/outbox.cif.g08.bks.cpg/sg12_166_cif.got.tgz:330883.got - 2010.06.03 13:09:07.
