data_PCOD9205949
_publ_section_title
;
Structure prediction by ZEFSAII (Michael W. Deem and Ramdas Pophale) SiO2 
 PCOD9205949
Probable space group: C 2/M
;
_chemical_formula_sum "Si O2"
_cell_formula_units_Z 44
_cell_length_a 8.344217
_cell_length_b 23.142791
_cell_length_c 17.309314
_cell_angle_alpha 90.000000
_cell_angle_beta 44.505917
_cell_angle_gamma 90.000000
_cell_volume 2343.088081
_symmetry_space_group_name_H-M "C 2/M"
_symmetry_group_IT_number 12
_symmetry_cell_setting 'monoclinic'
loop_
_space_group_symop_operation_xyz
x,y,z
-x,y,-z
-x,-y,-z
x,-y,z
1/2+x,1/2+y,z
1/2-x,1/2+y,-z
1/2-x,1/2-y,-z
1/2+x,1/2-y,z
loop_
_atom_site_type_symbol
_atom_site_label
_atom_site_fract_x
_atom_site_fract_y
_atom_site_fract_z
Si Si1 0.764117 0.112801 0.033105
Si Si2 0.065546 0.714000 0.886456
Si Si3 0.525626 0.000000 0.820613
Si Si4 0.647319 0.098682 0.380771
Si Si5 0.043771 0.000000 0.651260
Si Si6 0.147865 0.500000 0.596833
Si Si7 0.979792 0.169994 0.821859
O O1 0.596109 0.167664 0.100683
O O2 0.623115 0.055736 0.103749
O O3 0.000000 0.115519 0.000000
O O4 0.843432 0.120659 0.916711
O O5 0.023768 0.775425 0.862165
O O6 0.324183 0.690809 0.803706
O O7 0.000000 0.717652 0.000000
O O8 0.596909 0.000000 0.705490
O O9 0.780997 0.000000 0.766992
O O10 0.500000 0.125700 0.500000
O O11 0.833200 0.055914 0.355329
O O12 0.483346 0.056782 0.388878
O O13 0.780094 0.144665 0.285441
O O14 0.115108 0.000000 0.535138
#
# Coordination Sequence:
#
# PCOD9205949 Si02
#       7
#     8   8   4   8   4   4   8
#     4  11  22  35  51  79 112 139 171 214 263 315
#     4  10  21  36  55  76 104 145 177 204 259 325
#     4  12  22  33  54  86 110 132 171 224 264 297
#     4   9  19  37  58  77 102 141 181 214 256 312
#     4   9  19  37  54  76 108 143 177 208 255 322
#     4   9  19  34  56  78 106 145 175 206 259 315
#     4  11  20  36  56  77 105 140 177 218 259 309
#
# _framework density 18.778635999999999
#
# number of rings (size 3 to 8) (size 9 to 14) (size 15 to 20)
#    0.000    1.818    0.000    7.636    0.000    1.455 
#    0.000    5.909    0.000    2.182    0.000    0.000 
#    0.000    0.000    0.000    0.000    0.000    0.000 
#
# Total GULP energy -122682.956095 kJ/mol
# GULP energy per Si atom -5576.498004 kJ/mol
# Density = 1.873590 g / cm^3
# Si number density = 18.778636 Si / 1000 Ang^3
#
#
#
# Elastic Constant Matrix: (Units=GPa)
#
#
# Indices 1 2 3 4 5 6 
#
# 1 67.5884 33.0976 22.7950 0.0000 -16.2629 0.0001
# 2 33.0976 120.9425 71.1799 0.0000 -5.1100 0.0000
# 3 22.7950 71.1799 99.6046 0.0000 -13.8582 0.0001
# 4 0.0000 0.0000 0.0000 24.2607 0.0000 6.7030
# 5 -16.2629 -5.1100 -13.8582 0.0000 26.5909 -0.0001
# 6 0.0001 0.0000 0.0001 6.7030 -0.0001 33.4116
#
#
#
# Elastic Compliance Matrix: (Units=1/GPa)
#
#
# Indices 1 2 3 4 5 6 
#
# 1 0.019997 -0.005597 0.001051 0.000000 0.011703 0.000000
# 2 -0.005597 0.016029 -0.011021 0.000000 -0.006086 0.000000
# 3 0.001051 -0.011021 0.018835 0.000000 0.008341 0.000000
# 4 0.000000 0.000000 0.000000 0.043638 0.000000 -0.008755
# 5 0.011703 -0.006086 0.008341 0.000000 0.047942 0.000000
# 6 0.000000 0.000000 0.000000 -0.008755 0.000000 0.031686
#
#
# Mechanical properties :
#
#
# Convention : Reuss Voigt Hill
#
# Bulk Modulus (GPa) = 42.14171 60.25338 51.19754
# Shear Modulus (GPa) = 23.02346 27.59017 25.30682
#
# Velocity S-wave (km/s) = 3.50529 3.83721 3.67500
# Velocity P-wave (km/s) = 6.23480 7.19639 6.73279
#
# Compressibility (1/GPa) = 0.02372946
#
# Stress axis : x y z
#
# Youngs Moduli (GPa) = 50.00625 62.38669 53.09185
#
# Poissons Ratio (x) = 0.34917 -0.05582
# Poissons Ratio (y) = 0.27988 0.58511
# Poissons Ratio (z) = -0.05258 0.68754
#
# Static dielectric constant tensor:
#      x y z
#    x 1.711470 0.000000 -0.006040 
#    y 0.000000 1.612950 0.000000 
#    z -0.006040 0.000000 1.666490 
# 
# From -- ./inp_files/120782.got.cif
#   From: 2010.05.17/outbox.cif.g08.bks.cpg/sg12_61_cif.got.tgz:120782.got - 2010.06.03 13:09:07.
