data_PCOD9205347
_publ_section_title
;
Structure prediction by ZEFSAII (Michael W. Deem and Ramdas Pophale) SiO2 
 PCOD9205347
Probable space group: C 2/M
;
_chemical_formula_sum "Si O2"
_cell_formula_units_Z 56
_cell_length_a 9.579439
_cell_length_b 26.332209
_cell_length_c 10.057829
_cell_angle_alpha 90.000000
_cell_angle_beta 79.467029
_cell_angle_gamma 90.000000
_cell_volume 2494.315276
_symmetry_space_group_name_H-M "C 2/M"
_symmetry_group_IT_number 12
_symmetry_cell_setting 'monoclinic'
loop_
_space_group_symop_operation_xyz
x,y,z
-x,y,-z
-x,-y,-z
x,-y,z
1/2+x,1/2+y,z
1/2-x,1/2+y,-z
1/2-x,1/2-y,-z
1/2+x,1/2-y,z
loop_
_atom_site_type_symbol
_atom_site_label
_atom_site_fract_x
_atom_site_fract_y
_atom_site_fract_z
Si Si1 0.616984 0.816278 0.793738
Si Si2 0.378120 0.280377 0.621364
Si Si3 0.162664 0.665945 0.325274
Si Si4 0.397095 0.940604 0.701934
Si Si5 0.844895 0.943257 0.037334
Si Si6 0.377526 0.075851 0.123439
Si Si7 0.939094 0.204971 0.149501
O O1 0.462678 0.826511 0.760204
O O2 0.645464 0.863701 0.881412
O O3 0.623406 0.761726 0.861397
O O4 0.733492 0.812051 0.656269
O O5 0.500000 0.298008 0.500000
O O6 0.347663 0.220659 0.597088
O O7 0.444222 0.287283 0.756592
O O8 0.131883 0.609044 0.386272
O O9 0.316279 0.670337 0.231161
O O10 0.280279 0.928270 0.838280
O O11 0.552552 0.936739 0.746064
O O12 0.380648 0.000000 0.660262
O O13 0.874342 0.000000 0.081185
O O14 0.769843 0.944830 0.906072
O O15 0.000000 0.918480 0.000000
O O16 0.500000 0.059075 0.000000
O O17 0.000000 0.188098 0.000000
#
# Coordination Sequence:
#
# PCOD9205347 Si02
#       7
#     8   8   8   8   8   8   8
#     4   9  19  33  51  75 106 140 178 219 263 319
#     4  10  22  39  57  79 109 143 179 220 269 326
#     4   9  20  34  53  78 105 141 180 220 266 315
#     4   9  17  30  46  67  98 135 174 216 262 313
#     4   9  17  27  41  64  98 138 177 218 265 315
#     4   9  16  27  46  70 100 137 176 215 263 318
#     4  10  21  35  54  81 114 145 177 218 269 320
#
# _framework density 22.451049999999999
#
# number of rings (size 3 to 8) (size 9 to 14) (size 15 to 20)
#    0.000    2.714    0.000    0.857    0.000   18.286 
#    0.000    0.000    0.000    0.429    0.000    0.000 
#    0.000   14.857    0.000    0.286    0.000    0.000 
#
# Total GULP energy -155962.060189 kJ/mol
# GULP energy per Si atom -5570.073578 kJ/mol
# Density = 2.239995 g / cm^3
# Si number density = 22.451050 Si / 1000 Ang^3
#
#
#
# Elastic Constant Matrix: (Units=GPa)
#
#
# Indices 1 2 3 4 5 6 
#
# 1 122.5660 16.4532 33.4411 0.0000 -16.1881 0.0000
# 2 16.4532 138.6226 -9.5993 0.0000 6.9463 0.0000
# 3 33.4411 -9.5993 63.6644 0.0000 -7.6131 0.0000
# 4 0.0000 0.0000 0.0000 9.1057 0.0000 9.0296
# 5 -16.1881 6.9463 -7.6131 0.0000 22.1304 0.0000
# 6 0.0000 0.0000 0.0000 9.0296 0.0000 43.5159
#
#
#
# Elastic Compliance Matrix: (Units=1/GPa)
#
#
# Indices 1 2 3 4 5 6 
#
# 1 0.010701 -0.001959 -0.005117 0.000000 0.006682 0.000000
# 2 -0.001959 0.007734 0.001808 0.000000 -0.003239 0.000000
# 3 -0.005117 0.001808 0.018931 0.000000 0.002202 0.000000
# 4 0.000000 0.000000 0.000000 0.138274 0.000000 -0.028692
# 5 0.006682 -0.003239 0.002202 0.000000 0.051849 0.000000
# 6 0.000000 0.000000 0.000000 -0.028692 0.000000 0.028934
#
#
# Mechanical properties :
#
#
# Convention : Reuss Voigt Hill
#
# Bulk Modulus (GPa) = 37.27332 45.04922 41.16127
# Shear Modulus (GPa) = 18.12242 33.92093 26.02167
#
# Velocity S-wave (km/s) = 2.84420 3.89123 3.40816
# Velocity P-wave (km/s) = 5.23680 6.34807 5.81902
#
# Compressibility (1/GPa) = 0.02682884
#
# Stress axis : x y z
#
# Youngs Moduli (GPa) = 93.45319 129.30162 52.82304
#
# Poissons Ratio (x) = 0.25333 0.27030
# Poissons Ratio (y) = 0.18310 -0.09550
# Poissons Ratio (z) = 0.47821 -0.23377
#
# Static dielectric constant tensor:
#      x y z
#    x 1.854070 0.000000 -0.009810 
#    y 0.000000 1.900610 0.000000 
#    z -0.009810 0.000000 1.943710 
# 
# From -- ./inp_files/124237.got.cif
#   From: 2010.05.17/outbox.cif.g08.bks.cpg/sg12_63_cif.got.tgz:124237.got - 2010.06.03 13:09:07.
