data_PCOD9205160
_publ_section_title
;
Structure prediction by ZEFSAII (Michael W. Deem and Ramdas Pophale) SiO2 
 PCOD9205160
Probable space group: C 2/M
;
_chemical_formula_sum "Si O2"
_cell_formula_units_Z 48
_cell_length_a 16.299239
_cell_length_b 7.561792
_cell_length_c 25.238882
_cell_angle_alpha 90.000000
_cell_angle_beta 144.922380
_cell_angle_gamma 90.000000
_cell_volume 1787.691231
_symmetry_space_group_name_H-M "C 2/M"
_symmetry_group_IT_number 12
_symmetry_cell_setting 'monoclinic'
loop_
_space_group_symop_operation_xyz
x,y,z
-x,y,-z
-x,-y,-z
x,-y,z
1/2+x,1/2+y,z
1/2-x,1/2+y,-z
1/2-x,1/2-y,-z
1/2+x,1/2-y,z
loop_
_atom_site_type_symbol
_atom_site_label
_atom_site_fract_x
_atom_site_fract_y
_atom_site_fract_z
Si Si1 0.880091 0.705807 0.770900
Si Si2 0.738126 0.208387 0.556678
Si Si3 0.923793 0.789981 0.385501
Si Si4 0.049023 0.214722 0.721468
Si Si5 0.820364 0.705478 0.105722
Si Si6 0.509100 0.285322 0.943834
O O1 0.884991 0.500000 0.757994
O O2 0.726994 0.783578 0.672864
O O3 0.030325 0.791687 0.833151
O O4 0.891974 0.714810 0.841271
O O5 0.750000 0.250000 0.500000
O O6 0.582083 0.268344 0.493048
O O7 0.891067 0.275647 0.658138
O O8 0.738877 0.000000 0.562970
O O9 0.936058 0.724861 0.331164
O O10 0.902634 0.000000 0.372346
O O11 0.166953 0.284489 0.823718
O O12 0.051948 0.000000 0.723183
O O13 0.820486 0.500000 0.090773
O O14 0.666890 0.777477 0.008211
O O15 0.504478 0.500000 0.940130
O O16 0.500000 0.229679 0.000000
#
# Coordination Sequence:
#
# PCOD9205160 Si02
#       6
#     8   8   8   8   8   8
#     4  10  21  36  53  75 103 135 171 209 252 304
#     4   9  17  30  50  77 105 133 170 213 255 299
#     4   9  18  33  52  75 102 132 172 216 253 298
#     4   9  18  32  51  75 100 129 168 210 250 297
#     4  10  21  35  51  74 104 136 169 207 254 307
#     4  10  21  36  54  78 104 130 167 212 255 304
#
# _framework density 26.850276000000001
#
# number of rings (size 3 to 8) (size 9 to 14) (size 15 to 20)
#    0.000    2.500    0.000    3.000    0.000    5.667 
#    0.000    0.833    0.000    5.000    0.000    0.000 
#    0.000    0.000    0.000    0.000    0.000    0.000 
#
# Total GULP energy -134214.731161 kJ/mol
# GULP energy per Si atom -5592.280465 kJ/mol
# Density = 2.678916 g / cm^3
# Si number density = 26.850276 Si / 1000 Ang^3
#
#
#
# Elastic Constant Matrix: (Units=GPa)
#
#
# Indices 1 2 3 4 5 6 
#
# 1 88.4574 13.2601 29.7370 0.0000 24.7114 0.0000
# 2 13.2601 90.7415 -1.2871 0.0000 3.6351 0.0001
# 3 29.7370 -1.2871 196.1243 0.0000 24.5512 0.0000
# 4 0.0000 0.0000 0.0000 23.0799 0.0000 -8.0935
# 5 24.7114 3.6351 24.5512 0.0000 64.1961 0.0000
# 6 0.0000 0.0001 0.0000 -8.0935 0.0000 15.9725
#
#
#
# Elastic Compliance Matrix: (Units=1/GPa)
#
#
# Indices 1 2 3 4 5 6 
#
# 1 0.013314 -0.001788 -0.001472 0.000000 -0.004461 0.000000
# 2 -0.001788 0.011290 0.000356 0.000000 -0.000087 0.000000
# 3 -0.001472 0.000356 0.005520 0.000000 -0.001565 0.000000
# 4 0.000000 0.000000 0.000000 0.052691 0.000000 0.026699
# 5 -0.004461 -0.000087 -0.001565 0.000000 0.017898 0.000000
# 6 0.000000 0.000000 0.000000 0.026699 0.000000 0.076137
#
#
# Mechanical properties :
#
#
# Convention : Reuss Voigt Hill
#
# Bulk Modulus (GPa) = 41.12372 50.97145 46.04758
# Shear Modulus (GPa) = 26.21068 42.89058 34.55063
#
# Velocity S-wave (km/s) = 3.12778 4.00108 3.59108
# Velocity P-wave (km/s) = 5.32852 6.35371 5.86357
#
# Compressibility (1/GPa) = 0.02431687
#
# Stress axis : x y z
#
# Youngs Moduli (GPa) = 75.10955 88.57308 181.15269
#
# Poissons Ratio (x) = 0.15835 0.26666
# Poissons Ratio (y) = 0.13428 -0.06451
# Poissons Ratio (z) = 0.11056 -0.03154
#
# Static dielectric constant tensor:
#      x y z
#    x 2.245980 0.000000 0.033910 
#    y 0.000000 1.951500 0.000000 
#    z 0.033910 0.000000 2.074030 
# 
# From -- ./inp_files/274009.got.cif
#   From: 2010.05.17/outbox.cif.g08.bks.cpg/sg12_138_cif.got.tgz:274009.got - 2010.06.03 13:09:07.
