data_PCOD9205786
_publ_section_title
;
Structure prediction by ZEFSAII (Michael W. Deem and Ramdas Pophale) SiO2 
 PCOD9205786
Probable space group: C 2/M
;
_chemical_formula_sum "Si O2"
_cell_formula_units_Z 32
_cell_length_a 5.168348
_cell_length_b 38.991203
_cell_length_c 8.700443
_cell_angle_alpha 90.000000
_cell_angle_beta 95.072750
_cell_angle_gamma 90.000000
_cell_volume 1746.446869
_symmetry_space_group_name_H-M "C 2/M"
_symmetry_group_IT_number 12
_symmetry_cell_setting 'monoclinic'
loop_
_space_group_symop_operation_xyz
x,y,z
-x,y,-z
-x,-y,-z
x,-y,z
1/2+x,1/2+y,z
1/2-x,1/2+y,-z
1/2-x,1/2-y,-z
1/2+x,1/2-y,z
loop_
_atom_site_type_symbol
_atom_site_label
_atom_site_fract_x
_atom_site_fract_y
_atom_site_fract_z
Si Si1 0.263240 0.411062 0.607291
Si Si2 0.734706 0.331879 0.392857
Si Si3 0.046932 0.770019 0.185508
Si Si4 0.270954 0.039517 0.104361
O O1 0.500000 0.415812 0.500000
O O2 0.260827 0.371358 0.661736
O O3 0.262317 0.436501 0.750363
O O4 0.000000 0.416598 0.500000
O O5 0.500000 0.329165 0.500000
O O6 0.666344 0.304897 0.257293
O O7 0.000000 0.324805 0.500000
O O8 0.265878 0.741302 0.233874
O O9 0.000000 0.772328 0.000000
O O10 0.329355 0.000000 0.153001
O O11 0.500000 0.050695 0.000000
O O12 0.000000 0.039760 0.000000
#
# Coordination Sequence:
#
# PCOD9205786 Si02
#       4
#     8   8   8   8
#     4  10  21  37  56  81 112 144 182 225 269 322
#     4  10  21  36  54  78 106 137 177 221 264 316
#     4  10  21  36  53  76 105 136 174 218 264 317
#     4  10  21  37  57  83 113 144 182 225 268 320
#
# _framework density 18.322915999999999
#
# number of rings (size 3 to 8) (size 9 to 14) (size 15 to 20)
#    0.000    2.000    0.000    3.000    0.000    5.000 
#    0.000    3.750    0.000    0.000    0.000    0.000 
#    0.000    0.000    0.000    0.000    0.000    0.000 
#
# Total GULP energy -89282.913183 kJ/mol
# GULP energy per Si atom -5580.182074 kJ/mol
# Density = 1.828121 g / cm^3
# Si number density = 18.322916 Si / 1000 Ang^3
#
#
#
# Elastic Constant Matrix: (Units=GPa)
#
#
# Indices 1 2 3 4 5 6 
#
# 1 138.8925 41.6463 45.5672 0.0000 14.4888 0.0000
# 2 41.6463 113.9832 86.8876 0.0000 5.6353 0.0000
# 3 45.5672 86.8876 79.7128 0.0000 6.5142 0.0000
# 4 0.0000 0.0000 0.0000 -120.0943 0.0000 -30.9739
# 5 14.4888 5.6353 6.5142 0.0000 18.4345 0.0000
# 6 0.0000 0.0000 0.0000 -30.9739 0.0000 6.5579
#
#
#
# Elastic Compliance Matrix: (Units=1/GPa)
#
#
# Indices 1 2 3 4 5 6 
#
# 1 0.009642 0.003595 -0.008981 0.000000 -0.005504 0.000000
# 2 0.003595 0.053546 -0.060602 0.000000 0.002221 0.000000
# 3 -0.008981 -0.060602 0.084072 0.000000 -0.004125 0.000000
# 4 0.000000 0.000000 0.000000 -0.003754 0.000000 -0.017730
# 5 -0.005504 0.002221 -0.004125 0.000000 0.059351 0.000000
# 6 0.000000 0.000000 0.000000 -0.017730 0.000000 0.068745
#
#
# Mechanical properties :
#
#
# Convention : Reuss Voigt Hill
#
# Bulk Modulus (GPa) = 65.42231 75.64342 70.53286
# Shear Modulus (GPa) = 12.23474 -8.45456 1.89009
#
# Velocity S-wave (km/s) = 2.58685 -2.15040 1.01675
# Velocity P-wave (km/s) = 6.68619 5.93359 6.32110
#
# Compressibility (1/GPa) = 0.01528531
#
# Stress axis : x y z
#
# Youngs Moduli (GPa) = 103.70881 18.67565 11.89456
#
# Poissons Ratio (x) = -0.06713 0.10682
# Poissons Ratio (y) = -0.37281 0.72083
# Poissons Ratio (z) = 0.93136 1.13177
#
# Static dielectric constant tensor:
#      x y z
#    x 1.623850 0.000000 -0.004890 
#    y 0.000000 1.655040 0.000000 
#    z -0.004890 0.000000 1.555390 
# 
# From -- ./inp_files/34499.got.cif
#   From: 2010.05.17/outbox.cif.g08.bks.cpg/sg12_18_cif.got.tgz:34499.got - 2010.06.03 13:09:07.
