data_PCOD9205619
_publ_section_title
;
Structure prediction by ZEFSAII (Michael W. Deem and Ramdas Pophale) SiO2 
 PCOD9205619
Probable space group: C 2/M
;
_chemical_formula_sum "Si O2"
_cell_formula_units_Z 56
_cell_length_a 13.550646
_cell_length_b 23.648668
_cell_length_c 21.625290
_cell_angle_alpha 90.000000
_cell_angle_beta 154.089923
_cell_angle_gamma 90.000000
_cell_volume 3028.100606
_symmetry_space_group_name_H-M "C 2/M"
_symmetry_group_IT_number 12
_symmetry_cell_setting 'monoclinic'
loop_
_space_group_symop_operation_xyz
x,y,z
-x,y,-z
-x,-y,-z
x,-y,z
1/2+x,1/2+y,z
1/2-x,1/2+y,-z
1/2-x,1/2-y,-z
1/2+x,1/2-y,z
loop_
_atom_site_type_symbol
_atom_site_label
_atom_site_fract_x
_atom_site_fract_y
_atom_site_fract_z
Si Si1 0.181492 0.931554 0.151314
Si Si2 0.537015 0.935282 0.257925
Si Si3 0.747208 0.174178 0.348854
Si Si4 0.077218 0.747616 0.146509
Si Si5 0.532851 0.246961 0.332898
Si Si6 0.849114 0.065826 0.066822
Si Si7 0.146378 0.182058 0.869494
O O1 0.423445 0.917259 0.259324
O O2 0.086754 0.920421 0.165854
O O3 0.172063 0.000000 0.140757
O O4 0.000000 0.907381 0.000000
O O5 0.728088 0.892277 0.346377
O O6 0.608901 0.000000 0.302435
O O7 0.340317 0.931809 0.094414
O O8 0.659130 0.194628 0.233695
O O9 0.589554 0.202255 0.311516
O O10 0.000000 0.195409 0.500000
O O11 0.299283 0.767815 0.235794
O O12 0.982312 0.793430 0.142051
O O13 0.868788 0.721957 0.990770
O O14 0.750000 0.250000 0.500000
O O15 0.491643 0.304758 0.270653
O O16 0.806136 0.116130 0.090932
O O17 0.853128 0.000000 0.090709
#
# Coordination Sequence:
#
# PCOD9205619 Si02
#       7
#     8   8   8   8   8   8   8
#     4   7  12  23  41  71 106 139 174 217 269 325
#     4   9  17  30  50  78 113 149 183 225 279 329
#     4  11  21  35  56  79 109 147 191 231 278 341
#     4  10  21  39  54  84 114 143 189 232 289 331
#     4  11  23  39  59  78 110 153 185 233 286 333
#     4   9  16  30  52  81 115 145 179 229 281 329
#     4  10  21  35  59  87 112 143 188 238 277 342
#
# _framework density 18.493441000000001
#
# number of rings (size 3 to 8) (size 9 to 14) (size 15 to 20)
#    0.000    2.429    2.857    2.143    2.000    0.286 
#    0.000    0.000    0.000    3.429    0.000    1.000 
#    0.000    0.000    0.000    0.000    0.000    0.000 
#
# Total GULP energy -155911.965255 kJ/mol
# GULP energy per Si atom -5568.284473 kJ/mol
# Density = 1.845135 g / cm^3
# Si number density = 18.493441 Si / 1000 Ang^3
#
#
#
# Elastic Constant Matrix: (Units=GPa)
#
#
# Indices 1 2 3 4 5 6 
#
# 1 65.2996 17.5407 33.2455 -0.0009 15.5653 -0.0032
# 2 17.5407 59.4896 15.2668 0.0197 8.4614 0.0090
# 3 33.2455 15.2668 70.3349 0.0012 3.3392 0.0028
# 4 -0.0009 0.0197 0.0012 19.3447 -0.0011 2.8765
# 5 15.5653 8.4614 3.3392 -0.0011 30.5925 -0.0015
# 6 -0.0032 0.0090 0.0028 2.8765 -0.0015 19.3908
#
#
#
# Elastic Compliance Matrix: (Units=1/GPa)
#
#
# Indices 1 2 3 4 5 6 
#
# 1 0.023634 -0.002951 -0.010051 0.000003 -0.010112 0.000005
# 2 -0.002951 0.018816 -0.002526 -0.000018 -0.003427 -0.000006
# 3 -0.010051 -0.002526 0.019341 0.000002 0.003701 -0.000003
# 4 0.000003 -0.000018 0.000002 0.052860 0.000005 -0.007842
# 5 -0.010112 -0.003427 0.003701 0.000005 0.038376 0.000002
# 6 0.000005 -0.000006 -0.000003 -0.007842 0.000002 0.052734
#
#
# Mechanical properties :
#
#
# Convention : Reuss Voigt Hill
#
# Bulk Modulus (GPa) = 32.53692 36.35887 34.44790
# Shear Modulus (GPa) = 20.23784 22.47033 21.35408
#
# Velocity S-wave (km/s) = 3.31165 3.48953 3.40175
# Velocity P-wave (km/s) = 5.67932 5.99490 5.83924
#
# Compressibility (1/GPa) = 0.03073431
#
# Stress axis : x y z
#
# Youngs Moduli (GPa) = 42.31197 53.14749 51.70362
#
# Poissons Ratio (x) = 0.15684 0.51965
# Poissons Ratio (y) = 0.12487 0.13063
# Poissons Ratio (z) = 0.42526 0.13428
#
# Static dielectric constant tensor:
#      x y z
#    x 1.666960 0.000000 0.026860 
#    y 0.000000 1.660510 -0.000010 
#    z 0.026860 -0.000010 1.642930 
# 
# From -- ./inp_files/307253.got.cif
#   From: 2010.05.17/outbox.cif.g08.bks.cpg/sg12_154_cif.got.tgz:307253.got - 2010.06.03 13:09:07.
