data_PCOD9205755
_publ_section_title
;
Structure prediction by ZEFSAII (Michael W. Deem and Ramdas Pophale) SiO2 
 PCOD9205755
Probable space group: C 2/M
;
_chemical_formula_sum "Si O2"
_cell_formula_units_Z 64
_cell_length_a 18.834442
_cell_length_b 27.395576
_cell_length_c 16.483963
_cell_angle_alpha 90.000000
_cell_angle_beta 155.925295
_cell_angle_gamma 90.000000
_cell_volume 3469.586549
_symmetry_space_group_name_H-M "C 2/M"
_symmetry_group_IT_number 12
_symmetry_cell_setting 'monoclinic'
loop_
_space_group_symop_operation_xyz
x,y,z
-x,y,-z
-x,-y,-z
x,-y,z
1/2+x,1/2+y,z
1/2-x,1/2+y,-z
1/2-x,1/2-y,-z
1/2+x,1/2-y,z
loop_
_atom_site_type_symbol
_atom_site_label
_atom_site_fract_x
_atom_site_fract_y
_atom_site_fract_z
Si Si1 0.617877 0.872916 0.687237
Si Si2 0.352542 0.307004 0.449780
Si Si3 0.932891 0.357413 0.734690
Si Si4 0.191091 0.055640 0.232004
Si Si5 0.922492 0.200472 0.010682
Si Si6 0.574322 0.942041 0.383972
Si Si7 0.246025 0.691570 0.153975
Si Si8 0.723398 0.212396 0.545089
O O1 0.500000 0.841497 0.500000
O O2 0.690389 0.909605 0.695530
O O3 0.548969 0.909036 0.685971
O O4 0.772563 0.837717 0.874758
O O5 0.231371 0.338104 0.384159
O O6 0.559168 0.313027 0.679086
O O7 0.283207 0.319167 0.287593
O O8 0.325024 0.248682 0.432845
O O9 0.914799 0.326407 0.631270
O O10 0.924263 0.413633 0.699434
O O11 0.107012 0.342977 0.964299
O O12 0.237452 0.062163 0.374661
O O13 0.236223 0.000000 0.259924
O O14 0.000000 0.064811 0.000000
O O15 0.090989 0.189816 0.241157
O O16 0.843595 0.254624 0.943325
O O17 0.000000 0.196836 0.000000
O O18 0.530437 0.000000 0.335016
O O19 0.750000 0.250000 0.500000
#
# Coordination Sequence:
#
# PCOD9205755 Si02
#       8
#     8   8   8   8   8   8   8   8
#     4  10  23  34  54  84 115 158 206 244 282 344
#     4  10  22  39  62  87 119 159 205 236 293 361
#     4  11  23  40  59  87 125 157 197 249 306 355
#     4   9  18  36  57  79 109 152 201 246 295 345
#     4  12  22  34  56  82 125 162 202 239 283 338
#     4  10  23  41  60  81 115 156 203 258 308 354
#     4  11  22  39  63  85 119 168 198 241 290 359
#     4  10  21  36  52  82 122 158 193 237 285 353
#
# _framework density 18.446000999999999
#
# number of rings (size 3 to 8) (size 9 to 14) (size 15 to 20)
#    0.000    1.625    3.750    1.125    8.750    4.000 
#    0.000    0.000    0.000    1.500    0.000    1.750 
#    0.000    0.000    0.000    0.000    0.000    0.000 
#
# Total GULP energy -178268.034848 kJ/mol
# GULP energy per Si atom -5570.876089 kJ/mol
# Density = 1.840402 g / cm^3
# Si number density = 18.446001 Si / 1000 Ang^3
#
#
#
# Elastic Constant Matrix: (Units=GPa)
#
#
# Indices 1 2 3 4 5 6 
#
# 1 51.2035 38.1640 46.8776 0.0000 8.7393 0.0000
# 2 38.1640 101.0580 37.2689 0.0000 -5.9458 0.0000
# 3 46.8776 37.2689 144.3412 0.0000 -0.7365 0.0000
# 4 0.0000 0.0000 0.0000 27.2106 0.0000 -3.8393
# 5 8.7393 -5.9458 -0.7365 0.0000 27.4091 0.0000
# 6 0.0000 0.0000 0.0000 -3.8393 0.0000 29.2412
#
#
#
# Elastic Compliance Matrix: (Units=1/GPa)
#
#
# Indices 1 2 3 4 5 6 
#
# 1 0.041014 -0.012703 -0.010122 0.000000 -0.016105 0.000000
# 2 -0.012703 0.015018 0.000285 0.000000 0.007316 0.000000
# 3 -0.010122 0.000285 0.010160 0.000000 0.003562 0.000000
# 4 0.000000 0.000000 0.000000 0.037444 0.000000 0.004916
# 5 -0.016105 0.007316 0.003562 0.000000 0.043302 0.000000
# 6 0.000000 0.000000 0.000000 0.004916 0.000000 0.034844
#
#
# Mechanical properties :
#
#
# Convention : Reuss Voigt Hill
#
# Bulk Modulus (GPa) = 47.36785 60.13597 53.75191
# Shear Modulus (GPa) = 21.37675 28.39168 24.88421
#
# Velocity S-wave (km/s) = 3.40793 3.92749 3.67690
# Velocity P-wave (km/s) = 6.42030 7.29649 6.87237
#
# Compressibility (1/GPa) = 0.02111137
#
# Stress axis : x y z
#
# Youngs Moduli (GPa) = 24.38191 66.58754 98.42584
#
# Poissons Ratio (x) = 0.84588 0.99629
# Poissons Ratio (y) = 0.30973 -0.02809
# Poissons Ratio (z) = 0.24680 -0.01900
#
# Static dielectric constant tensor:
#      x y z
#    x 1.684410 0.000000 0.004040 
#    y 0.000000 1.640330 0.000000 
#    z 0.004040 0.000000 1.824970 
# 
# From -- ./inp_files/286705.got.cif
#   From: 2010.05.17/outbox.cif.g08.bks.cpg/sg12_144_cif.got.tgz:286705.got - 2010.06.03 13:09:07.
