data_PCOD9205419
_publ_section_title
;
Structure prediction by ZEFSAII (Michael W. Deem and Ramdas Pophale) SiO2 
 PCOD9205419
Probable space group: C 2/M
;
_chemical_formula_sum "Si O2"
_cell_formula_units_Z 36
_cell_length_a 15.453603
_cell_length_b 7.989752
_cell_length_c 29.687964
_cell_angle_alpha 90.000000
_cell_angle_beta 156.046475
_cell_angle_gamma 90.000000
_cell_volume 1488.211578
_symmetry_space_group_name_H-M "C 2/M"
_symmetry_group_IT_number 12
_symmetry_cell_setting 'monoclinic'
loop_
_space_group_symop_operation_xyz
x,y,z
-x,y,-z
-x,-y,-z
x,-y,z
1/2+x,1/2+y,z
1/2-x,1/2+y,-z
1/2-x,1/2-y,-z
1/2+x,1/2-y,z
loop_
_atom_site_type_symbol
_atom_site_label
_atom_site_fract_x
_atom_site_fract_y
_atom_site_fract_z
Si Si1 0.458700 0.802976 0.073849
Si Si2 0.051198 0.693151 0.766182
Si Si3 0.500000 0.251005 0.000000
Si Si4 0.378800 0.199672 0.397290
Si Si5 0.939663 0.805275 0.328976
O O1 0.466686 0.685309 0.034125
O O2 0.681681 0.785157 0.205276
O O3 0.445029 0.000000 0.053291
O O4 0.250000 0.750000 0.000000
O O5 0.119410 0.500000 0.803733
O O6 0.987689 0.721878 0.683473
O O7 0.857743 0.727621 0.707849
O O8 0.254733 0.810319 0.874151
O O9 0.500000 0.257865 0.500000
O O10 0.494301 0.244071 0.405184
O O11 0.361879 0.000000 0.390821
O O12 0.995237 0.000000 0.351865
#
# Coordination Sequence:
#
# PCOD9205419 Si02
#       5
#     8   8   4   8   8
#     4  10  21  35  55  84 119 159 200 244 295 354
#     4  11  23  40  64  93 126 163 203 249 302 361
#     4  10  22  38  60  90 126 162 200 242 296 360
#     4  11  25  44  65  90 121 159 205 256 308 362
#     4  10  22  40  61  88 121 158 203 251 302 361
#
# _framework density 24.190109
#
# number of rings (size 3 to 8) (size 9 to 14) (size 15 to 20)
#    0.000    1.556    0.000    4.000    0.000   14.222 
#    0.000    0.000    0.000    0.000    0.000    0.000 
#    0.000    0.000    0.000    0.000    0.000    0.000 
#
# Total GULP energy -100334.242138 kJ/mol
# GULP energy per Si atom -5574.124563 kJ/mol
# Density = 2.413505 g / cm^3
# Si number density = 24.190109 Si / 1000 Ang^3
#
#
#
# Elastic Constant Matrix: (Units=GPa)
#
#
# Indices 1 2 3 4 5 6 
#
# 1 97.0176 6.7620 8.5527 -0.0003 -21.2487 0.0003
# 2 6.7620 102.2635 11.5118 0.0002 -9.0908 -0.0001
# 3 8.5527 11.5118 71.2510 0.0015 -24.2299 -0.0004
# 4 -0.0003 0.0002 0.0015 59.2402 -0.0001 -29.2645
# 5 -21.2487 -9.0908 -24.2299 -0.0001 47.4314 0.0001
# 6 0.0003 -0.0001 -0.0004 -29.2645 0.0001 45.3075
#
#
#
# Elastic Compliance Matrix: (Units=1/GPa)
#
#
# Indices 1 2 3 4 5 6 
#
# 1 0.011452 -0.000340 0.000487 0.000000 0.005314 0.000000
# 2 -0.000340 0.010038 -0.001184 0.000000 0.001167 0.000000
# 3 0.000487 -0.001184 0.017143 -0.000001 0.008749 0.000000
# 4 0.000000 0.000000 -0.000001 0.024791 0.000000 0.016012
# 5 0.005314 0.001167 0.008749 0.000000 0.028157 0.000000
# 6 0.000000 0.000000 0.000000 0.016012 0.000000 0.032414
#
#
# Mechanical properties :
#
#
# Convention : Reuss Voigt Hill
#
# Bulk Modulus (GPa) = 27.35238 36.02056 31.68647
# Shear Modulus (GPa) = 36.16536 46.64286 41.40411
#
# Velocity S-wave (km/s) = 3.87078 4.39587 4.14165
# Velocity P-wave (km/s) = 5.59545 6.37870 5.99987
#
# Compressibility (1/GPa) = 0.03655989
#
# Stress axis : x y z
#
# Youngs Moduli (GPa) = 87.32070 99.61988 58.33347
#
# Poissons Ratio (x) = 0.03384 -0.02843
# Poissons Ratio (y) = 0.02966 0.06908
# Poissons Ratio (z) = -0.04256 0.11798
#
# Static dielectric constant tensor:
#      x y z
#    x 1.933560 0.000000 0.008070 
#    y 0.000000 2.106020 0.000000 
#    z 0.008070 0.000000 1.990780 
# 
# From -- ./inp_files/244957.got.cif
#   From: 2010.05.17/outbox.cif.g08.bks.cpg/sg12_123_cif.got.tgz:244957.got - 2010.06.03 13:09:07.
