data_PCOD9205931
_publ_section_title
;
Structure prediction by ZEFSAII (Michael W. Deem and Ramdas Pophale) SiO2 
 PCOD9205931
Probable space group: C 2/M
;
_chemical_formula_sum "Si O2"
_cell_formula_units_Z 48
_cell_length_a 16.535164
_cell_length_b 16.480235
_cell_length_c 13.337476
_cell_angle_alpha 90.000000
_cell_angle_beta 144.411993
_cell_angle_gamma 90.000000
_cell_volume 2115.111620
_symmetry_space_group_name_H-M "C 2/M"
_symmetry_group_IT_number 12
_symmetry_cell_setting 'monoclinic'
loop_
_space_group_symop_operation_xyz
x,y,z
-x,y,-z
-x,-y,-z
x,-y,z
1/2+x,1/2+y,z
1/2-x,1/2+y,-z
1/2-x,1/2-y,-z
1/2+x,1/2-y,z
loop_
_atom_site_type_symbol
_atom_site_label
_atom_site_fract_x
_atom_site_fract_y
_atom_site_fract_z
Si Si1 0.696988 0.910222 0.955751
Si Si2 0.667468 0.589989 0.683748
Si Si3 0.344050 0.413888 0.803115
Si Si4 0.508185 0.588963 0.770919
Si Si5 0.269652 0.251877 0.681660
Si Si6 0.973409 0.730433 0.713937
O O1 0.594720 0.835731 0.831849
O O2 0.630150 0.000000 0.880120
O O3 0.766329 0.905111 0.137265
O O4 0.835423 0.911159 0.026099
O O5 0.500000 0.593484 0.500000
O O6 0.710282 0.500000 0.689360
O O7 0.725694 0.667339 0.684484
O O8 0.271189 0.500000 0.749602
O O9 0.381202 0.410103 0.720892
O O10 0.283372 0.327110 0.770985
O O11 0.500000 0.417972 0.000000
O O12 0.498299 0.500000 0.708897
O O13 0.508407 0.676767 0.720139
O O14 0.154641 0.286006 0.488430
O O15 0.411851 0.235186 0.764333
#
# Coordination Sequence:
#
# PCOD9205931 Si02
#       6
#     8   8   8   8   8   8
#     4  10  21  36  58  85 115 150 187 233 287 341
#     4  10  22  39  59  85 117 153 192 234 286 347
#     4   9  19  36  58  81 107 145 191 235 281 335
#     4   9  18  34  57  81 107 144 187 227 273 334
#     4  10  22  36  56  82 112 150 188 236 286 333
#     4  10  21  36  54  83 114 148 190 229 284 338
#
# _framework density 22.693836999999998
#
# number of rings (size 3 to 8) (size 9 to 14) (size 15 to 20)
#    0.000    2.333    0.000    1.500    4.667    3.333 
#    0.000    5.000    0.000    0.500    0.000    0.000 
#    0.000    0.000    0.000    0.000    0.000    0.000 
#
# Total GULP energy -133651.721147 kJ/mol
# GULP energy per Si atom -5568.821714 kJ/mol
# Density = 2.264218 g / cm^3
# Si number density = 22.693837 Si / 1000 Ang^3
#
#
#
# Elastic Constant Matrix: (Units=GPa)
#
#
# Indices 1 2 3 4 5 6 
#
# 1 38.8392 41.9727 6.4952 0.0000 2.6189 0.0000
# 2 41.9727 239.2935 57.3201 0.0000 11.9811 0.0000
# 3 6.4952 57.3201 56.7165 0.0000 3.4287 0.0000
# 4 0.0000 0.0000 0.0000 19.2179 0.0000 14.9150
# 5 2.6189 11.9811 3.4287 0.0000 23.7050 0.0000
# 6 0.0000 0.0000 0.0000 14.9150 0.0000 25.9808
#
#
#
# Elastic Compliance Matrix: (Units=1/GPa)
#
#
# Indices 1 2 3 4 5 6 
#
# 1 0.032083 -0.006227 0.002666 0.000000 -0.000783 0.000000
# 2 -0.006227 0.006818 -0.006064 0.000000 -0.001881 0.000000
# 3 0.002666 -0.006064 0.023492 0.000000 -0.000628 0.000000
# 4 0.000000 0.000000 0.000000 0.093848 0.000000 -0.053876
# 5 -0.000783 -0.001881 -0.000628 0.000000 0.043313 0.000000
# 6 0.000000 0.000000 0.000000 -0.053876 0.000000 0.069419
#
#
# Mechanical properties :
#
#
# Convention : Reuss Voigt Hill
#
# Bulk Modulus (GPa) = 23.17756 60.71391 41.94573
# Shear Modulus (GPa) = 16.52330 29.05150 22.78740
#
# Velocity S-wave (km/s) = 2.70125 3.58180 3.17223
# Velocity P-wave (km/s) = 4.46815 6.62701 5.65162
#
# Compressibility (1/GPa) = 0.04314518
#
# Stress axis : x y z
#
# Youngs Moduli (GPa) = 31.16871 146.67404 42.56727
#
# Poissons Ratio (x) = 0.91334 -0.11350
# Poissons Ratio (y) = 0.19409 0.25811
# Poissons Ratio (z) = -0.08311 0.88937
#
# Static dielectric constant tensor:
#      x y z
#    x 2.016240 0.000000 -0.070440 
#    y 0.000000 1.886510 0.000000 
#    z -0.070440 0.000000 1.851110 
# 
# From -- ./inp_files/284098.got.cif
#   From: 2010.05.17/outbox.cif.g08.bks.cpg/sg12_143_cif.got.tgz:284098.got - 2010.06.03 13:09:07.
