data_PCOD9205629
_publ_section_title
;
Structure prediction by ZEFSAII (Michael W. Deem and Ramdas Pophale) SiO2 
 PCOD9205629
Probable space group: C 2/M
;
_chemical_formula_sum "Si O2"
_cell_formula_units_Z 40
_cell_length_a 16.851237
_cell_length_b 22.188657
_cell_length_c 9.784400
_cell_angle_alpha 90.000000
_cell_angle_beta 145.754041
_cell_angle_gamma 90.000000
_cell_volume 2058.779825
_symmetry_space_group_name_H-M "C 2/M"
_symmetry_group_IT_number 12
_symmetry_cell_setting 'monoclinic'
loop_
_space_group_symop_operation_xyz
x,y,z
-x,y,-z
-x,-y,-z
x,-y,z
1/2+x,1/2+y,z
1/2-x,1/2+y,-z
1/2-x,1/2-y,-z
1/2+x,1/2-y,z
loop_
_atom_site_type_symbol
_atom_site_label
_atom_site_fract_x
_atom_site_fract_y
_atom_site_fract_z
Si Si1 0.401159 0.310150 0.647010
Si Si2 0.718136 0.689185 0.040891
Si Si3 0.654878 0.606757 0.696787
Si Si4 0.461499 0.934011 0.103564
Si Si5 0.844175 0.329334 0.502754
O O1 0.364875 0.344060 0.452797
O O2 0.301708 0.340004 0.620471
O O3 0.377432 0.238708 0.597265
O O4 0.568347 0.311506 0.905769
O O5 0.827505 0.674605 0.315860
O O6 0.750000 0.750000 0.000000
O O7 0.699329 0.639564 0.898991
O O8 0.500000 0.578628 0.500000
O O9 0.792043 0.568067 0.862629
O O10 0.539003 0.878515 0.289160
O O11 0.508943 0.000000 0.222568
O O12 0.500000 0.928147 0.000000
#
# Coordination Sequence:
#
# PCOD9205629 Si02
#       5
#     8   8   8   8   8
#     4  10  21  35  59  90 127 160 203 256 318 380
#     4  11  21  35  56  92 133 161 192 253 330 374
#     4  10  21  39  61  92 125 159 206 258 316 373
#     4  11  24  43  66  89 124 172 218 258 301 370
#     4  11  22  36  62  91 124 164 208 258 308 380
#
# _framework density 19.428982999999999
#
# number of rings (size 3 to 8) (size 9 to 14) (size 15 to 20)
#    0.000    1.400    4.000    1.800    0.000    2.800 
#    0.000    2.000    0.000    3.600    0.000    0.000 
#    0.000    0.000    0.000    0.000    0.000    0.000 
#
# Total GULP energy -111480.391948 kJ/mol
# GULP energy per Si atom -5574.019597 kJ/mol
# Density = 1.938476 g / cm^3
# Si number density = 19.428983 Si / 1000 Ang^3
#
#
#
# Elastic Constant Matrix: (Units=GPa)
#
#
# Indices 1 2 3 4 5 6 
#
# 1 107.7371 24.2468 56.0646 0.0000 16.0146 0.0000
# 2 24.2468 83.9840 62.8788 0.0000 -1.0561 0.0000
# 3 56.0646 62.8788 98.2761 0.0000 4.6071 0.0000
# 4 0.0000 0.0000 0.0000 24.0027 0.0000 12.7078
# 5 16.0146 -1.0561 4.6071 0.0000 36.8071 0.0000
# 6 0.0000 0.0000 0.0000 12.7078 0.0000 102.9355
#
#
#
# Elastic Compliance Matrix: (Units=1/GPa)
#
#
# Indices 1 2 3 4 5 6 
#
# 1 0.014604 0.003425 -0.010290 0.000000 -0.004968 0.000000
# 2 0.003425 0.023890 -0.017303 0.000000 0.001361 0.000000
# 3 -0.010290 -0.017303 0.027089 0.000000 0.000590 0.000000
# 4 0.000000 0.000000 0.000000 0.044575 0.000000 -0.005503
# 5 -0.004968 0.001361 0.000590 0.000000 0.029295 0.000000
# 6 0.000000 0.000000 0.000000 -0.005503 0.000000 0.010394
#
#
# Mechanical properties :
#
#
# Convention : Reuss Voigt Hill
#
# Bulk Modulus (GPa) = 57.97989 64.04195 61.01092
# Shear Modulus (GPa) = 24.51777 42.53619 33.52698
#
# Velocity S-wave (km/s) = 3.55620 4.68409 4.15856
# Velocity P-wave (km/s) = 6.83877 7.89227 7.38433
#
# Compressibility (1/GPa) = 0.01724736
#
# Stress axis : x y z
#
# Youngs Moduli (GPa) = 68.47324 41.85826 36.91527
#
# Poissons Ratio (x) = -0.14338 0.37987
# Poissons Ratio (y) = -0.23455 0.63876
# Poissons Ratio (z) = 0.70460 0.72429
#
# Static dielectric constant tensor:
#      x y z
#    x 1.774220 0.000000 0.071920 
#    y 0.000000 1.672450 0.000000 
#    z 0.071920 0.000000 1.697290 
# 
# From -- ./inp_files/65097.got.cif
#   From: 2010.05.17/outbox.cif.g08.bks.cpg/sg12_33_cif.got.tgz:65097.got - 2010.06.03 13:09:07.
