data_PCOD9205285
_publ_section_title
;
Structure prediction by ZEFSAII (Michael W. Deem and Ramdas Pophale) SiO2 
 PCOD9205285
Probable space group: C 2/M
;
_chemical_formula_sum "Si O2"
_cell_formula_units_Z 64
_cell_length_a 9.359826
_cell_length_b 23.172388
_cell_length_c 16.545261
_cell_angle_alpha 90.000000
_cell_angle_beta 106.399115
_cell_angle_gamma 90.000000
_cell_volume 3442.507814
_symmetry_space_group_name_H-M "C 2/M"
_symmetry_group_IT_number 12
_symmetry_cell_setting 'monoclinic'
loop_
_space_group_symop_operation_xyz
x,y,z
-x,y,-z
-x,-y,-z
x,-y,z
1/2+x,1/2+y,z
1/2-x,1/2+y,-z
1/2-x,1/2-y,-z
1/2+x,1/2-y,z
loop_
_atom_site_type_symbol
_atom_site_label
_atom_site_fract_x
_atom_site_fract_y
_atom_site_fract_z
Si Si1 0.172797 0.312255 0.999901
Si Si2 0.246468 0.146197 0.163031
Si Si3 0.869682 0.163522 0.419838
Si Si4 0.916184 0.853774 0.162799
Si Si5 0.110251 0.749999 0.720381
Si Si6 0.449904 0.163655 0.580184
Si Si7 0.975448 0.568064 0.293168
Si Si8 0.182841 0.068063 0.707020
O O1 0.275048 0.343715 0.082568
O O2 0.250000 0.250000 0.000000
O O3 0.192229 0.343610 0.917089
O O4 0.000000 0.307509 0.000000
O O5 0.279459 0.204799 0.219413
O O6 0.344273 0.095957 0.219418
O O7 0.069960 0.135011 0.140054
O O8 0.834784 0.209686 0.343981
O O9 0.725040 0.155838 0.450240
O O10 0.898061 0.103811 0.377025
O O11 0.000000 0.181187 0.500000
O O12 0.939259 0.795108 0.219039
O O13 0.874572 0.903952 0.219246
O O14 0.990623 0.709751 0.656138
O O15 0.500000 0.181472 0.500000
O O16 0.521346 0.103946 0.622861
O O17 0.957551 0.500000 0.301010
O O18 0.138922 0.578453 0.278327
O O19 0.157154 0.000000 0.699364
#
# Coordination Sequence:
#
# PCOD9205285 Si02
#       8
#     8   8   8   8   8   8   8   8
#     4  12  24  38  59  88 123 156 188 228 276 336
#     4  11  22  37  60  88 117 149 190 237 285 340
#     4  10  21  35  53  80 111 148 190 235 287 343
#     4  11  22  37  60  88 117 149 190 237 285 340
#     4  10  21  35  56  78 116 152 190 227 287 350
#     4  10  21  35  53  80 111 148 190 235 287 343
#     4   9  20  40  61  80 110 152 194 237 290 347
#     4   9  20  40  61  80 110 152 194 237 290 347
#
# _framework density 18.591099
#
# number of rings (size 3 to 8) (size 9 to 14) (size 15 to 20)
#    0.000    1.750    1.250    3.000    0.000    9.000 
#    0.000    0.625    0.000    3.750    0.000    0.000 
#    0.000    0.000    0.000    0.000    0.000    0.000 
#
# Total GULP energy -178518.679473 kJ/mol
# GULP energy per Si atom -5578.708734 kJ/mol
# Density = 1.854878 g / cm^3
# Si number density = 18.591099 Si / 1000 Ang^3
#
#
#
# Elastic Constant Matrix: (Units=GPa)
#
#
# Indices 1 2 3 4 5 6 
#
# 1 106.7676 28.7686 55.9373 0.0000 -2.4662 0.0000
# 2 28.7686 107.0622 30.7497 0.0000 0.2999 0.0000
# 3 55.9373 30.7497 111.4459 0.0000 3.6478 0.0000
# 4 0.0000 0.0000 0.0000 13.4270 0.0000 -0.1277
# 5 -2.4662 0.2999 3.6478 0.0000 3.0198 0.0000
# 6 0.0000 0.0000 0.0000 -0.1277 0.0000 15.5302
#
#
#
# Elastic Compliance Matrix: (Units=1/GPa)
#
#
# Indices 1 2 3 4 5 6 
#
# 1 0.014126 -0.001764 -0.007275 0.000000 0.020499 0.000000
# 2 -0.001764 0.010382 -0.001977 0.000000 -0.000084 0.000000
# 3 -0.007275 -0.001977 0.013908 0.000000 -0.022545 0.000000
# 4 0.000000 0.000000 0.000000 0.074483 0.000000 0.000613
# 5 0.020499 -0.000084 -0.022545 0.000000 0.375136 0.000000
# 6 0.000000 0.000000 0.000000 0.000613 0.000000 0.064396
#
#
# Mechanical properties :
#
#
# Convention : Reuss Voigt Hill
#
# Bulk Modulus (GPa) = 61.02781 61.79855 61.41318
# Shear Modulus (GPa) = 8.62184 20.38339 14.50262
#
# Velocity S-wave (km/s) = 2.15585 3.31479 2.79603
# Velocity P-wave (km/s) = 6.25256 6.92557 6.59766
#
# Compressibility (1/GPa) = 0.01638597
#
# Stress axis : x y z
#
# Youngs Moduli (GPa) = 70.79042 96.31804 71.90357
#
# Poissons Ratio (x) = 0.16990 0.52307
# Poissons Ratio (y) = 0.12487 0.14212
# Poissons Ratio (z) = 0.51497 0.19038
#
# Static dielectric constant tensor:
#      x y z
#    x 1.637500 0.000000 0.000410 
#    y 0.000000 1.643570 0.000000 
#    z 0.000410 0.000000 1.645420 
# 
# From -- ./inp_files/199857.got.cif
#   From: 2010.05.17/outbox.cif.g08.bks.cpg/sg12_100_cif.got.tgz:199857.got - 2010.06.03 13:09:07.
