data_PCOD9205199
_publ_section_title
;
Structure prediction by ZEFSAII (Michael W. Deem and Ramdas Pophale) SiO2 
 PCOD9205199
Probable space group: C 2/M
;
_chemical_formula_sum "Si O2"
_cell_formula_units_Z 56
_cell_length_a 23.010052
_cell_length_b 10.717501
_cell_length_c 13.101446
_cell_angle_alpha 90.000000
_cell_angle_beta 59.091926
_cell_angle_gamma 90.000000
_cell_volume 2772.131774
_symmetry_space_group_name_H-M "C 2/M"
_symmetry_group_IT_number 12
_symmetry_cell_setting 'monoclinic'
loop_
_space_group_symop_operation_xyz
x,y,z
-x,y,-z
-x,-y,-z
x,-y,z
1/2+x,1/2+y,z
1/2-x,1/2+y,-z
1/2-x,1/2-y,-z
1/2+x,1/2-y,z
loop_
_atom_site_type_symbol
_atom_site_label
_atom_site_fract_x
_atom_site_fract_y
_atom_site_fract_z
Si Si1 0.096354 0.639709 0.287644
Si Si2 0.104799 0.648510 0.718168
Si Si3 0.459572 0.145482 0.878662
Si Si4 0.362587 0.147688 0.535297
Si Si5 0.646493 0.363610 0.977204
Si Si6 0.224757 0.259956 0.747644
Si Si7 0.803176 0.136963 0.853689
O O1 0.127224 0.500000 0.251254
O O2 0.042658 0.643914 0.244378
O O3 0.083654 0.656401 0.419792
O O4 0.147665 0.749434 0.215283
O O5 0.096745 0.500000 0.718576
O O6 0.112224 0.697076 0.595886
O O7 0.172680 0.678524 0.717471
O O8 0.035568 0.688442 0.836647
O O9 0.446455 0.000000 0.922822
O O10 0.404616 0.246960 0.964174
O O11 0.294169 0.217767 0.631815
O O12 0.347244 0.000000 0.537636
O O13 0.612792 0.500000 0.017360
O O14 0.685665 0.353618 0.836039
O O15 0.702146 0.358484 0.018986
O O16 0.241595 0.346212 0.831139
O O17 0.833157 0.000000 0.804261
#
# Coordination Sequence:
#
# PCOD9205199 Si02
#       7
#     8   8   8   8   8   8   8
#     4   8  15  30  54  79 104 136 175 219 262 304
#     4  10  21  35  52  76 107 142 179 218 259 310
#     4   9  19  36  56  80 108 139 177 217 260 311
#     4   9  18  33  53  78 106 137 177 222 263 306
#     4  10  21  37  57  80 106 137 175 221 267 313
#     4  11  20  33  52  78 108 142 175 213 262 319
#     4   9  18  32  52  78 107 137 172 216 265 314
#
# _framework density 20.201059999999998
#
# number of rings (size 3 to 8) (size 9 to 14) (size 15 to 20)
#    0.000    2.571    0.000    1.714    0.000    2.857 
#    0.000   12.143    0.000    5.143    0.000   13.000 
#    0.000    0.000    0.000    0.000    0.000    0.000 
#
# Total GULP energy -155882.747695 kJ/mol
# GULP energy per Si atom -5567.240989 kJ/mol
# Density = 2.015508 g / cm^3
# Si number density = 20.201060 Si / 1000 Ang^3
#
#
#
# Elastic Constant Matrix: (Units=GPa)
#
#
# Indices 1 2 3 4 5 6 
#
# 1 56.7371 20.9465 9.1682 0.0000 -18.4889 0.0000
# 2 20.9465 84.2792 24.1792 0.0000 -13.1749 0.0000
# 3 9.1682 24.1792 62.3256 0.0000 -7.5301 0.0000
# 4 0.0000 0.0000 0.0000 13.9056 0.0000 -3.2222
# 5 -18.4889 -13.1749 -7.5301 0.0000 22.2377 0.0000
# 6 0.0000 0.0000 0.0000 -3.2222 0.0000 14.7142
#
#
#
# Elastic Compliance Matrix: (Units=1/GPa)
#
#
# Indices 1 2 3 4 5 6 
#
# 1 0.024964 -0.003223 -0.000151 0.000000 0.018795 0.000000
# 2 -0.003223 0.014708 -0.004695 0.000000 0.004444 0.000000
# 3 -0.000151 -0.004695 0.018285 0.000000 0.003285 0.000000
# 4 0.000000 0.000000 0.000000 0.075757 0.000000 0.016590
# 5 0.018795 0.004444 0.003285 0.000000 0.064341 0.000000
# 6 0.000000 0.000000 0.000000 0.016590 0.000000 0.071594
#
#
# Mechanical properties :
#
#
# Convention : Reuss Voigt Hill
#
# Bulk Modulus (GPa) = 23.91237 34.65887 29.28562
# Shear Modulus (GPa) = 16.68181 20.10804 18.39492
#
# Velocity S-wave (km/s) = 2.87677 3.15841 3.02088
# Velocity P-wave (km/s) = 4.78511 5.52222 5.16683
#
# Compressibility (1/GPa) = 0.04181936
#
# Stress axis : x y z
#
# Youngs Moduli (GPa) = 40.05739 67.98974 54.68898
#
# Poissons Ratio (x) = 0.21913 0.00826
# Poissons Ratio (y) = 0.12911 0.25676
# Poissons Ratio (z) = 0.00605 0.31921
#
# Static dielectric constant tensor:
#      x y z
#    x 1.755350 0.000000 0.037860 
#    y 0.000000 1.723200 0.000000 
#    z 0.037860 0.000000 1.748930 
# 
# From -- ./inp_files/174484.got.cif
#   From: 2010.05.17/outbox.cif.g08.bks.cpg/sg12_88_cif.got.tgz:174484.got - 2010.06.03 13:09:07.
