data_PCOD9205726
_publ_section_title
;
Structure prediction by ZEFSAII (Michael W. Deem and Ramdas Pophale) SiO2 
 PCOD9205726
Probable space group: C 2/M
;
_chemical_formula_sum "Si O2"
_cell_formula_units_Z 48
_cell_length_a 15.097591
_cell_length_b 7.598182
_cell_length_c 25.515707
_cell_angle_alpha 90.000000
_cell_angle_beta 39.685452
_cell_angle_gamma 90.000000
_cell_volume 1869.111133
_symmetry_space_group_name_H-M "C 2/M"
_symmetry_group_IT_number 12
_symmetry_cell_setting 'monoclinic'
loop_
_space_group_symop_operation_xyz
x,y,z
-x,y,-z
-x,-y,-z
x,-y,z
1/2+x,1/2+y,z
1/2-x,1/2+y,-z
1/2-x,1/2-y,-z
1/2+x,1/2-y,z
loop_
_atom_site_type_symbol
_atom_site_label
_atom_site_fract_x
_atom_site_fract_y
_atom_site_fract_z
Si Si1 0.040798 0.793733 0.675872
Si Si2 0.948224 0.215803 0.441630
Si Si3 0.040888 0.213922 0.119807
Si Si4 0.217572 0.212594 0.819683
Si Si5 0.692512 0.705010 0.945156
Si Si6 0.207256 0.207437 0.382953
O O1 0.094277 0.716441 0.595998
O O2 0.129236 0.732566 0.685360
O O3 0.877259 0.764005 0.747472
O O4 0.063764 0.000000 0.665306
O O5 0.858397 0.274818 0.532212
O O6 0.106967 0.273545 0.382715
O O7 0.942826 0.000000 0.442101
O O8 0.142509 0.279743 0.118838
O O9 0.882257 0.271015 0.182210
O O10 0.043967 0.000000 0.122088
O O11 0.116702 0.275454 0.031218
O O12 0.160809 0.276718 0.902133
O O13 0.212146 0.000000 0.822575
O O14 0.654294 0.500000 0.961413
O O15 0.184177 0.000000 0.393271
#
# Coordination Sequence:
#
# PCOD9205726 Si02
#       6
#     8   8   8   8   8   8
#     4  11  22  34  49  76 109 135 164 209 258 296
#     4   8  17  34  56  77  99 131 170 209 250 301
#     4   9  18  34  56  79 101 128 168 215 255 294
#     4  10  21  36  52  72 102 141 175 201 243 306
#     4   9  18  34  56  78 100 130 169 211 254 300
#     4   9  17  35  59  77  96 131 174 208 247 304
#
# _framework density 25.680658000000001
#
# number of rings (size 3 to 8) (size 9 to 14) (size 15 to 20)
#    0.000    2.667    0.000    2.500    0.000    4.667 
#    0.000    9.167    0.000    5.000    0.000    0.000 
#    0.000    0.000    0.000    0.000    0.000    0.000 
#
# Total GULP energy -134045.491522 kJ/mol
# GULP energy per Si atom -5585.228813 kJ/mol
# Density = 2.562221 g / cm^3
# Si number density = 25.680658 Si / 1000 Ang^3
#
#
#
# Elastic Constant Matrix: (Units=GPa)
#
#
# Indices 1 2 3 4 5 6 
#
# 1 184.1725 -1.5683 9.5311 -0.0001 -25.9365 0.0004
# 2 -1.5683 57.2364 -13.2237 -0.0002 4.2196 0.0015
# 3 9.5311 -13.2237 45.4621 0.0000 -17.6841 0.0000
# 4 -0.0001 -0.0002 0.0000 10.2206 0.0000 -4.7174
# 5 -25.9365 4.2196 -17.6841 0.0000 45.7596 0.0000
# 6 0.0004 0.0015 0.0000 -4.7174 0.0000 11.3515
#
#
#
# Elastic Compliance Matrix: (Units=1/GPa)
#
#
# Indices 1 2 3 4 5 6 
#
# 1 0.005901 -0.000075 0.000053 0.000000 0.003372 0.000000
# 2 -0.000075 0.018739 0.005623 -0.000001 0.000403 -0.000003
# 3 0.000053 0.005623 0.027576 0.000000 0.010168 -0.000001
# 4 0.000000 -0.000001 0.000000 0.121062 0.000000 0.050310
# 5 0.003372 0.000403 0.010168 0.000000 0.027657 0.000000
# 6 0.000000 -0.000003 -0.000001 0.050310 0.000000 0.109001
#
#
# Mechanical properties :
#
#
# Convention : Reuss Voigt Hill
#
# Bulk Modulus (GPa) = 15.76836 30.70548 23.23692
# Shear Modulus (GPa) = 15.63115 32.94180 24.28648
#
# Velocity S-wave (km/s) = 2.46981 3.58543 3.07858
# Velocity P-wave (km/s) = 3.77978 5.39658 4.65885
#
# Compressibility (1/GPa) = 0.06341813
#
# Stress axis : x y z
#
# Youngs Moduli (GPa) = 169.45689 53.36530 36.26316
#
# Poissons Ratio (x) = 0.00399 -0.00191
# Poissons Ratio (y) = 0.01266 -0.20390
# Poissons Ratio (z) = -0.00894 -0.30007
#
# Static dielectric constant tensor:
#      x y z
#    x 2.053230 0.000000 -0.034560 
#    y 0.000000 1.959520 0.000000 
#    z -0.034560 0.000000 2.121590 
# 
# From -- ./inp_files/308580.got.cif
#   From: 2010.05.17/outbox.cif.g08.bks.cpg/sg12_155_cif.got.tgz:308580.got - 2010.06.03 13:09:07.
