data_PCOD9205099
_publ_section_title
;
Structure prediction by ZEFSAII (Michael W. Deem and Ramdas Pophale) SiO2 
 PCOD9205099
Probable space group: C 2/M
;
_chemical_formula_sum "Si O2"
_cell_formula_units_Z 48
_cell_length_a 13.842852
_cell_length_b 27.694811
_cell_length_c 15.739243
_cell_angle_alpha 90.000000
_cell_angle_beta 151.583603
_cell_angle_gamma 90.000000
_cell_volume 2871.451991
_symmetry_space_group_name_H-M "C 2/M"
_symmetry_group_IT_number 12
_symmetry_cell_setting 'monoclinic'
loop_
_space_group_symop_operation_xyz
x,y,z
-x,y,-z
-x,-y,-z
x,-y,z
1/2+x,1/2+y,z
1/2-x,1/2+y,-z
1/2-x,1/2-y,-z
1/2+x,1/2-y,z
loop_
_atom_site_type_symbol
_atom_site_label
_atom_site_fract_x
_atom_site_fract_y
_atom_site_fract_z
Si Si1 0.557301 0.556268 0.288502
Si Si2 0.980292 0.443732 0.711491
Si Si3 0.598888 0.636290 0.711619
Si Si4 0.824349 0.363711 0.711618
Si Si5 0.113623 0.112274 0.000002
Si Si6 0.727525 0.193786 0.000000
O O1 0.501726 0.500000 0.243153
O O2 0.789127 0.560014 0.499997
O O3 0.424010 0.586714 0.252834
O O4 0.521820 0.581522 0.170905
O O5 0.015421 0.500000 0.756842
O O6 0.918338 0.413287 0.747161
O O7 0.180002 0.418476 0.829086
O O8 0.379363 0.646286 0.500000
O O9 0.757090 0.632239 0.757089
O O10 0.663641 0.676749 0.828998
O O11 0.994356 0.323252 0.828998
O O12 0.174945 0.161735 0.999998
O O13 0.000000 0.120103 0.000000
O O14 0.750000 0.250000 0.000000
#
# Coordination Sequence:
#
# PCOD9205099 Si02
#       6
#     8   8   8   8   8   8
#     4   9  18  32  50  74 103 133 164 197 236 286
#     4   9  18  32  50  74 103 133 164 197 236 286
#     4   9  18  33  53  77 103 128 157 198 247 297
#     4   9  18  33  53  77 103 128 157 198 247 297
#     4  10  21  35  49  69  98 131 168 208 245 282
#     4  10  21  36  54  72  96 128 165 208 252 296
#
# _framework density 16.716280999999999
#
# number of rings (size 3 to 8) (size 9 to 14) (size 15 to 20)
#    0.000    2.667    0.000    1.000    0.000    4.667 
#    0.000    5.000    0.000    6.000    0.000    0.000 
#    0.000    0.000    0.000    0.000    0.000    0.000 
#
# Total GULP energy -133837.091040 kJ/mol
# GULP energy per Si atom -5576.545460 kJ/mol
# Density = 1.667823 g / cm^3
# Si number density = 16.716281 Si / 1000 Ang^3
#
#
#
# Elastic Constant Matrix: (Units=GPa)
#
#
# Indices 1 2 3 4 5 6 
#
# 1 167.2998 72.8303 61.7401 0.0001 4.4213 0.0001
# 2 72.8303 149.9890 56.7038 0.0001 1.1465 0.0001
# 3 61.7401 56.7038 65.9313 0.0003 2.7879 0.0005
# 4 0.0001 0.0001 0.0003 21.4307 0.0000 -1.0527
# 5 4.4213 1.1465 2.7879 0.0000 21.8151 0.0001
# 6 0.0001 0.0001 0.0005 -1.0527 0.0001 6.6309
#
#
#
# Elastic Compliance Matrix: (Units=1/GPa)
#
#
# Indices 1 2 3 4 5 6 
#
# 1 0.009484 -0.001860 -0.007243 0.000000 -0.000899 0.000000
# 2 -0.001860 0.010251 -0.007106 0.000000 0.000746 0.000000
# 3 -0.007243 -0.007106 0.028136 0.000000 -0.001754 -0.000002
# 4 0.000000 0.000000 0.000000 0.047029 0.000000 0.007466
# 5 -0.000899 0.000746 -0.001754 0.000000 0.046207 -0.000001
# 6 0.000000 0.000000 -0.000002 0.007466 -0.000001 0.151994
#
#
# Mechanical properties :
#
#
# Convention : Reuss Voigt Hill
#
# Bulk Modulus (GPa) = 64.71674 85.08540 74.90107
# Shear Modulus (GPa) = 15.12078 22.77174 18.94626
#
# Velocity S-wave (km/s) = 3.01084 3.69487 3.37026
# Velocity P-wave (km/s) = 7.13342 8.31943 7.74915
#
# Compressibility (1/GPa) = 0.01545195
#
# Stress axis : x y z
#
# Youngs Moduli (GPa) = 105.44346 97.55046 35.54130
#
# Poissons Ratio (x) = 0.18142 0.25744
# Poissons Ratio (y) = 0.19610 0.25257
# Poissons Ratio (z) = 0.76377 0.69323
#
# Static dielectric constant tensor:
#      x y z
#    x 1.536710 0.000000 -0.003540 
#    y 0.000000 1.529260 0.000000 
#    z -0.003540 0.000000 1.586510 
# 
# From -- ./inp_files/94402.got.cif
#   From: 2010.05.17/outbox.cif.g08.bks.cpg/sg12_48_cif.got.tgz:94402.got - 2010.06.03 13:09:07.
