data_PCOD9205740
_publ_section_title
;
Structure prediction by ZEFSAII (Michael W. Deem and Ramdas Pophale) SiO2 
 PCOD9205740
Probable space group: C 2/M
;
_chemical_formula_sum "Si O2"
_cell_formula_units_Z 58
_cell_length_a 14.184728
_cell_length_b 9.044274
_cell_length_c 23.601183
_cell_angle_alpha 90.000000
_cell_angle_beta 75.799893
_cell_angle_gamma 90.000000
_cell_volume 2935.294105
_symmetry_space_group_name_H-M "C 2/M"
_symmetry_group_IT_number 12
_symmetry_cell_setting 'monoclinic'
loop_
_space_group_symop_operation_xyz
x,y,z
-x,y,-z
-x,-y,-z
x,-y,z
1/2+x,1/2+y,z
1/2-x,1/2+y,-z
1/2-x,1/2-y,-z
1/2+x,1/2-y,z
loop_
_atom_site_type_symbol
_atom_site_label
_atom_site_fract_x
_atom_site_fract_y
_atom_site_fract_z
Si Si1 0.500000 0.500000 0.500000
Si Si2 0.770884 0.328766 0.087108
Si Si3 0.936035 0.174624 0.124618
Si Si4 0.149257 0.821885 0.292475
Si Si5 0.395153 0.830266 0.952783
Si Si6 0.337598 0.831621 0.329977
Si Si7 0.525058 0.829387 0.220400
Si Si8 0.959579 0.839377 0.391790
O O1 0.472135 0.373573 0.455887
O O2 0.743033 0.500000 0.101467
O O3 0.836424 0.261595 0.127018
O O4 0.680371 0.226352 0.083731
O O5 0.838214 0.326059 0.020533
O O6 0.013053 0.223283 0.065076
O O7 0.986998 0.233795 0.173750
O O8 0.920867 0.000000 0.127366
O O9 0.249309 0.767750 0.305971
O O10 0.115579 0.743020 0.239916
O O11 0.063145 0.791401 0.350604
O O12 0.155400 0.000000 0.282187
O O13 0.426471 0.000000 0.939062
O O14 0.434374 0.829474 0.277516
O O15 0.370840 0.758743 0.383680
O O16 0.308681 0.000000 0.346238
O O17 0.544095 0.000000 0.201892
O O18 0.941161 0.000000 0.366308
#
# Coordination Sequence:
#
# PCOD9205740 Si02
#       8
#     2   8   8   8   8   8   8   8
#     4   8  16  32  54  76 112 146 178 212 262 300
#     4  10  21  38  59  82 109 143 182 225 277 337
#     4  12  24  37  55  79 111 145 183 228 281 333
#     4   9  17  33  55  76 102 139 177 218 264 322
#     4  10  21  38  59  82 108 142 183 226 278 337
#     4   9  18  33  55  78 102 135 179 221 265 314
#     4  10  21  36  52  76 105 135 176 228 275 325
#     4   8  16  31  53  73 107 142 176 207 257 312
#
# _framework density 19.759519000000001
#
# number of rings (size 3 to 8) (size 9 to 14) (size 15 to 20)
#    0.414    1.931    0.000    2.897    0.000    5.517 
#    0.000    5.172    0.000    0.000    0.000    0.000 
#    0.000    0.000    0.000    0.000    0.000    0.000 
#
# Total GULP energy -161471.082115 kJ/mol
# GULP energy per Si atom -5567.968349 kJ/mol
# Density = 1.971455 g / cm^3
# Si number density = 19.759519 Si / 1000 Ang^3
#
#
#
# Elastic Constant Matrix: (Units=GPa)
#
#
# Indices 1 2 3 4 5 6 
#
# 1 76.7077 19.2360 17.9026 0.0000 26.4416 0.0000
# 2 19.2360 79.3085 24.1778 0.0000 14.4198 0.0000
# 3 17.9026 24.1778 71.3258 0.0000 32.6656 0.0000
# 4 0.0000 0.0000 0.0000 29.4787 0.0000 9.8143
# 5 26.4416 14.4198 32.6656 0.0000 20.6572 0.0000
# 6 0.0000 0.0000 0.0000 9.8143 0.0000 27.8070
#
#
#
# Elastic Compliance Matrix: (Units=1/GPa)
#
#
# Indices 1 2 3 4 5 6 
#
# 1 0.072923 -0.002584 0.088818 0.000000 -0.231989 0.000000
# 2 -0.002584 0.014554 -0.004159 0.000000 -0.000275 0.000000
# 3 0.088818 -0.004159 0.159084 0.000000 -0.362347 0.000000
# 4 0.000000 0.000000 0.000000 0.038440 0.000000 -0.013567
# 5 -0.231989 -0.000275 -0.362347 0.000000 0.918537 0.000000
# 6 0.000000 0.000000 0.000000 -0.013567 0.000000 0.040751
#
#
# Mechanical properties :
#
#
# Convention : Reuss Voigt Hill
#
# Bulk Modulus (GPa) = 2.43480 38.88608 20.66044
# Shear Modulus (GPa) = 4.10832 26.65697 15.38265
#
# Velocity S-wave (km/s) = 1.44349 3.67695 2.79318
# Velocity P-wave (km/s) = 2.00328 6.14402 4.56958
#
# Compressibility (1/GPa) = 0.41071076
#
# Stress axis : x y z
#
# Youngs Moduli (GPa) = 13.71301 68.71146 6.28600
#
# Poissons Ratio (x) = 0.17757 -0.55831
# Poissons Ratio (y) = 0.03544 0.02614
# Poissons Ratio (z) = -1.21796 0.28576
#
# Static dielectric constant tensor:
#      x y z
#    x 1.722450 0.000000 -0.020600 
#    y 0.000000 1.685820 0.000000 
#    z -0.020600 0.000000 1.720210 
# 
# From -- ./inp_files/338060.got.cif
#   From: 2010.05.17/outbox.cif.g08.bks.cpg/sg12_170_cif.got.tgz:338060.got - 2010.06.03 13:09:07.
