data_PCOD9205107
_publ_section_title
;
Structure prediction by ZEFSAII (Michael W. Deem and Ramdas Pophale) SiO2 
 PCOD9205107
Probable space group: C 2/M
;
_chemical_formula_sum "Si O2"
_cell_formula_units_Z 64
_cell_length_a 14.941825
_cell_length_b 7.435189
_cell_length_c 26.581037
_cell_angle_alpha 90.000000
_cell_angle_beta 66.312837
_cell_angle_gamma 90.000000
_cell_volume 2704.243228
_symmetry_space_group_name_H-M "C 2/M"
_symmetry_group_IT_number 12
_symmetry_cell_setting 'monoclinic'
loop_
_space_group_symop_operation_xyz
x,y,z
-x,y,-z
-x,-y,-z
x,-y,z
1/2+x,1/2+y,z
1/2-x,1/2+y,-z
1/2-x,1/2-y,-z
1/2+x,1/2-y,z
loop_
_atom_site_type_symbol
_atom_site_label
_atom_site_fract_x
_atom_site_fract_y
_atom_site_fract_z
Si Si1 0.424507 0.217689 0.749595
Si Si2 0.219562 0.784426 0.450085
Si Si3 0.916871 0.707710 0.366079
Si Si4 0.569546 0.779944 0.797158
Si Si5 0.732000 0.706629 0.290033
Si Si6 0.927968 0.218130 0.592940
Si Si7 0.148358 0.714547 0.994846
Si Si8 0.940944 0.719685 0.086909
O O1 0.506286 0.283665 0.690981
O O2 0.467393 0.269378 0.793887
O O3 0.322436 0.287236 0.751662
O O4 0.418842 0.000000 0.748565
O O5 0.250000 0.750000 0.500000
O O6 0.309568 0.713573 0.395950
O O7 0.116353 0.724430 0.450493
O O8 0.405375 0.000000 0.354058
O O9 0.970039 0.714954 0.408293
O O10 0.781571 0.000000 0.554961
O O11 0.660729 0.716767 0.742659
O O12 0.580212 0.719354 0.851901
O O13 0.573483 0.000000 0.795972
O O14 0.744543 0.500000 0.302814
O O15 0.654230 0.780149 0.347681
O O16 0.936124 0.000000 0.592059
O O17 0.140256 0.500000 0.994493
O O18 0.050890 0.775979 0.046334
O O19 0.250000 0.750000 0.000000
O O20 0.133188 0.778223 0.940579
O O21 0.939700 0.500000 0.088270
#
# Coordination Sequence:
#
# PCOD9205107 Si02
#       8
#     8   8   8   8   8   8   8   8
#     4   9  17  30  49  71  93 120 154 188 225 272
#     4  10  21  35  50  69  93 120 152 189 229 273
#     4   9  18  33  51  70  93 121 152 187 227 272
#     4   9  16  28  48  70  94 125 157 188 225 275
#     4   9  17  30  49  71  93 120 154 188 225 272
#     4   9  18  33  51  70  93 121 152 187 227 272
#     4   9  17  31  50  68  90 123 161 197 232 272
#     4   8  16  30  46  67  94 125 159 190 227 279
#
# _framework density 23.666509999999999
#
# number of rings (size 3 to 8) (size 9 to 14) (size 15 to 20)
#    0.000    3.000    0.000    1.500    0.000    5.500 
#    0.000    4.375    0.000    7.500    0.000    0.000 
#    0.000    0.000    0.000    0.000    0.000    0.000 
#
# Total GULP energy -178584.686835 kJ/mol
# GULP energy per Si atom -5580.771464 kJ/mol
# Density = 2.361264 g / cm^3
# Si number density = 23.666510 Si / 1000 Ang^3
#
#
#
# Elastic Constant Matrix: (Units=GPa)
#
#
# Indices 1 2 3 4 5 6 
#
# 1 147.8600 -3.1661 21.0190 0.0000 38.0426 0.0000
# 2 -3.1661 75.0059 -4.2739 0.0000 -0.2488 -0.0001
# 3 21.0190 -4.2739 57.7077 0.0000 25.6680 0.0000
# 4 0.0000 0.0000 0.0000 4.0892 0.0000 7.5244
# 5 38.0426 -0.2488 25.6680 0.0000 33.1617 0.0000
# 6 0.0000 -0.0001 0.0000 7.5244 0.0000 15.0428
#
#
#
# Elastic Compliance Matrix: (Units=1/GPa)
#
#
# Indices 1 2 3 4 5 6 
#
# 1 0.009790 0.000498 0.002234 0.000000 -0.012956 0.000000
# 2 0.000498 0.013437 0.001560 -0.000001 -0.001677 0.000001
# 3 0.002234 0.001560 0.027093 0.000000 -0.023521 0.000000
# 4 0.000000 -0.000001 0.000000 3.072837 0.000000 -1.537040
# 5 -0.012956 -0.001677 -0.023521 0.000000 0.063212 0.000000
# 6 0.000000 0.000001 0.000000 -1.537040 0.000000 0.835308
#
#
# Mechanical properties :
#
#
# Convention : Reuss Voigt Hill
#
# Bulk Modulus (GPa) = 16.97741 34.19238 25.58489
# Shear Modulus (GPa) = 1.23986 28.25838 14.74912
#
# Velocity S-wave (km/s) = 0.72459 3.45921 2.49912
# Velocity P-wave (km/s) = 2.80877 5.51669 4.37739
#
# Compressibility (1/GPa) = 0.05890181
#
# Stress axis : x y z
#
# Youngs Moduli (GPa) = 102.14883 74.42348 36.91021
#
# Poissons Ratio (x) = -0.03703 -0.08245
# Poissons Ratio (y) = -0.05082 -0.05758
# Poissons Ratio (z) = -0.22818 -0.11610
#
# Static dielectric constant tensor:
#      x y z
#    x 1.893810 0.000000 0.032880 
#    y 0.000000 1.945680 0.000000 
#    z 0.032880 0.000000 1.924650 
# 
# From -- ./inp_files/359825.got.cif
#   From: 2010.05.17/outbox.cif.g08.bks.cpg/sg12_180_cif.got.tgz:359825.got - 2010.06.03 13:09:07.
