data_PCOD9205269
_publ_section_title
;
Structure prediction by ZEFSAII (Michael W. Deem and Ramdas Pophale) SiO2 
 PCOD9205269
Probable space group: C 2/M
;
_chemical_formula_sum "Si O2"
_cell_formula_units_Z 56
_cell_length_a 8.762669
_cell_length_b 19.226643
_cell_length_c 22.606476
_cell_angle_alpha 90.000000
_cell_angle_beta 54.449076
_cell_angle_gamma 90.000000
_cell_volume 3098.726044
_symmetry_space_group_name_H-M "C 2/M"
_symmetry_group_IT_number 12
_symmetry_cell_setting 'monoclinic'
loop_
_space_group_symop_operation_xyz
x,y,z
-x,y,-z
-x,-y,-z
x,-y,z
1/2+x,1/2+y,z
1/2-x,1/2+y,-z
1/2-x,1/2-y,-z
1/2+x,1/2-y,z
loop_
_atom_site_type_symbol
_atom_site_label
_atom_site_fract_x
_atom_site_fract_y
_atom_site_fract_z
Si Si1 0.683138 0.827132 0.923335
Si Si2 0.976019 0.418846 0.638494
Si Si3 0.046855 0.827132 0.923335
Si Si4 0.238070 0.582675 0.795013
Si Si5 0.108500 0.918846 0.638494
Si Si6 0.315526 0.172751 0.500000
Si Si7 0.623108 0.917325 0.204987
O O1 0.631527 0.750000 0.912316
O O2 0.731765 0.875290 0.857041
O O3 0.857131 0.823020 0.928579
O O4 0.500000 0.853262 0.000000
O O5 0.035891 0.500000 0.623336
O O6 0.780694 0.414534 0.646204
O O7 0.938363 0.398599 0.714595
O O8 0.123335 0.370192 0.571769
O O9 0.197111 0.875290 0.857041
O O10 0.000000 0.853262 0.000000
O O11 0.251202 0.500000 0.803857
O O12 0.417854 0.601401 0.714594
O O13 0.049265 0.595843 0.800490
O O14 0.161358 0.870192 0.571769
O O15 0.094100 0.000000 0.623336
O O16 0.500000 0.175767 0.500000
O O17 0.250000 0.250000 0.500000
O O18 0.662774 0.000000 0.196143
#
# Coordination Sequence:
#
# PCOD9205269 Si02
#       7
#     8   8   8   8   8   8   8
#     4  11  22  38  59  82 111 146 184 225 272 326
#     4   9  18  35  57  78 103 140 184 225 268 320
#     4  11  22  38  59  82 111 146 184 225 272 326
#     4  10  21  37  57  83 113 144 182 227 273 323
#     4   9  18  35  57  78 103 140 184 225 268 320
#     4  10  21  35  53  79 109 140 176 222 272 324
#     4  10  21  37  57  83 113 144 182 227 273 323
#
# _framework density 18.071942
#
# number of rings (size 3 to 8) (size 9 to 14) (size 15 to 20)
#    0.000    2.000    0.000    4.714    0.000    6.286 
#    0.000    2.857    0.000    4.286    0.000    0.000 
#    0.000    0.000    0.000    0.000    0.000    0.000 
#
# Total GULP energy -156399.724048 kJ/mol
# GULP energy per Si atom -5585.704430 kJ/mol
# Density = 1.803081 g / cm^3
# Si number density = 18.071942 Si / 1000 Ang^3
#
#
#
# Elastic Constant Matrix: (Units=GPa)
#
#
# Indices 1 2 3 4 5 6 
#
# 1 100.9129 56.2650 86.6938 0.0001 -0.0022 0.0000
# 2 56.2650 75.1045 94.8254 0.0000 -0.0017 0.0000
# 3 86.6938 94.8254 184.7823 0.0001 -0.0014 0.0000
# 4 0.0001 0.0000 0.0001 102.9325 -0.0001 -0.0030
# 5 -0.0022 -0.0017 -0.0014 -0.0001 32.4709 0.0000
# 6 0.0000 0.0000 0.0000 -0.0030 0.0000 30.6367
#
#
#
# Elastic Compliance Matrix: (Units=1/GPa)
#
#
# Indices 1 2 3 4 5 6 
#
# 1 0.018184 -0.008098 -0.004375 0.000000 0.000001 0.000000
# 2 -0.008098 0.041424 -0.017459 0.000000 0.000001 0.000000
# 3 -0.004375 -0.017459 0.016424 0.000000 0.000000 0.000000
# 4 0.000000 0.000000 0.000000 0.009715 0.000000 0.000001
# 5 0.000001 0.000001 0.000000 0.000000 0.030797 0.000000
# 6 0.000000 0.000000 0.000000 0.000001 0.000000 0.032641
#
#
# Mechanical properties :
#
#
# Convention : Reuss Voigt Hill
#
# Bulk Modulus (GPa) = 61.85160 92.92981 77.39070
# Shear Modulus (GPa) = 23.31684 41.40906 32.36295
#
# Velocity S-wave (km/s) = 3.59586 4.79199 4.23636
# Velocity P-wave (km/s) = 7.17912 9.06374 8.17592
#
# Compressibility (1/GPa) = 0.01616773
#
# Stress axis : x y z
#
# Youngs Moduli (GPa) = 54.99463 24.14047 60.88708
#
# Poissons Ratio (x) = 0.19549 0.26641
# Poissons Ratio (y) = 0.44535 1.06300
# Poissons Ratio (z) = 0.24063 0.42146
#
# Static dielectric constant tensor:
#      x y z
#    x 1.608470 0.000000 0.000000 
#    y 0.000000 1.596850 0.000000 
#    z 0.000000 0.000000 1.596880 
# 
# From -- ./inp_files/301631.got.cif
#   From: 2010.05.17/outbox.cif.g08.bks.cpg/sg12_151_cif.got.tgz:301631.got - 2010.06.03 13:09:07.
