data_PCOD9205498
_publ_section_title
;
Structure prediction by ZEFSAII (Michael W. Deem and Ramdas Pophale) SiO2 
 PCOD9205498
Probable space group: C 2/M
;
_chemical_formula_sum "Si O2"
_cell_formula_units_Z 64
_cell_length_a 31.106085
_cell_length_b 14.132414
_cell_length_c 9.916469
_cell_angle_alpha 90.000000
_cell_angle_beta 51.638011
_cell_angle_gamma 90.000000
_cell_volume 3418.166312
_symmetry_space_group_name_H-M "C 2/M"
_symmetry_group_IT_number 12
_symmetry_cell_setting 'monoclinic'
loop_
_space_group_symop_operation_xyz
x,y,z
-x,y,-z
-x,-y,-z
x,-y,z
1/2+x,1/2+y,z
1/2-x,1/2+y,-z
1/2-x,1/2-y,-z
1/2+x,1/2-y,z
loop_
_atom_site_type_symbol
_atom_site_label
_atom_site_fract_x
_atom_site_fract_y
_atom_site_fract_z
Si Si1 0.957564 0.388974 0.373459
Si Si2 0.659507 0.396570 0.572882
Si Si3 0.913317 0.387866 0.933861
Si Si4 0.172462 0.109078 0.230621
Si Si5 0.769816 0.613091 0.838120
Si Si6 0.119389 0.295511 0.272773
Si Si7 0.743110 0.848272 0.436347
Si Si8 0.380103 0.814020 0.288677
O O1 0.946237 0.500000 0.419113
O O2 0.934327 0.331037 0.544930
O O3 0.923759 0.352920 0.310279
O O4 0.021961 0.378476 0.222271
O O5 0.630389 0.500000 0.634748
O O6 0.678015 0.382153 0.381330
O O7 0.711682 0.405077 0.569549
O O8 0.628424 0.299326 0.673296
O O9 0.900296 0.500000 0.963377
O O10 0.881495 0.336888 0.874991
O O11 0.899070 0.339285 0.102302
O O12 0.127653 0.183466 0.266737
O O13 0.158564 0.000000 0.227745
O O14 0.228577 0.131182 0.042036
O O15 0.776781 0.500000 0.811028
O O16 0.828022 0.660971 0.752503
O O17 0.745220 0.651016 0.745469
O O18 0.750000 0.750000 0.500000
O O19 0.678210 0.867129 0.574147
#
# Coordination Sequence:
#
# PCOD9205498 Si02
#       8
#     8   8   8   8   8   8   8   8
#     4  11  22  42  64  85 115 152 197 247 304 354
#     4  10  21  39  61  89 122 158 198 241 290 346
#     4  11  26  40  60  90 119 151 196 249 297 354
#     4  10  23  40  61  89 122 159 197 241 289 345
#     4  11  22  36  59  90 123 158 197 240 288 350
#     4  12  22  39  63  87 119 158 195 240 295 352
#     4  10  21  35  56  88 121 159 195 238 287 345
#     4  11  22  39  61  88 118 161 195 240 296 350
#
# _framework density 18.723488
#
# number of rings (size 3 to 8) (size 9 to 14) (size 15 to 20)
#    0.000    1.250    2.500    3.750    5.250    3.500 
#    0.000    0.000    0.000    4.500    0.000    0.000 
#    0.000    0.000    0.000    0.000    0.000    0.000 
#
# Total GULP energy -178652.381753 kJ/mol
# GULP energy per Si atom -5582.886930 kJ/mol
# Density = 1.868087 g / cm^3
# Si number density = 18.723488 Si / 1000 Ang^3
#
#
#
# Elastic Constant Matrix: (Units=GPa)
#
#
# Indices 1 2 3 4 5 6 
#
# 1 56.4865 31.1661 16.9418 0.0000 8.2068 0.0000
# 2 31.1661 94.9978 35.3577 0.0000 -1.1221 0.0000
# 3 16.9418 35.3577 104.9508 0.0000 16.1700 0.0000
# 4 0.0000 0.0000 0.0000 32.2696 0.0000 -2.5176
# 5 8.2068 -1.1221 16.1700 0.0000 23.7554 0.0000
# 6 0.0000 0.0000 0.0000 -2.5176 0.0000 4.3875
#
#
#
# Elastic Compliance Matrix: (Units=1/GPa)
#
#
# Indices 1 2 3 4 5 6 
#
# 1 0.023170 -0.007772 0.000188 0.000000 -0.008499 0.000000
# 2 -0.007772 0.014944 -0.004807 0.000000 0.006663 0.000000
# 3 0.000188 -0.004807 0.012470 0.000000 -0.008780 0.000000
# 4 0.000000 0.000000 0.000000 0.032441 0.000000 0.018615
# 5 -0.008499 0.006663 -0.008780 0.000000 0.051323 0.000000
# 6 0.000000 0.000000 0.000000 0.018615 0.000000 0.238599
#
#
# Mechanical properties :
#
#
# Convention : Reuss Voigt Hill
#
# Bulk Modulus (GPa) = 38.75574 47.04072 42.89823
# Shear Modulus (GPa) = 12.30528 23.61380 17.95954
#
# Velocity S-wave (km/s) = 2.56639 3.55517 3.10045
# Velocity P-wave (km/s) = 5.43376 6.48311 5.98149
#
# Compressibility (1/GPa) = 0.02580263
#
# Stress axis : x y z
#
# Youngs Moduli (GPa) = 43.15947 66.91712 80.19188
#
# Poissons Ratio (x) = 0.52005 -0.01504
# Poissons Ratio (y) = 0.33542 0.38544
# Poissons Ratio (z) = -0.00809 0.32164
#
# Static dielectric constant tensor:
#      x y z
#    x 1.638270 0.000000 0.005280 
#    y 0.000000 1.692210 0.000000 
#    z 0.005280 0.000000 1.646080 
# 
# From -- ./inp_files/111629.got.cif
#   From: 2010.05.17/outbox.cif.g08.bks.cpg/sg12_56_cif.got.tgz:111629.got - 2010.06.03 13:09:07.
