data_PCOD9205121
_publ_section_title
;
Structure prediction by ZEFSAII (Michael W. Deem and Ramdas Pophale) SiO2 
 PCOD9205121
Probable space group: C 2/M
;
_chemical_formula_sum "Si O2"
_cell_formula_units_Z 56
_cell_length_a 23.969319
_cell_length_b 8.529730
_cell_length_c 28.601338
_cell_angle_alpha 90.000000
_cell_angle_beta 34.058780
_cell_angle_gamma 90.000000
_cell_volume 3274.905693
_symmetry_space_group_name_H-M "C 2/M"
_symmetry_group_IT_number 12
_symmetry_cell_setting 'monoclinic'
loop_
_space_group_symop_operation_xyz
x,y,z
-x,y,-z
-x,-y,-z
x,-y,z
1/2+x,1/2+y,z
1/2-x,1/2+y,-z
1/2-x,1/2-y,-z
1/2+x,1/2-y,z
loop_
_atom_site_type_symbol
_atom_site_label
_atom_site_fract_x
_atom_site_fract_y
_atom_site_fract_z
Si Si1 0.843628 0.686177 0.905090
Si Si2 0.373532 0.190217 0.687533
Si Si3 0.972949 0.812922 0.163568
Si Si4 0.212614 0.812291 0.155787
Si Si5 0.062665 0.319252 0.505043
Si Si6 0.754351 0.691953 0.677377
Si Si7 0.055078 0.311116 0.009833
O O1 0.836599 0.500000 0.909545
O O2 0.836570 0.750220 0.857466
O O3 0.945473 0.737555 0.859235
O O4 0.750000 0.750000 0.000000
O O5 0.336980 0.248215 0.762745
O O6 0.484551 0.248770 0.596393
O O7 0.298619 0.237904 0.697435
O O8 0.376069 0.000000 0.685485
O O9 0.859291 0.759158 0.250393
O O10 0.003967 0.769293 0.089393
O O11 0.976512 0.000000 0.166898
O O12 0.208118 0.000000 0.159346
O O13 0.329124 0.765964 0.073459
O O14 0.080873 0.500000 0.506418
O O15 0.168726 0.250438 0.415941
O O16 0.000000 0.323317 0.500000
O O17 0.757254 0.500000 0.674575
O O18 0.049797 0.500000 0.019749
O O19 0.000000 0.271007 0.000000
#
# Coordination Sequence:
#
# PCOD9205121 Si02
#       7
#     8   8   8   8   8   8   8
#     4  12  24  40  58  74  96 130 176 221 259 306
#     4   9  16  29  52  80 108 139 174 211 251 301
#     4  11  21  33  53  78 104 135 171 215 258 304
#     4  11  22  35  52  74 104 138 171 212 257 305
#     4   7  11  23  46  75 106 138 171 207 248 298
#     4   8  15  28  49  80 111 138 171 209 253 305
#     4  10  21  35  50  71 103 140 171 205 254 308
#
# _framework density 17.099727999999999
#
# number of rings (size 3 to 8) (size 9 to 14) (size 15 to 20)
#    0.000    2.286    1.429    4.714    0.000    0.857 
#    0.000    0.714    0.000    6.429    0.000    0.000 
#    0.000    0.000    0.000    0.000    0.000    0.000 
#
# Total GULP energy -156146.776699 kJ/mol
# GULP energy per Si atom -5576.670596 kJ/mol
# Density = 1.706081 g / cm^3
# Si number density = 17.099728 Si / 1000 Ang^3
#
#
#
# Elastic Constant Matrix: (Units=GPa)
#
#
# Indices 1 2 3 4 5 6 
#
# 1 104.7483 19.5396 62.4403 0.0010 -17.1769 0.0006
# 2 19.5396 25.5742 25.4907 0.0002 -4.9896 0.0015
# 3 62.4403 25.4907 134.8819 -0.0009 -38.4422 -0.0009
# 4 0.0010 0.0002 -0.0009 -7.1736 -0.0007 10.6267
# 5 -17.1769 -4.9896 -38.4422 -0.0007 12.8358 -0.0006
# 6 0.0006 0.0015 -0.0009 10.6267 -0.0006 18.0285
#
#
#
# Elastic Compliance Matrix: (Units=1/GPa)
#
#
# Indices 1 2 3 4 5 6 
#
# 1 0.013713 -0.005324 -0.004792 0.000001 0.001930 -0.000001
# 2 -0.005324 0.057616 -0.027804 -0.000001 -0.068000 -0.000008
# 3 -0.004792 -0.027804 0.068148 -0.000005 0.186878 0.000015
# 4 0.000001 -0.000001 -0.000005 -0.074419 -0.000017 0.043865
# 5 0.001930 -0.068000 0.186878 -0.000017 0.613742 0.000044
# 6 -0.000001 -0.000008 0.000015 0.043865 0.000044 0.029612
#
#
# Mechanical properties :
#
#
# Convention : Reuss Voigt Hill
#
# Bulk Modulus (GPa) = 15.71430 53.34952 34.53191
# Shear Modulus (GPa) = 6.20760 15.25372 10.73066
#
# Velocity S-wave (km/s) = 1.90738 2.98995 2.50778
# Velocity P-wave (km/s) = 3.74974 6.57165 5.35010
#
# Compressibility (1/GPa) = 0.06363629
#
# Stress axis : x y z
#
# Youngs Moduli (GPa) = 72.92521 17.35615 14.67398
#
# Poissons Ratio (x) = 0.09241 0.07031
# Poissons Ratio (y) = 0.38829 0.40800
# Poissons Ratio (z) = 0.34943 0.48258
#
# Static dielectric constant tensor:
#      x y z
#    x 1.559100 0.000000 -0.020580 
#    y 0.000000 1.590120 0.000000 
#    z -0.020580 0.000000 1.597110 
# 
# From -- ./inp_files/348471.got.cif
#   From: 2010.05.17/outbox.cif.g08.bks.cpg/sg12_175_cif.got.tgz:348471.got - 2010.06.03 13:09:07.
