data_PCOD9205985
_publ_section_title
;
Structure prediction by ZEFSAII (Michael W. Deem and Ramdas Pophale) SiO2 
 PCOD9205985
Probable space group: C 2/M
;
_chemical_formula_sum "Si O2"
_cell_formula_units_Z 40
_cell_length_a 14.234164
_cell_length_b 7.962230
_cell_length_c 20.107409
_cell_angle_alpha 90.000000
_cell_angle_beta 69.179647
_cell_angle_gamma 90.000000
_cell_volume 2130.074504
_symmetry_space_group_name_H-M "C 2/M"
_symmetry_group_IT_number 12
_symmetry_cell_setting 'monoclinic'
loop_
_space_group_symop_operation_xyz
x,y,z
-x,y,-z
-x,-y,-z
x,-y,z
1/2+x,1/2+y,z
1/2-x,1/2+y,-z
1/2-x,1/2-y,-z
1/2+x,1/2-y,z
loop_
_atom_site_type_symbol
_atom_site_label
_atom_site_fract_x
_atom_site_fract_y
_atom_site_fract_z
Si Si1 0.687532 0.805202 0.429897
Si Si2 0.103199 0.192861 0.314491
Si Si3 0.902230 0.306611 0.413374
Si Si4 0.343903 0.500000 0.082771
Si Si5 0.061376 0.000000 0.088046
Si Si6 0.695546 0.692426 0.149759
O O1 0.644711 0.791066 0.367376
O O2 0.791687 0.708392 0.410619
O O3 0.611858 0.745191 0.506954
O O4 0.708222 0.000000 0.440716
O O5 0.146702 0.243702 0.232405
O O6 0.983366 0.208713 0.350096
O O7 0.132237 0.000000 0.317123
O O8 0.934994 0.500000 0.407064
O O9 0.441525 0.500000 0.106977
O O10 0.275536 0.333614 0.109779
O O11 0.387567 0.500000 0.997105
O O12 0.106313 0.158210 0.118524
O O13 0.738864 0.500000 0.145269
#
# Coordination Sequence:
#
# PCOD9205985 Si02
#       6
#     8   8   8   4   4   8
#     4  10  21  36  55  80 109 152 201 247 294 353
#     4  11  22  37  55  80 117 152 190 244 298 351
#     4  10  21  36  55  80 112 149 200 249 295 353
#     4  11  20  42  75  89 128 177 192 260 321 355
#     4   9  22  44  63 103 128 155 222 248 299 393
#     4   9  23  41  59  96 132 158 209 258 302 379
#
# _framework density 18.778687000000001
#
# number of rings (size 3 to 8) (size 9 to 14) (size 15 to 20)
#    0.600    1.400    0.000    3.000    2.800    6.400 
#    1.800    1.000    0.000    0.000    0.000    0.000 
#    0.000    0.000    0.000    0.000    0.000    0.000 
#
# Total GULP energy -111467.751461 kJ/mol
# GULP energy per Si atom -5573.387573 kJ/mol
# Density = 1.873595 g / cm^3
# Si number density = 18.778687 Si / 1000 Ang^3
#
#
#
# Elastic Constant Matrix: (Units=GPa)
#
#
# Indices 1 2 3 4 5 6 
#
# 1 177.6461 24.1778 103.8379 0.0000 66.4960 0.0000
# 2 24.1778 57.8637 19.1084 0.0000 -4.9485 0.0000
# 3 103.8379 19.1084 150.0156 0.0000 64.4919 0.0000
# 4 0.0000 0.0000 0.0000 18.9632 0.0000 1.0124
# 5 66.4960 -4.9485 64.4919 0.0000 72.1339 0.0000
# 6 0.0000 0.0000 0.0000 1.0124 0.0000 32.3000
#
#
#
# Elastic Compliance Matrix: (Units=1/GPa)
#
#
# Indices 1 2 3 4 5 6 
#
# 1 0.011221 -0.003796 -0.004426 0.000000 -0.006647 0.000000
# 2 -0.003796 0.020691 -0.003448 0.000000 0.008001 0.000000
# 3 -0.004426 -0.003448 0.013833 0.000000 -0.008524 0.000000
# 4 0.000000 0.000000 0.000000 0.052822 0.000000 -0.001656
# 5 -0.006647 0.008001 -0.008524 0.000000 0.028161 0.000000
# 6 0.000000 0.000000 0.000000 -0.001656 0.000000 0.031012
#
#
# Mechanical properties :
#
#
# Convention : Reuss Voigt Hill
#
# Bulk Modulus (GPa) = 44.62980 75.53040 60.08010
# Shear Modulus (GPa) = 26.51857 40.57284 33.54571
#
# Velocity S-wave (km/s) = 3.76195 4.65325 4.23113
# Velocity P-wave (km/s) = 6.53357 8.31739 7.47885
#
# Compressibility (1/GPa) = 0.02240655
#
# Stress axis : x y z
#
# Youngs Moduli (GPa) = 89.11926 48.33068 72.28987
#
# Poissons Ratio (x) = 0.18344 0.31993
# Poissons Ratio (y) = 0.33826 0.24925
# Poissons Ratio (z) = 0.39441 0.16664
#
# Static dielectric constant tensor:
#      x y z
#    x 1.645580 0.000000 0.012780 
#    y 0.000000 1.641800 0.000000 
#    z 0.012780 0.000000 1.643550 
# 
# From -- ./inp_files/307929.got.cif
#   From: 2010.05.17/outbox.cif.g08.bks.cpg/sg12_154_cif.got.tgz:307929.got - 2010.06.03 13:09:07.
