data_PCOD9205376
_publ_section_title
;
Structure prediction by ZEFSAII (Michael W. Deem and Ramdas Pophale) SiO2 
 PCOD9205376
Probable space group: C 2/M
;
_chemical_formula_sum "Si O2"
_cell_formula_units_Z 56
_cell_length_a 11.593011
_cell_length_b 15.414517
_cell_length_c 19.193175
_cell_angle_alpha 90.000000
_cell_angle_beta 132.499631
_cell_angle_gamma 90.000000
_cell_volume 2528.753165
_symmetry_space_group_name_H-M "C 2/M"
_symmetry_group_IT_number 12
_symmetry_cell_setting 'monoclinic'
loop_
_space_group_symop_operation_xyz
x,y,z
-x,y,-z
-x,-y,-z
x,-y,z
1/2+x,1/2+y,z
1/2-x,1/2+y,-z
1/2-x,1/2-y,-z
1/2+x,1/2-y,z
loop_
_atom_site_type_symbol
_atom_site_label
_atom_site_fract_x
_atom_site_fract_y
_atom_site_fract_z
Si Si1 0.492445 0.400169 0.305404
Si Si2 0.865722 0.830085 0.394924
Si Si3 0.419538 0.393804 0.117630
Si Si4 0.245357 0.099524 0.204766
Si Si5 0.163420 0.625468 0.598995
Si Si6 0.930846 0.393919 0.045307
Si Si7 0.966910 0.395647 0.764979
O O1 0.438931 0.500000 0.292799
O O2 0.422793 0.345230 0.339513
O O3 0.438926 0.370237 0.206871
O O4 0.681354 0.398887 0.380530
O O5 0.846358 0.729106 0.402459
O O6 0.695744 0.870512 0.335736
O O7 0.000000 0.866932 0.500000
O O8 0.426804 0.500000 0.119507
O O9 0.571596 0.361183 0.138097
O O10 0.250410 0.367938 0.021359
O O11 0.307062 0.096605 0.309511
O O12 0.380675 0.139520 0.212843
O O13 0.224890 0.000000 0.171675
O O14 0.000000 0.594630 0.500000
O O15 0.933808 0.500000 0.045198
O O16 0.000000 0.364427 0.000000
O O17 0.026522 0.366182 0.152133
O O18 0.975563 0.500000 0.767722
#
# Coordination Sequence:
#
# PCOD9205376 Si02
#       7
#     8   8   8   8   8   8   8
#     4  10  21  38  60  86 113 150 197 239 287 345
#     4  11  25  38  56  81 118 155 190 237 297 348
#     4   8  15  31  54  82 112 145 188 233 282 338
#     4   9  19  35  56  83 115 146 185 240 289 335
#     4  10  23  38  59  81 110 153 202 236 283 349
#     4   9  16  28  52  83 115 148 185 232 280 338
#     4  10  21  35  54  86 117 145 189 239 287 339
#
# _framework density 22.145301
#
# number of rings (size 3 to 8) (size 9 to 14) (size 15 to 20)
#    0.000    2.429    0.000    2.571    4.000    6.286 
#    0.000    2.857    0.000    3.429    7.429    0.000 
#    0.000    0.000    0.000    0.000    0.000    0.000 
#
# Total GULP energy -156437.360196 kJ/mol
# GULP energy per Si atom -5587.048578 kJ/mol
# Density = 2.209490 g / cm^3
# Si number density = 22.145301 Si / 1000 Ang^3
#
#
#
# Elastic Constant Matrix: (Units=GPa)
#
#
# Indices 1 2 3 4 5 6 
#
# 1 118.3662 14.0894 38.7256 0.0000 6.9016 0.0000
# 2 14.0894 28.0967 11.2807 0.0000 1.4350 0.0000
# 3 38.7256 11.2807 84.4591 0.0000 28.1578 0.0000
# 4 0.0000 0.0000 0.0000 34.7713 0.0000 14.8671
# 5 6.9016 1.4350 28.1578 0.0000 29.5314 0.0000
# 6 0.0000 0.0000 0.0000 14.8671 0.0000 35.6775
#
#
#
# Elastic Compliance Matrix: (Units=1/GPa)
#
#
# Indices 1 2 3 4 5 6 
#
# 1 0.010390 -0.003246 -0.005239 0.000000 0.002725 0.000000
# 2 -0.003246 0.039006 -0.004900 0.000000 0.003535 0.000000
# 3 -0.005239 -0.004900 0.021124 0.000000 -0.018679 0.000000
# 4 0.000000 0.000000 0.000000 0.034994 0.000000 -0.014582
# 5 0.002725 0.003535 -0.018679 0.000000 0.050864 0.000000
# 6 0.000000 0.000000 0.000000 -0.014582 0.000000 0.034105
#
#
# Mechanical properties :
#
#
# Convention : Reuss Voigt Hill
#
# Bulk Modulus (GPa) = 22.85708 39.90148 31.37928
# Shear Modulus (GPa) = 21.56694 31.11779 26.34237
#
# Velocity S-wave (km/s) = 3.12410 3.75262 3.45269
# Velocity P-wave (km/s) = 4.83292 6.06905 5.48591
#
# Compressibility (1/GPa) = 0.04375012
#
# Stress axis : x y z
#
# Youngs Moduli (GPa) = 96.24833 25.63713 47.33966
#
# Poissons Ratio (x) = 0.08322 0.24800
# Poissons Ratio (y) = 0.31241 0.23197
# Poissons Ratio (z) = 0.50421 0.12563
#
# Static dielectric constant tensor:
#      x y z
#    x 1.799020 0.000000 0.015900 
#    y 0.000000 1.760020 0.000000 
#    z 0.015900 0.000000 1.797730 
# 
# From -- ./inp_files/264331.got.cif
#   From: 2010.05.17/outbox.cif.g08.bks.cpg/sg12_133_cif.got.tgz:264331.got - 2010.06.03 13:09:07.
