data_PCOD9205198
_publ_section_title
;
Structure prediction by ZEFSAII (Michael W. Deem and Ramdas Pophale) SiO2 
 PCOD9205198
Probable space group: C 2/M
;
_chemical_formula_sum "Si O2"
_cell_formula_units_Z 48
_cell_length_a 20.420551
_cell_length_b 7.521717
_cell_length_c 27.450780
_cell_angle_alpha 90.000000
_cell_angle_beta 146.938677
_cell_angle_gamma 90.000000
_cell_volume 2300.185293
_symmetry_space_group_name_H-M "C 2/M"
_symmetry_group_IT_number 12
_symmetry_cell_setting 'monoclinic'
loop_
_space_group_symop_operation_xyz
x,y,z
-x,y,-z
-x,-y,-z
x,-y,z
1/2+x,1/2+y,z
1/2-x,1/2+y,-z
1/2-x,1/2-y,-z
1/2+x,1/2-y,z
loop_
_atom_site_type_symbol
_atom_site_label
_atom_site_fract_x
_atom_site_fract_y
_atom_site_fract_z
Si Si1 0.551493 0.716976 0.108059
Si Si2 0.881921 0.781620 0.741964
Si Si3 0.460146 0.710564 0.250042
Si Si4 0.117868 0.294620 0.549106
Si Si5 0.882875 0.788094 0.562922
Si Si6 0.815086 0.786175 0.904688
O O1 0.552160 0.500000 0.108948
O O2 0.581926 0.775877 0.181332
O O3 0.646380 0.773283 0.125616
O O4 0.420401 0.773250 0.006995
O O5 0.747799 0.720451 0.644635
O O6 0.974324 0.721428 0.757699
O O7 0.883026 0.000000 0.742477
O O8 0.484273 0.500000 0.265618
O O9 0.522955 0.780995 0.338283
O O10 0.318045 0.735255 0.163058
O O11 0.122341 0.500000 0.568568
O O12 0.104278 0.290372 0.482620
O O13 0.000000 0.212183 0.500000
O O14 0.750000 0.750000 0.500000
O O15 0.897172 0.000000 0.566685
O O16 0.819469 0.000000 0.906887
#
# Coordination Sequence:
#
# PCOD9205198 Si02
#       6
#     8   8   8   8   8   8
#     4   8  16  32  54  78 105 137 172 220 265 304
#     4   9  17  33  52  74 108 142 172 213 264 314
#     4  10  21  35  52  76 107 142 174 211 268 325
#     4  10  21  36  57  84 109 142 187 222 265 330
#     4  11  22  38  57  78 111 147 182 225 272 322
#     4   9  18  33  55  82 104 130 178 222 260 312
#
# _framework density 20.867885999999999
#
# number of rings (size 3 to 8) (size 9 to 14) (size 15 to 20)
#    0.000    2.500    1.667    1.500    2.333    2.333 
#    0.000    1.667    0.000    2.000    0.000    0.000 
#    0.000    0.000    0.000    0.000    0.000    0.000 
#
# Total GULP energy -133987.297457 kJ/mol
# GULP energy per Si atom -5582.804061 kJ/mol
# Density = 2.082039 g / cm^3
# Si number density = 20.867886 Si / 1000 Ang^3
#
#
#
# Elastic Constant Matrix: (Units=GPa)
#
#
# Indices 1 2 3 4 5 6 
#
# 1 184.6801 -15.7330 139.4849 0.0000 4.5759 0.0000
# 2 -15.7330 46.4565 -0.2781 0.0001 -1.7049 0.0004
# 3 139.4849 -0.2781 169.4259 0.0000 -4.7377 0.0000
# 4 0.0000 0.0001 0.0000 18.0069 0.0000 11.8484
# 5 4.5759 -1.7049 -4.7377 0.0000 43.5278 0.0000
# 6 0.0000 0.0004 0.0000 11.8484 0.0000 36.4208
#
#
#
# Elastic Compliance Matrix: (Units=1/GPa)
#
#
# Indices 1 2 3 4 5 6 
#
# 1 0.015816 0.005172 -0.013093 0.000000 -0.002885 0.000000
# 2 0.005172 0.023248 -0.004222 0.000000 -0.000093 0.000000
# 3 -0.013093 -0.004222 0.016759 0.000000 0.003035 0.000000
# 4 0.000000 0.000000 0.000000 0.070660 0.000000 -0.022987
# 5 -0.002885 -0.000093 0.003035 0.000000 0.023604 0.000000
# 6 0.000000 0.000000 0.000000 -0.022987 0.000000 0.034935
#
#
# Mechanical properties :
#
#
# Convention : Reuss Voigt Hill
#
# Bulk Modulus (GPa) = 31.70916 71.94558 51.82737
# Shear Modulus (GPa) = 22.74584 38.06369 30.40476
#
# Velocity S-wave (km/s) = 3.30509 4.27550 3.82122
# Velocity P-wave (km/s) = 5.45829 7.67625 6.66025
#
# Compressibility (1/GPa) = 0.03153663
#
# Stress axis : x y z
#
# Youngs Moduli (GPa) = 63.22871 43.01380 59.66832
#
# Poissons Ratio (x) = -0.22246 0.78123
# Poissons Ratio (y) = -0.32701 0.25194
# Poissons Ratio (z) = 0.82784 0.18162
#
# Static dielectric constant tensor:
#      x y z
#    x 1.711050 0.000000 0.002160 
#    y 0.000000 1.814850 0.000000 
#    z 0.002160 0.000000 1.716640 
# 
# From -- ./inp_files/221688.got.cif
#   From: 2010.05.17/outbox.cif.g08.bks.cpg/sg12_111_cif.got.tgz:221688.got - 2010.06.03 13:09:07.
