data_PCOD9205522
_publ_section_title
;
Structure prediction by ZEFSAII (Michael W. Deem and Ramdas Pophale) SiO2 
 PCOD9205522
Probable space group: C 2/M
;
_chemical_formula_sum "Si O2"
_cell_formula_units_Z 64
_cell_length_a 15.163797
_cell_length_b 30.161647
_cell_length_c 8.530627
_cell_angle_alpha 90.000000
_cell_angle_beta 128.539278
_cell_angle_gamma 90.000000
_cell_volume 3051.766857
_symmetry_space_group_name_H-M "C 2/M"
_symmetry_group_IT_number 12
_symmetry_cell_setting 'monoclinic'
loop_
_space_group_symop_operation_xyz
x,y,z
-x,y,-z
-x,-y,-z
x,-y,z
1/2+x,1/2+y,z
1/2-x,1/2+y,-z
1/2-x,1/2-y,-z
1/2+x,1/2-y,z
loop_
_atom_site_type_symbol
_atom_site_label
_atom_site_fract_x
_atom_site_fract_y
_atom_site_fract_z
Si Si1 0.043953 0.642676 0.727819
Si Si2 0.063368 0.857981 0.715152
Si Si3 0.128543 0.704217 0.277880
Si Si4 0.225872 0.701682 0.043659
Si Si5 0.686082 0.047807 0.617260
Si Si6 0.552749 0.048365 0.799989
Si Si7 0.624415 0.694968 0.299834
Si Si8 0.874790 0.114192 0.907776
O O1 0.075882 0.599395 0.868500
O O2 0.000000 0.632614 0.500000
O O3 0.949725 0.669764 0.717909
O O4 0.154863 0.673015 0.840204
O O5 0.156912 0.821410 0.778309
O O6 0.000000 0.879878 0.500000
O O7 0.962332 0.833256 0.693730
O O8 0.126326 0.889900 0.906359
O O9 0.149610 0.700457 0.115632
O O10 0.251541 0.698288 0.490891
O O11 0.084509 0.754463 0.249236
O O12 0.250000 0.750000 0.000000
O O13 0.622822 0.046426 0.714933
O O14 0.581763 0.050640 0.382245
O O15 0.775496 0.087133 0.716288
O O16 0.743184 0.000000 0.657823
O O17 0.574519 0.000000 0.902993
O O18 0.632090 0.666137 0.148988
O O19 0.000000 0.098413 0.000000
#
# Coordination Sequence:
#
# PCOD9205522 Si02
#       8
#     8   8   8   8   8   8   8   8
#     4  12  25  38  64  94 124 162 208 257 314 375
#     4  11  22  39  56  79 111 155 204 243 294 364
#     4  11  24  39  58  83 124 154 205 257 311 358
#     4  12  26  40  60  83 121 166 207 254 310 372
#     4   9  16  31  56  89 121 145 189 253 310 367
#     4   9  18  34  59  91 124 153 193 257 320 372
#     4  10  22  39  58  81 113 160 200 258 296 362
#     4  10  21  35  57  83 116 153 198 242 305 365
#
# _framework density 20.971457000000001
#
# number of rings (size 3 to 8) (size 9 to 14) (size 15 to 20)
#    0.000    1.500    2.500    4.125    5.250    3.250 
#    0.000    0.000    0.000    1.875    0.000    0.000 
#    0.000    0.000    0.000    0.000    0.000    0.000 
#
# Total GULP energy -178412.012386 kJ/mol
# GULP energy per Si atom -5575.375387 kJ/mol
# Density = 2.092373 g / cm^3
# Si number density = 20.971457 Si / 1000 Ang^3
#
#
#
# Elastic Constant Matrix: (Units=GPa)
#
#
# Indices 1 2 3 4 5 6 
#
# 1 73.0707 17.8232 0.5200 0.0000 5.0327 0.0000
# 2 17.8232 120.3319 5.8144 0.0000 9.2683 0.0000
# 3 0.5200 5.8144 64.9190 0.0000 3.7085 0.0000
# 4 0.0000 0.0000 0.0000 15.4650 0.0000 6.9072
# 5 5.0327 9.2683 3.7085 0.0000 30.8157 0.0000
# 6 0.0000 0.0000 0.0000 6.9072 0.0000 18.2271
#
#
#
# Elastic Compliance Matrix: (Units=1/GPa)
#
#
# Indices 1 2 3 4 5 6 
#
# 1 0.014290 -0.001989 0.000164 0.000000 -0.001755 0.000000
# 2 -0.001989 0.008809 -0.000645 0.000000 -0.002247 0.000000
# 3 0.000164 -0.000645 0.015558 0.000000 -0.001705 0.000000
# 4 0.000000 0.000000 0.000000 0.077836 0.000000 -0.029496
# 5 -0.001755 -0.002247 -0.001705 0.000000 0.033619 0.000000
# 6 0.000000 0.000000 0.000000 -0.029496 0.000000 0.066041
#
#
# Mechanical properties :
#
#
# Convention : Reuss Voigt Hill
#
# Bulk Modulus (GPa) = 29.65857 34.07073 31.86465
# Shear Modulus (GPa) = 21.52087 28.51248 25.01668
#
# Velocity S-wave (km/s) = 3.20691 3.69126 3.45757
# Velocity P-wave (km/s) = 5.28066 5.86930 5.58274
#
# Compressibility (1/GPa) = 0.03371707
#
# Stress axis : x y z
#
# Youngs Moduli (GPa) = 69.97732 113.51725 64.27709
#
# Poissons Ratio (x) = 0.22583 -0.01054
# Poissons Ratio (y) = 0.13921 0.04144
# Poissons Ratio (z) = -0.01147 0.07318
#
# Static dielectric constant tensor:
#      x y z
#    x 1.776670 0.000000 -0.036860 
#    y 0.000000 1.810030 0.000000 
#    z -0.036860 0.000000 1.831960 
# 
# From -- ./inp_files/68649.got.cif
#   From: 2010.05.17/outbox.cif.g08.bks.cpg/sg12_35_cif.got.tgz:68649.got - 2010.06.03 13:09:07.
