data_PCOD9205329
_publ_section_title
;
Structure prediction by ZEFSAII (Michael W. Deem and Ramdas Pophale) SiO2 
 PCOD9205329
Probable space group: C 2/M
;
_chemical_formula_sum "Si O2"
_cell_formula_units_Z 56
_cell_length_a 12.661427
_cell_length_b 14.068638
_cell_length_c 17.734685
_cell_angle_alpha 90.000000
_cell_angle_beta 60.467844
_cell_angle_gamma 90.000000
_cell_volume 2748.634380
_symmetry_space_group_name_H-M "C 2/M"
_symmetry_group_IT_number 12
_symmetry_cell_setting 'monoclinic'
loop_
_space_group_symop_operation_xyz
x,y,z
-x,y,-z
-x,-y,-z
x,-y,z
1/2+x,1/2+y,z
1/2-x,1/2+y,-z
1/2-x,1/2-y,-z
1/2+x,1/2-y,z
loop_
_atom_site_type_symbol
_atom_site_label
_atom_site_fract_x
_atom_site_fract_y
_atom_site_fract_z
Si Si1 0.177773 0.889861 0.018213
Si Si2 0.140506 0.221064 0.433791
Si Si3 0.929651 0.290287 0.697726
Si Si4 0.341173 0.111907 0.455529
Si Si5 0.031267 0.391409 0.075679
Si Si6 0.009422 0.787697 0.815517
Si Si7 0.701619 0.387206 0.844938
O O1 0.322886 0.886990 0.970781
O O2 0.147756 0.854842 0.944368
O O3 0.138282 0.000000 0.039723
O O4 0.113823 0.828828 0.104505
O O5 0.142202 0.237933 0.343901
O O6 0.235603 0.147173 0.435587
O O7 0.166645 0.320998 0.467715
O O8 0.000000 0.194464 0.500000
O O9 0.000172 0.220370 0.729367
O O10 0.833166 0.344349 0.783397
O O11 0.028610 0.360283 0.626311
O O12 0.333381 0.000000 0.473546
O O13 0.993746 0.500000 0.105969
O O14 0.973475 0.315760 0.152639
O O15 0.000000 0.370805 0.000000
O O16 0.114521 0.854985 0.808924
O O17 0.711296 0.500000 0.846069
#
# Coordination Sequence:
#
# PCOD9205329 Si02
#       7
#     8   8   8   8   8   8   8
#     4  10  21  39  58  82 114 159 214 262 304 354
#     4   9  21  42  65  95 127 153 193 240 289 358
#     4  11  23  38  59  89 127 161 196 245 298 357
#     4  10  21  41  68  94 122 159 196 234 290 357
#     4  10  21  35  54  80 110 149 203 257 305 358
#     4  12  23  36  60  82 116 158 208 252 310 353
#     4  11  23  39  59  86 119 159 210 260 302 350
#
# _framework density 20.373754000000002
#
# number of rings (size 3 to 8) (size 9 to 14) (size 15 to 20)
#    0.000    1.571    1.429    3.429    2.000    5.143 
#    0.000    1.429    0.000    0.857    0.000    0.000 
#    0.000    0.000    0.000    0.000    0.000    0.000 
#
# Total GULP energy -156520.930137 kJ/mol
# GULP energy per Si atom -5590.033219 kJ/mol
# Density = 2.032738 g / cm^3
# Si number density = 20.373754 Si / 1000 Ang^3
#
#
#
# Elastic Constant Matrix: (Units=GPa)
#
#
# Indices 1 2 3 4 5 6 
#
# 1 82.5139 -1.3989 3.4765 0.0000 22.2772 0.0000
# 2 -1.3989 50.5096 10.8479 0.0000 9.2574 0.0000
# 3 3.4765 10.8479 46.2575 0.0000 18.4820 0.0000
# 4 0.0000 0.0000 0.0000 12.4826 0.0000 -1.3822
# 5 22.2772 9.2574 18.4820 0.0000 37.6823 0.0000
# 6 0.0000 0.0000 0.0000 -1.3822 0.0000 22.5528
#
#
#
# Elastic Compliance Matrix: (Units=1/GPa)
#
#
# Indices 1 2 3 4 5 6 
#
# 1 0.014884 0.001770 0.002681 0.000000 -0.010549 0.000000
# 2 0.001770 0.021412 -0.003277 0.000000 -0.004700 0.000000
# 3 0.002681 -0.003277 0.027980 0.000000 -0.014503 0.000000
# 4 0.000000 0.000000 0.000000 0.080659 0.000000 0.004943
# 5 -0.010549 -0.004700 -0.014503 0.000000 0.041042 0.000000
# 6 0.000000 0.000000 0.000000 0.004943 0.000000 0.044643
#
#
# Mechanical properties :
#
#
# Convention : Reuss Voigt Hill
#
# Bulk Modulus (GPa) = 15.00938 22.79244 18.90091
# Shear Modulus (GPa) = 19.96163 25.63390 22.79776
#
# Velocity S-wave (km/s) = 3.13353 3.55093 3.34874
# Velocity P-wave (km/s) = 4.52493 5.29373 4.92436
#
# Compressibility (1/GPa) = 0.06662502
#
# Stress axis : x y z
#
# Youngs Moduli (GPa) = 67.18481 46.70209 35.74010
#
# Poissons Ratio (x) = -0.08266 -0.09583
# Poissons Ratio (y) = -0.11891 0.11711
# Poissons Ratio (z) = -0.18014 0.15303
#
# Static dielectric constant tensor:
#      x y z
#    x 1.750450 0.000000 0.002150 
#    y 0.000000 1.708780 0.000000 
#    z 0.002150 0.000000 1.727480 
# 
# From -- ./inp_files/263256.got.cif
#   From: 2010.05.17/outbox.cif.g08.bks.cpg/sg12_132_cif.got.tgz:263256.got - 2010.06.03 13:09:07.
