data_PCOD9205314
_publ_section_title
;
Structure prediction by ZEFSAII (Michael W. Deem and Ramdas Pophale) SiO2 
 PCOD9205314
Probable space group: C 2/M
;
_chemical_formula_sum "Si O2"
_cell_formula_units_Z 58
_cell_length_a 19.923352
_cell_length_b 7.372969
_cell_length_c 19.484436
_cell_angle_alpha 90.000000
_cell_angle_beta 108.909582
_cell_angle_gamma 90.000000
_cell_volume 2707.684775
_symmetry_space_group_name_H-M "C 2/M"
_symmetry_group_IT_number 12
_symmetry_cell_setting 'monoclinic'
loop_
_space_group_symop_operation_xyz
x,y,z
-x,y,-z
-x,-y,-z
x,-y,z
1/2+x,1/2+y,z
1/2-x,1/2+y,-z
1/2-x,1/2-y,-z
1/2+x,1/2-y,z
loop_
_atom_site_type_symbol
_atom_site_label
_atom_site_fract_x
_atom_site_fract_y
_atom_site_fract_z
Si Si1 0.530787 0.288176 0.080484
Si Si2 0.825047 0.280575 0.238931
Si Si3 0.412808 0.211975 0.678967
Si Si4 0.910437 0.282295 0.405854
Si Si5 0.334080 0.279722 0.792143
Si Si6 0.666684 0.216094 0.480446
Si Si7 0.000000 0.000000 0.500000
Si Si8 0.047918 0.719839 0.807586
O O1 0.545256 0.500000 0.071748
O O2 0.604215 0.213863 0.136086
O O3 0.474600 0.275341 0.123820
O O4 0.500000 0.209294 0.000000
O O5 0.821514 0.500000 0.233837
O O6 0.865911 0.240848 0.323222
O O7 0.744362 0.216229 0.214644
O O8 0.875793 0.219401 0.194149
O O9 0.356990 0.224959 0.723106
O O10 0.376637 0.289788 0.599029
O O11 0.486254 0.284914 0.734733
O O12 0.426853 0.000000 0.669373
O O13 0.924185 0.500000 0.411920
O O14 0.864605 0.221322 0.457329
O O15 0.979602 0.161027 0.436992
O O16 0.334638 0.500000 0.792687
O O17 0.750000 0.250000 0.500000
O O18 0.658109 0.000000 0.478540
O O19 0.046321 0.500000 0.805813
#
# Coordination Sequence:
#
# PCOD9205314 Si02
#       8
#     8   8   8   8   8   8   2   8
#     4   9  18  34  55  81 112 141 170 213 267 325
#     4   9  18  35  57  76 105 143 182 227 279 332
#     4   9  18  32  50  73 100 132 175 224 275 322
#     4  10  23  41  57  79 115 154 193 249 304 344
#     4   9  17  33  55  78 101 141 183 216 268 336
#     4  10  21  35  54  76 106 144 185 239 295 342
#     4  12  26  40  56  86 108 152 210 238 292 370
#     4   9  18  33  54  78 100 133 177 219 264 319
#
# _framework density 21.420513
#
# number of rings (size 3 to 8) (size 9 to 14) (size 15 to 20)
#    0.000    2.621    0.000    1.034    2.897    1.931 
#    2.483    0.690    0.000    0.000    0.000    0.000 
#    0.000    0.000    0.000    0.000    0.000    0.000 
#
# Total GULP energy -161707.417453 kJ/mol
# GULP energy per Si atom -5576.117843 kJ/mol
# Density = 2.137176 g / cm^3
# Si number density = 21.420513 Si / 1000 Ang^3
#
#
#
# Elastic Constant Matrix: (Units=GPa)
#
#
# Indices 1 2 3 4 5 6 
#
# 1 132.4223 -10.5969 55.6717 0.0000 -0.7956 0.0000
# 2 -10.5969 87.8706 7.8040 0.0000 8.1071 0.0000
# 3 55.6717 7.8040 143.3808 0.0000 -0.9500 0.0000
# 4 0.0000 0.0000 0.0000 2.7602 0.0000 -6.9428
# 5 -0.7956 8.1071 -0.9500 0.0000 13.5648 0.0000
# 6 0.0000 0.0000 0.0000 -6.9428 0.0000 18.9485
#
#
#
# Elastic Compliance Matrix: (Units=1/GPa)
#
#
# Indices 1 2 3 4 5 6 
#
# 1 0.009206 0.001491 -0.003660 0.000000 -0.000608 0.000000
# 2 0.001491 0.012357 -0.001301 0.000000 -0.007389 0.000000
# 3 -0.003660 -0.001301 0.008474 0.000000 0.001156 0.000000
# 4 0.000000 0.000000 0.000000 4.622168 0.000000 1.693584
# 5 -0.000608 -0.007389 0.001156 0.000000 0.078181 0.000000
# 6 0.000000 0.000000 0.000000 1.693584 0.000000 0.673312
#
#
# Mechanical properties :
#
#
# Convention : Reuss Voigt Hill
#
# Bulk Modulus (GPa) = 43.29147 52.15905 47.72526
# Shear Modulus (GPa) = 0.92279 27.77437 14.34858
#
# Velocity S-wave (km/s) = 0.65706 3.60477 2.59096
# Velocity P-wave (km/s) = 4.56397 6.45978 5.59279
#
# Compressibility (1/GPa) = 0.02309924
#
# Stress axis : x y z
#
# Youngs Moduli (GPa) = 108.62684 80.92285 118.01033
#
# Poissons Ratio (x) = -0.12068 0.43187
# Poissons Ratio (y) = -0.16199 0.15348
# Poissons Ratio (z) = 0.39753 0.10525
#
# Static dielectric constant tensor:
#      x y z
#    x 1.891910 0.000000 -0.053650 
#    y 0.000000 1.835490 0.000000 
#    z -0.053650 0.000000 1.793680 
# 
# From -- ./inp_files/281547.got.cif
#   From: 2010.05.17/outbox.cif.g08.bks.cpg/sg12_141_cif.got.tgz:281547.got - 2010.06.03 13:09:07.
