data_PCOD9205146
_publ_section_title
;
Structure prediction by ZEFSAII (Michael W. Deem and Ramdas Pophale) SiO2 
 PCOD9205146
Probable space group: C 2/M
;
_chemical_formula_sum "Si O2"
_cell_formula_units_Z 48
_cell_length_a 17.102535
_cell_length_b 9.637308
_cell_length_c 21.848729
_cell_angle_alpha 90.000000
_cell_angle_beta 134.284392
_cell_angle_gamma 90.000000
_cell_volume 2578.009015
_symmetry_space_group_name_H-M "C 2/M"
_symmetry_group_IT_number 12
_symmetry_cell_setting 'monoclinic'
loop_
_space_group_symop_operation_xyz
x,y,z
-x,y,-z
-x,-y,-z
x,-y,z
1/2+x,1/2+y,z
1/2-x,1/2+y,-z
1/2-x,1/2-y,-z
1/2+x,1/2-y,z
loop_
_atom_site_type_symbol
_atom_site_label
_atom_site_fract_x
_atom_site_fract_y
_atom_site_fract_z
Si Si1 0.907585 0.156897 0.026463
Si Si2 0.033233 0.166424 0.807815
Si Si3 0.104236 0.343382 0.730473
Si Si4 0.848590 0.229740 0.869287
Si Si5 0.166863 0.347741 0.265157
Si Si6 0.421025 0.337835 0.400005
O O1 0.898867 0.197134 0.092589
O O2 0.038159 0.153473 0.084872
O O3 0.864487 0.000000 0.993744
O O4 0.858267 0.256144 0.947335
O O5 0.079759 0.247623 0.775461
O O6 0.912636 0.229173 0.753634
O O7 0.031547 0.000000 0.799239
O O8 0.062282 0.500000 0.713643
O O9 0.235746 0.348740 0.796932
O O10 0.060249 0.264546 0.646462
O O11 0.843210 0.347066 0.814533
O O12 0.133528 0.500000 0.269704
O O13 0.293709 0.323624 0.349149
O O14 0.500000 0.309862 0.500000
O O15 0.435601 0.500000 0.389450
#
# Coordination Sequence:
#
# PCOD9205146 Si02
#       6
#     8   8   8   8   8   8
#     4   9  16  30  50  71  99 136 178 214 248 296
#     4  10  21  35  51  72 103 143 178 209 250 299
#     4  11  21  33  52  78 107 135 168 211 256 301
#     4   9  17  30  50  74 101 135 172 212 255 298
#     4   9  18  34  55  78 104 132 167 211 256 302
#     4   9  19  37  60  82 103 129 162 203 253 310
#
# _framework density 18.619019999999999
#
# number of rings (size 3 to 8) (size 9 to 14) (size 15 to 20)
#    0.000    2.500    0.000    3.000    0.000    6.333 
#    0.000    8.333    0.000    0.000    0.000    0.000 
#    0.000    0.000    0.000    0.000    0.000    0.000 
#
# Total GULP energy -133634.534638 kJ/mol
# GULP energy per Si atom -5568.105610 kJ/mol
# Density = 1.857664 g / cm^3
# Si number density = 18.619020 Si / 1000 Ang^3
#
#
#
# Elastic Constant Matrix: (Units=GPa)
#
#
# Indices 1 2 3 4 5 6 
#
# 1 45.6850 35.1888 29.6501 0.0000 -16.6995 0.0000
# 2 35.1888 91.2646 39.8328 0.0000 -11.4368 0.0000
# 3 29.6501 39.8328 118.2422 0.0000 -6.5932 0.0000
# 4 0.0000 0.0000 0.0000 9.8714 0.0000 -7.4616
# 5 -16.6995 -11.4368 -6.5932 0.0000 22.4012 0.0000
# 6 0.0000 0.0000 0.0000 -7.4616 0.0000 18.0479
#
#
#
# Elastic Compliance Matrix: (Units=1/GPa)
#
#
# Indices 1 2 3 4 5 6 
#
# 1 0.043208 -0.011041 -0.005728 0.000000 0.024888 0.000000
# 2 -0.011041 0.016336 -0.002774 0.000000 -0.000707 0.000000
# 3 -0.005728 -0.002774 0.010686 0.000000 -0.002541 0.000000
# 4 0.000000 0.000000 0.000000 0.147351 0.000000 0.060920
# 5 0.024888 -0.000707 -0.002541 0.000000 0.062085 0.000000
# 6 0.000000 0.000000 0.000000 0.060920 0.000000 0.080594
#
#
# Mechanical properties :
#
#
# Convention : Reuss Voigt Hill
#
# Bulk Modulus (GPa) = 32.10762 51.61504 41.86133
# Shear Modulus (GPa) = 12.20321 20.09876 16.15098
#
# Velocity S-wave (km/s) = 2.56289 3.28910 2.94844
# Velocity P-wave (km/s) = 5.10292 6.49662 5.84149
#
# Compressibility (1/GPa) = 0.03114526
#
# Stress axis : x y z
#
# Youngs Moduli (GPa) = 23.14391 61.21282 93.57777
#
# Poissons Ratio (x) = 0.67585 0.53597
# Poissons Ratio (y) = 0.25553 0.25960
# Poissons Ratio (z) = 0.13256 0.16981
#
# Static dielectric constant tensor:
#      x y z
#    x 1.671210 0.000000 -0.015520 
#    y 0.000000 1.640840 0.000000 
#    z -0.015520 0.000000 1.639980 
# 
# From -- ./inp_files/314490.got.cif
#   From: 2010.05.17/outbox.cif.g08.bks.cpg/sg12_158_cif.got.tgz:314490.got - 2010.06.03 13:09:07.
