data_PCOD9205612
_publ_section_title
;
Structure prediction by ZEFSAII (Michael W. Deem and Ramdas Pophale) SiO2 
 PCOD9205612
Probable space group: C 2/M
;
_chemical_formula_sum "Si O2"
_cell_formula_units_Z 56
_cell_length_a 7.632843
_cell_length_b 27.932164
_cell_length_c 14.527584
_cell_angle_alpha 90.000000
_cell_angle_beta 74.110087
_cell_angle_gamma 90.000000
_cell_volume 2978.957800
_symmetry_space_group_name_H-M "C 2/M"
_symmetry_group_IT_number 12
_symmetry_cell_setting 'monoclinic'
loop_
_space_group_symop_operation_xyz
x,y,z
-x,y,-z
-x,-y,-z
x,-y,z
1/2+x,1/2+y,z
1/2-x,1/2+y,-z
1/2-x,1/2-y,-z
1/2+x,1/2-y,z
loop_
_atom_site_type_symbol
_atom_site_label
_atom_site_fract_x
_atom_site_fract_y
_atom_site_fract_z
Si Si1 0.349709 0.779448 0.103665
Si Si2 0.695473 0.365035 0.018557
Si Si3 0.332803 0.942603 0.318779
Si Si4 0.278976 0.945337 0.527451
Si Si5 0.235269 0.399807 0.279939
Si Si6 0.857900 0.318190 0.828594
Si Si7 0.388196 0.442868 0.833527
O O1 0.216005 0.820378 0.085090
O O2 0.263432 0.728040 0.131824
O O3 0.439585 0.798643 0.184822
O O4 0.500000 0.774594 0.000000
O O5 0.711248 0.414278 0.070842
O O6 0.500000 0.363024 0.000000
O O7 0.835191 0.356295 0.915472
O O8 0.239723 0.928520 0.429410
O O9 0.538554 0.923051 0.285411
O O10 0.214615 0.930446 0.246848
O O11 0.346507 0.000000 0.321680
O O12 0.500000 0.948121 0.500000
O O13 0.225257 0.911308 0.618889
O O14 0.209227 0.000000 0.552924
O O15 0.206972 0.345113 0.252862
O O16 0.404728 0.423348 0.201943
O O17 0.387598 0.500000 0.845375
#
# Coordination Sequence:
#
# PCOD9205612 Si02
#       7
#     8   8   8   8   8   8   8
#     4  10  21  35  59  76 103 139 185 237 282 304
#     4  11  20  37  52  75 112 142 182 220 266 319
#     4   9  19  37  55  78 111 145 184 230 266 310
#     4   8  15  31  55  79 108 141 179 225 269 312
#     4  11  20  33  55  83 110 141 180 221 273 330
#     4  11  21  35  55  81 108 140 180 234 274 322
#     4  11  23  35  54  81 116 151 182 217 264 328
#
# _framework density 18.798521000000001
#
# number of rings (size 3 to 8) (size 9 to 14) (size 15 to 20)
#    0.000    1.857    1.429    6.000    0.000    0.857 
#    0.000    2.143    0.000    5.571    0.000   16.000 
#    0.000    0.000    0.000    0.000    0.000    0.000 
#
# Total GULP energy -156232.847050 kJ/mol
# GULP energy per Si atom -5579.744538 kJ/mol
# Density = 1.875573 g / cm^3
# Si number density = 18.798521 Si / 1000 Ang^3
#
#
#
# Elastic Constant Matrix: (Units=GPa)
#
#
# Indices 1 2 3 4 5 6 
#
# 1 68.3493 35.3552 21.5467 0.0000 21.0139 0.0000
# 2 35.3552 77.0759 42.4459 0.0000 20.5424 0.0000
# 3 21.5467 42.4459 56.1893 0.0000 12.5058 0.0000
# 4 0.0000 0.0000 0.0000 24.4996 0.0000 7.8323
# 5 21.0139 20.5424 12.5058 0.0000 21.1486 0.0000
# 6 0.0000 0.0000 0.0000 7.8323 0.0000 17.3470
#
#
#
# Elastic Compliance Matrix: (Units=1/GPa)
#
#
# Indices 1 2 3 4 5 6 
#
# 1 0.022980 -0.005567 -0.000839 0.000000 -0.016930 0.000000
# 2 -0.005567 0.027452 -0.016006 0.000000 -0.011669 0.000000
# 3 -0.000839 -0.016006 0.030590 0.000000 -0.001708 0.000000
# 4 0.000000 0.000000 0.000000 0.047702 0.000000 -0.021538
# 5 -0.016930 -0.011669 -0.001708 0.000000 0.076452 0.000000
# 6 0.000000 0.000000 0.000000 -0.021538 0.000000 0.067371
#
#
# Mechanical properties :
#
#
# Convention : Reuss Voigt Hill
#
# Bulk Modulus (GPa) = 27.62496 44.47891 36.05193
# Shear Modulus (GPa) = 15.17743 19.41683 17.29713
#
# Velocity S-wave (km/s) = 2.84451 3.21735 3.03666
# Velocity P-wave (km/s) = 5.05129 6.12487 5.61380
#
# Compressibility (1/GPa) = 0.03619915
#
# Stress axis : x y z
#
# Youngs Moduli (GPa) = 43.51630 36.42671 32.69070
#
# Poissons Ratio (x) = 0.20278 0.02742
# Poissons Ratio (y) = 0.24225 0.52324
# Poissons Ratio (z) = 0.03650 0.58304
#
# Static dielectric constant tensor:
#      x y z
#    x 1.727280 0.000000 0.003400 
#    y 0.000000 1.637360 0.000000 
#    z 0.003400 0.000000 1.699320 
# 
# From -- ./inp_files/199322.got.cif
#   From: 2010.05.17/outbox.cif.g08.bks.cpg/sg12_100_cif.got.tgz:199322.got - 2010.06.03 13:09:07.
