data_PCOD9205454
_publ_section_title
;
Structure prediction by ZEFSAII (Michael W. Deem and Ramdas Pophale) SiO2 
 PCOD9205454
Probable space group: C 2/M
;
_chemical_formula_sum "Si O2"
_cell_formula_units_Z 58
_cell_length_a 29.291538
_cell_length_b 7.509142
_cell_length_c 11.995008
_cell_angle_alpha 90.000000
_cell_angle_beta 76.191880
_cell_angle_gamma 90.000000
_cell_volume 2562.106609
_symmetry_space_group_name_H-M "C 2/M"
_symmetry_group_IT_number 12
_symmetry_cell_setting 'monoclinic'
loop_
_space_group_symop_operation_xyz
x,y,z
-x,y,-z
-x,-y,-z
x,-y,z
1/2+x,1/2+y,z
1/2-x,1/2+y,-z
1/2-x,1/2-y,-z
1/2+x,1/2-y,z
loop_
_atom_site_type_symbol
_atom_site_label
_atom_site_fract_x
_atom_site_fract_y
_atom_site_fract_z
Si Si1 0.374283 0.783283 0.371023
Si Si2 0.562349 0.286316 0.218988
Si Si3 0.127849 0.291680 0.374160
Si Si4 0.351706 0.716791 0.984818
Si Si5 0.713531 0.295876 0.168917
Si Si6 0.000000 0.500000 0.000000
Si Si7 0.535887 0.706924 0.830268
Si Si8 0.695397 0.793476 0.766446
O O1 0.376084 0.724235 0.497924
O O2 0.419390 0.722808 0.275250
O O3 0.327853 0.720197 0.331956
O O4 0.374526 0.000000 0.369492
O O5 0.563000 0.500000 0.218325
O O6 0.580503 0.228270 0.329335
O O7 0.601452 0.224543 0.106996
O O8 0.510646 0.231837 0.211557
O O9 0.139631 0.500000 0.372165
O O10 0.169476 0.203791 0.279081
O O11 0.352062 0.500000 0.986341
O O12 0.307872 0.779270 0.933106
O O13 0.343708 0.781535 0.113864
O O14 0.726217 0.500000 0.135733
O O15 0.757964 0.211340 0.205298
O O16 0.035641 0.342283 0.932312
O O17 0.531118 0.500000 0.867123
O O18 0.706581 0.000000 0.736474
#
# Coordination Sequence:
#
# PCOD9205454 Si02
#       8
#     8   8   8   8   8   2   8   8
#     4  10  23  42  57  86 125 161 204 262 312 366
#     4   9  21  40  61  89 118 155 206 255 302 369
#     4  10  21  37  62  86 117 156 203 258 316 369
#     4   9  18  33  54  81 116 146 187 249 302 355
#     4   9  19  37  56  81 114 155 199 251 309 368
#     4  12  26  44  68  92 140 168 198 268 298 374
#     4  11  25  43  67  96 127 170 213 248 311 372
#     4  10  21  35  56  80 115 160 200 244 311 373
#
# _framework density 22.637623000000001
#
# number of rings (size 3 to 8) (size 9 to 14) (size 15 to 20)
#    0.000    2.207    0.690    1.862    2.897    5.517 
#    0.000    2.759    0.000    0.000    0.000    0.000 
#    0.000    0.000    0.000    0.000    0.000    0.000 
#
# Total GULP energy -161811.560534 kJ/mol
# GULP energy per Si atom -5579.708984 kJ/mol
# Density = 2.258610 g / cm^3
# Si number density = 22.637623 Si / 1000 Ang^3
#
#
#
# Elastic Constant Matrix: (Units=GPa)
#
#
# Indices 1 2 3 4 5 6 
#
# 1 103.4907 0.7696 21.0957 0.0000 27.1936 0.0000
# 2 0.7696 90.5260 3.9331 0.0000 1.1459 0.0000
# 3 21.0957 3.9331 88.6577 0.0000 21.2896 0.0000
# 4 0.0000 0.0000 0.0000 28.8363 0.0000 -7.1866
# 5 27.1936 1.1459 21.2896 0.0000 33.0440 0.0000
# 6 0.0000 0.0000 0.0000 -7.1866 0.0000 12.9144
#
#
#
# Elastic Compliance Matrix: (Units=1/GPa)
#
#
# Indices 1 2 3 4 5 6 
#
# 1 0.012355 0.000045 -0.000591 0.000000 -0.009788 0.000000
# 2 0.000045 0.011068 -0.000474 0.000000 -0.000115 0.000000
# 3 -0.000591 -0.000474 0.013392 0.000000 -0.008125 0.000000
# 4 0.000000 0.000000 0.000000 0.040262 0.000000 0.022405
# 5 -0.009788 -0.000115 -0.008125 0.000000 0.043557 0.000000
# 6 0.000000 0.000000 0.000000 0.022405 0.000000 0.089901
#
#
# Mechanical properties :
#
#
# Convention : Reuss Voigt Hill
#
# Bulk Modulus (GPa) = 28.75732 37.14123 32.94928
# Shear Modulus (GPa) = 22.30475 32.08403 27.19439
#
# Velocity S-wave (km/s) = 3.14235 3.76877 3.46973
# Velocity P-wave (km/s) = 5.08888 5.94817 5.53522
#
# Compressibility (1/GPa) = 0.03477375
#
# Stress axis : x y z
#
# Youngs Moduli (GPa) = 80.94001 90.34873 74.67030
#
# Poissons Ratio (x) = -0.00403 0.04416
# Poissons Ratio (y) = -0.00361 0.03539
# Poissons Ratio (z) = 0.04786 0.04282
#
# Static dielectric constant tensor:
#      x y z
#    x 1.881350 0.000000 0.047970 
#    y 0.000000 1.599890 0.000000 
#    z 0.047970 0.000000 1.815920 
# 
# From -- ./inp_files/186518.got.cif
#   From: 2010.05.17/outbox.cif.g08.bks.cpg/sg12_94_cif.got.tgz:186518.got - 2010.06.03 13:09:07.
