data_PCOD9205843
_publ_section_title
;
Structure prediction by ZEFSAII (Michael W. Deem and Ramdas Pophale) SiO2 
 PCOD9205843
Probable space group: C 2/M
;
_chemical_formula_sum "Si O2"
_cell_formula_units_Z 48
_cell_length_a 7.091519
_cell_length_b 33.105862
_cell_length_c 8.288456
_cell_angle_alpha 90.000000
_cell_angle_beta 102.203197
_cell_angle_gamma 90.000000
_cell_volume 1901.918770
_symmetry_space_group_name_H-M "C 2/M"
_symmetry_group_IT_number 12
_symmetry_cell_setting 'monoclinic'
loop_
_space_group_symop_operation_xyz
x,y,z
-x,y,-z
-x,-y,-z
x,-y,z
1/2+x,1/2+y,z
1/2-x,1/2+y,-z
1/2-x,1/2-y,-z
1/2+x,1/2-y,z
loop_
_atom_site_type_symbol
_atom_site_label
_atom_site_fract_x
_atom_site_fract_y
_atom_site_fract_z
Si Si1 0.563647 0.369435 0.698101
Si Si2 0.500410 0.544586 0.805005
Si Si3 0.994046 0.377159 0.311989
Si Si4 0.869837 0.783561 0.318812
Si Si5 0.950498 0.298054 0.178940
Si Si6 0.553195 0.045234 0.187130
O O1 0.500000 0.367290 0.500000
O O2 0.455551 0.408463 0.750232
O O3 0.795013 0.376541 0.736189
O O4 0.544152 0.323098 0.756331
O O5 0.415345 0.500000 0.739957
O O6 0.716467 0.542491 0.768783
O O7 0.500000 0.544100 0.000000
O O8 0.870191 0.342464 0.203588
O O9 0.950165 0.424479 0.288832
O O10 0.000000 0.366956 0.500000
O O11 0.650435 0.795796 0.318006
O O12 0.000000 0.776876 0.500000
O O13 0.845693 0.742446 0.214574
O O14 0.000000 0.296334 0.000000
O O15 0.477185 0.000000 0.187787
O O16 0.500000 0.060602 0.000000
#
# Coordination Sequence:
#
# PCOD9205843 Si02
#       6
#     8   8   8   8   8   8
#     4   9  20  36  52  77 107 138 177 221 266 318
#     4   9  18  33  53  77 105 137 172 213 266 322
#     4  10  21  36  54  77 108 146 183 223 273 327
#     4  10  21  38  57  79 110 145 182 225 278 333
#     4  11  22  37  57  83 111 142 185 232 278 328
#     4   9  18  34  54  77 107 139 176 225 274 322
#
# _framework density 25.237670000000001
#
# number of rings (size 3 to 8) (size 9 to 14) (size 15 to 20)
#    0.000    2.333    0.000    2.000    0.000    5.333 
#    0.000    1.667    0.000    0.000    0.000    0.000 
#    0.000    0.000    0.000    0.000    0.000    0.000 
#
# Total GULP energy -133833.462255 kJ/mol
# GULP energy per Si atom -5576.394261 kJ/mol
# Density = 2.518023 g / cm^3
# Si number density = 25.237670 Si / 1000 Ang^3
#
#
#
# Elastic Constant Matrix: (Units=GPa)
#
#
# Indices 1 2 3 4 5 6 
#
# 1 79.2768 -8.4028 -19.7427 0.0000 -12.1689 0.0000
# 2 -8.4028 225.3330 59.4267 0.0000 -30.3836 0.0000
# 3 -19.7427 59.4267 55.1293 0.0000 -11.1323 0.0000
# 4 0.0000 0.0000 0.0000 -24.5730 0.0000 -6.9991
# 5 -12.1689 -30.3836 -11.1323 0.0000 24.5783 0.0000
# 6 0.0000 0.0000 0.0000 -6.9991 0.0000 19.5683
#
#
#
# Elastic Compliance Matrix: (Units=1/GPa)
#
#
# Indices 1 2 3 4 5 6 
#
# 1 0.016524 0.000048 0.008288 0.000000 0.011994 0.000000
# 2 0.000048 0.006843 -0.006215 0.000000 0.005668 0.000000
# 3 0.008288 -0.006215 0.029810 0.000000 0.009923 0.000000
# 4 0.000000 0.000000 0.000000 -0.036932 0.000000 -0.013210
# 5 0.011994 0.005668 0.009923 0.000000 0.058126 0.000000
# 6 0.000000 0.000000 0.000000 -0.013210 0.000000 0.046378
#
#
# Mechanical properties :
#
#
# Convention : Reuss Voigt Hill
#
# Bulk Modulus (GPa) = 17.41560 46.92239 32.16900
# Shear Modulus (GPa) = 36.86044 25.81189 31.33617
#
# Velocity S-wave (km/s) = 3.82584 3.20152 3.52752
# Velocity P-wave (km/s) = 5.14117 5.68321 5.41897
#
# Compressibility (1/GPa) = 0.05741977
#
# Stress axis : x y z
#
# Youngs Moduli (GPa) = 60.51713 146.13664 33.54544
#
# Poissons Ratio (x) = -0.00696 -0.27803
# Poissons Ratio (y) = -0.00288 0.20848
# Poissons Ratio (z) = -0.50158 0.90820
#
# Static dielectric constant tensor:
#      x y z
#    x 2.039000 0.000000 0.045430 
#    y 0.000000 2.193570 0.000000 
#    z 0.045430 0.000000 1.894790 
# 
# From -- ./inp_files/42223.got.cif
#   From: 2010.05.17/outbox.cif.g08.bks.cpg/sg12_22_cif.got.tgz:42223.got - 2010.06.03 13:09:07.
