data_PCOD9205938
_publ_section_title
;
Structure prediction by ZEFSAII (Michael W. Deem and Ramdas Pophale) SiO2 
 PCOD9205938
Probable space group: C 2/M
;
_chemical_formula_sum "Si O2"
_cell_formula_units_Z 64
_cell_length_a 30.115144
_cell_length_b 17.296535
_cell_length_c 5.604207
_cell_angle_alpha 90.000000
_cell_angle_beta 95.128125
_cell_angle_gamma 90.000000
_cell_volume 2907.477668
_symmetry_space_group_name_H-M "C 2/M"
_symmetry_group_IT_number 12
_symmetry_cell_setting 'monoclinic'
loop_
_space_group_symop_operation_xyz
x,y,z
-x,y,-z
-x,-y,-z
x,-y,z
1/2+x,1/2+y,z
1/2-x,1/2+y,-z
1/2-x,1/2-y,-z
1/2+x,1/2-y,z
loop_
_atom_site_type_symbol
_atom_site_label
_atom_site_fract_x
_atom_site_fract_y
_atom_site_fract_z
Si Si1 0.389646 0.911765 0.278143
Si Si2 0.014645 0.634278 0.757035
Si Si3 0.751763 0.086232 0.765527
Si Si4 0.813903 0.689440 0.029484
Si Si5 0.122382 0.170147 0.817891
Si Si6 0.326596 0.912940 0.657143
Si Si7 0.146938 0.909186 0.327723
Si Si8 0.516887 0.310385 0.757961
O O1 0.432305 0.863755 0.230158
O O2 0.373827 0.906578 0.543760
O O3 0.399664 0.000000 0.228594
O O4 0.347228 0.881521 0.114879
O O5 0.997017 0.722582 0.748334
O O6 0.000000 0.596755 0.500000
O O7 0.000000 0.597908 0.000000
O O8 0.714254 0.080026 0.547079
O O9 0.799809 0.100855 0.678125
O O10 0.753838 0.000000 0.887670
O O11 0.734516 0.159124 0.912872
O O12 0.816894 0.673534 0.752032
O O13 0.839531 0.763199 0.138714
O O14 0.131877 0.128412 0.570047
O O15 0.070437 0.193855 0.783380
O O16 0.127198 0.123481 0.069696
O O17 0.326482 0.000000 0.770869
O O18 0.137231 0.000000 0.336277
O O19 0.500000 0.346483 0.500000
O O20 0.500000 0.346247 0.000000
#
# Coordination Sequence:
#
# PCOD9205938 Si02
#       8
#     8   8   8   8   8   8   8   8
#     4  10  21  36  54  84 129 177 224 280 324 368
#     4  10  22  37  57  84 121 169 218 270 326 392
#     4   9  21  41  63  91 136 192 228 262 322 389
#     4  11  22  36  63  96 132 170 236 281 313 377
#     4  12  26  43  75 105 131 173 217 282 337 383
#     4   9  19  35  59  86 125 180 231 270 315 373
#     4  11  27  49  71  99 137 176 215 263 341 425
#     4  10  21  41  68  97 133 170 212 264 337 414
#
# _framework density 22.012205000000002
#
# number of rings (size 3 to 8) (size 9 to 14) (size 15 to 20)
#    0.000    1.750    1.250    3.000    7.000    2.500 
#    0.000    0.000    0.000    7.500    0.000    0.000 
#    0.000    0.000    0.000    0.000    0.000    0.000 
#
# Total GULP energy -178165.971102 kJ/mol
# GULP energy per Si atom -5567.686597 kJ/mol
# Density = 2.196210 g / cm^3
# Si number density = 22.012205 Si / 1000 Ang^3
#
#
#
# Elastic Constant Matrix: (Units=GPa)
#
#
# Indices 1 2 3 4 5 6 
#
# 1 85.0363 22.9307 39.1028 0.0000 -13.9958 0.0000
# 2 22.9307 80.4455 44.7273 0.0000 -9.4011 0.0000
# 3 39.1028 44.7273 130.8617 0.0000 -15.0442 0.0000
# 4 0.0000 0.0000 0.0000 -4.2998 0.0000 0.2855
# 5 -13.9958 -9.4011 -15.0442 0.0000 25.8980 0.0000
# 6 0.0000 0.0000 0.0000 0.2855 0.0000 34.1176
#
#
#
# Elastic Compliance Matrix: (Units=1/GPa)
#
#
# Indices 1 2 3 4 5 6 
#
# 1 0.014567 -0.001785 -0.003120 0.000000 0.005411 0.000000
# 2 -0.001785 0.015745 -0.004610 0.000000 0.002073 0.000000
# 3 -0.003120 -0.004610 0.010462 0.000000 0.002718 0.000000
# 4 0.000000 0.000000 0.000000 -0.232442 0.000000 0.001945
# 5 0.005411 0.002073 0.002718 0.000000 0.043869 0.000000
# 6 0.000000 0.000000 0.000000 0.001945 0.000000 0.029294
#
#
# Mechanical properties :
#
#
# Convention : Reuss Voigt Hill
#
# Bulk Modulus (GPa) = 45.99109 56.65167 51.32138
# Shear Modulus (GPa) = -54.21361 23.78200 -15.21580
#
# Velocity S-wave (km/s) = -4.96813 3.29051 -2.63200
# Velocity P-wave (km/s) = 3.45991 6.34263 3.75885
#
# Compressibility (1/GPa) = 0.02174334
#
# Stress axis : x y z
#
# Youngs Moduli (GPa) = 68.65050 63.51304 95.58303
#
# Poissons Ratio (x) = 0.11336 0.29827
# Poissons Ratio (y) = 0.12252 0.44062
# Poissons Ratio (z) = 0.21422 0.29278
#
# Static dielectric constant tensor:
#      x y z
#    x 1.802580 0.000000 0.001390 
#    y 0.000000 1.871450 0.000000 
#    z 0.001390 0.000000 2.127720 
# 
# From -- ./inp_files/32033.got.cif
#   From: 2010.05.17/outbox.cif.g08.bks.cpg/sg12_17_cif.got.tgz:32033.got - 2010.06.03 13:09:07.
