data_PCOD9205490
_publ_section_title
;
Structure prediction by ZEFSAII (Michael W. Deem and Ramdas Pophale) SiO2 
 PCOD9205490
Probable space group: C 2/M
;
_chemical_formula_sum "Si O2"
_cell_formula_units_Z 64
_cell_length_a 9.251420
_cell_length_b 25.538614
_cell_length_c 13.391275
_cell_angle_alpha 90.000000
_cell_angle_beta 77.877742
_cell_angle_gamma 90.000000
_cell_volume 3093.385423
_symmetry_space_group_name_H-M "C 2/M"
_symmetry_group_IT_number 12
_symmetry_cell_setting 'monoclinic'
loop_
_space_group_symop_operation_xyz
x,y,z
-x,y,-z
-x,-y,-z
x,-y,z
1/2+x,1/2+y,z
1/2-x,1/2+y,-z
1/2-x,1/2-y,-z
1/2+x,1/2-y,z
loop_
_atom_site_type_symbol
_atom_site_label
_atom_site_fract_x
_atom_site_fract_y
_atom_site_fract_z
Si Si1 0.635977 0.771608 0.791314
Si Si2 0.396214 0.350799 0.739742
Si Si3 0.587363 0.140745 0.210225
Si Si4 0.587846 0.720560 0.581002
Si Si5 0.835879 0.058847 0.481263
Si Si6 0.842357 0.350485 0.574159
Si Si7 0.396966 0.659313 0.109850
Si Si8 0.829129 0.439660 0.286976
O O1 0.788149 0.802708 0.784061
O O2 0.508460 0.814069 0.827837
O O3 0.615959 0.753762 0.677845
O O4 0.628294 0.720772 0.861155
O O5 0.480925 0.327241 0.632045
O O6 0.515086 0.361214 0.807070
O O7 0.296852 0.401751 0.739239
O O8 0.633742 0.162336 0.313285
O O9 0.737423 0.132263 0.128111
O O10 0.482631 0.090782 0.245497
O O11 0.500000 0.744106 0.500000
O O12 0.744067 0.693494 0.532689
O O13 0.761741 0.098493 0.415682
O O14 0.719964 0.059348 0.590056
O O15 0.000000 0.071363 0.500000
O O16 0.847131 0.000000 0.438986
O O17 0.000000 0.359493 0.500000
O O18 0.500000 0.653088 0.000000
O O19 0.830517 0.500000 0.252101
#
# Coordination Sequence:
#
# PCOD9205490 Si02
#       8
#     8   8   8   8   8   8   8   8
#     4  10  23  40  58  88 126 158 203 253 294 366
#     4  10  21  40  61  89 125 155 203 254 296 367
#     4  11  23  41  58  89 125 154 207 255 300 364
#     4  11  23  36  55  82 125 171 209 237 292 358
#     4  10  21  35  56  87 119 160 215 255 292 353
#     4  12  22  35  55  81 124 167 202 250 298 350
#     4  11  23  42  69  94 119 154 197 258 321 363
#     4  10  21  40  63  86 122 165 201 247 305 358
#
# _framework density 20.689305000000001
#
# number of rings (size 3 to 8) (size 9 to 14) (size 15 to 20)
#    0.000    1.375    3.750    3.375    1.750    3.750 
#    0.000    2.500    0.000    2.250    0.000    0.000 
#    0.000    0.000    0.000    0.000    0.000    0.000 
#
# Total GULP energy -178868.676448 kJ/mol
# GULP energy per Si atom -5589.646139 kJ/mol
# Density = 2.064222 g / cm^3
# Si number density = 20.689305 Si / 1000 Ang^3
#
#
#
# Elastic Constant Matrix: (Units=GPa)
#
#
# Indices 1 2 3 4 5 6 
#
# 1 143.9532 40.5758 20.2282 0.0000 -29.9279 0.0000
# 2 40.5758 80.9159 0.4425 0.0000 -2.3902 0.0000
# 3 20.2282 0.4425 42.5989 0.0000 -30.3278 0.0000
# 4 0.0000 0.0000 0.0000 9.4191 0.0000 -0.4248
# 5 -29.9279 -2.3902 -30.3278 0.0000 27.9742 0.0000
# 6 0.0000 0.0000 0.0000 -0.4248 0.0000 24.0581
#
#
#
# Elastic Compliance Matrix: (Units=1/GPa)
#
#
# Indices 1 2 3 4 5 6 
#
# 1 0.012341 -0.005432 0.014312 0.000000 0.028255 0.000000
# 2 -0.005432 0.014854 -0.003544 0.000000 -0.008385 0.000000
# 3 0.014312 -0.003544 0.120092 0.000000 0.145204 0.000000
# 4 0.000000 0.000000 0.000000 0.106252 0.000000 0.001876
# 5 0.028255 -0.008385 0.145204 0.000000 0.222679 0.000000
# 6 0.000000 0.000000 0.000000 0.001876 0.000000 0.041599
#
#
# Mechanical properties :
#
#
# Convention : Reuss Voigt Hill
#
# Bulk Modulus (GPa) = 6.33081 43.32900 24.82990
# Shear Modulus (GPa) = 8.93178 26.03838 17.48508
#
# Velocity S-wave (km/s) = 2.08002 3.55144 2.91026
# Velocity P-wave (km/s) = 2.97241 6.14859 4.82910
#
# Compressibility (1/GPa) = 0.15795776
#
# Stress axis : x y z
#
# Youngs Moduli (GPa) = 81.03141 67.32113 8.32695
#
# Poissons Ratio (x) = 0.36569 -0.11917
# Poissons Ratio (y) = 0.44017 0.02951
# Poissons Ratio (z) = -1.15971 0.23861
#
# Static dielectric constant tensor:
#      x y z
#    x 1.768300 0.000000 -0.029850 
#    y 0.000000 1.765190 0.000000 
#    z -0.029850 0.000000 1.737830 
# 
# From -- ./inp_files/199818.got.cif
#   From: 2010.05.17/outbox.cif.g08.bks.cpg/sg12_100_cif.got.tgz:199818.got - 2010.06.03 13:09:07.
