data_PCOD9205188
_publ_section_title
;
Structure prediction by ZEFSAII (Michael W. Deem and Ramdas Pophale) SiO2 
 PCOD9205188
Probable space group: C 2/M
;
_chemical_formula_sum "Si O2"
_cell_formula_units_Z 56
_cell_length_a 33.861343
_cell_length_b 7.418043
_cell_length_c 25.179842
_cell_angle_alpha 90.000000
_cell_angle_beta 157.386810
_cell_angle_gamma 90.000000
_cell_volume 2431.933693
_symmetry_space_group_name_H-M "C 2/M"
_symmetry_group_IT_number 12
_symmetry_cell_setting 'monoclinic'
loop_
_space_group_symop_operation_xyz
x,y,z
-x,y,-z
-x,-y,-z
x,-y,z
1/2+x,1/2+y,z
1/2-x,1/2+y,-z
1/2-x,1/2-y,-z
1/2+x,1/2-y,z
loop_
_atom_site_type_symbol
_atom_site_label
_atom_site_fract_x
_atom_site_fract_y
_atom_site_fract_z
Si Si1 0.701181 0.719598 0.106577
Si Si2 0.326972 0.285302 0.430117
Si Si3 0.095105 0.716346 0.582934
Si Si4 0.943551 0.220162 0.676797
Si Si5 0.105968 0.294245 0.152063
Si Si6 0.675796 0.714612 0.956627
Si Si7 0.465385 0.281852 0.823693
O O1 0.701715 0.500000 0.108997
O O2 0.796025 0.784464 0.259242
O O3 0.715867 0.777978 0.063620
O O4 0.585450 0.772666 0.978812
O O5 0.313092 0.500000 0.418806
O O6 0.407480 0.256918 0.482732
O O7 0.366319 0.216209 0.535549
O O8 0.215781 0.210078 0.274948
O O9 0.095661 0.500000 0.588762
O O10 0.000000 0.783422 0.500000
O O11 0.927525 0.273897 0.718141
O O12 0.059034 0.279101 0.804749
O O13 0.941456 0.000000 0.673821
O O14 0.105938 0.500000 0.131542
O O15 0.097861 0.292775 0.205730
O O16 0.000000 0.208500 0.000000
O O17 0.667683 0.500000 0.951592
O O18 0.750000 0.750000 0.000000
O O19 0.461672 0.500000 0.821329
#
# Coordination Sequence:
#
# PCOD9205188 Si02
#       7
#     8   8   8   8   8   8   8
#     4   8  16  32  50  70  99 132 163 202 256 304
#     4  10  21  37  54  73 104 141 171 206 256 313
#     4  10  21  35  52  75 103 134 169 214 259 298
#     4   8  17  34  52  73 103 136 169 207 253 304
#     4  10  21  35  52  77 108 137 167 212 263 301
#     4   9  17  30  50  72  96 128 166 207 249 296
#     4   9  17  33  57  77  97 133 176 211 248 305
#
# _framework density 23.026944
#
# number of rings (size 3 to 8) (size 9 to 14) (size 15 to 20)
#    0.000    2.857    0.000    2.571    2.000    1.714 
#    0.000    4.286    0.000    0.000    0.000    0.000 
#    0.000    0.000    0.000    0.000    0.000    0.000 
#
# Total GULP energy -156370.179210 kJ/mol
# GULP energy per Si atom -5584.649258 kJ/mol
# Density = 2.297453 g / cm^3
# Si number density = 23.026944 Si / 1000 Ang^3
#
#
#
# Elastic Constant Matrix: (Units=GPa)
#
#
# Indices 1 2 3 4 5 6 
#
# 1 119.2349 -9.0818 36.8333 0.0000 5.6762 0.0000
# 2 -9.0818 78.2799 5.3133 -0.0002 -1.5941 0.0001
# 3 36.8333 5.3133 101.7157 0.0000 -18.1673 0.0000
# 4 0.0000 -0.0002 0.0000 -7.7548 0.0000 -2.9265
# 5 5.6762 -1.5941 -18.1673 0.0000 24.4764 0.0000
# 6 0.0000 0.0001 0.0000 -2.9265 0.0000 22.5092
#
#
#
# Elastic Compliance Matrix: (Units=1/GPa)
#
#
# Indices 1 2 3 4 5 6 
#
# 1 0.010270 0.001400 -0.004843 0.000000 -0.005885 0.000000
# 2 0.001400 0.013014 -0.001261 0.000000 -0.000413 0.000000
# 3 -0.004843 -0.001261 0.013646 0.000000 0.011170 0.000000
# 4 0.000000 0.000000 0.000000 -0.122922 0.000000 -0.015981
# 5 -0.005885 -0.000413 0.011170 0.000000 0.050484 0.000000
# 6 0.000000 0.000000 0.000000 -0.015981 0.000000 0.042348
#
#
# Mechanical properties :
#
#
# Convention : Reuss Voigt Hill
#
# Bulk Modulus (GPa) = 36.33317 40.59556 38.46437
# Shear Modulus (GPa) = 196.68349 25.59057 111.13703
#
# Velocity S-wave (km/s) = 9.25202 3.33728 6.95476
# Velocity P-wave (km/s) = 11.39939 5.70244 9.01287
#
# Compressibility (1/GPa) = 0.02752306
#
# Stress axis : x y z
#
# Youngs Moduli (GPa) = 97.37333 76.83856 73.28174
#
# Poissons Ratio (x) = -0.10760 0.35492
# Poissons Ratio (y) = -0.13636 0.09238
# Poissons Ratio (z) = 0.47160 0.09687
#
# Static dielectric constant tensor:
#      x y z
#    x 1.843720 0.000000 -0.006980 
#    y 0.000000 1.928060 0.000000 
#    z -0.006980 0.000000 1.870900 
# 
# From -- ./inp_files/327622.got.cif
#   From: 2010.05.17/outbox.cif.g08.bks.cpg/sg12_164_cif.got.tgz:327622.got - 2010.06.03 13:09:07.
