data_PCOD9205473
_publ_section_title
;
Structure prediction by ZEFSAII (Michael W. Deem and Ramdas Pophale) SiO2 
 PCOD9205473
Probable space group: C 2/M
;
_chemical_formula_sum "Si O2"
_cell_formula_units_Z 48
_cell_length_a 27.979211
_cell_length_b 7.885473
_cell_length_c 11.436970
_cell_angle_alpha 90.000000
_cell_angle_beta 121.015673
_cell_angle_gamma 90.000000
_cell_volume 2162.561095
_symmetry_space_group_name_H-M "C 2/M"
_symmetry_group_IT_number 12
_symmetry_cell_setting 'monoclinic'
loop_
_space_group_symop_operation_xyz
x,y,z
-x,y,-z
-x,-y,-z
x,-y,z
1/2+x,1/2+y,z
1/2-x,1/2+y,-z
1/2-x,1/2-y,-z
1/2+x,1/2-y,z
loop_
_atom_site_type_symbol
_atom_site_label
_atom_site_fract_x
_atom_site_fract_y
_atom_site_fract_z
Si Si1 0.062789 0.797383 0.575095
Si Si2 0.361712 0.705160 0.813929
Si Si3 0.837558 0.303218 0.153650
Si Si4 0.034158 0.806148 0.920097
Si Si5 0.074771 0.791756 0.336081
Si Si6 0.766242 0.297979 0.846923
O O1 0.102287 0.761579 0.733888
O O2 0.089098 0.738814 0.485054
O O3 0.000000 0.729380 0.500000
O O4 0.058802 0.000000 0.562675
O O5 0.365135 0.500000 0.820569
O O6 0.383707 0.761869 0.714876
O O7 0.300082 0.758034 0.772704
O O8 0.406765 0.771298 0.967484
O O9 0.843548 0.500000 0.137050
O O10 0.794603 0.276116 0.206757
O O11 0.805598 0.226349 0.001669
O O12 0.988298 0.732217 0.774710
O O13 0.044881 0.000000 0.894879
O O14 0.000000 0.814232 0.000000
O O15 0.073287 0.000000 0.329293
O O16 0.760676 0.500000 0.851343
#
# Coordination Sequence:
#
# PCOD9205473 Si02
#       6
#     8   8   8   8   8   8
#     4  10  21  35  56  84 114 147 183 222 264 317
#     4   9  16  28  53  81 107 141 180 221 268 322
#     4  10  22  40  58  78 107 143 183 225 272 326
#     4   7  11  21  41  70 102 135 171 211 250 297
#     4   8  15  29  47  77 114 144 178 219 263 315
#     4  10  21  37  58  82 108 136 177 233 281 321
#
# _framework density 22.195905
#
# number of rings (size 3 to 8) (size 9 to 14) (size 15 to 20)
#    0.000    3.000    0.000    3.000    2.333    2.333 
#    0.000    1.667    0.000    4.500    0.000    0.000 
#    0.000    0.000    0.000    0.000    0.000    0.000 
#
# Total GULP energy -133846.748501 kJ/mol
# GULP energy per Si atom -5576.947854 kJ/mol
# Density = 2.214539 g / cm^3
# Si number density = 22.195905 Si / 1000 Ang^3
#
#
#
# Elastic Constant Matrix: (Units=GPa)
#
#
# Indices 1 2 3 4 5 6 
#
# 1 97.2173 -3.0302 11.0851 0.0000 5.5932 0.0000
# 2 -3.0302 17.5576 8.7740 0.0000 -2.8090 0.0000
# 3 11.0851 8.7740 63.0816 0.0000 5.9390 0.0000
# 4 0.0000 0.0000 0.0000 9.6827 0.0000 -0.1179
# 5 5.5932 -2.8090 5.9390 0.0000 25.3698 0.0000
# 6 0.0000 0.0000 0.0000 -0.1179 0.0000 9.6843
#
#
#
# Elastic Compliance Matrix: (Units=1/GPa)
#
#
# Indices 1 2 3 4 5 6 
#
# 1 0.010699 0.002644 -0.002100 0.000000 -0.001574 0.000000
# 2 0.002644 0.063926 -0.010192 0.000000 0.008881 0.000000
# 3 -0.002100 -0.010192 0.018101 0.000000 -0.004903 0.000000
# 4 0.000000 0.000000 0.000000 0.103293 0.000000 0.001257
# 5 -0.001574 0.008881 -0.004903 0.000000 0.041895 0.000000
# 6 0.000000 0.000000 0.000000 0.001257 0.000000 0.103275
#
#
# Mechanical properties :
#
#
# Convention : Reuss Voigt Hill
#
# Bulk Modulus (GPa) = 13.61858 23.50162 18.56010
# Shear Modulus (GPa) = 12.98835 19.68253 16.33544
#
# Velocity S-wave (km/s) = 2.42165 2.98109 2.71581
# Velocity P-wave (km/s) = 3.73740 4.73924 4.26782
#
# Compressibility (1/GPa) = 0.07342909
#
# Stress axis : x y z
#
# Youngs Moduli (GPa) = 93.47003 15.64313 55.24656
#
# Poissons Ratio (x) = -0.04136 0.11599
# Poissons Ratio (y) = -0.24711 0.56308
# Poissons Ratio (z) = 0.19624 0.15944
#
# Static dielectric constant tensor:
#      x y z
#    x 1.846940 0.000000 -0.013460 
#    y 0.000000 1.805020 0.000000 
#    z -0.013460 0.000000 1.849680 
# 
# From -- ./inp_files/180250.got.cif
#   From: 2010.05.17/outbox.cif.g08.bks.cpg/sg12_91_cif.got.tgz:180250.got - 2010.06.03 13:09:07.
