data_PCOD9205592
_publ_section_title
;
Structure prediction by ZEFSAII (Michael W. Deem and Ramdas Pophale) SiO2 
 PCOD9205592
Probable space group: C 2/M
;
_chemical_formula_sum "Si O2"
_cell_formula_units_Z 56
_cell_length_a 9.702835
_cell_length_b 28.481064
_cell_length_c 22.056262
_cell_angle_alpha 90.000000
_cell_angle_beta 150.815021
_cell_angle_gamma 90.000000
_cell_volume 2972.199040
_symmetry_space_group_name_H-M "C 2/M"
_symmetry_group_IT_number 12
_symmetry_cell_setting 'monoclinic'
loop_
_space_group_symop_operation_xyz
x,y,z
-x,y,-z
-x,-y,-z
x,-y,z
1/2+x,1/2+y,z
1/2-x,1/2+y,-z
1/2-x,1/2-y,-z
1/2+x,1/2-y,z
loop_
_atom_site_type_symbol
_atom_site_label
_atom_site_fract_x
_atom_site_fract_y
_atom_site_fract_z
Si Si1 0.185033 0.500000 0.131921
Si Si2 0.866498 0.131523 0.289229
Si Si3 0.828150 0.605665 0.147678
Si Si4 0.651387 0.201411 0.491735
Si Si5 0.340202 0.000000 0.126180
Si Si6 0.181238 0.098855 0.855049
Si Si7 0.685981 0.944225 0.510242
Si Si8 0.631994 0.876083 0.701073
O O1 0.361520 0.547371 0.191505
O O2 0.984901 0.500000 0.114408
O O3 0.000000 0.500000 0.000000
O O4 0.540716 0.128926 0.181671
O O5 0.881401 0.134326 0.222809
O O6 0.059755 0.172000 0.389941
O O7 0.021667 0.083678 0.370334
O O8 0.908623 0.550194 0.181729
O O9 0.910607 0.627848 0.243878
O O10 0.500000 0.609695 0.000000
O O11 0.500000 0.205579 0.500000
O O12 0.750000 0.250000 0.500000
O O13 0.457638 0.169770 0.371959
O O14 0.000000 0.000000 0.000000
O O15 0.960069 0.109517 0.821730
O O16 0.500000 0.101584 0.000000
O O17 0.500000 0.935238 0.500000
O O18 0.530174 0.919135 0.394198
O O19 0.720381 0.000000 0.516631
#
# Coordination Sequence:
#
# PCOD9205592 Si02
#       8
#     4   8   8   8   4   8   8   8
#     4  10  22  32  54  85 117 181 233 245 287 356
#     4  11  21  41  63  90 125 165 210 259 317 373
#     4  11  25  39  60  90 138 177 211 257 312 373
#     4  11  25  46  74 100 122 154 208 269 325 389
#     4  10  22  36  48  81 132 178 216 254 294 351
#     4  11  21  35  61  89 125 169 222 259 301 366
#     4  10  21  35  58  87 120 161 211 272 311 350
#     4  11  23  41  62  93 123 164 216 258 320 380
#
# _framework density 18.841267999999999
#
# number of rings (size 3 to 8) (size 9 to 14) (size 15 to 20)
#    0.000    1.286    4.286    1.714   12.000    1.714 
#    0.000    0.714    0.000    5.143    0.000    0.000 
#    0.000    0.000    0.000    0.000    0.000    0.000 
#
# Total GULP energy -156144.971431 kJ/mol
# GULP energy per Si atom -5576.606123 kJ/mol
# Density = 1.879838 g / cm^3
# Si number density = 18.841268 Si / 1000 Ang^3
#
#
#
# Elastic Constant Matrix: (Units=GPa)
#
#
# Indices 1 2 3 4 5 6 
#
# 1 53.4819 22.0291 0.3570 -0.0016 1.6646 -0.0017
# 2 22.0291 108.8035 30.6258 -0.0017 0.9634 -0.0001
# 3 0.3570 30.6258 79.2686 -0.0082 5.1287 0.0021
# 4 -0.0016 -0.0017 -0.0082 16.9836 0.0001 -0.7699
# 5 1.6646 0.9634 5.1287 0.0001 39.9854 -0.0020
# 6 -0.0017 -0.0001 0.0021 -0.7699 -0.0020 25.8167
#
#
#
# Elastic Compliance Matrix: (Units=1/GPa)
#
#
# Indices 1 2 3 4 5 6 
#
# 1 0.020640 -0.004670 0.001774 0.000002 -0.000974 0.000001
# 2 -0.004670 0.011372 -0.004404 -0.000001 0.000485 0.000000
# 3 0.001774 -0.004404 0.014426 0.000007 -0.001818 -0.000001
# 4 0.000002 -0.000001 0.000007 0.058960 -0.000001 0.001758
# 5 -0.000974 0.000485 -0.001818 -0.000001 0.025271 0.000002
# 6 0.000001 0.000000 -0.000001 0.001758 0.000002 0.038787
#
#
# Mechanical properties :
#
#
# Convention : Reuss Voigt Hill
#
# Bulk Modulus (GPa) = 31.40771 38.61977 35.01374
# Shear Modulus (GPa) = 25.68478 29.12662 27.40570
#
# Velocity S-wave (km/s) = 3.69619 3.93605 3.81800
# Velocity P-wave (km/s) = 5.90944 6.41861 6.16928
#
# Compressibility (1/GPa) = 0.03183932
#
# Stress axis : x y z
#
# Youngs Moduli (GPa) = 48.44999 87.93814 69.31720
#
# Poissons Ratio (x) = 0.41064 -0.12298
# Poissons Ratio (y) = 0.22625 0.30526
# Poissons Ratio (z) = -0.08596 0.38727
#
# Static dielectric constant tensor:
#      x y z
#    x 1.636600 0.000000 0.026970 
#    y 0.000000 1.677450 0.000000 
#    z 0.026970 0.000000 1.584170 
# 
# From -- ./inp_files/303093.got.cif
#   From: 2010.05.17/outbox.cif.g08.bks.cpg/sg12_152_cif.got.tgz:303093.got - 2010.06.03 13:09:07.
