data_PCOD9205380
_publ_section_title
;
Structure prediction by ZEFSAII (Michael W. Deem and Ramdas Pophale) SiO2 
 PCOD9205380
Probable space group: C 2/M
;
_chemical_formula_sum "Si O2"
_cell_formula_units_Z 64
_cell_length_a 27.040128
_cell_length_b 19.443675
_cell_length_c 11.052718
_cell_angle_alpha 90.000000
_cell_angle_beta 146.724294
_cell_angle_gamma 90.000000
_cell_volume 3188.350929
_symmetry_space_group_name_H-M "C 2/M"
_symmetry_group_IT_number 12
_symmetry_cell_setting 'monoclinic'
loop_
_space_group_symop_operation_xyz
x,y,z
-x,y,-z
-x,-y,-z
x,-y,z
1/2+x,1/2+y,z
1/2-x,1/2+y,-z
1/2-x,1/2-y,-z
1/2+x,1/2-y,z
loop_
_atom_site_type_symbol
_atom_site_label
_atom_site_fract_x
_atom_site_fract_y
_atom_site_fract_z
Si Si1 0.528083 0.579966 0.325974
Si Si2 0.191147 0.697110 0.115120
Si Si3 0.016151 0.227840 0.672432
Si Si4 0.737498 0.578079 0.127859
Si Si5 0.146592 0.695219 0.537363
Si Si6 0.373398 0.578400 0.848681
Si Si7 0.719301 0.171340 0.434549
Si Si8 0.220031 0.922792 0.823162
O O1 0.495607 0.500000 0.686830
O O2 0.497240 0.646174 0.338723
O O3 0.635931 0.583193 0.559481
O O4 0.478518 0.591344 0.095254
O O5 0.281177 0.742931 0.306008
O O6 0.175317 0.662842 0.213835
O O7 0.208571 0.635664 0.058609
O O8 0.113644 0.748384 0.915712
O O9 0.000000 0.245374 0.500000
O O10 0.945878 0.270974 0.610168
O O11 0.773219 0.500000 0.204633
O O12 0.815348 0.634389 0.300582
O O13 0.672141 0.584431 0.109977
O O14 0.688910 0.586102 0.898920
O O15 0.153695 0.664619 0.415823
O O16 0.364714 0.500000 0.788232
O O17 0.310219 0.626875 0.639569
O O18 0.750000 0.250000 0.500000
O O19 0.256325 0.000000 0.886087
#
# Coordination Sequence:
#
# PCOD9205380 Si02
#       8
#     8   8   8   8   8   8   8   8
#     4  10  21  35  54  87 126 160 195 238 296 364
#     4  11  23  40  58  85 119 156 207 251 299 358
#     4  12  25  36  60  94 121 163 198 244 307 359
#     4   9  18  33  56  82 113 157 196 241 303 356
#     4  10  21  39  59  83 118 155 200 259 296 351
#     4   9  18  33  56  86 116 149 198 249 296 356
#     4   9  19  37  60  79 108 158 204 245 297 343
#     4  10  21  36  56  83 122 165 195 238 303 362
#
# _framework density 20.073073000000001
#
# number of rings (size 3 to 8) (size 9 to 14) (size 15 to 20)
#    0.000    2.000    1.250    3.000    3.500    2.250 
#    0.000    1.250    0.000    4.500    0.000    4.375 
#    0.000    0.000    0.000    0.000    0.000    0.000 
#
# Total GULP energy -178477.425258 kJ/mol
# GULP energy per Si atom -5577.419539 kJ/mol
# Density = 2.002739 g / cm^3
# Si number density = 20.073073 Si / 1000 Ang^3
#
#
#
# Elastic Constant Matrix: (Units=GPa)
#
#
# Indices 1 2 3 4 5 6 
#
# 1 37.9080 9.6870 10.2815 0.0000 -14.1817 0.0000
# 2 9.6870 88.4649 16.6672 0.0000 0.1734 0.0000
# 3 10.2815 16.6672 30.7837 0.0000 -13.7156 0.0000
# 4 0.0000 0.0000 0.0000 39.6285 0.0000 0.4584
# 5 -14.1817 0.1734 -13.7156 0.0000 28.7980 0.0000
# 6 0.0000 0.0000 0.0000 0.4584 0.0000 20.2295
#
#
#
# Elastic Compliance Matrix: (Units=1/GPa)
#
#
# Indices 1 2 3 4 5 6 
#
# 1 0.033657 -0.003211 -0.002677 0.000000 0.015319 0.000000
# 2 -0.003211 0.013311 -0.008727 0.000000 -0.005818 0.000000
# 3 -0.002677 -0.008727 0.047651 0.000000 0.021429 0.000000
# 4 0.000000 0.000000 0.000000 0.025241 0.000000 -0.000572
# 5 0.015319 -0.005818 0.021429 0.000000 0.052509 0.000000
# 6 0.000000 0.000000 0.000000 -0.000572 0.000000 0.049446
#
#
# Mechanical properties :
#
#
# Convention : Reuss Voigt Hill
#
# Bulk Modulus (GPa) = 15.29295 25.60311 20.44803
# Shear Modulus (GPa) = 18.32562 25.76594 22.04578
#
# Velocity S-wave (km/s) = 3.02478 3.58663 3.31762
# Velocity P-wave (km/s) = 4.45356 5.47125 4.98843
#
# Compressibility (1/GPa) = 0.06538960
#
# Stress axis : x y z
#
# Youngs Moduli (GPa) = 29.71125 75.12558 20.98581
#
# Poissons Ratio (x) = 0.24123 0.05619
# Poissons Ratio (y) = 0.09541 0.18313
# Poissons Ratio (z) = 0.07955 0.65558
#
# Static dielectric constant tensor:
#      x y z
#    x 1.792850 0.000000 -0.029620 
#    y 0.000000 1.720480 0.000000 
#    z -0.029620 0.000000 1.713120 
# 
# From -- ./inp_files/190103.got.cif
#   From: 2010.05.17/outbox.cif.g08.bks.cpg/sg12_96_cif.got.tgz:190103.got - 2010.06.03 13:09:07.
