data_PCOD9205156
_publ_section_title
;
Structure prediction by ZEFSAII (Michael W. Deem and Ramdas Pophale) SiO2 
 PCOD9205156
Probable space group: C 2/M
;
_chemical_formula_sum "Si O2"
_cell_formula_units_Z 56
_cell_length_a 16.289782
_cell_length_b 7.806699
_cell_length_c 21.556874
_cell_angle_alpha 90.000000
_cell_angle_beta 52.705968
_cell_angle_gamma 90.000000
_cell_volume 2180.864352
_symmetry_space_group_name_H-M "C 2/M"
_symmetry_group_IT_number 12
_symmetry_cell_setting 'monoclinic'
loop_
_space_group_symop_operation_xyz
x,y,z
-x,y,-z
-x,-y,-z
x,-y,z
1/2+x,1/2+y,z
1/2-x,1/2+y,-z
1/2-x,1/2-y,-z
1/2+x,1/2-y,z
loop_
_atom_site_type_symbol
_atom_site_label
_atom_site_fract_x
_atom_site_fract_y
_atom_site_fract_z
Si Si1 0.157815 0.206639 0.337055
Si Si2 0.898506 0.295073 0.905002
Si Si3 0.625428 0.201847 0.951197
Si Si4 0.909360 0.805018 0.765120
Si Si5 0.889868 0.700307 0.375781
Si Si6 0.653572 0.201577 0.471852
Si Si7 0.366438 0.209565 0.187692
O O1 0.116648 0.274543 0.290022
O O2 0.111032 0.272321 0.422464
O O3 0.278958 0.255057 0.276562
O O4 0.149255 0.000000 0.342844
O O5 0.899123 0.500000 0.911234
O O6 0.864128 0.258423 0.850827
O O7 0.017669 0.232954 0.852565
O O8 0.849704 0.225030 0.991728
O O9 0.665180 0.270015 0.867185
O O10 0.651619 0.000000 0.940765
O O11 0.500000 0.210905 0.000000
O O12 0.033632 0.792698 0.706273
O O13 0.875418 0.000000 0.776270
O O14 0.915374 0.500000 0.358816
O O15 0.768344 0.719812 0.419583
O O16 0.903916 0.768242 0.440272
O O17 0.664607 0.000000 0.477778
O O18 0.369602 0.000000 0.184755
#
# Coordination Sequence:
#
# PCOD9205156 Si02
#       7
#     8   8   8   8   8   8   8
#     4  10  21  35  51  73 105 145 180 210 252 305
#     4   9  16  29  53  78  97 126 171 221 268 312
#     4   7  11  22  45  76  99 118 160 218 263 305
#     4  11  23  35  48  72 107 143 178 216 255 298
#     4  10  21  38  59  80 103 133 168 207 256 312
#     4  10  21  37  59  84 105 127 163 213 260 305
#     4   8  14  28  51  75  97 126 169 216 259 308
#
# _framework density 25.677893000000001
#
# number of rings (size 3 to 8) (size 9 to 14) (size 15 to 20)
#    0.000    2.714    0.000    3.857    0.000    4.571 
#    0.000    3.571    0.000    4.714    0.000    0.000 
#    0.000    0.000    0.000    0.000    0.000    0.000 
#
# Total GULP energy -156417.521825 kJ/mol
# GULP energy per Si atom -5586.340065 kJ/mol
# Density = 2.561945 g / cm^3
# Si number density = 25.677893 Si / 1000 Ang^3
#
#
#
# Elastic Constant Matrix: (Units=GPa)
#
#
# Indices 1 2 3 4 5 6 
#
# 1 76.4742 -4.8223 34.8971 0.0000 26.0586 0.0003
# 2 -4.8223 43.9827 11.1768 0.0000 2.6688 0.0006
# 3 34.8971 11.1768 220.5771 0.0000 34.4888 0.0001
# 4 0.0000 0.0000 0.0000 17.8459 0.0000 12.1453
# 5 26.0586 2.6688 34.4888 0.0000 55.3145 0.0001
# 6 0.0003 0.0006 0.0001 12.1453 0.0001 16.6318
#
#
#
# Elastic Compliance Matrix: (Units=1/GPa)
#
#
# Indices 1 2 3 4 5 6 
#
# 1 0.016305 0.002619 -0.001653 0.000000 -0.006777 -0.000001
# 2 0.002619 0.023462 -0.001366 0.000001 -0.001514 -0.000002
# 3 -0.001653 -0.001366 0.005243 0.000000 -0.002425 0.000000
# 4 0.000000 0.000001 0.000000 0.111398 0.000000 -0.081347
# 5 -0.006777 -0.001514 -0.002425 0.000000 0.022856 0.000000
# 6 -0.000001 -0.000002 0.000000 -0.081347 0.000000 0.119529
#
#
# Mechanical properties :
#
#
# Convention : Reuss Voigt Hill
#
# Bulk Modulus (GPa) = 22.61919 47.05968 34.83943
# Shear Modulus (GPa) = 15.90681 37.94393 26.92537
#
# Velocity S-wave (km/s) = 2.49163 3.84824 3.24169
# Velocity P-wave (km/s) = 4.13588 6.17349 5.25440
#
# Compressibility (1/GPa) = 0.04421025
#
# Stress axis : x y z
#
# Youngs Moduli (GPa) = 61.33131 42.62133 190.71615
#
# Poissons Ratio (x) = -0.11162 0.31518
# Poissons Ratio (y) = -0.16062 0.26061
# Poissons Ratio (z) = 0.10136 0.05824
#
# Static dielectric constant tensor:
#      x y z
#    x 2.161390 0.000000 0.044130 
#    y 0.000000 1.928510 0.000000 
#    z 0.044130 0.000000 2.011330 
# 
# From -- ./inp_files/313665.got.cif
#   From: 2010.05.17/outbox.cif.g08.bks.cpg/sg12_157_cif.got.tgz:313665.got - 2010.06.03 13:09:07.
