data_PCOD9205220
_publ_section_title
;
Structure prediction by ZEFSAII (Michael W. Deem and Ramdas Pophale) SiO2 
 PCOD9205220
Probable space group: C 2/M
;
_chemical_formula_sum "Si O2"
_cell_formula_units_Z 58
_cell_length_a 17.406646
_cell_length_b 12.865174
_cell_length_c 14.472154
_cell_angle_alpha 90.000000
_cell_angle_beta 82.042379
_cell_angle_gamma 90.000000
_cell_volume 3209.680004
_symmetry_space_group_name_H-M "C 2/M"
_symmetry_group_IT_number 12
_symmetry_cell_setting 'monoclinic'
loop_
_space_group_symop_operation_xyz
x,y,z
-x,y,-z
-x,-y,-z
x,-y,z
1/2+x,1/2+y,z
1/2-x,1/2+y,-z
1/2-x,1/2-y,-z
1/2+x,1/2-y,z
loop_
_atom_site_type_symbol
_atom_site_label
_atom_site_fract_x
_atom_site_fract_y
_atom_site_fract_z
Si Si1 0.285523 0.377018 0.151643
Si Si2 0.201447 0.122298 0.353015
Si Si3 0.868717 0.248231 0.805876
Si Si4 0.419822 0.621302 0.461179
Si Si5 0.415246 0.375370 0.978559
Si Si6 0.645173 0.252701 0.696851
Si Si7 0.485619 0.114455 0.194993
Si Si8 0.000000 0.500000 0.000000
O O1 0.271087 0.500000 0.149878
O O2 0.206687 0.313542 0.151311
O O3 0.319475 0.343117 0.244807
O O4 0.349066 0.349063 0.063920
O O5 0.155205 0.179523 0.278132
O O6 0.150063 0.129735 0.453731
O O7 0.283444 0.181036 0.348339
O O8 0.212505 0.000000 0.329691
O O9 0.895667 0.175491 0.884719
O O10 0.938913 0.327898 0.778486
O O11 0.500000 0.646642 0.500000
O O12 0.425304 0.500000 0.430347
O O13 0.401799 0.695815 0.378820
O O14 0.415716 0.500000 0.968690
O O15 0.500000 0.343876 0.000000
O O16 0.588540 0.183575 0.769362
O O17 0.495576 0.089054 0.084185
O O18 0.476413 0.000000 0.240325
#
# Coordination Sequence:
#
# PCOD9205220 Si02
#       8
#     8   8   8   8   8   8   8   2
#     4  10  22  36  51  80 111 145 190 239 287 343
#     4  10  22  39  59  88 121 151 196 244 293 346
#     4  11  21  36  58  79 112 153 192 236 290 345
#     4  10  21  38  62  91 120 152 192 242 293 349
#     4  10  21  35  52  78 110 145 190 239 289 346
#     4  11  21  37  63  85 114 157 193 237 290 351
#     4  10  22  38  58  85 114 149 197 237 286 341
#     4   8  24  40  56  88 116 156 200 244 282 352
#
# _framework density 18.070336000000001
#
# number of rings (size 3 to 8) (size 9 to 14) (size 15 to 20)
#    0.414    1.379    0.000    4.138    2.897    0.000 
#    0.000    5.517    0.000    9.931    0.000    0.000 
#    0.000    0.000    0.000    0.000    0.000    0.000 
#
# Total GULP energy -161623.694312 kJ/mol
# GULP energy per Si atom -5573.230838 kJ/mol
# Density = 1.802921 g / cm^3
# Si number density = 18.070336 Si / 1000 Ang^3
#
#
#
# Elastic Constant Matrix: (Units=GPa)
#
#
# Indices 1 2 3 4 5 6 
#
# 1 85.3603 18.6660 21.4861 0.0000 11.3034 0.0000
# 2 18.6660 62.6728 33.1094 0.0000 12.7807 0.0000
# 3 21.4861 33.1094 55.1319 0.0000 14.7053 0.0000
# 4 0.0000 0.0000 0.0000 -1.8354 0.0000 16.0760
# 5 11.3034 12.7807 14.7053 0.0000 24.3323 0.0000
# 6 0.0000 0.0000 0.0000 16.0760 0.0000 14.3114
#
#
#
# Elastic Compliance Matrix: (Units=1/GPa)
#
#
# Indices 1 2 3 4 5 6 
#
# 1 0.013343 -0.001487 -0.003412 0.000000 -0.003355 0.000000
# 2 -0.001487 0.023961 -0.012682 0.000000 -0.004231 0.000000
# 3 -0.003412 -0.012682 0.029667 0.000000 -0.009683 0.000000
# 4 0.000000 0.000000 0.000000 -0.050268 0.000000 0.056465
# 5 -0.003355 -0.004231 -0.009683 0.000000 0.050730 0.000000
# 6 0.000000 0.000000 0.000000 0.056465 0.000000 0.006447
#
#
# Mechanical properties :
#
#
# Convention : Reuss Voigt Hill
#
# Bulk Modulus (GPa) = 31.43755 38.85423 35.14589
# Shear Modulus (GPa) = 41.78980 16.02192 28.90586
#
# Velocity S-wave (km/s) = 4.81419 2.98088 4.00388
# Velocity P-wave (km/s) = 6.95248 5.77892 6.39268
#
# Compressibility (1/GPa) = 0.03180910
#
# Stress axis : x y z
#
# Youngs Moduli (GPa) = 74.94318 41.73405 33.70768
#
# Poissons Ratio (x) = 0.06207 0.11501
# Poissons Ratio (y) = 0.11146 0.42748
# Poissons Ratio (z) = 0.25571 0.52926
#
# Static dielectric constant tensor:
#      x y z
#    x 1.604370 0.000000 -0.013090 
#    y 0.000000 1.610130 0.000000 
#    z -0.013090 0.000000 1.592500 
# 
# From -- ./inp_files/223206.got.cif
#   From: 2010.05.17/outbox.cif.g08.bks.cpg/sg12_112_cif.got.tgz:223206.got - 2010.06.03 13:09:07.
