data_PCOD9205660
_publ_section_title
;
Structure prediction by ZEFSAII (Michael W. Deem and Ramdas Pophale) SiO2 
 PCOD9205660
Probable space group: C 2/M
;
_chemical_formula_sum "Si O2"
_cell_formula_units_Z 40
_cell_length_a 9.928691
_cell_length_b 21.555733
_cell_length_c 18.609898
_cell_angle_alpha 90.000000
_cell_angle_beta 30.520127
_cell_angle_gamma 90.000000
_cell_volume 2022.677061
_symmetry_space_group_name_H-M "C 2/M"
_symmetry_group_IT_number 12
_symmetry_cell_setting 'monoclinic'
loop_
_space_group_symop_operation_xyz
x,y,z
-x,y,-z
-x,-y,-z
x,-y,z
1/2+x,1/2+y,z
1/2-x,1/2+y,-z
1/2-x,1/2-y,-z
1/2+x,1/2-y,z
loop_
_atom_site_type_symbol
_atom_site_label
_atom_site_fract_x
_atom_site_fract_y
_atom_site_fract_z
Si Si1 0.803295 0.697434 0.375779
Si Si2 0.800633 0.338992 0.531042
Si Si3 0.729572 0.429974 0.025897
Si Si4 0.855632 0.068999 0.766299
Si Si5 0.773700 0.803020 0.049195
O O1 0.500000 0.676721 0.500000
O O2 0.912172 0.666746 0.399142
O O3 0.779763 0.770511 0.404994
O O4 0.999689 0.689410 0.219051
O O5 0.539590 0.379961 0.647632
O O6 0.000000 0.364244 0.500000
O O7 0.660426 0.500000 0.031743
O O8 0.644301 0.369889 0.020778
O O9 0.049763 0.426315 0.884171
O O10 0.633334 0.424575 0.152389
O O11 0.949464 0.000000 0.704207
O O12 0.750000 0.750000 0.000000
O O13 0.000000 0.781970 0.000000
#
# Coordination Sequence:
#
# PCOD9205660 Si02
#       5
#     8   8   8   8   8
#     4  10  23  40  59  86 122 169 196 250 327 367
#     4  10  21  35  61  82 123 155 204 251 309 367
#     4   9  20  39  63  88 125 168 204 251 318 376
#     4   9  18  35  63  91 117 162 207 251 304 371
#     4  12  28  40  65  99 128 161 214 268 311 367
#
# _framework density 19.775770999999999
#
# number of rings (size 3 to 8) (size 9 to 14) (size 15 to 20)
#    0.000    2.000    0.000    3.600   16.800    0.800 
#    0.000    1.000    0.000    3.600    0.000    0.000 
#    0.000    0.000    0.000    0.000    0.000    0.000 
#
# Total GULP energy -111657.766043 kJ/mol
# GULP energy per Si atom -5582.888302 kJ/mol
# Density = 1.973076 g / cm^3
# Si number density = 19.775771 Si / 1000 Ang^3
#
#
#
# Elastic Constant Matrix: (Units=GPa)
#
#
# Indices 1 2 3 4 5 6 
#
# 1 97.8897 42.3103 18.9388 0.0010 4.4409 0.0019
# 2 42.3103 73.4944 17.5295 0.0025 13.9395 -0.0006
# 3 18.9388 17.5295 70.9868 0.0242 8.7590 0.0151
# 4 0.0010 0.0025 0.0242 28.3805 0.0003 1.7246
# 5 4.4409 13.9395 8.7590 0.0003 22.7582 0.0061
# 6 0.0019 -0.0006 0.0151 1.7246 0.0061 25.9343
#
#
#
# Elastic Compliance Matrix: (Units=1/GPa)
#
#
# Indices 1 2 3 4 5 6 
#
# 1 0.014002 -0.008140 -0.002103 0.000002 0.003063 -0.000001
# 2 -0.008140 0.020664 -0.001643 0.000000 -0.010436 0.000005
# 3 -0.002103 -0.001643 0.015621 -0.000013 -0.004595 -0.000007
# 4 0.000002 0.000000 -0.000013 0.035378 0.000005 -0.002353
# 5 0.003063 -0.010436 -0.004595 0.000005 0.051503 -0.000010
# 6 -0.000001 0.000005 -0.000007 -0.002353 -0.000010 0.038715
#
#
# Mechanical properties :
#
#
# Convention : Reuss Voigt Hill
#
# Bulk Modulus (GPa) = 37.71709 44.43645 41.07677
# Shear Modulus (GPa) = 23.98134 26.32077 25.15105
#
# Velocity S-wave (km/s) = 3.48611 3.65219 3.57012
# Velocity P-wave (km/s) = 5.94287 6.34851 6.14904
#
# Compressibility (1/GPa) = 0.02651318
#
# Stress axis : x y z
#
# Youngs Moduli (GPa) = 71.41877 48.39329 64.01586
#
# Poissons Ratio (x) = 0.39393 0.13465
# Poissons Ratio (y) = 0.58136 0.10520
# Poissons Ratio (z) = 0.15023 0.07953
#
# Static dielectric constant tensor:
#      x y z
#    x 1.728350 0.000000 -0.015340 
#    y 0.000000 1.685590 0.000000 
#    z -0.015340 0.000000 1.687950 
# 
# From -- ./inp_files/120070.got.cif
#   From: 2010.05.17/outbox.cif.g08.bks.cpg/sg12_61_cif.got.tgz:120070.got - 2010.06.03 13:09:07.
