data_PCOD9205715
_publ_section_title
;
Structure prediction by ZEFSAII (Michael W. Deem and Ramdas Pophale) SiO2 
 PCOD9205715
Probable space group: C 2/M
;
_chemical_formula_sum "Si O2"
_cell_formula_units_Z 56
_cell_length_a 14.834725
_cell_length_b 7.753945
_cell_length_c 25.579286
_cell_angle_alpha 90.000000
_cell_angle_beta 108.660118
_cell_angle_gamma 90.000000
_cell_volume 2787.656392
_symmetry_space_group_name_H-M "C 2/M"
_symmetry_group_IT_number 12
_symmetry_cell_setting 'monoclinic'
loop_
_space_group_symop_operation_xyz
x,y,z
-x,y,-z
-x,-y,-z
x,-y,z
1/2+x,1/2+y,z
1/2-x,1/2+y,-z
1/2-x,1/2-y,-z
1/2+x,1/2-y,z
loop_
_atom_site_type_symbol
_atom_site_label
_atom_site_fract_x
_atom_site_fract_y
_atom_site_fract_z
Si Si1 0.772183 0.295463 0.846436
Si Si2 0.550103 0.791734 0.429863
Si Si3 0.077033 0.201400 0.856299
Si Si4 0.166097 0.201668 0.355262
Si Si5 0.353480 0.210295 0.448136
Si Si6 0.612422 0.798625 0.230110
Si Si7 0.534496 0.709544 0.063371
O O1 0.756534 0.500000 0.835942
O O2 0.673682 0.221887 0.850566
O O3 0.811745 0.227427 0.798160
O O4 0.859373 0.268507 0.902432
O O5 0.578918 0.723875 0.378946
O O6 0.624566 0.732367 0.488549
O O7 0.445821 0.742269 0.431009
O O8 0.552706 0.000000 0.428684
O O9 0.989604 0.213518 0.799575
O O10 0.035257 0.272622 0.903101
O O11 0.096548 0.000000 0.870436
O O12 0.257727 0.273681 0.403266
O O13 0.146883 0.281217 0.295505
O O14 0.182969 0.000000 0.349295
O O15 0.350134 0.000000 0.449268
O O16 0.598567 0.000000 0.215539
O O17 0.535173 0.500000 0.064645
O O18 0.500000 0.765121 0.000000
#
# Coordination Sequence:
#
# PCOD9205715 Si02
#       7
#     8   8   8   8   8   8   8
#     4   9  19  35  54  74  99 133 171 210 252 292
#     4   9  17  34  55  74  98 131 167 202 242 296
#     4   9  18  35  55  74 101 135 167 206 253 294
#     4  11  21  33  50  75 102 129 162 204 254 300
#     4   8  17  33  53  74 100 132 164 199 246 301
#     4  10  21  36  51  71  97 128 169 211 249 296
#     4   9  18  32  51  78 110 139 168 202 243 296
#
# _framework density 20.088560000000001
#
# number of rings (size 3 to 8) (size 9 to 14) (size 15 to 20)
#    0.000    2.714    0.000    2.143    0.000    3.143 
#    0.000    6.429    0.000    0.000    0.000    0.000 
#    0.000    0.000    0.000    0.000    0.000    0.000 
#
# Total GULP energy -156198.766797 kJ/mol
# GULP energy per Si atom -5578.527386 kJ/mol
# Density = 2.004284 g / cm^3
# Si number density = 20.088560 Si / 1000 Ang^3
#
#
#
# Elastic Constant Matrix: (Units=GPa)
#
#
# Indices 1 2 3 4 5 6 
#
# 1 135.4211 0.8437 50.7062 0.0000 -9.7651 0.0000
# 2 0.8437 23.2624 -6.4878 0.0000 -3.9929 0.0000
# 3 50.7062 -6.4878 107.1205 0.0000 -14.1507 0.0000
# 4 0.0000 0.0000 0.0000 -19.5505 0.0000 13.7642
# 5 -9.7651 -3.9929 -14.1507 0.0000 9.2213 0.0000
# 6 0.0000 0.0000 0.0000 13.7642 0.0000 7.4634
#
#
#
# Elastic Compliance Matrix: (Units=1/GPa)
#
#
# Indices 1 2 3 4 5 6 
#
# 1 0.009094 -0.000875 -0.003933 0.000000 0.003217 0.000000
# 2 -0.000875 0.050923 0.007888 0.000000 0.033228 0.000000
# 3 -0.003933 0.007888 0.014519 0.000000 0.021531 0.000000
# 4 0.000000 0.000000 0.000000 -0.022255 0.000000 0.041042
# 5 0.003217 0.033228 0.021531 0.000000 0.159280 0.000000
# 6 0.000000 0.000000 0.000000 0.041042 0.000000 0.058296
#
#
# Mechanical properties :
#
#
# Convention : Reuss Voigt Hill
#
# Bulk Modulus (GPa) = 12.39209 39.54756 25.96982
# Shear Modulus (GPa) = 17.20601 14.14298 15.67450
#
# Velocity S-wave (km/s) = 2.92979 2.65624 2.79636
# Velocity P-wave (km/s) = 4.19845 5.39785 4.83549
#
# Compressibility (1/GPa) = 0.08069665
#
# Stress axis : x y z
#
# Youngs Moduli (GPa) = 109.95782 19.63747 68.87571
#
# Poissons Ratio (x) = 0.01717 0.27088
# Poissons Ratio (y) = 0.09617 -0.54327
# Poissons Ratio (z) = 0.43246 -0.15489
#
# Static dielectric constant tensor:
#      x y z
#    x 1.718980 0.000000 -0.014230 
#    y 0.000000 1.733510 0.000000 
#    z -0.014230 0.000000 1.681100 
# 
# From -- ./inp_files/337858.got.cif
#   From: 2010.05.17/outbox.cif.g08.bks.cpg/sg12_169_cif.got.tgz:337858.got - 2010.06.03 13:09:07.
