data_PCOD9205692
_publ_section_title
;
Structure prediction by ZEFSAII (Michael W. Deem and Ramdas Pophale) SiO2 
 PCOD9205692
Probable space group: C 2/M
;
_chemical_formula_sum "Si O2"
_cell_formula_units_Z 40
_cell_length_a 22.046471
_cell_length_b 15.169718
_cell_length_c 8.230980
_cell_angle_alpha 90.000000
_cell_angle_beta 50.336965
_cell_angle_gamma 90.000000
_cell_volume 2119.105270
_symmetry_space_group_name_H-M "C 2/M"
_symmetry_group_IT_number 12
_symmetry_cell_setting 'monoclinic'
loop_
_space_group_symop_operation_xyz
x,y,z
-x,y,-z
-x,-y,-z
x,-y,z
1/2+x,1/2+y,z
1/2-x,1/2+y,-z
1/2-x,1/2-y,-z
1/2+x,1/2-y,z
loop_
_atom_site_type_symbol
_atom_site_label
_atom_site_fract_x
_atom_site_fract_y
_atom_site_fract_z
Si Si1 0.061676 0.322685 0.039319
Si Si2 0.000000 0.705337 0.500000
Si Si3 0.795386 0.808668 0.140117
Si Si4 0.653525 0.000000 0.801480
Si Si5 0.775108 0.000000 0.328367
Si Si6 0.828296 0.000000 0.581549
Si Si7 0.157022 0.811558 0.309961
O O1 0.025833 0.337852 0.282756
O O2 0.126676 0.244561 0.938442
O O3 0.105182 0.412665 0.917244
O O4 0.000000 0.302978 0.000000
O O5 0.924261 0.761458 0.576565
O O6 0.786359 0.907076 0.222078
O O7 0.719328 0.746776 0.306593
O O8 0.802868 0.820962 0.934130
O O9 0.688878 0.000000 0.559413
O O10 0.733321 0.000000 0.773185
O O11 0.835350 0.000000 0.376108
O O12 0.859250 0.908467 0.595298
#
# Coordination Sequence:
#
# PCOD9205692 Si02
#       7
#     8   4   8   4   4   4   8
#     4  11  24  43  65  93 134 165 210 265 314 380
#     4  10  26  40  64  98 120 180 208 258 328 360
#     4  10  21  41  64  91 122 169 213 257 312 380
#     4  10  23  39  59 102 125 164 213 252 320 383
#     4  10  23  36  66 100 118 160 220 252 320 374
#     4  10  21  35  64  88 120 165 204 257 307 371
#     4  10  21  41  63  88 128 163 215 259 312 376
#
# _framework density 18.875889999999998
#
# number of rings (size 3 to 8) (size 9 to 14) (size 15 to 20)
#    0.600    1.200    2.000    0.900    5.600    2.400 
#    0.000    1.500    0.000    0.000    0.000    0.000 
#    0.000    0.000    0.000    0.000    0.000    0.000 
#
# Total GULP energy -111436.595952 kJ/mol
# GULP energy per Si atom -5571.829798 kJ/mol
# Density = 1.883293 g / cm^3
# Si number density = 18.875890 Si / 1000 Ang^3
#
#
#
# Elastic Constant Matrix: (Units=GPa)
#
#
# Indices 1 2 3 4 5 6 
#
# 1 73.7612 19.0175 24.5501 0.0000 11.4400 0.0000
# 2 19.0175 137.3943 59.8348 0.0000 16.4851 0.0000
# 3 24.5501 59.8348 97.7492 0.0000 2.4262 0.0000
# 4 0.0000 0.0000 0.0000 84.3067 0.0000 16.8405
# 5 11.4400 16.4851 2.4262 0.0000 16.8122 0.0000
# 6 0.0000 0.0000 0.0000 16.8405 0.0000 6.1409
#
#
#
# Elastic Compliance Matrix: (Units=1/GPa)
#
#
# Indices 1 2 3 4 5 6 
#
# 1 0.016606 0.001085 -0.004544 0.000000 -0.011708 0.000000
# 2 0.001085 0.011521 -0.007051 0.000000 -0.011018 0.000000
# 3 -0.004544 -0.007051 0.015495 0.000000 0.007770 0.000000
# 4 0.000000 0.000000 0.000000 0.026230 0.000000 -0.071932
# 5 -0.011708 -0.011018 0.007770 0.000000 0.077129 0.000000
# 6 0.000000 0.000000 0.000000 -0.071932 0.000000 0.360107
#
#
# Mechanical properties :
#
#
# Convention : Reuss Voigt Hill
#
# Bulk Modulus (GPa) = 44.24596 57.30106 50.77351
# Shear Modulus (GPa) = 9.33458 35.15212 22.24335
#
# Velocity S-wave (km/s) = 2.22620 4.32009 3.43651
# Velocity P-wave (km/s) = 5.48628 7.43686 6.53476
#
# Compressibility (1/GPa) = 0.02260093
#
# Stress axis : x y z
#
# Youngs Moduli (GPa) = 60.21998 86.79895 64.53678
#
# Poissons Ratio (x) = -0.09421 0.29328
# Poissons Ratio (y) = -0.06536 0.45507
# Poissons Ratio (z) = 0.27366 0.61205
#
# Static dielectric constant tensor:
#      x y z
#    x 1.673620 0.000000 0.012670 
#    y 0.000000 1.632910 0.000000 
#    z 0.012670 0.000000 1.681390 
# 
# From -- ./inp_files/84982.got.cif
#   From: 2010.05.17/outbox.cif.g08.bks.cpg/sg12_43_cif.got.tgz:84982.got - 2010.06.03 13:09:07.
