data_PCOD9205536
_publ_section_title
;
Structure prediction by ZEFSAII (Michael W. Deem and Ramdas Pophale) SiO2 
 PCOD9205536
Probable space group: C 2/M
;
_chemical_formula_sum "Si O2"
_cell_formula_units_Z 48
_cell_length_a 13.334249
_cell_length_b 14.456199
_cell_length_c 17.809350
_cell_angle_alpha 90.000000
_cell_angle_beta 47.239680
_cell_angle_gamma 90.000000
_cell_volume 2520.491667
_symmetry_space_group_name_H-M "C 2/M"
_symmetry_group_IT_number 12
_symmetry_cell_setting 'monoclinic'
loop_
_space_group_symop_operation_xyz
x,y,z
-x,y,-z
-x,-y,-z
x,-y,z
1/2+x,1/2+y,z
1/2-x,1/2+y,-z
1/2-x,1/2-y,-z
1/2+x,1/2-y,z
loop_
_atom_site_type_symbol
_atom_site_label
_atom_site_fract_x
_atom_site_fract_y
_atom_site_fract_z
Si Si1 0.590898 0.282985 0.761819
Si Si2 0.329512 0.165233 0.921786
Si Si3 0.396606 0.761396 0.617445
Si Si4 0.145501 0.397192 0.933061
Si Si5 0.255707 0.390386 0.198499
Si Si6 0.070596 0.111265 0.281916
O O1 0.481687 0.201719 0.826879
O O2 0.742329 0.246756 0.665291
O O3 0.615998 0.340412 0.826160
O O4 0.533971 0.352268 0.727627
O O5 0.260068 0.130750 0.881236
O O6 0.250000 0.250000 0.000000
O O7 0.328820 0.095974 0.991638
O O8 0.500000 0.789033 0.500000
O O9 0.370883 0.841320 0.693017
O O10 0.448548 0.669021 0.632518
O O11 0.129241 0.500000 0.907839
O O12 0.278034 0.357927 0.824675
O O13 0.000000 0.346954 0.000000
O O14 0.259260 0.500000 0.209158
O O15 0.065898 0.000000 0.291104
#
# Coordination Sequence:
#
# PCOD9205536 Si02
#       6
#     8   8   8   8   8   8
#     4  10  21  40  63  88 119 162 198 255 295 358
#     4  12  21  36  60  87 123 158 196 238 299 351
#     4  10  23  42  65  87 121 158 202 254 313 355
#     4  10  21  35  57  86 120 160 195 236 295 358
#     4  10  23  42  61  90 124 158 202 253 298 358
#     4  11  21  41  63  90 123 157 204 251 296 362
#
# _framework density 19.043901999999999
#
# number of rings (size 3 to 8) (size 9 to 14) (size 15 to 20)
#    1.000    0.500    3.333    2.000    2.333    1.333 
#    0.000    1.667    0.000    0.000    0.000    0.000 
#    0.000    0.000    0.000    0.000    0.000    0.000 
#
# Total GULP energy -133711.404452 kJ/mol
# GULP energy per Si atom -5571.308519 kJ/mol
# Density = 1.900056 g / cm^3
# Si number density = 19.043902 Si / 1000 Ang^3
#
#
#
# Elastic Constant Matrix: (Units=GPa)
#
#
# Indices 1 2 3 4 5 6 
#
# 1 82.5858 0.9847 13.4161 0.0000 8.5721 0.0000
# 2 0.9847 67.7355 -5.0027 0.0000 9.5841 0.0000
# 3 13.4161 -5.0027 53.4626 0.0000 5.3318 0.0000
# 4 0.0000 0.0000 0.0000 9.0458 0.0000 11.4001
# 5 8.5721 9.5841 5.3318 0.0000 25.6348 0.0000
# 6 0.0000 0.0000 0.0000 11.4001 0.0000 18.4928
#
#
#
# Elastic Compliance Matrix: (Units=1/GPa)
#
#
# Indices 1 2 3 4 5 6 
#
# 1 0.012966 0.000137 -0.002863 0.000000 -0.003791 0.000000
# 2 0.000137 0.015820 0.002084 0.000000 -0.006394 0.000000
# 3 -0.002863 0.002084 0.020015 0.000000 -0.003985 0.000000
# 4 0.000000 0.000000 0.000000 0.495507 0.000000 -0.305460
# 5 -0.003791 -0.006394 -0.003985 0.000000 0.043496 0.000000
# 6 0.000000 0.000000 0.000000 -0.305460 0.000000 0.242378
#
#
# Mechanical properties :
#
#
# Convention : Reuss Voigt Hill
#
# Bulk Modulus (GPa) = 21.04564 24.73112 22.88838
# Shear Modulus (GPa) = 5.90105 23.59374 14.74739
#
# Velocity S-wave (km/s) = 1.76221 3.52364 2.78580
# Velocity P-wave (km/s) = 3.90072 5.43776 4.73207
#
# Compressibility (1/GPa) = 0.04751579
#
# Stress axis : x y z
#
# Youngs Moduli (GPa) = 77.12747 63.21168 49.96141
#
# Poissons Ratio (x) = -0.00863 0.14303
# Poissons Ratio (y) = -0.01053 -0.10410
# Poissons Ratio (z) = 0.22080 -0.13171
#
# Static dielectric constant tensor:
#      x y z
#    x 1.702430 0.000000 -0.008060 
#    y 0.000000 1.789410 0.000000 
#    z -0.008060 0.000000 1.653630 
# 
# From -- ./inp_files/214646.got.cif
#   From: 2010.05.17/outbox.cif.g08.bks.cpg/sg12_108_cif.got.tgz:214646.got - 2010.06.03 13:09:07.
