data_PCOD9205417
_publ_section_title
;
Structure prediction by ZEFSAII (Michael W. Deem and Ramdas Pophale) SiO2 
 PCOD9205417
Probable space group: C 2/M
;
_chemical_formula_sum "Si O2"
_cell_formula_units_Z 56
_cell_length_a 19.389865
_cell_length_b 19.135126
_cell_length_c 13.905358
_cell_angle_alpha 90.000000
_cell_angle_beta 32.632685
_cell_angle_gamma 90.000000
_cell_volume 2782.143159
_symmetry_space_group_name_H-M "C 2/M"
_symmetry_group_IT_number 12
_symmetry_cell_setting 'monoclinic'
loop_
_space_group_symop_operation_xyz
x,y,z
-x,y,-z
-x,-y,-z
x,-y,z
1/2+x,1/2+y,z
1/2-x,1/2+y,-z
1/2-x,1/2-y,-z
1/2+x,1/2-y,z
loop_
_atom_site_type_symbol
_atom_site_label
_atom_site_fract_x
_atom_site_fract_y
_atom_site_fract_z
Si Si1 0.476614 0.824514 0.142058
Si Si2 0.140429 0.080032 0.092985
Si Si3 0.304621 0.719615 0.082209
Si Si4 0.918933 0.579186 0.833559
Si Si5 0.721696 0.282898 0.375376
Si Si6 0.411620 0.420730 0.510221
Si Si7 0.030782 0.710303 0.350608
O O1 0.509516 0.896970 0.154248
O O2 0.332787 0.796141 0.321444
O O3 0.500000 0.827561 0.000000
O O4 0.578539 0.771855 0.069985
O O5 0.009098 0.087892 0.306063
O O6 0.143849 0.000000 0.050240
O O7 0.159630 0.141535 0.992888
O O8 0.264110 0.085259 0.018500
O O9 0.273524 0.730318 0.231997
O O10 0.174104 0.741189 0.180364
O O11 0.949296 0.500000 0.772968
O O12 0.963327 0.633456 0.700285
O O13 0.692520 0.359895 0.366642
O O14 0.582450 0.253796 0.564707
O O15 0.500000 0.413226 0.500000
O O16 0.359919 0.500000 0.569324
O O17 0.000000 0.707861 0.500000
#
# Coordination Sequence:
#
# PCOD9205417 Si02
#       7
#     8   8   8   8   8   8   8
#     4  10  23  37  55  81 115 157 190 232 282 338
#     4   9  20  37  61  88 111 144 193 248 290 335
#     4   9  19  38  60  84 109 146 194 237 281 339
#     4  10  22  37  56  85 115 150 194 231 287 349
#     4  10  21  37  56  85 116 149 192 230 288 341
#     4  10  21  35  55  84 118 151 189 240 290 340
#     4   9  19  36  62  87 111 143 186 246 291 332
#
# _framework density 20.128367000000001
#
# number of rings (size 3 to 8) (size 9 to 14) (size 15 to 20)
#    0.000    2.429    0.000    1.286    8.000    2.857 
#    0.000    2.143    0.000    3.857    0.000    0.000 
#    0.000    0.000    0.000    0.000    0.000    0.000 
#
# Total GULP energy -156238.873222 kJ/mol
# GULP energy per Si atom -5579.959758 kJ/mol
# Density = 2.008255 g / cm^3
# Si number density = 20.128367 Si / 1000 Ang^3
#
#
#
# Elastic Constant Matrix: (Units=GPa)
#
#
# Indices 1 2 3 4 5 6 
#
# 1 79.8371 42.1844 20.4064 -0.0001 -14.8433 0.0000
# 2 42.1844 126.5038 33.6220 -0.0001 -12.6813 0.0000
# 3 20.4064 33.6220 48.8908 -0.0002 0.2412 0.0001
# 4 -0.0001 -0.0001 -0.0002 19.6072 0.0001 6.0877
# 5 -14.8433 -12.6813 0.2412 0.0001 29.7935 0.0000
# 6 0.0000 0.0000 0.0001 6.0877 0.0000 21.6131
#
#
#
# Elastic Compliance Matrix: (Units=1/GPa)
#
#
# Indices 1 2 3 4 5 6 
#
# 1 0.016947 -0.003760 -0.004522 0.000000 0.006879 0.000000
# 2 -0.003760 0.011055 -0.006047 0.000000 0.002881 0.000000
# 3 -0.004522 -0.006047 0.026525 0.000000 -0.005041 0.000000
# 4 0.000000 0.000000 0.000000 0.055889 0.000000 -0.015742
# 5 0.006879 0.002881 -0.005041 0.000000 0.038259 0.000000
# 6 0.000000 0.000000 0.000000 -0.015742 0.000000 0.050702
#
#
# Mechanical properties :
#
#
# Convention : Reuss Voigt Hill
#
# Bulk Modulus (GPa) = 38.65680 49.73968 44.19824
# Shear Modulus (GPa) = 21.12765 24.80402 22.96584
#
# Velocity S-wave (km/s) = 3.24334 3.51421 3.38149
# Velocity P-wave (km/s) = 5.76823 6.42115 6.10342
#
# Compressibility (1/GPa) = 0.02586867
#
# Stress axis : x y z
#
# Youngs Moduli (GPa) = 59.00803 90.45944 37.70088
#
# Poissons Ratio (x) = 0.34010 0.17047
# Poissons Ratio (y) = 0.22186 0.22798
# Poissons Ratio (z) = 0.26682 0.54703
#
# Static dielectric constant tensor:
#      x y z
#    x 1.718550 0.000000 0.007640 
#    y 0.000000 1.704240 0.000000 
#    z 0.007640 0.000000 1.782630 
# 
# From -- ./inp_files/234637.got.cif
#   From: 2010.05.17/outbox.cif.g08.bks.cpg/sg12_118_cif.got.tgz:234637.got - 2010.06.03 13:09:07.
