data_PCOD9205373
_publ_section_title
;
Structure prediction by ZEFSAII (Michael W. Deem and Ramdas Pophale) SiO2 
 PCOD9205373
Probable space group: C 2/M
;
_chemical_formula_sum "Si O2"
_cell_formula_units_Z 64
_cell_length_a 30.699468
_cell_length_b 9.226485
_cell_length_c 12.702457
_cell_angle_alpha 90.000000
_cell_angle_beta 57.568025
_cell_angle_gamma 90.000000
_cell_volume 3036.771474
_symmetry_space_group_name_H-M "C 2/M"
_symmetry_group_IT_number 12
_symmetry_cell_setting 'monoclinic'
loop_
_space_group_symop_operation_xyz
x,y,z
-x,y,-z
-x,-y,-z
x,-y,z
1/2+x,1/2+y,z
1/2-x,1/2+y,-z
1/2-x,1/2-y,-z
1/2+x,1/2-y,z
loop_
_atom_site_type_symbol
_atom_site_label
_atom_site_fract_x
_atom_site_fract_y
_atom_site_fract_z
Si Si1 0.870163 0.334306 0.980923
Si Si2 0.875408 0.328780 0.392372
Si Si3 0.270268 0.328357 0.154720
Si Si4 0.935591 0.667967 0.679266
Si Si5 0.978275 0.836084 0.322728
Si Si6 0.456976 0.664335 0.976346
Si Si7 0.793096 0.171261 0.373375
Si Si8 0.841849 0.326383 0.668132
O O1 0.861343 0.500000 0.022976
O O2 0.815873 0.254525 0.037659
O O3 0.902239 0.332350 0.830669
O O4 0.905700 0.255058 0.021634
O O5 0.879044 0.500000 0.365968
O O6 0.930318 0.261323 0.350264
O O7 0.847114 0.242932 0.336835
O O8 0.842039 0.308934 0.542503
O O9 0.272278 0.500000 0.128338
O O10 0.281632 0.311323 0.264812
O O11 0.211825 0.273040 0.213581
O O12 0.948425 0.500000 0.638602
O O13 0.895494 0.730103 0.645823
O O14 0.986842 0.758413 0.634943
O O15 0.014583 0.845225 0.172660
O O16 0.962849 0.000000 0.371389
O O17 0.444045 0.500000 0.028850
O O18 0.500000 0.725875 0.000000
O O19 0.750000 0.250000 0.500000
O O20 0.793141 0.000000 0.396551
O O21 0.843105 0.500000 0.686554
#
# Coordination Sequence:
#
# PCOD9205373 Si02
#       8
#     8   8   8   8   8   8   8   8
#     4  10  21  35  54  85 115 141 182 237 284 323
#     4  11  22  38  59  85 115 150 193 232 279 337
#     4  10  21  38  58  81 113 153 191 224 273 344
#     4   9  19  39  62  81 110 149 190 236 282 332
#     4  10  21  37  56  83 116 147 186 234 285 335
#     4   9  19  36  56  76 104 147 190 225 273 341
#     4  11  22  38  59  83 115 152 189 232 281 333
#     4   9  19  38  61  82 107 150 197 230 273 341
#
# _framework density 21.075015
#
# number of rings (size 3 to 8) (size 9 to 14) (size 15 to 20)
#    0.000    2.125    1.250    1.500    1.750    3.250 
#    0.000    4.375    0.000    0.000    0.000    0.000 
#    0.000    0.000    0.000    0.000    0.000    0.000 
#
# Total GULP energy -178774.471031 kJ/mol
# GULP energy per Si atom -5586.702220 kJ/mol
# Density = 2.102705 g / cm^3
# Si number density = 21.075015 Si / 1000 Ang^3
#
#
#
# Elastic Constant Matrix: (Units=GPa)
#
#
# Indices 1 2 3 4 5 6 
#
# 1 113.1054 33.1316 6.2854 0.0000 -12.7186 0.0000
# 2 33.1316 79.1660 19.0214 0.0000 -7.5501 0.0000
# 3 6.2854 19.0214 42.4770 0.0000 -16.5605 0.0000
# 4 0.0000 0.0000 0.0000 17.3220 0.0000 -5.4195
# 5 -12.7186 -7.5501 -16.5605 0.0000 32.6272 0.0000
# 6 0.0000 0.0000 0.0000 -5.4195 0.0000 22.2556
#
#
#
# Elastic Compliance Matrix: (Units=1/GPa)
#
#
# Indices 1 2 3 4 5 6 
#
# 1 0.010506 -0.004501 0.002059 0.000000 0.004099 0.000000
# 2 -0.004501 0.016083 -0.007192 0.000000 -0.001683 0.000000
# 3 0.002059 -0.007192 0.032567 0.000000 0.015668 0.000000
# 4 0.000000 0.000000 0.000000 0.062491 0.000000 0.015217
# 5 0.004099 -0.001683 0.015668 0.000000 0.039810 0.000000
# 6 0.000000 0.000000 0.000000 0.015217 0.000000 0.048638
#
#
# Mechanical properties :
#
#
# Convention : Reuss Voigt Hill
#
# Bulk Modulus (GPa) = 25.07047 39.06947 32.06997
# Shear Modulus (GPa) = 20.60503 26.19495 23.39999
#
# Velocity S-wave (km/s) = 3.13021 3.52936 3.33576
# Velocity P-wave (km/s) = 4.99859 5.93187 5.48512
#
# Compressibility (1/GPa) = 0.03988756
#
# Stress axis : x y z
#
# Youngs Moduli (GPa) = 95.18187 62.17807 30.70618
#
# Poissons Ratio (x) = 0.27985 -0.06322
# Poissons Ratio (y) = 0.42839 0.22085
# Poissons Ratio (z) = -0.19597 0.44720
#
# Static dielectric constant tensor:
#      x y z
#    x 1.778200 0.000000 -0.000200 
#    y 0.000000 1.717400 0.000000 
#    z -0.000200 0.000000 1.789500 
# 
# From -- ./inp_files/249686.got.cif
#   From: 2010.05.17/outbox.cif.g08.bks.cpg/sg12_125_cif.got.tgz:249686.got - 2010.06.03 13:09:07.
