data_PCOD9205586
_publ_section_title
;
Structure prediction by ZEFSAII (Michael W. Deem and Ramdas Pophale) SiO2 
 PCOD9205586
Probable space group: C 2/M
;
_chemical_formula_sum "Si O2"
_cell_formula_units_Z 64
_cell_length_a 30.065949
_cell_length_b 12.969692
_cell_length_c 17.171707
_cell_angle_alpha 90.000000
_cell_angle_beta 32.526933
_cell_angle_gamma 90.000000
_cell_volume 3600.434012
_symmetry_space_group_name_H-M "C 2/M"
_symmetry_group_IT_number 12
_symmetry_cell_setting 'monoclinic'
loop_
_space_group_symop_operation_xyz
x,y,z
-x,y,-z
-x,-y,-z
x,-y,z
1/2+x,1/2+y,z
1/2-x,1/2+y,-z
1/2-x,1/2-y,-z
1/2+x,1/2-y,z
loop_
_atom_site_type_symbol
_atom_site_label
_atom_site_fract_x
_atom_site_fract_y
_atom_site_fract_z
Si Si1 0.649711 0.178779 0.565594
Si Si2 0.677299 0.772800 0.351315
Si Si3 0.038230 0.619759 0.135543
Si Si4 0.475610 0.618807 0.445083
Si Si5 0.379702 0.260451 0.853297
Si Si6 0.710417 0.122655 0.141691
Si Si7 0.680717 0.118757 0.813097
Si Si8 0.232998 0.113727 0.474332
O O1 0.664452 0.167764 0.451700
O O2 0.558891 0.143186 0.723627
O O3 0.720159 0.125004 0.513243
O O4 0.664614 0.299453 0.562604
O O5 0.602406 0.692270 0.453197
O O6 0.681663 0.846554 0.270738
O O7 0.759473 0.702196 0.235543
O O8 0.048867 0.500000 0.143077
O O9 0.081182 0.694477 0.134585
O O10 0.088031 0.633402 0.981051
O O11 0.500000 0.621864 0.500000
O O12 0.457923 0.500000 0.450302
O O13 0.551313 0.664855 0.284440
O O14 0.347981 0.180754 0.834220
O O15 0.301269 0.328286 0.995164
O O16 0.710669 0.000000 0.129856
O O17 0.698515 0.129293 0.694951
O O18 0.704255 0.000000 0.798997
O O19 0.197966 0.000000 0.516875
#
# Coordination Sequence:
#
# PCOD9205586 Si02
#       8
#     8   8   8   8   8   8   8   8
#     4  10  21  35  58  87 115 148 183 234 283 341
#     4  11  20  38  56  82 117 145 190 232 276 341
#     4  11  21  35  58  87 115 147 187 234 287 333
#     4  11  22  37  59  85 112 148 191 238 283 325
#     4  11  22  42  56  81 117 149 195 237 274 335
#     4  11  24  39  58  80 113 159 193 230 282 335
#     4   9  19  35  58  83 110 144 183 235 286 331
#     4   9  19  38  59  84 112 147 189 230 286 341
#
# _framework density 17.775634
#
# number of rings (size 3 to 8) (size 9 to 14) (size 15 to 20)
#    0.000    1.625    3.750    1.500    0.000    2.000 
#    0.000    2.500    0.000    0.000    0.000    2.625 
#    0.000    0.000    0.000    0.000    0.000    0.000 
#
# Total GULP energy -178595.265326 kJ/mol
# GULP energy per Si atom -5581.102041 kJ/mol
# Density = 1.773518 g / cm^3
# Si number density = 17.775634 Si / 1000 Ang^3
#
#
#
# Elastic Constant Matrix: (Units=GPa)
#
#
# Indices 1 2 3 4 5 6 
#
# 1 51.0021 12.9249 4.6185 0.0000 10.9918 0.0000
# 2 12.9249 72.8281 17.1977 0.0000 13.1424 0.0000
# 3 4.6185 17.1977 74.2727 0.0000 1.8077 0.0000
# 4 0.0000 0.0000 0.0000 25.3708 0.0000 5.8920
# 5 10.9918 13.1424 1.8077 0.0000 17.6250 0.0000
# 6 0.0000 0.0000 0.0000 5.8920 0.0000 -1.2499
#
#
#
# Elastic Compliance Matrix: (Units=1/GPa)
#
#
# Indices 1 2 3 4 5 6 
#
# 1 0.022875 -0.001527 -0.000751 0.000000 -0.013050 0.000000
# 2 -0.001527 0.016870 -0.003537 0.000000 -0.011264 0.000000
# 3 -0.000751 -0.003537 0.014290 0.000000 0.001640 0.000000
# 4 0.000000 0.000000 0.000000 0.018816 0.000000 0.088701
# 5 -0.013050 -0.011264 0.001640 0.000000 0.073107 0.000000
# 6 0.000000 0.000000 0.000000 0.088701 0.000000 -0.381943
#
#
# Mechanical properties :
#
#
# Convention : Reuss Voigt Hill
#
# Bulk Modulus (GPa) = 23.58313 29.73167 26.65740
# Shear Modulus (GPa) = -23.78453 19.23998 -2.27227
#
# Velocity S-wave (km/s) = -3.66189 3.29352 -1.13185
# Velocity P-wave (km/s) = 2.14088 5.58797 3.64980
#
# Compressibility (1/GPa) = 0.04240319
#
# Stress axis : x y z
#
# Youngs Moduli (GPa) = 43.71678 59.27689 69.98054
#
# Poissons Ratio (x) = 0.09053 0.05257
# Poissons Ratio (y) = 0.06677 0.24753
# Poissons Ratio (z) = 0.03284 0.20967
#
# Static dielectric constant tensor:
#      x y z
#    x 1.599180 0.000000 0.017090 
#    y 0.000000 1.594210 0.000000 
#    z 0.017090 0.000000 1.591140 
# 
# From -- ./inp_files/296460.got.cif
#   From: 2010.05.17/outbox.cif.g08.bks.cpg/sg12_149_cif.got.tgz:296460.got - 2010.06.03 13:09:07.
