data_PCOD9205812
_publ_section_title
;
Structure prediction by ZEFSAII (Michael W. Deem and Ramdas Pophale) SiO2 
 PCOD9205812
Probable space group: C 2/M
;
_chemical_formula_sum "Si O2"
_cell_formula_units_Z 56
_cell_length_a 28.398219
_cell_length_b 13.916385
_cell_length_c 12.412223
_cell_angle_alpha 90.000000
_cell_angle_beta 140.179365
_cell_angle_gamma 90.000000
_cell_volume 3141.298290
_symmetry_space_group_name_H-M "C 2/M"
_symmetry_group_IT_number 12
_symmetry_cell_setting 'monoclinic'
loop_
_space_group_symop_operation_xyz
x,y,z
-x,y,-z
-x,-y,-z
x,-y,z
1/2+x,1/2+y,z
1/2-x,1/2+y,-z
1/2-x,1/2-y,-z
1/2+x,1/2-y,z
loop_
_atom_site_type_symbol
_atom_site_label
_atom_site_fract_x
_atom_site_fract_y
_atom_site_fract_z
Si Si1 0.415741 0.113508 0.320813
Si Si2 0.799149 0.113254 0.787630
Si Si3 0.423379 0.250933 0.908794
Si Si4 0.217727 0.726538 0.824532
Si Si5 0.909267 0.391799 0.064048
Si Si6 0.737532 0.392436 0.696926
Si Si7 0.805854 0.614211 0.597580
O O1 0.500000 0.125833 0.500000
O O2 0.358066 0.170601 0.290590
O O3 0.409816 0.144154 0.186373
O O4 0.397413 0.000000 0.293812
O O5 0.868587 0.169803 0.861069
O O6 0.774213 0.161000 0.855688
O O7 0.732252 0.126060 0.584636
O O8 0.812990 0.000000 0.822606
O O9 0.374292 0.184250 0.741898
O O10 0.500000 0.290931 0.000000
O O11 0.446109 0.178450 0.044794
O O12 0.204639 0.818452 0.724265
O O13 0.250000 0.750000 0.000000
O O14 0.939992 0.500000 0.114743
O O15 0.823884 0.396013 0.880258
O O16 0.706680 0.500000 0.651666
O O17 0.744301 0.364827 0.582684
O O18 0.825387 0.500000 0.645118
#
# Coordination Sequence:
#
# PCOD9205812 Si02
#       7
#     8   8   8   8   8   8   8
#     4  10  21  36  53  80 116 147 179 228 290 339
#     4  11  23  38  57  84 116 148 189 233 272 328
#     4  11  21  34  55  83 115 148 186 227 281 332
#     4  12  21  35  59  83 110 147 193 229 274 329
#     4   9  17  34  53  76 110 143 183 228 277 332
#     4   9  17  32  57  80 104 140 185 233 273 323
#     4   9  19  37  58  82 111 144 185 234 285 329
#
# _framework density 17.827024999999999
#
# number of rings (size 3 to 8) (size 9 to 14) (size 15 to 20)
#    0.000    1.857    4.286    2.143    0.000    3.143 
#    0.000    2.857    0.000    0.429    0.000    0.000 
#    0.000    0.000    0.000    0.000    0.000    0.000 
#
# Total GULP energy -156143.040848 kJ/mol
# GULP energy per Si atom -5576.537173 kJ/mol
# Density = 1.778645 g / cm^3
# Si number density = 17.827025 Si / 1000 Ang^3
#
#
#
# Elastic Constant Matrix: (Units=GPa)
#
#
# Indices 1 2 3 4 5 6 
#
# 1 83.7403 34.0002 37.2989 0.0000 -9.4179 0.0000
# 2 34.0002 79.8036 13.7394 0.0000 -4.8424 0.0000
# 3 37.2989 13.7394 35.6073 0.0000 -16.6481 0.0000
# 4 0.0000 0.0000 0.0000 15.5808 0.0000 -10.7269
# 5 -9.4179 -4.8424 -16.6481 0.0000 21.2192 0.0000
# 6 0.0000 0.0000 0.0000 -10.7269 0.0000 15.0001
#
#
#
# Elastic Compliance Matrix: (Units=1/GPa)
#
#
# Indices 1 2 3 4 5 6 
#
# 1 0.028414 -0.007136 -0.034549 0.000000 -0.016124 0.000000
# 2 -0.007136 0.015248 0.002744 0.000000 0.002466 0.000000
# 3 -0.034549 0.002744 0.088979 0.000000 0.055103 0.000000
# 4 0.000000 0.000000 0.000000 0.126426 0.000000 0.090409
# 5 -0.016124 0.002466 0.055103 0.000000 0.083766 0.000000
# 6 0.000000 0.000000 0.000000 0.090409 0.000000 0.131319
#
#
# Mechanical properties :
#
#
# Convention : Reuss Voigt Hill
#
# Bulk Modulus (GPa) = 18.26178 41.02535 29.64356
# Shear Modulus (GPa) = 8.76750 17.96753 13.36752
#
# Velocity S-wave (km/s) = 2.22008 3.17816 2.74130
# Velocity P-wave (km/s) = 4.10339 6.04405 5.16567
#
# Compressibility (1/GPa) = 0.05475917
#
# Stress axis : x y z
#
# Youngs Moduli (GPa) = 35.19344 65.58138 11.23861
#
# Poissons Ratio (x) = 0.46799 0.38829
# Poissons Ratio (y) = 0.25114 -0.03084
# Poissons Ratio (z) = 1.21591 -0.17997
#
# Static dielectric constant tensor:
#      x y z
#    x 1.621460 0.000000 -0.035990 
#    y 0.000000 1.650070 0.000000 
#    z -0.035990 0.000000 1.633170 
# 
# From -- ./inp_files/183438.got.cif
#   From: 2010.05.17/outbox.cif.g08.bks.cpg/sg12_92_cif.got.tgz:183438.got - 2010.06.03 13:09:07.
