data_PCOD9205847
_publ_section_title
;
Structure prediction by ZEFSAII (Michael W. Deem and Ramdas Pophale) SiO2 
 PCOD9205847
Probable space group: C 2/M
;
_chemical_formula_sum "Si O2"
_cell_formula_units_Z 56
_cell_length_a 14.883883
_cell_length_b 7.603526
_cell_length_c 22.361793
_cell_angle_alpha 90.000000
_cell_angle_beta 58.317301
_cell_angle_gamma 90.000000
_cell_volume 2153.535443
_symmetry_space_group_name_H-M "C 2/M"
_symmetry_group_IT_number 12
_symmetry_cell_setting 'monoclinic'
loop_
_space_group_symop_operation_xyz
x,y,z
-x,y,-z
-x,-y,-z
x,-y,z
1/2+x,1/2+y,z
1/2-x,1/2+y,-z
1/2-x,1/2-y,-z
1/2+x,1/2-y,z
loop_
_atom_site_type_symbol
_atom_site_label
_atom_site_fract_x
_atom_site_fract_y
_atom_site_fract_z
Si Si1 0.383308 0.786678 0.518700
Si Si2 0.669699 0.287334 0.942955
Si Si3 0.689099 0.301489 0.261207
Si Si4 0.692407 0.705077 0.666854
Si Si5 0.033338 0.702176 0.630962
Si Si6 0.390620 0.297519 0.833926
Si Si7 0.987939 0.214298 0.100527
O O1 0.500000 0.735381 0.500000
O O2 0.289163 0.719909 0.593136
O O3 0.383806 0.736671 0.448535
O O4 0.377496 0.000000 0.525038
O O5 0.679087 0.500000 0.941028
O O6 0.783750 0.203735 0.910872
O O7 0.618388 0.234736 0.896711
O O8 0.583409 0.236603 0.022457
O O9 0.722465 0.500000 0.237303
O O10 0.774618 0.221493 0.275748
O O11 0.576477 0.301665 0.334472
O O12 0.652565 0.212033 0.211928
O O13 0.680190 0.500000 0.658512
O O14 0.586444 0.786784 0.677259
O O15 0.007149 0.500000 0.626412
O O16 0.420458 0.500000 0.808874
O O17 0.481542 0.221215 0.844275
O O18 0.986969 0.000000 0.103656
#
# Coordination Sequence:
#
# PCOD9205847 Si02
#       7
#     8   8   8   8   8   8   8
#     4   9  17  34  60  87 113 143 181 229 286 341
#     4   9  17  32  57  84 108 139 183 223 267 331
#     4  11  24  40  55  79 114 155 199 237 277 331
#     4  11  22  39  62  85 113 148 187 234 289 343
#     4  11  22  39  62  86 115 147 185 235 286 342
#     4  10  21  36  54  77 111 147 181 226 277 323
#     4   8  16  33  55  80 110 143 177 221 273 327
#
# _framework density 26.003753
#
# number of rings (size 3 to 8) (size 9 to 14) (size 15 to 20)
#    0.000    2.143    1.429    3.000    0.000    2.286 
#    0.000    6.429    0.000    0.000    0.000    0.000 
#    0.000    0.000    0.000    0.000    0.000    0.000 
#
# Total GULP energy -156598.049666 kJ/mol
# GULP energy per Si atom -5592.787488 kJ/mol
# Density = 2.594457 g / cm^3
# Si number density = 26.003753 Si / 1000 Ang^3
#
#
#
# Elastic Constant Matrix: (Units=GPa)
#
#
# Indices 1 2 3 4 5 6 
#
# 1 163.6193 -4.5247 32.2325 0.0000 25.1894 -0.0001
# 2 -4.5247 72.4756 3.4416 -0.0001 0.9028 -0.0002
# 3 32.2325 3.4416 69.4454 0.0000 14.3936 0.0000
# 4 0.0000 -0.0001 0.0000 17.6738 0.0000 -1.9770
# 5 25.1894 0.9028 14.3936 0.0000 54.7186 0.0000
# 6 -0.0001 -0.0002 0.0000 -1.9770 0.0000 8.6753
#
#
#
# Elastic Compliance Matrix: (Units=1/GPa)
#
#
# Indices 1 2 3 4 5 6 
#
# 1 0.007067 0.000605 -0.002785 0.000000 -0.002530 0.000000
# 2 0.000605 0.013882 -0.000913 0.000000 -0.000267 0.000000
# 3 -0.002785 -0.000913 0.016361 0.000000 -0.003006 0.000000
# 4 0.000000 0.000000 0.000000 0.058061 0.000000 0.013231
# 5 -0.002530 -0.000267 -0.003006 0.000000 0.020235 0.000000
# 6 0.000000 0.000000 0.000000 0.013231 0.000000 0.118285
#
#
# Mechanical properties :
#
#
# Convention : Reuss Voigt Hill
#
# Bulk Modulus (GPa) = 32.13138 40.87102 36.50120
# Shear Modulus (GPa) = 19.96384 34.50627 27.23505
#
# Velocity S-wave (km/s) = 2.77380 3.64672 3.23979
# Velocity P-wave (km/s) = 4.75835 5.78644 5.29739
#
# Compressibility (1/GPa) = 0.03112222
#
# Stress axis : x y z
#
# Youngs Moduli (GPa) = 141.50730 72.03461 61.12083
#
# Poissons Ratio (x) = -0.04358 0.17025
# Poissons Ratio (y) = -0.08561 0.05583
# Poissons Ratio (z) = 0.39417 0.06579
#
# Static dielectric constant tensor:
#      x y z
#    x 1.991170 0.000000 0.048410 
#    y 0.000000 1.951120 0.000000 
#    z 0.048410 0.000000 2.141550 
# 
# From -- ./inp_files/337852.got.cif
#   From: 2010.05.17/outbox.cif.g08.bks.cpg/sg12_169_cif.got.tgz:337852.got - 2010.06.03 13:09:07.
