data_PCOD9205383
_publ_section_title
;
Structure prediction by ZEFSAII (Michael W. Deem and Ramdas Pophale) SiO2 
 PCOD9205383
Probable space group: C 2/M
;
_chemical_formula_sum "Si O2"
_cell_formula_units_Z 56
_cell_length_a 17.502713
_cell_length_b 20.936354
_cell_length_c 16.415950
_cell_angle_alpha 90.000000
_cell_angle_beta 150.190844
_cell_angle_gamma 90.000000
_cell_volume 2990.385916
_symmetry_space_group_name_H-M "C 2/M"
_symmetry_group_IT_number 12
_symmetry_cell_setting 'monoclinic'
loop_
_space_group_symop_operation_xyz
x,y,z
-x,y,-z
-x,-y,-z
x,-y,z
1/2+x,1/2+y,z
1/2-x,1/2+y,-z
1/2-x,1/2-y,-z
1/2+x,1/2-y,z
loop_
_atom_site_type_symbol
_atom_site_label
_atom_site_fract_x
_atom_site_fract_y
_atom_site_fract_z
Si Si1 0.767124 0.929236 0.459181
Si Si2 0.335146 0.192012 0.177066
Si Si3 0.088083 0.351342 0.159654
Si Si4 0.697963 0.812031 0.504323
Si Si5 0.272491 0.834211 0.947957
Si Si6 0.417896 0.571843 0.340527
Si Si7 0.812689 0.266015 0.328907
O O1 0.671611 0.902461 0.293606
O O2 0.761565 0.875609 0.522736
O O3 0.940728 0.933232 0.590072
O O4 0.712576 0.000000 0.432268
O O5 0.515002 0.179761 0.336536
O O6 0.314792 0.267542 0.141914
O O7 0.279877 0.190303 0.219405
O O8 0.261290 0.152125 0.034539
O O9 0.210354 0.298653 0.240246
O O10 0.000000 0.378830 0.000000
O O11 0.950712 0.322573 0.088143
O O12 0.750000 0.750000 0.500000
O O13 0.735946 0.800744 0.633347
O O14 0.202091 0.884746 0.819519
O O15 0.500000 0.596089 0.500000
O O16 0.357963 0.500000 0.303232
O O17 0.000000 0.253530 0.500000
#
# Coordination Sequence:
#
# PCOD9205383 Si02
#       7
#     8   8   8   8   8   8   8
#     4  11  24  40  58  84 121 161 201 242 294 360
#     4  10  21  35  54  89 117 151 191 245 298 348
#     4  12  22  35  57  89 123 153 191 241 305 351
#     4  11  19  37  62  87 113 155 204 247 299 349
#     4  11  21  35  57  81 124 152 189 242 300 351
#     4  10  23  40  58  82 113 158 205 239 286 358
#     4  10  22  36  61  87 120 151 199 248 295 348
#
# _framework density 18.726680000000002
#
# number of rings (size 3 to 8) (size 9 to 14) (size 15 to 20)
#    0.000    1.286    4.286    1.714    2.000    2.000 
#    0.000    0.000    0.000    4.714    0.000    2.000 
#    0.000    0.000    0.000    0.000    0.000    0.000 
#
# Total GULP energy -156067.674463 kJ/mol
# GULP energy per Si atom -5573.845517 kJ/mol
# Density = 1.868406 g / cm^3
# Si number density = 18.726680 Si / 1000 Ang^3
#
#
#
# Elastic Constant Matrix: (Units=GPa)
#
#
# Indices 1 2 3 4 5 6 
#
# 1 142.5068 50.9504 37.3107 -0.0005 -31.7939 -0.0001
# 2 50.9504 88.4872 32.7624 -0.0005 -9.7889 -0.0001
# 3 37.3107 32.7624 69.5770 -0.0005 -19.2427 -0.0001
# 4 -0.0005 -0.0005 -0.0005-1485.8217 0.0000 -285.1333
# 5 -31.7939 -9.7889 -19.2427 0.0000 43.4511 0.0000
# 6 -0.0001 -0.0001 -0.0001 -285.1333 0.0000 -27.1406
#
#
#
# Elastic Compliance Matrix: (Units=1/GPa)
#
#
# Indices 1 2 3 4 5 6 
#
# 1 0.010469 -0.004725 -0.001783 0.000000 0.005806 0.000000
# 2 -0.004725 0.015823 -0.005569 0.000000 -0.002359 0.000000
# 3 -0.001783 -0.005569 0.019650 0.000000 0.006143 0.000000
# 4 0.000000 0.000000 0.000000 0.000662 0.000000 -0.006959
# 5 0.005806 -0.002359 0.006143 0.000000 0.029452 0.000000
# 6 0.000000 0.000000 0.000000 -0.006959 0.000000 0.036262
#
#
# Mechanical properties :
#
#
# Convention : Reuss Voigt Hill
#
# Bulk Modulus (GPa) = 45.90006 60.29089 53.09548
# Shear Modulus (GPa) = 34.78614 -281.93243 -123.57314
#
# Velocity S-wave (km/s) = 4.31463 -12.28324 -8.13210
# Velocity P-wave (km/s) = 7.02745 12.99637 7.73048
#
# Compressibility (1/GPa) = 0.02178646
#
# Stress axis : x y z
#
# Youngs Moduli (GPa) = 95.52109 63.19931 50.89036
#
# Poissons Ratio (x) = 0.29865 0.09074
# Poissons Ratio (y) = 0.45138 0.28342
# Poissons Ratio (z) = 0.17032 0.35197
#
# Static dielectric constant tensor:
#      x y z
#    x 1.726610 0.000000 -0.012920 
#    y 0.000000 1.654670 0.000000 
#    z -0.012920 0.000000 1.721150 
# 
# From -- ./inp_files/279018.got.cif
#   From: 2010.05.17/outbox.cif.g08.bks.cpg/sg12_140_cif.got.tgz:279018.got - 2010.06.03 13:09:07.
