data_PCOD9205364
_publ_section_title
;
Structure prediction by ZEFSAII (Michael W. Deem and Ramdas Pophale) SiO2 
 PCOD9205364
Probable space group: C 2/M
;
_chemical_formula_sum "Si O2"
_cell_formula_units_Z 44
_cell_length_a 9.254267
_cell_length_b 18.679136
_cell_length_c 12.833045
_cell_angle_alpha 90.000000
_cell_angle_beta 58.050740
_cell_angle_gamma 90.000000
_cell_volume 1882.301117
_symmetry_space_group_name_H-M "C 2/M"
_symmetry_group_IT_number 12
_symmetry_cell_setting 'monoclinic'
loop_
_space_group_symop_operation_xyz
x,y,z
-x,y,-z
-x,-y,-z
x,-y,z
1/2+x,1/2+y,z
1/2-x,1/2+y,-z
1/2-x,1/2-y,-z
1/2+x,1/2-y,z
loop_
_atom_site_type_symbol
_atom_site_label
_atom_site_fract_x
_atom_site_fract_y
_atom_site_fract_z
Si Si1 0.336339 0.581419 0.802433
Si Si2 0.847499 0.584109 0.931131
Si Si3 0.500000 0.349080 0.000000
Si Si4 0.811798 0.081974 0.570316
Si Si5 0.867950 0.811032 0.264499
Si Si6 0.996412 0.669860 0.320747
O O1 0.368899 0.500000 0.821981
O O2 0.275783 0.580947 0.707389
O O3 0.513826 0.623349 0.743255
O O4 0.184372 0.607363 0.936213
O O5 0.897669 0.500000 0.907153
O O6 0.654433 0.598213 0.966317
O O7 0.945917 0.631836 0.809563
O O8 0.443478 0.300515 0.118656
O O9 0.658475 0.123029 0.574434
O O10 0.000000 0.115607 0.500000
O O11 0.825167 0.000000 0.526533
O O12 0.666614 0.822664 0.325021
O O13 0.915290 0.745409 0.319995
#
# Coordination Sequence:
#
# PCOD9205364 Si02
#       6
#     8   8   4   8   8   8
#     4   9  19  37  59  83 114 147 182 228 278 329
#     4   9  17  30  53  83 111 144 184 225 273 327
#     4   8  17  30  50  78 117 152 176 224 273 326
#     4  10  22  41  62  83 109 142 181 229 282 330
#     4  10  21  35  54  84 116 151 187 222 274 327
#     4  11  22  36  56  82 115 149 185 228 271 327
#
# _framework density 23.375641999999999
#
# number of rings (size 3 to 8) (size 9 to 14) (size 15 to 20)
#    0.000    2.364    0.000    1.909    0.000   13.818 
#    0.000    7.273    0.000    3.273    0.000    0.000 
#    0.000    0.000    0.000    0.000    0.000    0.000 
#
# Total GULP energy -122812.029519 kJ/mol
# GULP energy per Si atom -5582.364978 kJ/mol
# Density = 2.332244 g / cm^3
# Si number density = 23.375642 Si / 1000 Ang^3
#
#
#
# Elastic Constant Matrix: (Units=GPa)
#
#
# Indices 1 2 3 4 5 6 
#
# 1 146.9544 62.0564 38.9152 0.0000 -52.0085 0.0000
# 2 62.0564 79.3755 13.8286 0.0000 -22.8866 0.0000
# 3 38.9152 13.8286 42.2444 0.0000 -14.6604 0.0000
# 4 0.0000 0.0000 0.0000 -19.7052 0.0000 -26.3521
# 5 -52.0085 -22.8866 -14.6604 0.0000 50.6514 0.0000
# 6 0.0000 0.0000 0.0000 -26.3521 0.0000 15.3642
#
#
#
# Elastic Compliance Matrix: (Units=1/GPa)
#
#
# Indices 1 2 3 4 5 6 
#
# 1 0.016273 -0.008184 -0.008667 0.000000 0.010502 0.000000
# 2 -0.008184 0.018894 0.001557 0.000000 0.000584 0.000000
# 3 -0.008667 0.001557 0.031462 0.000000 0.000911 0.000000
# 4 0.000000 0.000000 0.000000 -0.015408 0.000000 -0.026426
# 5 0.010502 0.000584 0.000911 0.000000 0.031054 0.000000
# 6 0.000000 0.000000 0.000000 -0.026426 0.000000 0.019761
#
#
# Mechanical properties :
#
#
# Convention : Reuss Voigt Hill
#
# Bulk Modulus (GPa) = 27.74594 55.35276 41.54935
# Shear Modulus (GPa) = 34.56932 19.51369 27.04151
#
# Velocity S-wave (km/s) = 3.84977 2.89240 3.40490
# Velocity P-wave (km/s) = 5.62639 5.90642 5.76810
#
# Compressibility (1/GPa) = 0.03604131
#
# Stress axis : x y z
#
# Youngs Moduli (GPa) = 61.45261 52.92691 31.78460
#
# Poissons Ratio (x) = 0.43316 0.27546
# Poissons Ratio (y) = 0.50293 -0.04949
# Poissons Ratio (z) = 0.53258 -0.08241
#
# Static dielectric constant tensor:
#      x y z
#    x 1.903410 0.000000 0.021630 
#    y 0.000000 1.856000 0.000000 
#    z 0.021630 0.000000 2.004340 
# 
# From -- ./inp_files/195867.got.cif
#   From: 2010.05.17/outbox.cif.g08.bks.cpg/sg12_98_cif.got.tgz:195867.got - 2010.06.03 13:09:07.
