data_PCOD9205396
_publ_section_title
;
Structure prediction by ZEFSAII (Michael W. Deem and Ramdas Pophale) SiO2 
 PCOD9205396
Probable space group: C 2/M
;
_chemical_formula_sum "Si O2"
_cell_formula_units_Z 56
_cell_length_a 28.935187
_cell_length_b 8.892182
_cell_length_c 19.663823
_cell_angle_alpha 90.000000
_cell_angle_beta 144.833034
_cell_angle_gamma 90.000000
_cell_volume 2914.041555
_symmetry_space_group_name_H-M "C 2/M"
_symmetry_group_IT_number 12
_symmetry_cell_setting 'monoclinic'
loop_
_space_group_symop_operation_xyz
x,y,z
-x,y,-z
-x,-y,-z
x,-y,z
1/2+x,1/2+y,z
1/2-x,1/2+y,-z
1/2-x,1/2-y,-z
1/2+x,1/2-y,z
loop_
_atom_site_type_symbol
_atom_site_label
_atom_site_fract_x
_atom_site_fract_y
_atom_site_fract_z
Si Si1 0.502511 0.176841 0.804576
Si Si2 0.280436 0.680646 0.106558
Si Si3 0.367501 0.318919 0.456265
Si Si4 0.458711 0.318949 0.293048
Si Si5 0.320386 0.823363 0.541568
Si Si6 0.227969 0.318182 0.189266
Si Si7 0.437300 0.680141 0.983306
O O1 0.537761 0.244941 0.777294
O O2 0.406332 0.193395 0.682041
O O3 0.532913 0.259541 0.908097
O O4 0.522504 0.000000 0.832624
O O5 0.273759 0.500000 0.094249
O O6 0.374740 0.718130 0.227292
O O7 0.232428 0.729724 0.115756
O O8 0.250000 0.750000 0.000000
O O9 0.366450 0.500000 0.457511
O O10 0.461059 0.272367 0.569737
O O11 0.329874 0.255276 0.480187
O O12 0.310718 0.274027 0.325818
O O13 0.461621 0.500000 0.288183
O O14 0.250000 0.750000 0.500000
O O15 0.305351 0.000000 0.514156
O O16 0.221748 0.500000 0.183679
O O17 0.151136 0.247965 0.133297
O O18 0.433100 0.500000 0.979107
O O19 0.500000 0.726020 0.000000
#
# Coordination Sequence:
#
# PCOD9205396 Si02
#       7
#     8   8   8   8   8   8   8
#     4  10  21  37  57  82 110 144 187 233 281 334
#     4  10  21  36  57  86 116 151 192 236 283 335
#     4   9  19  36  57  83 115 151 189 232 282 337
#     4   9  18  35  59  85 116 151 187 230 281 335
#     4  10  21  35  55  82 111 146 187 233 281 334
#     4  10  22  39  59  85 117 150 190 238 286 340
#     4  11  25  41  57  80 110 148 191 236 289 343
#
# _framework density 19.217296999999999
#
# number of rings (size 3 to 8) (size 9 to 14) (size 15 to 20)
#    0.000    2.143    0.000    2.143    2.000    7.429 
#    0.000    2.857    0.000    0.000    0.000    6.000 
#    0.000    0.000    0.000    0.000    0.000    0.000 
#
# Total GULP energy -156360.868248 kJ/mol
# GULP energy per Si atom -5584.316723 kJ/mol
# Density = 1.917356 g / cm^3
# Si number density = 19.217297 Si / 1000 Ang^3
#
#
#
# Elastic Constant Matrix: (Units=GPa)
#
#
# Indices 1 2 3 4 5 6 
#
# 1 99.8656 23.0872 44.2363 0.0000 21.7684 0.0000
# 2 23.0872 16.0160 26.5545 0.0000 5.6161 0.0000
# 3 44.2363 26.5545 97.0050 0.0000 -7.2440 0.0000
# 4 0.0000 0.0000 0.0000 22.5894 0.0000 -0.4586
# 5 21.7684 5.6161 -7.2440 0.0000 22.8644 0.0000
# 6 0.0000 0.0000 0.0000 -0.4586 0.0000 23.6564
#
#
#
# Elastic Compliance Matrix: (Units=1/GPa)
#
#
# Indices 1 2 3 4 5 6 
#
# 1 0.019776 -0.007843 -0.008331 0.000000 -0.019541 0.000000
# 2 -0.007843 0.165446 -0.045261 0.000000 -0.047510 0.000000
# 3 -0.008331 -0.045261 0.028597 0.000000 0.028109 0.000000
# 4 0.000000 0.000000 0.000000 0.044286 0.000000 0.000859
# 5 -0.019541 -0.047510 0.028109 0.000000 0.082916 0.000000
# 6 0.000000 0.000000 0.000000 0.000859 0.000000 0.042289
#
#
# Mechanical properties :
#
#
# Convention : Reuss Voigt Hill
#
# Bulk Modulus (GPa) = 10.99518 44.51585 27.75551
# Shear Modulus (GPa) = 9.31974 21.75594 15.53784
#
# Velocity S-wave (km/s) = 2.20458 3.36832 2.84656
# Velocity P-wave (km/s) = 3.49488 6.19211 5.02774
#
# Compressibility (1/GPa) = 0.09094896
#
# Stress axis : x y z
#
# Youngs Moduli (GPa) = 50.56551 6.04427 34.96911
#
# Poissons Ratio (x) = 0.04741 0.29131
# Poissons Ratio (y) = 0.39660 1.58274
# Poissons Ratio (z) = 0.42124 0.27357
#
# Static dielectric constant tensor:
#      x y z
#    x 1.640530 0.000000 0.026810 
#    y 0.000000 1.648660 0.000000 
#    z 0.026810 0.000000 1.688960 
# 
# From -- ./inp_files/292501.got.cif
#   From: 2010.05.17/outbox.cif.g08.bks.cpg/sg12_147_cif.got.tgz:292501.got - 2010.06.03 13:09:07.
