data_PCOD9205984
_publ_section_title
;
Structure prediction by ZEFSAII (Michael W. Deem and Ramdas Pophale) SiO2 
 PCOD9205984
Probable space group: C 2/M
;
_chemical_formula_sum "Si O2"
_cell_formula_units_Z 56
_cell_length_a 10.033695
_cell_length_b 7.504389
_cell_length_c 34.737700
_cell_angle_alpha 90.000000
_cell_angle_beta 61.011235
_cell_angle_gamma 90.000000
_cell_volume 2287.935340
_symmetry_space_group_name_H-M "C 2/M"
_symmetry_group_IT_number 12
_symmetry_cell_setting 'monoclinic'
loop_
_space_group_symop_operation_xyz
x,y,z
-x,y,-z
-x,-y,-z
x,-y,z
1/2+x,1/2+y,z
1/2-x,1/2+y,-z
1/2-x,1/2-y,-z
1/2+x,1/2-y,z
loop_
_atom_site_type_symbol
_atom_site_label
_atom_site_fract_x
_atom_site_fract_y
_atom_site_fract_z
Si Si1 0.737714 0.707618 0.761596
Si Si2 0.419707 0.208572 0.378465
Si Si3 0.389740 0.293988 0.099012
Si Si4 0.830847 0.213100 0.528742
Si Si5 0.775523 0.212504 0.951691
Si Si6 0.100633 0.716571 0.186741
Si Si7 0.254783 0.283704 0.326341
O O1 0.776186 0.500000 0.751971
O O2 0.566353 0.721817 0.802016
O O3 0.730344 0.782683 0.719534
O O4 0.856990 0.779909 0.775928
O O5 0.278966 0.285717 0.422327
O O6 0.381882 0.224711 0.338654
O O7 0.587731 0.279750 0.363756
O O8 0.427514 0.000000 0.387058
O O9 0.398165 0.500000 0.109831
O O10 0.351703 0.286528 0.059035
O O11 0.556355 0.215601 0.083103
O O12 0.750000 0.250000 0.500000
O O13 0.000000 0.287085 0.500000
O O14 0.845371 0.000000 0.533218
O O15 0.759318 0.218779 0.859086
O O16 0.774153 0.000000 0.946989
O O17 0.750000 0.250000 0.000000
O O18 0.097740 0.500000 0.186488
O O19 0.258263 0.500000 0.325578
#
# Coordination Sequence:
#
# PCOD9205984 Si02
#       7
#     8   8   8   8   8   8   8
#     4  10  21  37  56  81 112 143 181 228 273 322
#     4  10  21  37  56  79 109 144 182 224 271 325
#     4  10  22  39  58  83 114 147 185 227 272 325
#     4  10  21  36  55  81 110 141 180 225 272 324
#     4  11  23  39  60  85 114 148 185 227 274 323
#     4  10  21  38  59  82 111 147 184 225 274 325
#     4  10  21  36  55  80 109 143 183 225 271 324
#
# _framework density 24.476215
#
# number of rings (size 3 to 8) (size 9 to 14) (size 15 to 20)
#    0.000    1.857    0.000    3.429    0.000    8.286 
#    0.000    0.000    0.000    0.000    0.000    0.000 
#    0.000    0.000    0.000    0.000    0.000    0.000 
#
# Total GULP energy -156626.985128 kJ/mol
# GULP energy per Si atom -5593.820897 kJ/mol
# Density = 2.442051 g / cm^3
# Si number density = 24.476215 Si / 1000 Ang^3
#
#
#
# Elastic Constant Matrix: (Units=GPa)
#
#
# Indices 1 2 3 4 5 6 
#
# 1 103.4615 -13.3928 -16.9512 0.0000 1.2328 0.0000
# 2 -13.3928 72.6548 -11.1493 0.0000 -9.0639 0.0000
# 3 -16.9512 -11.1493 66.3248 0.0000 -2.0340 0.0000
# 4 0.0000 0.0000 0.0000 13.4982 0.0000 9.9031
# 5 1.2328 -9.0639 -2.0340 0.0000 43.4421 0.0000
# 6 0.0000 0.0000 0.0000 9.9031 0.0000 4.0151
#
#
#
# Elastic Compliance Matrix: (Units=1/GPa)
#
#
# Indices 1 2 3 4 5 6 
#
# 1 0.010487 0.002454 0.003104 0.000000 0.000360 0.000000
# 2 0.002454 0.015122 0.003269 0.000000 0.003238 0.000000
# 3 0.003104 0.003269 0.016462 0.000000 0.001365 0.000000
# 4 0.000000 0.000000 0.000000 -0.091512 0.000000 0.225712
# 5 0.000360 0.003238 0.001365 0.000000 0.023748 0.000000
# 6 0.000000 0.000000 0.000000 0.225712 0.000000 -0.307652
#
#
# Mechanical properties :
#
#
# Convention : Reuss Voigt Hill
#
# Bulk Modulus (GPa) = 16.74340 17.71718 17.23029
# Shear Modulus (GPa) = -15.10164 31.12005 8.00921
#
# Velocity S-wave (km/s) = -2.48663 3.56959 1.81090
# Velocity P-wave (km/s) = 1.17851 4.92378 3.38044
#
# Compressibility (1/GPa) = 0.05972503
#
# Stress axis : x y z
#
# Youngs Moduli (GPa) = 95.35240 66.12999 60.74623
#
# Poissons Ratio (x) = -0.16231 -0.18855
# Poissons Ratio (y) = -0.23403 -0.19855
# Poissons Ratio (z) = -0.29597 -0.21615
#
# Static dielectric constant tensor:
#      x y z
#    x 1.883540 0.000000 -0.044750 
#    y 0.000000 1.939160 0.000000 
#    z -0.044750 0.000000 1.980900 
# 
# From -- ./inp_files/357478.got.cif
#   From: 2010.05.17/outbox.cif.g08.bks.cpg/sg12_179_cif.got.tgz:357478.got - 2010.06.03 13:09:07.
