data_PCOD9205120
_publ_section_title
;
Structure prediction by ZEFSAII (Michael W. Deem and Ramdas Pophale) SiO2 
 PCOD9205120
Probable space group: C 2/M
;
_chemical_formula_sum "Si O2"
_cell_formula_units_Z 64
_cell_length_a 30.106472
_cell_length_b 14.586934
_cell_length_c 8.937070
_cell_angle_alpha 90.000000
_cell_angle_beta 107.268562
_cell_angle_gamma 90.000000
_cell_volume 3747.898081
_symmetry_space_group_name_H-M "C 2/M"
_symmetry_group_IT_number 12
_symmetry_cell_setting 'monoclinic'
loop_
_space_group_symop_operation_xyz
x,y,z
-x,y,-z
-x,-y,-z
x,-y,z
1/2+x,1/2+y,z
1/2-x,1/2+y,-z
1/2-x,1/2-y,-z
1/2+x,1/2-y,z
loop_
_atom_site_type_symbol
_atom_site_label
_atom_site_fract_x
_atom_site_fract_y
_atom_site_fract_z
Si Si1 0.676186 0.607075 0.248126
Si Si2 0.225081 0.391635 0.151142
Si Si3 0.323814 0.607075 0.395753
Si Si4 0.866907 0.277532 0.937733
Si Si5 0.133093 0.277532 0.703918
Si Si6 0.550414 0.106933 0.121526
Si Si7 0.225081 0.391635 0.799021
Si Si8 0.550414 0.893067 0.479302
O O1 0.668331 0.500000 0.202638
O O2 0.672840 0.617860 0.422840
O O3 0.641292 0.675580 0.131377
O O4 0.728560 0.629950 0.246469
O O5 0.215205 0.500000 0.158820
O O6 0.271440 0.370050 0.289348
O O7 0.179949 0.334057 0.149313
O O8 0.234831 0.374476 0.984831
O O9 0.331670 0.500000 0.365977
O O10 0.358708 0.675580 0.348794
O O11 0.910633 0.327847 0.908521
O O12 0.871178 0.278165 0.121178
O O13 0.179949 0.334057 0.710584
O O14 0.089367 0.327847 0.587255
O O15 0.548302 0.117282 0.298302
O O16 0.561841 0.000000 0.099653
O O17 0.500000 0.125615 0.000000
O O18 0.215205 0.500000 0.771591
O O19 0.500000 0.874385 0.500000
O O20 0.561840 0.000000 0.524029
#
# Coordination Sequence:
#
# PCOD9205120 Si02
#       8
#     8   8   8   8   8   8   8   8
#     4  10  21  35  50  71 102 139 178 220 262 304
#     4   9  18  32  49  72 104 139 173 210 255 308
#     4  10  21  35  50  71 102 139 178 220 262 304
#     4  11  21  33  53  78 104 137 176 215 257 308
#     4  11  21  33  53  78 104 137 176 215 257 308
#     4  10  21  37  57  81 109 138 168 206 253 305
#     4   9  18  32  49  72 104 139 173 210 255 308
#     4  10  21  37  57  81 109 138 168 206 253 305
#
# _framework density 17.076238
#
# number of rings (size 3 to 8) (size 9 to 14) (size 15 to 20)
#    0.000    2.000    0.000    3.750    0.000    9.000 
#    0.000    2.500    0.000    0.750    0.000    0.000 
#    0.000    0.000    0.000    0.000    0.000    0.000 
#
# Total GULP energy -178758.280960 kJ/mol
# GULP energy per Si atom -5586.196280 kJ/mol
# Density = 1.703737 g / cm^3
# Si number density = 17.076238 Si / 1000 Ang^3
#
#
#
# Elastic Constant Matrix: (Units=GPa)
#
#
# Indices 1 2 3 4 5 6 
#
# 1 118.0885 89.1334 59.7684 0.0000 -2.5278 0.0000
# 2 89.1334 105.2257 64.0449 0.0000 6.9185 0.0000
# 3 59.7684 64.0449 74.0024 0.0000 14.6844 0.0000
# 4 0.0000 0.0000 0.0000 26.5746 0.0000 1.5361
# 5 -2.5278 6.9185 14.6844 0.0000 28.9966 0.0000
# 6 0.0000 0.0000 0.0000 1.5361 0.0000 32.1453
#
#
#
# Elastic Compliance Matrix: (Units=1/GPa)
#
#
# Indices 1 2 3 4 5 6 
#
# 1 0.026489 -0.018681 -0.007303 0.000000 0.010465 0.000000
# 2 -0.018681 0.033788 -0.013597 0.000000 -0.002804 0.000000
# 3 -0.007303 -0.013597 0.034087 0.000000 -0.014655 0.000000
# 4 0.000000 0.000000 0.000000 0.037734 0.000000 -0.001803
# 5 0.010465 -0.002804 -0.014655 0.000000 0.043490 0.000000
# 6 0.000000 0.000000 0.000000 -0.001803 0.000000 0.031195
#
#
# Mechanical properties :
#
#
# Convention : Reuss Voigt Hill
#
# Bulk Modulus (GPa) = 65.78440 80.35667 73.07053
# Shear Modulus (GPa) = 17.18142 23.16797 20.17470
#
# Velocity S-wave (km/s) = 3.17544 3.68739 3.44095
# Velocity P-wave (km/s) = 7.21472 8.08015 7.65967
#
# Compressibility (1/GPa) = 0.01520117
#
# Stress axis : x y z
#
# Youngs Moduli (GPa) = 37.75121 29.59658 29.33682
#
# Poissons Ratio (x) = 0.55290 0.21425
# Poissons Ratio (y) = 0.70524 0.39889
# Poissons Ratio (z) = 0.27570 0.40242
#
# Static dielectric constant tensor:
#      x y z
#    x 1.540450 0.000000 -0.006890 
#    y 0.000000 1.588670 0.000000 
#    z -0.006890 0.000000 1.565450 
# 
# From -- ./inp_files/104603.got.cif
#   From: 2010.05.17/outbox.cif.g08.bks.cpg/sg12_53_cif.got.tgz:104603.got - 2010.06.03 13:09:07.
