data_PCOD9205405
_publ_section_title
;
Structure prediction by ZEFSAII (Michael W. Deem and Ramdas Pophale) SiO2 
 PCOD9205405
Probable space group: C 2/M
;
_chemical_formula_sum "Si O2"
_cell_formula_units_Z 58
_cell_length_a 29.227160
_cell_length_b 9.726598
_cell_length_c 12.360925
_cell_angle_alpha 90.000000
_cell_angle_beta 103.751062
_cell_angle_gamma 90.000000
_cell_volume 3413.255387
_symmetry_space_group_name_H-M "C 2/M"
_symmetry_group_IT_number 12
_symmetry_cell_setting 'monoclinic'
loop_
_space_group_symop_operation_xyz
x,y,z
-x,y,-z
-x,-y,-z
x,-y,z
1/2+x,1/2+y,z
1/2-x,1/2+y,-z
1/2-x,1/2-y,-z
1/2+x,1/2-y,z
loop_
_atom_site_type_symbol
_atom_site_label
_atom_site_fract_x
_atom_site_fract_y
_atom_site_fract_z
Si Si1 0.302759 0.161507 0.643943
Si Si2 0.949478 0.766233 0.620943
Si Si3 0.550281 0.662560 0.979101
Si Si4 0.118512 0.158005 0.219169
Si Si5 0.500000 0.500000 0.500000
Si Si6 0.545447 0.156942 0.768726
Si Si7 0.694647 0.338727 0.575046
Si Si8 0.886248 0.343377 0.396645
O O1 0.339461 0.233800 0.743968
O O2 0.306637 0.249951 0.535902
O O3 0.248075 0.170382 0.648128
O O4 0.313436 0.000000 0.631835
O O5 0.916756 0.824595 0.698561
O O6 0.916589 0.678101 0.522677
O O7 0.973656 0.881297 0.559677
O O8 0.992209 0.684262 0.699825
O O9 0.547004 0.500000 0.953540
O O10 0.589210 0.682236 0.093332
O O11 0.500000 0.706368 0.000000
O O12 0.558456 0.742987 0.873495
O O13 0.135770 0.000000 0.229136
O O14 0.579158 0.178606 0.684802
O O15 0.550206 0.000000 0.807344
O O16 0.684128 0.500000 0.549043
O O17 0.655391 0.267705 0.626580
O O18 0.868160 0.500000 0.383263
#
# Coordination Sequence:
#
# PCOD9205405 Si02
#       8
#     8   8   8   8   2   8   8   8
#     4  10  21  36  55  82 115 147 180 229 282 336
#     4  12  22  34  54  83 115 153 189 224 275 331
#     4  10  22  39  58  79 109 147 190 237 274 321
#     4  11  22  36  57  83 112 147 190 231 275 326
#     4  12  24  32  54  86 120 156 198 224 274 340
#     4  11  24  39  55  79 115 150 190 232 278 332
#     4  10  21  35  55  83 113 146 185 225 278 339
#     4  11  23  37  55  82 117 150 185 230 284 335
#
# _framework density 16.992574999999999
#
# number of rings (size 3 to 8) (size 9 to 14) (size 15 to 20)
#    0.000    1.241    4.828    1.241    1.931    4.690 
#    0.000    0.000    0.000    0.828    0.000    0.000 
#    0.000    0.000    0.000    0.000    0.000    0.000 
#
# Total GULP energy -161642.761901 kJ/mol
# GULP energy per Si atom -5573.888341 kJ/mol
# Density = 1.695390 g / cm^3
# Si number density = 16.992575 Si / 1000 Ang^3
#
#
#
# Elastic Constant Matrix: (Units=GPa)
#
#
# Indices 1 2 3 4 5 6 
#
# 1 75.0925 59.1234 29.4091 0.0000 11.0925 0.0000
# 2 59.1234 117.3159 49.0089 0.0000 8.2576 0.0000
# 3 29.4091 49.0089 76.1165 0.0000 0.7865 0.0000
# 4 0.0000 0.0000 0.0000 19.6178 0.0000 -10.4028
# 5 11.0925 8.2576 0.7865 0.0000 14.1906 0.0000
# 6 0.0000 0.0000 0.0000 -10.4028 0.0000 15.6569
#
#
#
# Elastic Compliance Matrix: (Units=1/GPa)
#
#
# Indices 1 2 3 4 5 6 
#
# 1 0.024332 -0.010235 -0.002678 0.000000 -0.012916 0.000000
# 2 -0.010235 0.016571 -0.006702 0.000000 -0.001271 0.000000
# 3 -0.002678 -0.006702 0.018436 0.000000 0.004971 0.000000
# 4 0.000000 0.000000 0.000000 0.078704 0.000000 0.052293
# 5 -0.012916 -0.001271 0.004971 0.000000 0.081029 0.000000
# 6 0.000000 0.000000 0.000000 0.052293 0.000000 0.098614
#
#
# Mechanical properties :
#
#
# Convention : Reuss Voigt Hill
#
# Bulk Modulus (GPa) = 49.72660 60.40086 55.06373
# Shear Modulus (GPa) = 13.75068 18.62530 16.18799
#
# Velocity S-wave (km/s) = 2.84776 3.31431 3.08985
# Velocity P-wave (km/s) = 6.33563 7.09005 6.72343
#
# Compressibility (1/GPa) = 0.02010996
#
# Stress axis : x y z
#
# Youngs Moduli (GPa) = 41.09881 60.34560 54.24072
#
# Poissons Ratio (x) = 0.61761 0.14525
# Poissons Ratio (y) = 0.42063 0.36353
# Poissons Ratio (z) = 0.11006 0.40445
#
# Static dielectric constant tensor:
#      x y z
#    x 1.582230 0.000000 0.007450 
#    y 0.000000 1.579920 0.000000 
#    z 0.007450 0.000000 1.548900 
# 
# From -- ./inp_files/186721.got.cif
#   From: 2010.05.17/outbox.cif.g08.bks.cpg/sg12_94_cif.got.tgz:186721.got - 2010.06.03 13:09:07.
