data_PCOD9205267
_publ_section_title
;
Structure prediction by ZEFSAII (Michael W. Deem and Ramdas Pophale) SiO2 
 PCOD9205267
Probable space group: C 2/M
;
_chemical_formula_sum "Si O2"
_cell_formula_units_Z 48
_cell_length_a 24.911377
_cell_length_b 7.488923
_cell_length_c 12.169184
_cell_angle_alpha 90.000000
_cell_angle_beta 88.014068
_cell_angle_gamma 90.000000
_cell_volume 2268.911868
_symmetry_space_group_name_H-M "C 2/M"
_symmetry_group_IT_number 12
_symmetry_cell_setting 'monoclinic'
loop_
_space_group_symop_operation_xyz
x,y,z
-x,y,-z
-x,-y,-z
x,-y,z
1/2+x,1/2+y,z
1/2-x,1/2+y,-z
1/2-x,1/2-y,-z
1/2+x,1/2-y,z
loop_
_atom_site_type_symbol
_atom_site_label
_atom_site_fract_x
_atom_site_fract_y
_atom_site_fract_z
Si Si1 0.484015 0.215958 0.174712
Si Si2 0.954613 0.791840 0.423860
Si Si3 0.164956 0.212199 0.546619
Si Si4 0.585594 0.217751 0.024910
Si Si5 0.202565 0.286029 0.088698
Si Si6 0.766903 0.715575 0.671581
O O1 0.473694 0.282097 0.297195
O O2 0.541095 0.270604 0.118402
O O3 0.483651 0.000000 0.177931
O O4 0.437963 0.273120 0.091632
O O5 0.894836 0.713139 0.437795
O O6 0.000000 0.712350 0.500000
O O7 0.949225 0.000000 0.456758
O O8 0.188951 0.239362 0.423534
O O9 0.209811 0.282884 0.628435
O O10 0.162087 0.000000 0.567444
O O11 0.645061 0.281153 0.049478
O O12 0.586092 0.000000 0.023727
O O13 0.197193 0.500000 0.098413
O O14 0.217862 0.218216 0.208841
O O15 0.250000 0.250000 0.000000
O O16 0.763927 0.500000 0.676480
#
# Coordination Sequence:
#
# PCOD9205267 Si02
#       6
#     8   8   8   8   8   8
#     4   9  18  35  58  78  99 135 176 212 254 304
#     4  10  22  36  51  76 110 139 166 210 262 305
#     4   9  19  36  54  73 103 139 170 207 258 307
#     4   8  17  35  55  77 106 134 166 215 264 298
#     4  10  21  35  53  79 108 136 169 211 257 305
#     4   9  19  35  55  77 101 133 173 214 253 298
#
# _framework density 21.155514
#
# number of rings (size 3 to 8) (size 9 to 14) (size 15 to 20)
#    0.000    2.833    0.000    1.000    4.667    1.667 
#    0.000    2.500    0.000    0.000    0.000    0.000 
#    0.000    0.000    0.000    0.000    0.000    0.000 
#
# Total GULP energy -133985.204180 kJ/mol
# GULP energy per Si atom -5582.716841 kJ/mol
# Density = 2.110736 g / cm^3
# Si number density = 21.155514 Si / 1000 Ang^3
#
#
#
# Elastic Constant Matrix: (Units=GPa)
#
#
# Indices 1 2 3 4 5 6 
#
# 1 214.9005 0.5331 115.3469 0.0000 17.3075 0.0000
# 2 0.5331 56.0672 -18.1700 0.0000 5.2505 0.0000
# 3 115.3469 -18.1700 141.9399 0.0000 18.9570 0.0000
# 4 0.0000 0.0000 0.0000 32.6230 0.0000 -13.9328
# 5 17.3075 5.2505 18.9570 0.0000 16.0283 0.0000
# 6 0.0000 0.0000 0.0000 -13.9328 0.0000 3.8453
#
#
#
# Elastic Compliance Matrix: (Units=1/GPa)
#
#
# Indices 1 2 3 4 5 6 
#
# 1 0.008561 -0.002465 -0.007299 0.000000 0.000196 0.000000
# 2 -0.002465 0.020963 0.006233 0.000000 -0.011577 0.000000
# 3 -0.007299 0.006233 0.015433 0.000000 -0.012413 0.000000
# 4 0.000000 0.000000 0.000000 -0.055992 0.000000 -0.202876
# 5 0.000196 -0.011577 -0.012413 0.000000 0.080651 0.000000
# 6 0.000000 0.000000 0.000000 -0.202876 0.000000 -0.475026
#
#
# Mechanical properties :
#
#
# Convention : Reuss Voigt Hill
#
# Bulk Modulus (GPa) = 26.38877 67.59197 46.99037
# Shear Modulus (GPa) = -12.96293 31.51250 9.27478
#
# Velocity S-wave (km/s) = -2.47805 3.86367 2.09610
# Velocity P-wave (km/s) = 2.07681 7.20579 5.30266
#
# Compressibility (1/GPa) = 0.03789491
#
# Stress axis : x y z
#
# Youngs Moduli (GPa) = 116.80251 47.70228 64.79805
#
# Poissons Ratio (x) = 0.11760 0.47297
# Poissons Ratio (y) = 0.28794 -0.40389
# Poissons Ratio (z) = 0.85256 -0.29733
#
# Static dielectric constant tensor:
#      x y z
#    x 1.762450 0.000000 0.031660 
#    y 0.000000 1.800420 0.000000 
#    z 0.031660 0.000000 1.707630 
# 
# From -- ./inp_files/172116.got.cif
#   From: 2010.05.17/outbox.cif.g08.bks.cpg/sg12_87_cif.got.tgz:172116.got - 2010.06.03 13:09:07.
