data_PCOD9205955
_publ_section_title
;
Structure prediction by ZEFSAII (Michael W. Deem and Ramdas Pophale) SiO2 
 PCOD9205955
Probable space group: C 2/M
;
_chemical_formula_sum "Si O2"
_cell_formula_units_Z 34
_cell_length_a 19.847792
_cell_length_b 7.074495
_cell_length_c 10.408706
_cell_angle_alpha 90.000000
_cell_angle_beta 124.820604
_cell_angle_gamma 90.000000
_cell_volume 1199.824921
_symmetry_space_group_name_H-M "C 2/M"
_symmetry_group_IT_number 12
_symmetry_cell_setting 'monoclinic'
loop_
_space_group_symop_operation_xyz
x,y,z
-x,y,-z
-x,-y,-z
x,-y,z
1/2+x,1/2+y,z
1/2-x,1/2+y,-z
1/2-x,1/2-y,-z
1/2+x,1/2-y,z
loop_
_atom_site_type_symbol
_atom_site_label
_atom_site_fract_x
_atom_site_fract_y
_atom_site_fract_z
Si Si1 0.142304 0.230386 0.269130
Si Si2 0.000000 0.500000 0.000000
Si Si3 0.571293 0.271009 0.738671
Si Si4 0.618210 0.726809 0.518512
Si Si5 0.305333 0.722030 0.934857
O O1 0.162931 0.289594 0.437532
O O2 0.131960 0.000000 0.260705
O O3 0.059848 0.334565 0.133341
O O4 0.205902 0.286962 0.223587
O O5 0.574476 0.500000 0.743450
O O6 0.477326 0.222852 0.615150
O O7 0.625573 0.207980 0.674384
O O8 0.608750 0.202536 0.912958
O O9 0.623222 0.500000 0.529971
O O10 0.311367 0.500000 0.927549
O O11 0.250000 0.750000 0.000000
#
# Coordination Sequence:
#
# PCOD9205955 Si02
#       5
#     8   2   8   8   8
#     4  10  21  36  55  83 113 148 187 232 282 336
#     4  12  22  32  60  88 120 140 182 234 296 330
#     4   8  14  27  52  81 103 140 178 225 279 336
#     4   8  14  29  54  80 108 133 178 228 285 337
#     4  10  21  36  55  77 111 151 195 230 274 332
#
# _framework density 28.337468999999999
#
# number of rings (size 3 to 8) (size 9 to 14) (size 15 to 20)
#    0.000    2.824    0.000    3.176    1.647    3.765 
#    0.000    1.176    2.588    2.824    0.000    0.000 
#    0.000    0.000    0.000    0.000    0.000    0.000 
#
# Total GULP energy -94737.705281 kJ/mol
# GULP energy per Si atom -5572.806193 kJ/mol
# Density = 2.827297 g / cm^3
# Si number density = 28.337469 Si / 1000 Ang^3
#
#
#
# Elastic Constant Matrix: (Units=GPa)
#
#
# Indices 1 2 3 4 5 6 
#
# 1 147.4217 -9.9455 57.7281 0.0000 -52.9119 0.0000
# 2 -9.9455 211.8016 4.1282 0.0000 -0.6539 0.0000
# 3 57.7281 4.1282 226.9684 0.0000 -73.9642 0.0000
# 4 0.0000 0.0000 0.0000 -11.3011 0.0000 3.6022
# 5 -52.9119 -0.6539 -73.9642 0.0000 67.9346 0.0000
# 6 0.0000 0.0000 0.0000 3.6022 0.0000 6.7136
#
#
#
# Elastic Compliance Matrix: (Units=1/GPa)
#
#
# Indices 1 2 3 4 5 6 
#
# 1 0.009461 0.000467 -0.000019 0.000000 0.007353 0.000000
# 2 0.000467 0.004746 -0.000111 0.000000 0.000289 0.000000
# 3 -0.000019 -0.000111 0.006831 0.000000 0.007422 0.000000
# 4 0.000000 0.000000 0.000000 -0.075564 0.000000 0.040544
# 5 0.007353 0.000289 0.007422 0.000000 0.028531 0.000000
# 6 0.000000 0.000000 0.000000 0.040544 0.000000 0.127197
#
#
# Mechanical properties :
#
#
# Convention : Reuss Voigt Hill
#
# Bulk Modulus (GPa) = 46.05277 76.66814 61.36045
# Shear Modulus (GPa) = 46.39686 48.28816 47.34251
#
# Velocity S-wave (km/s) = 4.05074 4.13248 4.09182
# Velocity P-wave (km/s) = 6.17777 7.06286 6.63509
#
# Compressibility (1/GPa) = 0.02171422
#
# Stress axis : x y z
#
# Youngs Moduli (GPa) = 105.69381 210.68593 146.38353
#
# Poissons Ratio (x) = -0.09846 0.00273
# Poissons Ratio (y) = -0.04939 0.01626
# Poissons Ratio (z) = 0.00197 0.02341
#
# Static dielectric constant tensor:
#      x y z
#    x 2.455040 0.000000 -0.077830 
#    y 0.000000 2.037420 0.000000 
#    z -0.077830 0.000000 2.244700 
# 
# From -- ./inp_files/92389.got.cif
#   From: 2010.05.17/outbox.cif.g08.bks.cpg/sg12_47_cif.got.tgz:92389.got - 2010.06.03 13:09:07.
