data_PCOD9205468
_publ_section_title
;
Structure prediction by ZEFSAII (Michael W. Deem and Ramdas Pophale) SiO2 
 PCOD9205468
Probable space group: C 2/M
;
_chemical_formula_sum "Si O2"
_cell_formula_units_Z 56
_cell_length_a 14.315411
_cell_length_b 16.046849
_cell_length_c 22.486081
_cell_angle_alpha 90.000000
_cell_angle_beta 31.725248
_cell_angle_gamma 90.000000
_cell_volume 2716.228873
_symmetry_space_group_name_H-M "C 2/M"
_symmetry_group_IT_number 12
_symmetry_cell_setting 'monoclinic'
loop_
_space_group_symop_operation_xyz
x,y,z
-x,y,-z
-x,-y,-z
x,-y,z
1/2+x,1/2+y,z
1/2-x,1/2+y,-z
1/2-x,1/2-y,-z
1/2+x,1/2-y,z
loop_
_atom_site_type_symbol
_atom_site_label
_atom_site_fract_x
_atom_site_fract_y
_atom_site_fract_z
Si Si1 0.314274 0.785818 0.628918
Si Si2 0.496292 0.595138 0.242425
Si Si3 0.341806 0.883731 0.131901
Si Si4 0.401843 0.910464 0.804761
Si Si5 0.812208 0.808615 0.171153
Si Si6 0.322402 0.343693 0.974113
Si Si7 0.751662 0.590852 0.316220
O O1 0.500000 0.812003 0.500000
O O2 0.278733 0.816288 0.715176
O O3 0.322954 0.684682 0.633762
O O4 0.153349 0.831038 0.678757
O O5 0.422665 0.500000 0.279397
O O6 0.643937 0.597431 0.214361
O O7 0.615362 0.614607 0.120046
O O8 0.353320 0.784955 0.130705
O O9 0.340990 0.910104 0.201704
O O10 0.500000 0.910009 0.000000
O O11 0.320714 0.843861 0.805153
O O12 0.609331 0.910414 0.704492
O O13 0.342655 0.000000 0.814158
O O14 0.325725 0.893272 0.911143
O O15 0.007056 0.846694 0.074811
O O16 0.250000 0.250000 0.000000
O O17 0.655010 0.500000 0.370861
#
# Coordination Sequence:
#
# PCOD9205468 Si02
#       7
#     8   8   8   8   8   8   8
#     4  10  23  44  66  84 110 153 203 259 313 354
#     4  11  23  37  57  88 123 158 201 247 290 350
#     4  11  20  35  59  89 125 161 193 231 290 360
#     4  11  21  34  54  84 123 160 191 232 294 365
#     4  10  21  35  56  83 114 152 198 248 292 351
#     4  11  20  34  56  83 119 161 200 239 289 351
#     4  10  22  39  60  89 121 152 195 248 299 360
#
# _framework density 20.616820000000001
#
# number of rings (size 3 to 8) (size 9 to 14) (size 15 to 20)
#    0.000    1.429    0.000    8.143    0.000    6.286 
#    0.000    6.429    0.000    3.429    0.000    0.000 
#    0.000    0.000    0.000    0.000    0.000    0.000 
#
# Total GULP energy -155925.640802 kJ/mol
# GULP energy per Si atom -5568.772886 kJ/mol
# Density = 2.056989 g / cm^3
# Si number density = 20.616820 Si / 1000 Ang^3
#
#
#
# Elastic Constant Matrix: (Units=GPa)
#
#
# Indices 1 2 3 4 5 6 
#
# 1 110.4485 18.0897 22.4787 0.0002 -12.5749 -0.0004
# 2 18.0897 61.3640 7.1442 -0.0011 2.5153 -0.0006
# 3 22.4787 7.1442 85.5053 -0.0013 -1.6340 -0.0029
# 4 0.0002 -0.0011 -0.0013 16.9131 0.0003 -30.2635
# 5 -12.5749 2.5153 -1.6340 0.0003 8.3888 0.0002
# 6 -0.0004 -0.0006 -0.0029 -30.2635 0.0002 62.3421
#
#
#
# Elastic Compliance Matrix: (Units=1/GPa)
#
#
# Indices 1 2 3 4 5 6 
#
# 1 0.012473 -0.004177 -0.002558 -0.000009 0.019452 -0.000005
# 2 -0.004177 0.018086 -0.000639 0.000013 -0.011808 0.000006
# 3 -0.002558 -0.000639 0.012398 0.000015 -0.001229 0.000008
# 4 -0.000009 0.000013 0.000015 0.450056 -0.000038 0.218476
# 5 0.019452 -0.011808 -0.001229 -0.000038 0.151667 -0.000019
# 6 -0.000005 0.000006 0.000008 0.218476 -0.000019 0.122098
#
#
# Mechanical properties :
#
#
# Convention : Reuss Voigt Hill
#
# Bulk Modulus (GPa) = 35.44934 39.19364 37.32149
# Shear Modulus (GPa) = 6.32169 31.50248 18.91208
#
# Velocity S-wave (km/s) = 1.75298 3.91320 3.03200
# Velocity P-wave (km/s) = 4.61833 6.28246 5.51354
#
# Compressibility (1/GPa) = 0.02820927
#
# Stress axis : x y z
#
# Youngs Moduli (GPa) = 80.17061 55.29197 80.66032
#
# Poissons Ratio (x) = 0.23093 0.20637
# Poissons Ratio (y) = 0.33484 0.05152
# Poissons Ratio (z) = 0.20512 0.03532
#
# Static dielectric constant tensor:
#      x y z
#    x 1.711360 0.000000 0.040100 
#    y 0.000000 1.794080 0.000000 
#    z 0.040100 0.000000 1.667700 
# 
# From -- ./inp_files/340301.got.cif
#   From: 2010.05.17/outbox.cif.g08.bks.cpg/sg12_171_cif.got.tgz:340301.got - 2010.06.03 13:09:07.
