data_PCOD9205577
_publ_section_title
;
Structure prediction by ZEFSAII (Michael W. Deem and Ramdas Pophale) SiO2 
 PCOD9205577
Probable space group: C 2/M
;
_chemical_formula_sum "Si O2"
_cell_formula_units_Z 56
_cell_length_a 17.845613
_cell_length_b 13.809088
_cell_length_c 11.756923
_cell_angle_alpha 90.000000
_cell_angle_beta 54.810504
_cell_angle_gamma 90.000000
_cell_volume 2367.801926
_symmetry_space_group_name_H-M "C 2/M"
_symmetry_group_IT_number 12
_symmetry_cell_setting 'monoclinic'
loop_
_space_group_symop_operation_xyz
x,y,z
-x,y,-z
-x,-y,-z
x,-y,z
1/2+x,1/2+y,z
1/2-x,1/2+y,-z
1/2-x,1/2-y,-z
1/2+x,1/2-y,z
loop_
_atom_site_type_symbol
_atom_site_label
_atom_site_fract_x
_atom_site_fract_y
_atom_site_fract_z
Si Si1 0.914761 0.731826 0.018187
Si Si2 0.334812 0.885799 0.874200
Si Si3 0.369597 0.891928 0.584089
Si Si4 0.102774 0.114875 0.367440
Si Si5 0.156049 0.216359 0.526109
Si Si6 0.149935 0.889317 0.749372
Si Si7 0.619993 0.387505 0.097047
O O1 0.865302 0.791432 0.162210
O O2 0.865851 0.670949 0.961211
O O3 0.948455 0.826167 0.918517
O O4 0.000000 0.677290 0.000000
O O5 0.377540 0.864836 0.711453
O O6 0.350834 0.000000 0.879751
O O7 0.224270 0.873716 0.961953
O O8 0.401217 0.810256 0.466286
O O9 0.260506 0.898502 0.657342
O O10 0.407035 0.000000 0.531852
O O11 0.172539 0.161838 0.393579
O O12 0.117655 0.148644 0.227269
O O13 0.000000 0.135884 0.500000
O O14 0.114793 0.000000 0.357830
O O15 0.250000 0.250000 0.500000
O O16 0.118249 0.138447 0.649045
O O17 0.117618 0.000000 0.810582
O O18 0.598628 0.500000 0.113142
#
# Coordination Sequence:
#
# PCOD9205577 Si02
#       7
#     8   8   8   8   8   8   8
#     4  12  25  36  58  92 125 160 196 249 309 367
#     4  10  21  40  65  86 115 159 211 259 294 348
#     4   9  18  37  63  88 111 150 206 259 299 341
#     4  10  22  38  57  85 122 160 197 245 304 364
#     4  10  21  35  58  85 115 160 198 242 295 360
#     4  10  21  37  57  87 126 159 193 241 306 365
#     4  10  21  38  62  88 114 155 206 252 298 361
#
# _framework density 23.650627
#
# number of rings (size 3 to 8) (size 9 to 14) (size 15 to 20)
#    0.000    1.857    1.429    2.143    6.000    2.000 
#    0.000    0.714    0.000    0.429    0.000    0.000 
#    0.000    0.000    0.000    0.000    0.000    0.000 
#
# Total GULP energy -156175.678108 kJ/mol
# GULP energy per Si atom -5577.702790 kJ/mol
# Density = 2.359680 g / cm^3
# Si number density = 23.650627 Si / 1000 Ang^3
#
#
#
# Elastic Constant Matrix: (Units=GPa)
#
#
# Indices 1 2 3 4 5 6 
#
# 1 79.1438 28.3083 23.5731 0.0000 19.4666 0.0000
# 2 28.3083 117.8020 16.7825 0.0000 22.6655 0.0000
# 3 23.5731 16.7825 67.7348 0.0000 37.9707 0.0000
# 4 0.0000 0.0000 0.0000 32.2190 0.0000 15.5714
# 5 19.4666 22.6655 37.9707 0.0000 39.4530 0.0000
# 6 0.0000 0.0000 0.0000 15.5714 0.0000 8.6338
#
#
#
# Elastic Compliance Matrix: (Units=1/GPa)
#
#
# Indices 1 2 3 4 5 6 
#
# 1 0.015220 -0.002621 -0.002783 0.000000 -0.003325 0.000000
# 2 -0.002621 0.010070 0.002031 0.000000 -0.006446 0.000000
# 3 -0.002783 0.002031 0.032820 0.000000 -0.031380 0.000000
# 4 0.000000 0.000000 0.000000 0.241818 0.000000 -0.436128
# 5 -0.003325 -0.006446 -0.031380 0.000000 0.060892 0.000000
# 6 0.000000 0.000000 0.000000 -0.436128 0.000000 0.902399
#
#
# Mechanical properties :
#
#
# Convention : Reuss Voigt Hill
#
# Bulk Modulus (GPa) = 19.46964 44.66762 32.06863
# Shear Modulus (GPa) = 3.88474 29.12896 16.50685
#
# Velocity S-wave (km/s) = 1.28301 3.51327 2.64473
# Velocity P-wave (km/s) = 3.23185 5.94852 4.78695
#
# Compressibility (1/GPa) = 0.05136202
#
# Stress axis : x y z
#
# Youngs Moduli (GPa) = 65.70477 99.30856 30.46914
#
# Poissons Ratio (x) = 0.26030 0.08481
# Poissons Ratio (y) = 0.17222 -0.06188
# Poissons Ratio (z) = 0.18289 -0.20169
#
# Static dielectric constant tensor:
#      x y z
#    x 1.983800 0.000000 -0.020960 
#    y 0.000000 1.948240 0.000000 
#    z -0.020960 0.000000 1.957250 
# 
# From -- ./inp_files/155980.got.cif
#   From: 2010.05.17/outbox.cif.g08.bks.cpg/sg12_78_cif.got.tgz:155980.got - 2010.06.03 13:09:07.
