data_PCOD9205365
_publ_section_title
;
Structure prediction by ZEFSAII (Michael W. Deem and Ramdas Pophale) SiO2 
 PCOD9205365
Probable space group: C 2/M
;
_chemical_formula_sum "Si O2"
_cell_formula_units_Z 56
_cell_length_a 11.133670
_cell_length_b 23.553383
_cell_length_c 14.389641
_cell_angle_alpha 90.000000
_cell_angle_beta 54.704123
_cell_angle_gamma 90.000000
_cell_volume 3079.832553
_symmetry_space_group_name_H-M "C 2/M"
_symmetry_group_IT_number 12
_symmetry_cell_setting 'monoclinic'
loop_
_space_group_symop_operation_xyz
x,y,z
-x,y,-z
-x,-y,-z
x,-y,z
1/2+x,1/2+y,z
1/2-x,1/2+y,-z
1/2-x,1/2-y,-z
1/2+x,1/2-y,z
loop_
_atom_site_type_symbol
_atom_site_label
_atom_site_fract_x
_atom_site_fract_y
_atom_site_fract_z
Si Si1 0.666378 0.362639 0.388115
Si Si2 0.205832 0.118181 0.682755
Si Si3 0.159750 0.434349 0.209055
Si Si4 0.320550 0.239109 0.571955
Si Si5 0.105864 0.066918 0.235488
Si Si6 0.347401 0.064076 0.449661
Si Si7 0.119320 0.433025 0.019333
O O1 0.500000 0.362109 0.500000
O O2 0.710064 0.297030 0.357783
O O3 0.674010 0.401168 0.293686
O O4 0.759254 0.391593 0.427150
O O5 0.228046 0.101508 0.779680
O O6 0.241603 0.183614 0.647342
O O7 0.320519 0.082842 0.567083
O O8 0.045980 0.097920 0.720931
O O9 0.211250 0.500000 0.177760
O O10 0.010143 0.434899 0.335501
O O11 0.125833 0.410894 0.121496
O O12 0.500000 0.230176 0.500000
O O13 0.250000 0.250000 0.500000
O O14 0.222303 0.070571 0.099842
O O15 0.081096 0.000000 0.266513
O O16 0.289860 0.000000 0.463866
O O17 0.079776 0.500000 0.048286
O O18 0.000000 0.408843 0.000000
#
# Coordination Sequence:
#
# PCOD9205365 Si02
#       7
#     8   8   8   8   8   8   8
#     4  11  21  35  56  85 116 156 198 247 294 352
#     4  12  22  35  55  87 123 159 189 244 305 365
#     4  10  21  35  54  84 117 157 196 233 297 363
#     4  11  22  40  59  83 125 170 216 244 289 366
#     4  11  22  37  60  91 122 154 197 254 310 358
#     4  11  20  32  53  85 122 152 185 237 304 360
#     4   9  19  38  60  83 116 155 200 246 292 360
#
# _framework density 18.182805999999999
#
# number of rings (size 3 to 8) (size 9 to 14) (size 15 to 20)
#    0.000    1.286    2.857    4.714    0.000    4.571 
#    0.000    2.143    0.000    0.857    3.714    0.000 
#    0.000    0.000    0.000    0.000    0.000    0.000 
#
# Total GULP energy -156234.147985 kJ/mol
# GULP energy per Si atom -5579.790999 kJ/mol
# Density = 1.814142 g / cm^3
# Si number density = 18.182806 Si / 1000 Ang^3
#
#
#
# Elastic Constant Matrix: (Units=GPa)
#
#
# Indices 1 2 3 4 5 6 
#
# 1 92.1690 41.0235 38.1091 0.0000 23.9684 0.0000
# 2 41.0235 122.6544 20.8623 0.0000 5.1361 0.0000
# 3 38.1091 20.8623 76.1630 0.0000 27.8060 0.0000
# 4 0.0000 0.0000 0.0000 39.7064 0.0000 16.1122
# 5 23.9684 5.1361 27.8060 0.0000 31.5994 0.0000
# 6 0.0000 0.0000 0.0000 16.1122 0.0000 31.8750
#
#
#
# Elastic Compliance Matrix: (Units=1/GPa)
#
#
# Indices 1 2 3 4 5 6 
#
# 1 0.016737 -0.004555 -0.004070 0.000000 -0.008374 0.000000
# 2 -0.004555 0.009812 -0.001602 0.000000 0.003270 0.000000
# 3 -0.004070 -0.001602 0.021191 0.000000 -0.015299 0.000000
# 4 0.000000 0.000000 0.000000 0.031684 0.000000 -0.016015
# 5 -0.008374 0.003270 -0.015299 0.000000 0.050929 0.000000
# 6 0.000000 0.000000 0.000000 -0.016015 0.000000 0.039468
#
#
# Mechanical properties :
#
#
# Convention : Reuss Voigt Hill
#
# Bulk Modulus (GPa) = 36.64994 54.55290 45.60142
# Shear Modulus (GPa) = 25.07891 33.36895 29.22393
#
# Velocity S-wave (km/s) = 3.71788 4.28856 4.01338
# Velocity P-wave (km/s) = 6.21532 7.38850 6.82716
#
# Compressibility (1/GPa) = 0.02728518
#
# Stress axis : x y z
#
# Youngs Moduli (GPa) = 59.74611 101.91452 47.19078
#
# Poissons Ratio (x) = 0.46424 0.19206
# Poissons Ratio (y) = 0.27215 0.07562
# Poissons Ratio (z) = 0.24316 0.16331
#
# Static dielectric constant tensor:
#      x y z
#    x 1.698080 0.000000 0.013730 
#    y 0.000000 1.620470 0.000000 
#    z 0.013730 0.000000 1.617010 
# 
# From -- ./inp_files/135256.got.cif
#   From: 2010.05.17/outbox.cif.g08.bks.cpg/sg12_68_cif.got.tgz:135256.got - 2010.06.03 13:09:07.
