data_PCOD9205253
_publ_section_title
;
Structure prediction by ZEFSAII (Michael W. Deem and Ramdas Pophale) SiO2 
 PCOD9205253
Probable space group: C 2/M
;
_chemical_formula_sum "Si O2"
_cell_formula_units_Z 56
_cell_length_a 14.843502
_cell_length_b 8.515867
_cell_length_c 25.084295
_cell_angle_alpha 90.000000
_cell_angle_beta 64.644227
_cell_angle_gamma 90.000000
_cell_volume 2865.333292
_symmetry_space_group_name_H-M "C 2/M"
_symmetry_group_IT_number 12
_symmetry_cell_setting 'monoclinic'
loop_
_space_group_symop_operation_xyz
x,y,z
-x,y,-z
-x,-y,-z
x,-y,z
1/2+x,1/2+y,z
1/2-x,1/2+y,-z
1/2-x,1/2-y,-z
1/2+x,1/2-y,z
loop_
_atom_site_type_symbol
_atom_site_label
_atom_site_fract_x
_atom_site_fract_y
_atom_site_fract_z
Si Si1 0.654453 0.688224 0.689680
Si Si2 0.444915 0.814585 0.774279
Si Si3 0.590102 0.319762 0.436222
Si Si4 0.684517 0.810370 0.091829
Si Si5 0.106736 0.310435 0.995544
Si Si6 0.724555 0.676309 0.563168
Si Si7 0.855781 0.183657 0.690973
O O1 0.669197 0.500000 0.684769
O O2 0.550793 0.729266 0.743302
O O3 0.653577 0.744440 0.627608
O O4 0.747157 0.767736 0.696380
O O5 0.377916 0.759743 0.840897
O O6 0.387744 0.782072 0.733651
O O7 0.462768 0.000000 0.776033
O O8 0.500000 0.310660 0.500000
O O9 0.631257 0.500000 0.430201
O O10 0.670036 0.191562 0.433326
O O11 0.570520 0.296553 0.378658
O O12 0.797213 0.747096 0.061690
O O13 0.689255 0.000000 0.090707
O O14 0.629425 0.761140 0.050893
O O15 0.105827 0.500000 0.994730
O O16 0.000000 0.255658 0.000000
O O17 0.690959 0.500000 0.560904
O O18 0.750000 0.750000 0.500000
O O19 0.856673 0.000000 0.705176
#
# Coordination Sequence:
#
# PCOD9205253 Si02
#       7
#     8   8   8   8   8   8   8
#     4  10  22  40  58  80 112 149 192 240 291 350
#     4  11  23  38  58  84 119 159 196 237 286 344
#     4   9  19  35  54  76 103 134 173 228 290 346
#     4   9  20  37  55  84 120 151 189 234 279 332
#     4   9  18  35  60  87 117 152 190 233 278 326
#     4  10  21  35  53  77 105 137 178 229 284 345
#     4  10  21  38  58  81 111 147 190 240 293 349
#
# _framework density 19.543973000000001
#
# number of rings (size 3 to 8) (size 9 to 14) (size 15 to 20)
#    0.000    2.286    0.000    1.714    2.000    5.143 
#    0.000    1.429    0.000    0.000    0.000    0.000 
#    0.000    0.000    0.000    0.000    0.000    0.000 
#
# Total GULP energy -156142.779317 kJ/mol
# GULP energy per Si atom -5576.527833 kJ/mol
# Density = 1.949949 g / cm^3
# Si number density = 19.543973 Si / 1000 Ang^3
#
#
#
# Elastic Constant Matrix: (Units=GPa)
#
#
# Indices 1 2 3 4 5 6 
#
# 1 85.2724 1.7949 42.7771 0.0000 -14.1006 0.0000
# 2 1.7949 18.5545 18.1658 0.0000 -4.1534 0.0000
# 3 42.7771 18.1658 151.3632 0.0000 -20.9593 0.0000
# 4 0.0000 0.0000 0.0000 26.8942 0.0000 -2.9487
# 5 -14.1006 -4.1534 -20.9593 0.0000 22.2820 0.0000
# 6 0.0000 0.0000 0.0000 -2.9487 0.0000 27.9707
#
#
#
# Elastic Compliance Matrix: (Units=1/GPa)
#
#
# Indices 1 2 3 4 5 6 
#
# 1 0.014549 0.003611 -0.003653 0.000000 0.006444 0.000000
# 2 0.003611 0.062488 -0.007578 0.000000 0.006805 0.000000
# 3 -0.003653 -0.007578 0.009236 0.000000 0.004963 0.000000
# 4 0.000000 0.000000 0.000000 0.037618 0.000000 0.003966
# 5 0.006444 0.006805 0.004963 0.000000 0.054894 0.000000
# 6 0.000000 0.000000 0.000000 0.003966 0.000000 0.036170
#
#
# Mechanical properties :
#
#
# Convention : Reuss Voigt Hill
#
# Bulk Modulus (GPa) = 14.07759 42.29618 28.18689
# Shear Modulus (GPa) = 19.69498 28.25954 23.97726
#
# Velocity S-wave (km/s) = 3.17791 3.80669 3.50642
# Velocity P-wave (km/s) = 4.54799 6.40388 5.55400
#
# Compressibility (1/GPa) = 0.07103488
#
# Stress axis : x y z
#
# Youngs Moduli (GPa) = 68.73230 16.00295 108.27553
#
# Poissons Ratio (x) = -0.05779 0.39552
# Poissons Ratio (y) = -0.24823 0.82050
# Poissons Ratio (z) = 0.25107 0.12127
#
# Static dielectric constant tensor:
#      x y z
#    x 1.675550 0.000000 0.008330 
#    y 0.000000 1.677360 0.000000 
#    z 0.008330 0.000000 1.706860 
# 
# From -- ./inp_files/338584.got.cif
#   From: 2010.05.17/outbox.cif.g08.bks.cpg/sg12_170_cif.got.tgz:338584.got - 2010.06.03 13:09:07.
