data_PCOD9205459
_publ_section_title
;
Structure prediction by ZEFSAII (Michael W. Deem and Ramdas Pophale) SiO2 
 PCOD9205459
Probable space group: C 2/M
;
_chemical_formula_sum "Si O2"
_cell_formula_units_Z 56
_cell_length_a 17.698427
_cell_length_b 13.972376
_cell_length_c 20.139356
_cell_angle_alpha 90.000000
_cell_angle_beta 142.554079
_cell_angle_gamma 90.000000
_cell_volume 3028.049079
_symmetry_space_group_name_H-M "C 2/M"
_symmetry_group_IT_number 12
_symmetry_cell_setting 'monoclinic'
loop_
_space_group_symop_operation_xyz
x,y,z
-x,y,-z
-x,-y,-z
x,-y,z
1/2+x,1/2+y,z
1/2-x,1/2+y,-z
1/2-x,1/2-y,-z
1/2+x,1/2-y,z
loop_
_atom_site_type_symbol
_atom_site_label
_atom_site_fract_x
_atom_site_fract_y
_atom_site_fract_z
Si Si1 0.800934 0.888429 0.950950
Si Si2 0.520938 0.890102 0.711153
Si Si3 0.639077 0.796983 0.080961
Si Si4 0.340337 0.385889 0.130538
Si Si5 0.513834 0.695520 0.365406
Si Si6 0.252290 0.112719 0.581368
Si Si7 0.310092 0.386650 0.310096
O O1 0.650757 0.879566 0.840853
O O2 0.855417 0.814100 0.936163
O O3 0.831388 0.000000 0.959796
O O4 0.844636 0.862356 0.055714
O O5 0.514490 0.808297 0.651008
O O6 0.397860 0.871826 0.669061
O O7 0.515521 0.000000 0.683509
O O8 0.709512 0.851153 0.070129
O O9 0.720908 0.823612 0.201716
O O10 0.500000 0.827366 0.000000
O O11 0.348602 0.500000 0.143066
O O12 0.446930 0.339555 0.250901
O O13 0.658319 0.671125 0.469575
O O14 0.446583 0.639306 0.378386
O O15 0.217457 0.134268 0.632925
O O16 0.228348 0.000000 0.553227
O O17 0.288519 0.500000 0.283644
#
# Coordination Sequence:
#
# PCOD9205459 Si02
#       7
#     8   8   8   8   8   8   8
#     4  10  21  39  57  76 108 146 182 222 265 317
#     4  10  21  36  56  80 108 144 183 224 263 311
#     4  11  22  34  55  81 110 142 179 224 267 323
#     4  10  21  35  56  82 110 143 176 218 273 322
#     4  11  19  35  58  80 113 143 179 219 265 323
#     4  10  21  35  56  85 111 140 178 220 271 321
#     4  10  21  36  54  81 114 144 174 217 273 326
#
# _framework density 18.493756000000001
#
# number of rings (size 3 to 8) (size 9 to 14) (size 15 to 20)
#    0.000    1.714    2.857    3.857    2.000    2.571 
#    0.000    0.000    0.000    2.571    0.000    0.000 
#    0.000    0.000    0.000    0.000    0.000    0.000 
#
# Total GULP energy -156214.550366 kJ/mol
# GULP energy per Si atom -5579.091084 kJ/mol
# Density = 1.845166 g / cm^3
# Si number density = 18.493756 Si / 1000 Ang^3
#
#
#
# Elastic Constant Matrix: (Units=GPa)
#
#
# Indices 1 2 3 4 5 6 
#
# 1 47.7919 21.4984 30.3570 0.0000 2.6012 0.0000
# 2 21.4984 78.1714 26.6190 0.0000 -18.2966 0.0000
# 3 30.3570 26.6190 50.9368 0.0000 -2.0082 0.0000
# 4 0.0000 0.0000 0.0000 21.6356 0.0000 3.8492
# 5 2.6012 -18.2966 -2.0082 0.0000 20.3738 0.0000
# 6 0.0000 0.0000 0.0000 3.8492 0.0000 20.5330
#
#
#
# Elastic Compliance Matrix: (Units=1/GPa)
#
#
# Indices 1 2 3 4 5 6 
#
# 1 0.036488 -0.006519 -0.018827 0.000000 -0.012369 0.000000
# 2 -0.006519 0.021325 -0.006496 0.000000 0.019342 0.000000
# 3 -0.018827 -0.006496 0.034245 0.000000 -0.000055 0.000000
# 4 0.000000 0.000000 0.000000 0.047815 0.000000 -0.008964
# 5 -0.012369 0.019342 -0.000055 0.000000 0.068027 0.000000
# 6 0.000000 0.000000 0.000000 -0.008964 0.000000 0.050382
#
#
# Mechanical properties :
#
#
# Convention : Reuss Voigt Hill
#
# Bulk Modulus (GPa) = 35.24376 37.09431 36.16903
# Shear Modulus (GPa) = 15.08639 19.07020 17.07830
#
# Velocity S-wave (km/s) = 2.85924 3.21467 3.04215
# Velocity P-wave (km/s) = 5.47712 5.82066 5.65150
#
# Compressibility (1/GPa) = 0.02837382
#
# Stress axis : x y z
#
# Youngs Moduli (GPa) = 27.40596 46.89435 29.20110
#
# Poissons Ratio (x) = 0.30570 0.54977
# Poissons Ratio (y) = 0.17866 0.18970
# Poissons Ratio (z) = 0.51597 0.30464
#
# Static dielectric constant tensor:
#      x y z
#    x 1.638550 0.000000 0.026750 
#    y 0.000000 1.659210 0.000000 
#    z 0.026750 0.000000 1.639430 
# 
# From -- ./inp_files/277896.got.cif
#   From: 2010.05.17/outbox.cif.g08.bks.cpg/sg12_139_cif.got.tgz:277896.got - 2010.06.03 13:09:07.
