data_PCOD9205483
_publ_section_title
;
Structure prediction by ZEFSAII (Michael W. Deem and Ramdas Pophale) SiO2 
 PCOD9205483
Probable space group: C 2/M
;
_chemical_formula_sum "Si O2"
_cell_formula_units_Z 64
_cell_length_a 20.523030
_cell_length_b 17.862397
_cell_length_c 25.420240
_cell_angle_alpha 90.000000
_cell_angle_beta 19.247437
_cell_angle_gamma 90.000000
_cell_volume 3071.933808
_symmetry_space_group_name_H-M "C 2/M"
_symmetry_group_IT_number 12
_symmetry_cell_setting 'monoclinic'
loop_
_space_group_symop_operation_xyz
x,y,z
-x,y,-z
-x,-y,-z
x,-y,z
1/2+x,1/2+y,z
1/2-x,1/2+y,-z
1/2-x,1/2-y,-z
1/2+x,1/2-y,z
loop_
_atom_site_type_symbol
_atom_site_label
_atom_site_fract_x
_atom_site_fract_y
_atom_site_fract_z
Si Si1 0.583050 0.868522 0.687334
Si Si2 0.092611 0.227771 0.823441
Si Si3 0.786242 0.919376 0.316521
Si Si4 0.625933 0.666411 0.452004
Si Si5 0.781743 0.918090 0.963375
Si Si6 0.663450 0.271280 0.147717
Si Si7 0.813647 0.261752 0.752639
Si Si8 0.496710 0.084223 0.636955
O O1 0.780089 0.879123 0.571515
O O2 0.522700 0.780027 0.726969
O O3 0.592940 0.900557 0.620830
O O4 0.402138 0.904649 0.857542
O O5 0.218699 0.152950 0.716296
O O6 0.187071 0.293645 0.717421
O O7 0.123970 0.246677 0.860354
O O8 0.862743 0.223311 0.984778
O O9 0.653780 0.910563 0.469643
O O10 0.013277 0.921886 0.161352
O O11 0.735252 0.000000 0.330454
O O12 0.500000 0.630650 0.500000
O O13 0.488186 0.730536 0.582242
O O14 0.810242 0.848760 0.902336
O O15 0.754724 0.000000 0.958077
O O16 0.665138 0.282038 0.209009
O O17 0.843809 0.348501 0.744895
O O18 0.413862 0.000000 0.699914
#
# Coordination Sequence:
#
# PCOD9205483 Si02
#       8
#     8   8   8   8   8   8   8   8
#     4  11  21  37  63  85 115 153 193 246 285 337
#     4  11  19  39  57  84 119 151 196 233 285 339
#     4  10  21  35  56  86 122 154 191 234 284 347
#     4  10  21  36  57  86 112 145 192 242 287 340
#     4  11  22  37  58  86 115 148 189 243 299 343
#     4  11  22  36  61  88 113 150 200 242 284 336
#     4  10  23  35  58  86 118 155 190 240 283 343
#     4  10  22  37  55  87 122 155 192 234 286 344
#
# _framework density 20.833783
#
# number of rings (size 3 to 8) (size 9 to 14) (size 15 to 20)
#    0.000    1.500    3.750    1.875    1.750    1.500 
#    0.000    1.250    0.000    5.250    0.000    0.000 
#    0.000    0.000    0.000    0.000    0.000    0.000 
#
# Total GULP energy -178626.953818 kJ/mol
# GULP energy per Si atom -5582.092307 kJ/mol
# Density = 2.078636 g / cm^3
# Si number density = 20.833783 Si / 1000 Ang^3
#
#
#
# Elastic Constant Matrix: (Units=GPa)
#
#
# Indices 1 2 3 4 5 6 
#
# 1 98.6484 11.2536 2.4750 -0.0284 0.2849 0.0298
# 2 11.2536 55.8483 -1.3355 -0.0364 10.3794 0.0242
# 3 2.4750 -1.3355 32.4524 -0.0876 -0.7279 0.1016
# 4 -0.0284 -0.0364 -0.0876 9.4711 0.0377 7.9638
# 5 0.2849 10.3794 -0.7279 0.0377 37.4305 -0.0052
# 6 0.0298 0.0242 0.1016 7.9638 -0.0052 13.1153
#
#
#
# Elastic Compliance Matrix: (Units=1/GPa)
#
#
# Indices 1 2 3 4 5 6 
#
# 1 0.010410 -0.002215 -0.000873 0.000047 0.000518 -0.000041
# 2 -0.002215 0.019364 0.000847 0.000266 -0.005337 -0.000201
# 3 -0.000873 0.000847 0.030930 0.000994 0.000372 -0.000843
# 4 0.000047 0.000266 0.000994 0.215771 -0.000291 -0.131027
# 5 0.000518 -0.005337 0.000372 -0.000291 0.028200 0.000194
# 6 -0.000041 -0.000201 -0.000843 -0.131027 0.000194 0.155815
#
#
# Mechanical properties :
#
#
# Convention : Reuss Voigt Hill
#
# Bulk Modulus (GPa) = 17.78633 23.52612 20.65622
# Shear Modulus (GPa) = 10.33673 23.64046 16.98860
#
# Velocity S-wave (km/s) = 2.22986 3.37221 2.85868
# Velocity P-wave (km/s) = 3.89686 5.14580 4.56425
#
# Compressibility (1/GPa) = 0.05622296
#
# Stress axis : x y z
#
# Youngs Moduli (GPa) = 96.06058 51.64151 32.33157
#
# Poissons Ratio (x) = 0.11437 0.02823
# Poissons Ratio (y) = 0.21275 -0.02740
# Poissons Ratio (z) = 0.08388 -0.04376
#
# Static dielectric constant tensor:
#      x y z
#    x 1.774070 0.000010 -0.001960 
#    y 0.000010 1.776720 0.000030 
#    z -0.001960 0.000030 1.759190 
# 
# From -- ./inp_files/112810.got.cif
#   From: 2010.05.17/outbox.cif.g08.bks.cpg/sg12_57_cif.got.tgz:112810.got - 2010.06.03 13:09:07.
