data_PCOD9205530
_publ_section_title
;
Structure prediction by ZEFSAII (Michael W. Deem and Ramdas Pophale) SiO2 
 PCOD9205530
Probable space group: C 2/M
;
_chemical_formula_sum "Si O2"
_cell_formula_units_Z 56
_cell_length_a 19.877824
_cell_length_b 10.416022
_cell_length_c 28.196583
_cell_angle_alpha 90.000000
_cell_angle_beta 150.264935
_cell_angle_gamma 90.000000
_cell_volume 2895.611463
_symmetry_space_group_name_H-M "C 2/M"
_symmetry_group_IT_number 12
_symmetry_cell_setting 'monoclinic'
loop_
_space_group_symop_operation_xyz
x,y,z
-x,y,-z
-x,-y,-z
x,-y,z
1/2+x,1/2+y,z
1/2-x,1/2+y,-z
1/2-x,1/2-y,-z
1/2+x,1/2-y,z
loop_
_atom_site_type_symbol
_atom_site_label
_atom_site_fract_x
_atom_site_fract_y
_atom_site_fract_z
Si Si1 0.374306 0.849489 0.085193
Si Si2 0.652823 0.148733 0.611215
Si Si3 0.170733 0.652424 0.222300
Si Si4 0.683386 0.857919 0.843449
Si Si5 0.840207 0.360211 0.896206
Si Si6 0.570046 0.143228 0.373439
Si Si7 0.247217 0.857033 0.432046
O O1 0.515986 0.818970 0.145312
O O2 0.395919 0.845120 0.155505
O O3 0.339480 0.000000 0.052267
O O4 0.250000 0.750000 0.000000
O O5 0.500000 0.177083 0.500000
O O6 0.721681 0.252702 0.687347
O O7 0.737832 0.153086 0.614479
O O8 0.654862 0.000000 0.630393
O O9 0.193815 0.500000 0.247110
O O10 0.183405 0.668894 0.173515
O O11 0.787745 0.745045 0.900240
O O12 0.583068 0.847636 0.737263
O O13 0.746154 0.000000 0.881990
O O14 0.778640 0.500000 0.869247
O O15 0.000000 0.368327 0.000000
O O16 0.607928 0.155405 0.451928
O O17 0.652756 0.250154 0.396357
O O18 0.615730 0.000000 0.386821
O O19 0.195583 0.000000 0.411903
#
# Coordination Sequence:
#
# PCOD9205530 Si02
#       7
#     8   8   8   8   8   8   8
#     4  10  21  38  60  87 116 149 192 240 293 350
#     4  10  22  37  56  82 114 153 194 235 281 338
#     4  10  22  40  61  86 117 154 195 239 290 346
#     4  10  21  35  57  85 111 142 185 233 283 336
#     4  10  22  40  60  83 114 151 189 233 287 344
#     4   9  18  33  54  78 105 140 177 224 277 323
#     4   9  18  33  52  77 108 141 181 223 270 325
#
# _framework density 19.339611999999999
#
# number of rings (size 3 to 8) (size 9 to 14) (size 15 to 20)
#    0.000    2.286    0.000    1.714    2.000    5.714 
#    0.000    0.000    0.000    0.000    0.000    0.000 
#    0.000    0.000    0.000    0.000    0.000    0.000 
#
# Total GULP energy -156072.157064 kJ/mol
# GULP energy per Si atom -5574.005609 kJ/mol
# Density = 1.929559 g / cm^3
# Si number density = 19.339612 Si / 1000 Ang^3
#
#
#
# Elastic Constant Matrix: (Units=GPa)
#
#
# Indices 1 2 3 4 5 6 
#
# 1 41.1426 31.6485 -4.3869 0.0000 0.1253 0.0000
# 2 31.6485 87.6139 41.4423 0.0001 1.5948 0.0000
# 3 -4.3869 41.4423 61.2378 -0.0006 -9.7587 0.0001
# 4 0.0000 0.0001 -0.0006 25.1049 -0.0001 10.5773
# 5 0.1253 1.5948 -9.7587 -0.0001 24.5726 0.0000
# 6 0.0000 0.0000 0.0001 10.5773 0.0000 14.7116
#
#
#
# Elastic Compliance Matrix: (Units=1/GPa)
#
#
# Indices 1 2 3 4 5 6 
#
# 1 0.051523 -0.031671 0.027127 0.000001 0.012566 -0.000001
# 2 -0.031671 0.037122 -0.029624 -0.000001 -0.014012 0.000001
# 3 0.027127 -0.029624 0.041213 0.000002 0.018151 -0.000002
# 4 0.000001 -0.000001 0.000002 0.057143 0.000001 -0.041085
# 5 0.012566 -0.014012 0.018151 0.000001 0.048750 -0.000001
# 6 -0.000001 0.000001 -0.000002 -0.041085 -0.000001 0.097513
#
#
# Mechanical properties :
#
#
# Convention : Reuss Voigt Hill
#
# Bulk Modulus (GPa) = 16.25458 36.37799 26.31629
# Shear Modulus (GPa) = 11.84536 20.96384 16.40460
#
# Velocity S-wave (km/s) = 2.47754 3.29596 2.91561
# Velocity P-wave (km/s) = 4.07521 5.77368 4.99714
#
# Compressibility (1/GPa) = 0.06152111
#
# Stress axis : x y z
#
# Youngs Moduli (GPa) = 19.40892 26.93851 24.26408
#
# Poissons Ratio (x) = 0.85318 -0.65821
# Poissons Ratio (y) = 0.61471 0.71879
# Poissons Ratio (z) = -0.52650 0.79802
#
# Static dielectric constant tensor:
#      x y z
#    x 1.662240 0.000000 -0.009720 
#    y 0.000000 1.692950 0.000000 
#    z -0.009720 0.000000 1.694800 
# 
# From -- ./inp_files/380754.got.cif
#   From: 2010.05.17/outbox.cif.g08.bks.cpg/sg12_191_cif.got.tgz:380754.got - 2010.06.03 13:09:07.
