data_PCOD9205102
_publ_section_title
;
Structure prediction by ZEFSAII (Michael W. Deem and Ramdas Pophale) SiO2 
 PCOD9205102
Probable space group: C 2/M
;
_chemical_formula_sum "Si O2"
_cell_formula_units_Z 64
_cell_length_a 25.391561
_cell_length_b 7.506976
_cell_length_c 19.372279
_cell_angle_alpha 90.000000
_cell_angle_beta 49.620507
_cell_angle_gamma 90.000000
_cell_volume 2812.931394
_symmetry_space_group_name_H-M "C 2/M"
_symmetry_group_IT_number 12
_symmetry_cell_setting 'monoclinic'
loop_
_space_group_symop_operation_xyz
x,y,z
-x,y,-z
-x,-y,-z
x,-y,z
1/2+x,1/2+y,z
1/2-x,1/2+y,-z
1/2-x,1/2-y,-z
1/2+x,1/2-y,z
loop_
_atom_site_type_symbol
_atom_site_label
_atom_site_fract_x
_atom_site_fract_y
_atom_site_fract_z
Si Si1 0.720709 0.714583 0.813322
Si Si2 0.820949 0.288126 0.841712
Si Si3 0.926972 0.218353 0.031382
Si Si4 0.090675 0.213191 0.110474
Si Si5 0.653503 0.711097 0.395294
Si Si6 0.823668 0.213214 0.470254
Si Si7 0.969712 0.218395 0.314597
Si Si8 0.554832 0.296104 0.365639
O O1 0.719454 0.500000 0.813159
O O2 0.750492 0.767912 0.863687
O O3 0.777356 0.770237 0.709341
O O4 0.642322 0.775486 0.869648
O O5 0.826526 0.500000 0.828484
O O6 0.839895 0.249153 0.904541
O O7 0.881665 0.203866 0.743337
O O8 0.915699 0.277150 0.962003
O O9 0.914607 0.000000 0.888536
O O10 0.000000 0.277774 0.000000
O O11 0.025940 0.279840 0.211315
O O12 0.928244 0.000000 0.031058
O O13 0.639860 0.500000 0.413077
O O14 0.667859 0.783465 0.458985
O O15 0.588841 0.784869 0.405421
O O16 0.750000 0.250000 0.500000
O O17 0.890842 0.272866 0.370163
O O18 0.828625 0.000000 0.470210
O O19 0.993508 0.279549 0.370979
O O20 0.973254 0.000000 0.311634
O O21 0.535732 0.500000 0.397112
#
# Coordination Sequence:
#
# PCOD9205102 Si02
#       8
#     8   8   8   8   8   8   8   8
#     4   9  18  32  51  74  98 125 157 195 240 287
#     4   9  16  27  45  72 102 126 151 188 237 291
#     4   9  18  32  50  72  95 122 164 210 240 271
#     4   9  17  31  51  73  96 124 159 197 239 285
#     4   9  18  32  51  74  99 126 156 195 241 286
#     4  10  21  35  49  70  99 129 164 200 234 278
#     4   8  15  29  50  73  95 121 155 196 238 280
#     4   8  14  28  50  73  94 120 156 196 240 286
#
# _framework density 22.752065000000002
#
# number of rings (size 3 to 8) (size 9 to 14) (size 15 to 20)
#    0.000    3.125    0.000    1.125    0.000    3.000 
#    0.000    8.125    0.000    1.500    0.000   12.250 
#    0.000    0.000    0.000    0.000    0.000    0.000 
#
# Total GULP energy -178508.296696 kJ/mol
# GULP energy per Si atom -5578.384272 kJ/mol
# Density = 2.270028 g / cm^3
# Si number density = 22.752065 Si / 1000 Ang^3
#
#
#
# Elastic Constant Matrix: (Units=GPa)
#
#
# Indices 1 2 3 4 5 6 
#
# 1 92.8759 2.6784 25.8428 -0.3013 -23.4784 0.6698
# 2 2.6784 60.6566 0.3727 -0.0616 -0.5270 0.1218
# 3 25.8428 0.3727 56.2907 -0.3090 -9.2459 0.6701
# 4 -0.3013 -0.0616 -0.3090 5.5854 0.0798 -5.2883
# 5 -23.4784 -0.5270 -9.2459 0.0798 40.4289 -0.1750
# 6 0.6698 0.1218 0.6701 -5.2883 -0.1750 23.4333
#
#
#
# Elastic Compliance Matrix: (Units=1/GPa)
#
#
# Indices 1 2 3 4 5 6 
#
# 1 0.014003 -0.000525 -0.005286 0.000221 0.006915 -0.000145
# 2 -0.000525 0.016508 0.000123 0.000115 -0.000062 -0.000049
# 3 -0.005286 0.000123 0.020462 0.000540 0.001609 -0.000301
# 4 0.000221 0.000115 0.000540 0.227716 0.000026 0.051367
# 5 0.006915 -0.000062 0.001609 0.000026 0.029118 -0.000020
# 6 -0.000145 -0.000049 -0.000301 0.051367 -0.000020 0.054279
#
#
# Mechanical properties :
#
#
# Convention : Reuss Voigt Hill
#
# Bulk Modulus (GPa) = 25.25539 29.73454 27.49497
# Shear Modulus (GPa) = 12.93116 25.95147 19.44132
#
# Velocity S-wave (km/s) = 2.38660 3.38097 2.92633
# Velocity P-wave (km/s) = 4.32653 5.32340 4.85064
#
# Compressibility (1/GPa) = 0.03959551
#
# Stress axis : x y z
#
# Youngs Moduli (GPa) = 71.41311 60.57534 48.87134
#
# Poissons Ratio (x) = 0.03182 0.25836
# Poissons Ratio (y) = 0.03751 -0.00600
# Poissons Ratio (z) = 0.37752 -0.00744
#
# Static dielectric constant tensor:
#      x y z
#    x 1.856130 -0.000010 -0.000440 
#    y -0.000010 1.900190 0.000010 
#    z -0.000440 0.000010 1.854780 
# 
# From -- ./inp_files/324119.got.cif
#   From: 2010.05.17/outbox.cif.g08.bks.cpg/sg12_163_cif.got.tgz:324119.got - 2010.06.03 13:09:07.
