data_PCOD9205691
_publ_section_title
;
Structure prediction by ZEFSAII (Michael W. Deem and Ramdas Pophale) SiO2 
 PCOD9205691
Probable space group: C 2/M
;
_chemical_formula_sum "Si O2"
_cell_formula_units_Z 56
_cell_length_a 22.618978
_cell_length_b 16.796591
_cell_length_c 22.606001
_cell_angle_alpha 90.000000
_cell_angle_beta 161.108615
_cell_angle_gamma 90.000000
_cell_volume 2780.746478
_symmetry_space_group_name_H-M "C 2/M"
_symmetry_group_IT_number 12
_symmetry_cell_setting 'monoclinic'
loop_
_space_group_symop_operation_xyz
x,y,z
-x,y,-z
-x,-y,-z
x,-y,z
1/2+x,1/2+y,z
1/2-x,1/2+y,-z
1/2-x,1/2-y,-z
1/2+x,1/2-y,z
loop_
_atom_site_type_symbol
_atom_site_label
_atom_site_fract_x
_atom_site_fract_y
_atom_site_fract_z
Si Si1 0.858552 0.589275 0.921320
Si Si2 0.289481 0.659508 0.519067
Si Si3 0.050521 0.591363 0.731928
Si Si4 0.208938 0.240621 0.717992
Si Si5 0.862613 0.410067 0.315087
Si Si6 0.610682 0.187732 0.233308
Si Si7 0.116570 0.187997 0.905445
O O1 0.777143 0.500000 0.850284
O O2 0.737126 0.666612 0.789651
O O3 0.000000 0.584097 0.000000
O O4 0.972505 0.616020 0.086774
O O5 0.250000 0.750000 0.500000
O O6 0.265119 0.656825 0.425234
O O7 0.485327 0.643212 0.734131
O O8 0.121672 0.615576 0.391707
O O9 0.079987 0.500000 0.770481
O O10 0.019846 0.604414 0.633100
O O11 0.241220 0.632972 0.926587
O O12 0.253970 0.328967 0.785776
O O13 0.319532 0.219968 0.763323
O O14 0.000000 0.242502 0.500000
O O15 0.777514 0.500000 0.229194
O O16 0.000000 0.414200 0.500000
O O17 0.507543 0.259916 0.168124
O O18 0.250000 0.250000 0.000000
#
# Coordination Sequence:
#
# PCOD9205691 Si02
#       7
#     8   8   8   8   8   8   8
#     4   9  19  37  58  84 123 166 205 259 324 382
#     4  10  22  38  65  92 120 169 219 261 322 383
#     4  11  23  42  64  94 135 168 209 275 330 377
#     4  10  21  35  63  94 128 166 217 270 325 394
#     4   9  20  36  61  92 126 169 211 259 323 383
#     4  10  21  38  61  94 123 165 222 266 320 390
#     4  11  22  40  65  93 125 170 215 264 319 391
#
# _framework density 20.138477000000002
#
# number of rings (size 3 to 8) (size 9 to 14) (size 15 to 20)
#    0.000    2.000    2.857    0.857    8.000    2.571 
#    0.000    0.714    0.000    5.571    0.000    0.000 
#    0.000    0.000    0.000    0.000    0.000    0.000 
#
# Total GULP energy -155980.363269 kJ/mol
# GULP energy per Si atom -5570.727260 kJ/mol
# Density = 2.009264 g / cm^3
# Si number density = 20.138477 Si / 1000 Ang^3
#
#
#
# Elastic Constant Matrix: (Units=GPa)
#
#
# Indices 1 2 3 4 5 6 
#
# 1 57.6149 38.5124 9.1800 0.1210 -5.2241 -0.0057
# 2 38.5124 139.2503 29.9476 -0.0953 -9.4203 0.0026
# 3 9.1800 29.9476 79.4833 -0.1447 -11.1582 0.0058
# 4 0.1210 -0.0953 -0.1447 775.2838 0.0118 -30.7350
# 5 -5.2241 -9.4203 -11.1582 0.0118 29.8194 0.0033
# 6 -0.0057 0.0026 0.0058 -30.7350 0.0033 24.2907
#
#
#
# Elastic Compliance Matrix: (Units=1/GPa)
#
#
# Indices 1 2 3 4 5 6 
#
# 1 0.021400 -0.005784 -0.000024 -0.000004 0.001913 0.000000
# 2 -0.005784 0.009437 -0.002756 0.000002 0.000937 0.000000
# 3 -0.000024 -0.002756 0.014248 0.000002 0.004457 -0.000001
# 4 -0.000004 0.000002 0.000002 0.001358 0.000000 0.001718
# 5 0.001913 0.000937 0.004457 0.000000 0.035834 -0.000006
# 6 0.000000 0.000000 -0.000001 0.001718 -0.000006 0.043342
#
#
# Mechanical properties :
#
#
# Convention : Reuss Voigt Hill
#
# Bulk Modulus (GPa) = 35.76876 47.95872 41.86374
# Shear Modulus (GPa) = 32.88034 179.12603 106.00318
#
# Velocity S-wave (km/s) = 4.04507 9.44141 7.26302
# Velocity P-wave (km/s) = 6.29418 11.94654 9.54821
#
# Compressibility (1/GPa) = 0.02795736
#
# Stress axis : x y z
#
# Youngs Moduli (GPa) = 46.72844 105.96430 70.18473
#
# Poissons Ratio (x) = 0.61291 0.00167
# Poissons Ratio (y) = 0.27028 0.19344
# Poissons Ratio (z) = 0.00111 0.29206
#
# Static dielectric constant tensor:
#      x y z
#    x 1.721510 0.007700 -0.089480 
#    y 0.007700 -21.238180 0.014450 
#    z -0.089480 0.014450 1.628500 
# 
# From -- ./inp_files/322743.got.cif
#   From: 2010.05.17/outbox.cif.g08.bks.cpg/sg12_162_cif.got.tgz:322743.got - 2010.06.03 13:09:07.
