data_PCOD9205504
_publ_section_title
;
Structure prediction by ZEFSAII (Michael W. Deem and Ramdas Pophale) SiO2 
 PCOD9205504
Probable space group: C 2/M
;
_chemical_formula_sum "Si O2"
_cell_formula_units_Z 40
_cell_length_a 31.439095
_cell_length_b 7.449829
_cell_length_c 20.255779
_cell_angle_alpha 90.000000
_cell_angle_beta 154.545497
_cell_angle_gamma 90.000000
_cell_volume 2039.040652
_symmetry_space_group_name_H-M "C 2/M"
_symmetry_group_IT_number 12
_symmetry_cell_setting 'monoclinic'
loop_
_space_group_symop_operation_xyz
x,y,z
-x,y,-z
-x,-y,-z
x,-y,z
1/2+x,1/2+y,z
1/2-x,1/2+y,-z
1/2-x,1/2-y,-z
1/2+x,1/2-y,z
loop_
_atom_site_type_symbol
_atom_site_label
_atom_site_fract_x
_atom_site_fract_y
_atom_site_fract_z
Si Si1 0.165992 0.000000 0.227228
Si Si2 0.392391 0.718847 0.373492
Si Si3 0.992597 0.713415 0.213504
Si Si4 0.221709 0.714074 0.035737
Si Si5 0.332637 0.712328 0.438006
Si Si6 0.990957 0.000000 0.876679
O O1 0.237195 0.172086 0.322813
O O2 0.101270 0.000000 0.202817
O O3 0.089680 0.000000 0.059364
O O4 0.500000 0.779413 0.500000
O O5 0.393479 0.500000 0.372944
O O6 0.305993 0.782652 0.203502
O O7 0.369002 0.768012 0.415924
O O8 0.988473 0.500000 0.194711
O O9 0.010183 0.827204 0.172345
O O10 0.079881 0.750869 0.387640
O O11 0.888011 0.775292 0.098463
O O12 0.220071 0.500000 0.041293
O O13 0.250000 0.750000 0.000000
O O14 0.311064 0.500000 0.406776
#
# Coordination Sequence:
#
# PCOD9205504 Si02
#       6
#     4   8   8   8   8   4
#     4  11  26  46  67 100 129 159 225 271 320 407
#     4   9  18  34  58  87 124 170 212 255 315 382
#     4  11  23  42  65  97 131 170 220 266 318 393
#     4  10  21  35  56  89 127 169 214 261 313 381
#     4  11  22  42  68  95 130 172 212 275 329 376
#     4  11  26  46  70  94 130 175 205 271 341 381
#
# _framework density 19.617069999999998
#
# number of rings (size 3 to 8) (size 9 to 14) (size 15 to 20)
#    0.000    1.600    2.000    2.400    1.400    5.600 
#    1.800    2.500    0.000    0.000    0.000    0.000 
#    0.000    0.000    0.000    0.000    0.000    0.000 
#
# Total GULP energy -111829.764252 kJ/mol
# GULP energy per Si atom -5591.488213 kJ/mol
# Density = 1.957242 g / cm^3
# Si number density = 19.617070 Si / 1000 Ang^3
#
#
#
# Elastic Constant Matrix: (Units=GPa)
#
#
# Indices 1 2 3 4 5 6 
#
# 1 192.1170 62.7121 131.4022 0.0000 -2.4264 0.0000
# 2 62.7121 115.7383 53.3634 0.0000 5.6555 0.0000
# 3 131.4022 53.3634 199.6487 0.0000 5.0401 0.0000
# 4 0.0000 0.0000 0.0000 -15.7439 0.0000 -4.1433
# 5 -2.4264 5.6555 5.0401 0.0000 37.2116 0.0000
# 6 0.0000 0.0000 0.0000 -4.1433 0.0000 28.7903
#
#
#
# Elastic Compliance Matrix: (Units=1/GPa)
#
#
# Indices 1 2 3 4 5 6 
#
# 1 0.010327 -0.002890 -0.006073 0.000000 0.001935 0.000000
# 2 -0.002890 0.010712 -0.000918 0.000000 -0.001692 0.000000
# 3 -0.006073 -0.000918 0.009290 0.000000 -0.001515 0.000000
# 4 0.000000 0.000000 0.000000 -0.061199 0.000000 -0.008807
# 5 0.001935 -0.001692 -0.001515 0.000000 0.027462 0.000000
# 6 0.000000 0.000000 0.000000 -0.008807 0.000000 0.033466
#
#
# Mechanical properties :
#
#
# Convention : Reuss Voigt Hill
#
# Bulk Modulus (GPa) = 94.64680 111.38437 103.01559
# Shear Modulus (GPa) = 93.73273 27.38669 60.55971
#
# Velocity S-wave (km/s) = 6.91989 3.74045 5.56219
# Velocity P-wave (km/s) = 10.59238 8.69236 9.68906
#
# Compressibility (1/GPa) = 0.01056560
#
# Stress axis : x y z
#
# Youngs Moduli (GPa) = 96.83514 93.35125 107.64602
#
# Poissons Ratio (x) = 0.26978 0.65376
# Poissons Ratio (y) = 0.27985 0.09887
# Poissons Ratio (z) = 0.58810 0.08574
#
# Static dielectric constant tensor:
#      x y z
#    x 1.646150 0.000000 0.001360 
#    y 0.000000 1.701940 0.000000 
#    z 0.001360 0.000000 1.661970 
# 
# From -- ./inp_files/292351.got.cif
#   From: 2010.05.17/outbox.cif.g08.bks.cpg/sg12_147_cif.got.tgz:292351.got - 2010.06.03 13:09:07.
