data_PCOD9205421
_publ_section_title
;
Structure prediction by ZEFSAII (Michael W. Deem and Ramdas Pophale) SiO2 
 PCOD9205421
Probable space group: C 2/M
;
_chemical_formula_sum "Si O2"
_cell_formula_units_Z 40
_cell_length_a 15.227358
_cell_length_b 8.636438
_cell_length_c 15.735080
_cell_angle_alpha 90.000000
_cell_angle_beta 104.186535
_cell_angle_gamma 90.000000
_cell_volume 2006.214284
_symmetry_space_group_name_H-M "C 2/M"
_symmetry_group_IT_number 12
_symmetry_cell_setting 'monoclinic'
loop_
_space_group_symop_operation_xyz
x,y,z
-x,y,-z
-x,-y,-z
x,-y,z
1/2+x,1/2+y,z
1/2-x,1/2+y,-z
1/2-x,1/2-y,-z
1/2+x,1/2-y,z
loop_
_atom_site_type_symbol
_atom_site_label
_atom_site_fract_x
_atom_site_fract_y
_atom_site_fract_z
Si Si1 0.759234 0.316461 0.596596
Si Si2 0.441058 0.681891 0.715474
Si Si3 0.202636 0.675332 0.907834
Si Si4 0.476988 0.676407 0.093072
Si Si5 0.860971 0.312953 0.282917
O O1 0.746381 0.500000 0.592993
O O2 0.750000 0.250000 0.500000
O O3 0.858464 0.273999 0.655858
O O4 0.685700 0.239502 0.641673
O O5 0.431069 0.500000 0.692871
O O6 0.443994 0.696015 0.819174
O O7 0.539158 0.741162 0.706479
O O8 0.234861 0.500000 0.911208
O O9 0.096796 0.694457 0.904380
O O10 0.202988 0.739960 0.811840
O O11 0.250000 0.750000 0.000000
O O12 0.440590 0.500000 0.100243
O O13 0.500000 0.684486 0.000000
O O14 0.867268 0.500000 0.280235
#
# Coordination Sequence:
#
# PCOD9205421 Si02
#       5
#     8   8   8   8   8
#     4  12  26  44  67  95 124 160 209 260 316 376
#     4  10  21  40  64  92 128 165 206 256 312 372
#     4  10  21  35  55  84 120 160 203 248 298 358
#     4   9  19  35  56  84 119 160 201 244 299 359
#     4  10  22  42  64  90 126 166 208 258 312 367
#
# _framework density 19.93805
#
# number of rings (size 3 to 8) (size 9 to 14) (size 15 to 20)
#    0.000    1.800    0.000    3.600    2.800    4.400 
#    0.000    4.000    0.000    0.000    0.000    0.000 
#    0.000    0.000    0.000    0.000    0.000    0.000 
#
# Total GULP energy -111606.626655 kJ/mol
# GULP energy per Si atom -5580.331333 kJ/mol
# Density = 1.989267 g / cm^3
# Si number density = 19.938050 Si / 1000 Ang^3
#
#
#
# Elastic Constant Matrix: (Units=GPa)
#
#
# Indices 1 2 3 4 5 6 
#
# 1 51.7615 0.8593 34.9598 0.0000 -7.9783 0.0000
# 2 0.8593 56.4356 23.0563 0.0000 -5.9083 0.0000
# 3 34.9598 23.0563 133.0329 0.0000 -16.9973 0.0000
# 4 0.0000 0.0000 0.0000 29.7711 0.0000 3.5771
# 5 -7.9783 -5.9083 -16.9973 0.0000 36.0076 0.0000
# 6 0.0000 0.0000 0.0000 3.5771 0.0000 34.0662
#
#
#
# Elastic Compliance Matrix: (Units=1/GPa)
#
#
# Indices 1 2 3 4 5 6 
#
# 1 0.024022 0.002535 -0.006405 0.000000 0.002715 0.000000
# 2 0.002535 0.019432 -0.003783 0.000000 0.001964 0.000000
# 3 -0.006405 -0.003783 0.010211 0.000000 0.002780 0.000000
# 4 0.000000 0.000000 0.000000 0.034019 0.000000 -0.003572
# 5 0.002715 0.001964 0.002780 0.000000 0.030008 0.000000
# 6 0.000000 0.000000 0.000000 -0.003572 0.000000 0.029730
#
#
# Mechanical properties :
#
#
# Convention : Reuss Voigt Hill
#
# Bulk Modulus (GPa) = 26.06962 39.88676 32.97819
# Shear Modulus (GPa) = 28.48779 32.12596 30.30687
#
# Velocity S-wave (km/s) = 3.78407 4.01844 3.90301
# Velocity P-wave (km/s) = 5.67414 6.44820 6.07352
#
# Compressibility (1/GPa) = 0.03835883
#
# Stress axis : x y z
#
# Youngs Moduli (GPa) = 41.62872 51.46171 97.93333
#
# Poissons Ratio (x) = -0.13047 0.62729
# Poissons Ratio (y) = -0.10554 0.37049
# Poissons Ratio (z) = 0.26664 0.19468
#
# Static dielectric constant tensor:
#      x y z
#    x 1.685640 0.000000 0.006880 
#    y 0.000000 1.701100 0.000000 
#    z 0.006880 0.000000 1.731530 
# 
# From -- ./inp_files/211256.got.cif
#   From: 2010.05.17/outbox.cif.g08.bks.cpg/sg12_106_cif.got.tgz:211256.got - 2010.06.03 13:09:07.
