data_PCOD9205581
_publ_section_title
;
Structure prediction by ZEFSAII (Michael W. Deem and Ramdas Pophale) SiO2 
 PCOD9205581
Probable space group: C 2/M
;
_chemical_formula_sum "Si O2"
_cell_formula_units_Z 48
_cell_length_a 14.027523
_cell_length_b 19.092383
_cell_length_c 11.096988
_cell_angle_alpha 90.000000
_cell_angle_beta 125.930480
_cell_angle_gamma 90.000000
_cell_volume 2406.502147
_symmetry_space_group_name_H-M "C 2/M"
_symmetry_group_IT_number 12
_symmetry_cell_setting 'monoclinic'
loop_
_space_group_symop_operation_xyz
x,y,z
-x,y,-z
-x,-y,-z
x,-y,z
1/2+x,1/2+y,z
1/2-x,1/2+y,-z
1/2-x,1/2-y,-z
1/2+x,1/2-y,z
loop_
_atom_site_type_symbol
_atom_site_label
_atom_site_fract_x
_atom_site_fract_y
_atom_site_fract_z
Si Si1 0.797096 0.745235 0.171379
Si Si2 0.935631 0.294692 0.611835
Si Si3 0.038665 0.075145 0.168365
Si Si4 0.082630 0.776222 0.165035
Si Si5 0.722918 0.077966 0.516393
Si Si6 0.868547 0.845886 0.417568
O O1 0.700544 0.705192 0.180683
O O2 0.813980 0.821173 0.249554
O O3 0.923685 0.707982 0.273722
O O4 0.750000 0.750000 0.000000
O O5 0.889744 0.278410 0.711741
O O6 0.877222 0.366157 0.526696
O O7 0.892076 0.228689 0.501866
O O8 0.015884 0.157702 0.178733
O O9 0.176035 0.073969 0.306515
O O10 0.991958 0.000000 0.185401
O O11 0.000000 0.073253 0.000000
O O12 0.000000 0.746152 0.000000
O O13 0.791650 0.105871 0.448074
O O14 0.676416 0.000000 0.462118
O O15 0.000000 0.877186 0.500000
#
# Coordination Sequence:
#
# PCOD9205581 Si02
#       6
#     8   8   8   8   8   8
#     4  11  22  35  58  90 115 150 203 255 299 357
#     4  11  21  38  58  89 121 151 205 253 301 360
#     4   9  19  33  54  86 117 150 195 243 298 360
#     4  11  19  34  63  85 115 155 193 252 303 350
#     4  11  21  36  59  85 124 167 197 243 316 373
#     4  10  21  35  58  86 117 149 200 262 300 347
#
# _framework density 19.945962000000002
#
# number of rings (size 3 to 8) (size 9 to 14) (size 15 to 20)
#    0.000    1.500    5.000    1.500    0.000    0.333 
#    0.000    0.833    0.000   12.000    0.000    0.000 
#    0.000    0.000    0.000    0.000    0.000    0.000 
#
# Total GULP energy -133660.208547 kJ/mol
# GULP energy per Si atom -5569.175356 kJ/mol
# Density = 1.990056 g / cm^3
# Si number density = 19.945962 Si / 1000 Ang^3
#
#
#
# Elastic Constant Matrix: (Units=GPa)
#
#
# Indices 1 2 3 4 5 6 
#
# 1 89.9639 7.9472 27.4149 0.0000 2.5521 0.0000
# 2 7.9472 83.3990 26.8754 0.0000 -4.2316 0.0000
# 3 27.4149 26.8754 127.7565 0.0000 -2.3391 0.0000
# 4 0.0000 0.0000 0.0000 5.4880 0.0000 10.8021
# 5 2.5521 -4.2316 -2.3391 0.0000 23.2639 0.0000
# 6 0.0000 0.0000 0.0000 10.8021 0.0000 13.2456
#
#
#
# Elastic Compliance Matrix: (Units=1/GPa)
#
#
# Indices 1 2 3 4 5 6 
#
# 1 0.011964 -0.000414 -0.002510 0.000000 -0.001640 0.000000
# 2 -0.000414 0.012977 -0.002602 0.000000 0.002144 0.000000
# 3 -0.002510 -0.002602 0.008926 0.000000 0.000700 0.000000
# 4 0.000000 0.000000 0.000000 -0.301087 0.000000 0.245543
# 5 -0.001640 0.002144 0.000700 0.000000 0.043625 0.000000
# 6 0.000000 0.000000 0.000000 0.245543 0.000000 -0.124749
#
#
# Mechanical properties :
#
#
# Convention : Reuss Voigt Hill
#
# Bulk Modulus (GPa) = 43.83167 47.28826 45.55996
# Shear Modulus (GPa) = -15.16592 24.32496 4.57952
#
# Velocity S-wave (km/s) = -2.76044 3.49598 1.51689
# Velocity P-wave (km/s) = 3.44426 6.32894 5.09502
#
# Compressibility (1/GPa) = 0.02281455
#
# Stress axis : x y z
#
# Youngs Moduli (GPa) = 83.58684 77.05782 112.03038
#
# Poissons Ratio (x) = 0.03193 0.28121
# Poissons Ratio (y) = 0.03464 0.29148
# Poissons Ratio (z) = 0.20981 0.20049
#
# Static dielectric constant tensor:
#      x y z
#    x 1.806810 0.000000 -0.001560 
#    y 0.000000 1.757840 0.000000 
#    z -0.001560 0.000000 1.733380 
# 
# From -- ./inp_files/147260.got.cif
#   From: 2010.05.17/outbox.cif.g08.bks.cpg/sg12_74_cif.got.tgz:147260.got - 2010.06.03 13:09:07.
