data_PCOD9205680
_publ_section_title
;
Structure prediction by ZEFSAII (Michael W. Deem and Ramdas Pophale) SiO2 
 PCOD9205680
Probable space group: C 2/M
;
_chemical_formula_sum "Si O2"
_cell_formula_units_Z 40
_cell_length_a 13.899452
_cell_length_b 14.675741
_cell_length_c 17.130603
_cell_angle_alpha 90.000000
_cell_angle_beta 24.390381
_cell_angle_gamma 90.000000
_cell_volume 1443.010371
_symmetry_space_group_name_H-M "C 2/M"
_symmetry_group_IT_number 12
_symmetry_cell_setting 'monoclinic'
loop_
_space_group_symop_operation_xyz
x,y,z
-x,y,-z
-x,-y,-z
x,-y,z
1/2+x,1/2+y,z
1/2-x,1/2+y,-z
1/2-x,1/2-y,-z
1/2+x,1/2-y,z
loop_
_atom_site_type_symbol
_atom_site_label
_atom_site_fract_x
_atom_site_fract_y
_atom_site_fract_z
Si Si1 0.369312 0.105951 0.500964
Si Si2 0.262366 0.390603 0.574830
Si Si3 0.890185 0.141823 0.162778
Si Si4 0.770056 0.641651 0.994495
Si Si5 0.258191 0.395914 0.810758
O O1 0.328586 0.137968 0.443181
O O2 0.645496 0.101520 0.312946
O O3 0.228137 0.171190 0.665403
O O4 0.288219 0.000000 0.571218
O O5 0.296494 0.500000 0.545933
O O6 0.522461 0.351708 0.394836
O O7 0.045492 0.377643 0.791386
O O8 0.000000 0.177722 0.000000
O O9 0.124276 0.100792 0.030240
O O10 0.750000 0.750000 0.000000
O O11 0.674707 0.607691 0.147495
O O12 0.234388 0.500000 0.800928
O O13 0.000000 0.356915 0.000000
#
# Coordination Sequence:
#
# PCOD9205680 Si02
#       5
#     8   8   8   8   8
#     4  10  21  35  61  98 129 162 207 257 329 403
#     4  10  21  41  70 100 130 170 223 281 332 396
#     4  11  21  37  57  90 133 167 207 256 320 392
#     4  12  26  42  63  97 134 180 221 271 339 411
#     4  10  23  46  71  95 127 174 235 295 336 383
#
# _framework density 27.719829000000001
#
# number of rings (size 3 to 8) (size 9 to 14) (size 15 to 20)
#    0.000    1.400    4.000    1.800    0.000    6.400 
#    0.000    5.000    0.000    0.000    0.000    0.000 
#    0.000    0.000    0.000    0.000    0.000    0.000 
#
# Total GULP energy -111493.320839 kJ/mol
# GULP energy per Si atom -5574.666042 kJ/mol
# Density = 2.765674 g / cm^3
# Si number density = 27.719829 Si / 1000 Ang^3
#
#
#
# Elastic Constant Matrix: (Units=GPa)
#
#
# Indices 1 2 3 4 5 6 
#
# 1 126.8672 10.0794 50.1445 0.0399 0.7313 0.0204
# 2 10.0794 89.8841 24.9436 -0.2394 -5.4701 -0.0925
# 3 50.1445 24.9436 242.0757 -0.3053 -15.6299 -0.1116
# 4 0.0399 -0.2394 -0.3053 537.3137 0.2420 239.3537
# 5 0.7313 -5.4701 -15.6299 0.2420 81.8786 0.1008
# 6 0.0204 -0.0925 -0.1116 239.3537 0.1008 98.6607
#
#
#
# Elastic Compliance Matrix: (Units=1/GPa)
#
#
# Indices 1 2 3 4 5 6 
#
# 1 0.008622 -0.000505 -0.001763 0.000000 -0.000447 -0.000003
# 2 -0.000505 0.011507 -0.001044 -0.000003 0.000574 0.000017
# 3 -0.001763 -0.001044 0.004658 -0.000003 0.000835 0.000011
# 4 0.000000 -0.000003 -0.000003 -0.023060 -0.000001 0.055944
# 5 -0.000447 0.000574 0.000835 -0.000001 0.012415 -0.000008
# 6 -0.000003 0.000017 0.000011 0.055944 -0.000008 -0.125585
#
#
# Mechanical properties :
#
#
# Convention : Reuss Voigt Hill
#
# Bulk Modulus (GPa) = 55.05795 69.90687 62.48241
# Shear Modulus (GPa) = -50.62441 168.48122 58.92840
#
# Velocity S-wave (km/s) = -4.27815 7.80461 4.61570
# Velocity P-wave (km/s) = 2.12084 10.31939 7.14114
#
# Compressibility (1/GPa) = 0.01816268
#
# Stress axis : x y z
#
# Youngs Moduli (GPa) = 115.98650 86.90581 214.70353
#
# Poissons Ratio (x) = 0.04387 0.37848
# Poissons Ratio (y) = 0.05856 0.22415
# Poissons Ratio (z) = 0.20446 0.09073
#
# Static dielectric constant tensor:
#      x y z
#    x 2.168600 -0.000020 -0.037630 
#    y -0.000020 2.170230 0.000040 
#    z -0.037630 0.000040 2.168570 
# 
# From -- ./inp_files/317106.got.cif
#   From: 2010.05.17/outbox.cif.g08.bks.cpg/sg12_159_cif.got.tgz:317106.got - 2010.06.03 13:09:07.
