data_PCOD9205995
_publ_section_title
;
Structure prediction by ZEFSAII (Michael W. Deem and Ramdas Pophale) SiO2 
 PCOD9205995
Probable space group: C 2/M
;
_chemical_formula_sum "Si O2"
_cell_formula_units_Z 64
_cell_length_a 15.290896
_cell_length_b 26.925081
_cell_length_c 13.054759
_cell_angle_alpha 90.000000
_cell_angle_beta 139.018670
_cell_angle_gamma 90.000000
_cell_volume 3524.835708
_symmetry_space_group_name_H-M "C 2/M"
_symmetry_group_IT_number 12
_symmetry_cell_setting 'monoclinic'
loop_
_space_group_symop_operation_xyz
x,y,z
-x,y,-z
-x,-y,-z
x,-y,z
1/2+x,1/2+y,z
1/2-x,1/2+y,-z
1/2-x,1/2-y,-z
1/2+x,1/2-y,z
loop_
_atom_site_type_symbol
_atom_site_label
_atom_site_fract_x
_atom_site_fract_y
_atom_site_fract_z
Si Si1 0.886068 0.185365 0.814085
Si Si2 0.393713 0.150219 0.100347
Si Si3 0.886073 0.314633 0.314086
Si Si4 0.141147 0.056715 0.567404
Si Si5 0.332533 0.700114 0.219856
Si Si6 0.106293 0.150219 0.399656
Si Si7 0.358854 0.056715 0.932599
Si Si8 0.832531 0.700115 0.719860
O O1 0.749998 0.171054 0.750003
O O2 0.913898 0.152141 0.739647
O O3 0.869047 0.241900 0.758281
O O4 0.000000 0.184792 0.000000
O O5 0.413911 0.152142 0.239657
O O6 0.529764 0.170396 0.169233
O O7 0.269505 0.185786 0.960506
O O8 0.359571 0.096804 0.023053
O O9 0.869051 0.258098 0.258279
O O10 0.000000 0.315205 0.500000
O O11 0.140434 0.096804 0.476953
O O12 0.250000 0.068936 0.750002
O O13 0.000000 0.058269 0.500000
O O14 0.165242 0.000000 0.553594
O O15 0.470237 0.670395 0.330761
O O16 0.250002 0.688198 0.250000
O O17 0.230496 0.185787 0.539498
O O18 0.334758 0.000000 0.946409
O O19 0.500000 0.058268 0.000000
#
# Coordination Sequence:
#
# PCOD9205995 Si02
#       8
#     8   8   8   8   8   8   8   8
#     4  11  23  37  51  75 110 144 180 219 252 296
#     4  12  21  35  57  77 105 144 179 210 261 316
#     4  11  23  37  51  75 110 144 180 219 252 296
#     4  10  21  36  55  81 108 131 164 215 270 319
#     4  11  21  34  53  81 109 137 174 216 261 315
#     4  12  21  35  57  77 105 144 179 210 261 316
#     4  10  21  36  55  81 108 131 164 215 270 319
#     4  11  21  34  53  81 109 137 174 216 261 315
#
# _framework density 18.156874999999999
#
# number of rings (size 3 to 8) (size 9 to 14) (size 15 to 20)
#    0.000    1.000    0.000   10.500    0.000    0.000 
#    0.000    0.000    0.000    1.500    0.000    0.000 
#    0.000    0.000    0.000    0.000    0.000    0.000 
#
# Total GULP energy -178971.056981 kJ/mol
# GULP energy per Si atom -5592.845531 kJ/mol
# Density = 1.811555 g / cm^3
# Si number density = 18.156875 Si / 1000 Ang^3
#
#
#
# Elastic Constant Matrix: (Units=GPa)
#
#
# Indices 1 2 3 4 5 6 
#
# 1 67.5851 63.7175 45.4071 0.0000 -2.8495 0.0000
# 2 63.7175 113.1469 64.4109 0.0000 -22.0462 0.0000
# 3 45.4071 64.4109 153.9722 0.0000 0.7493 0.0000
# 4 0.0000 0.0000 0.0000 30.4204 0.0000 4.2203
# 5 -2.8495 -22.0462 0.7493 0.0000 42.0997 0.0000
# 6 0.0000 0.0000 0.0000 4.2203 0.0000 19.7002
#
#
#
# Elastic Compliance Matrix: (Units=1/GPa)
#
#
# Indices 1 2 3 4 5 6 
#
# 1 0.034498 -0.020001 -0.001767 0.000000 -0.008107 0.000000
# 2 -0.020001 0.025050 -0.004638 0.000000 0.011847 0.000000
# 3 -0.001767 -0.004638 0.008969 0.000000 -0.002708 0.000000
# 4 0.000000 0.000000 0.000000 0.033880 0.000000 -0.007258
# 5 -0.008107 0.011847 -0.002708 0.000000 0.029456 0.000000
# 6 0.000000 0.000000 0.000000 -0.007258 0.000000 0.052316
#
#
# Mechanical properties :
#
#
# Convention : Reuss Voigt Hill
#
# Bulk Modulus (GPa) = 63.67635 75.75280 69.71457
# Shear Modulus (GPa) = 20.64263 29.18863 24.91563
#
# Velocity S-wave (km/s) = 3.37546 4.01381 3.70840
# Velocity P-wave (km/s) = 7.09492 7.95568 7.53759
#
# Compressibility (1/GPa) = 0.01570442
#
# Stress axis : x y z
#
# Youngs Moduli (GPa) = 28.98725 39.91992 111.48966
#
# Poissons Ratio (x) = 0.79843 0.19703
# Poissons Ratio (y) = 0.57977 0.51714
# Poissons Ratio (z) = 0.05123 0.18517
#
# Static dielectric constant tensor:
#      x y z
#    x 4.332580 0.000000 -4.320140 
#    y 0.000000 1.632890 0.000000 
#    z -4.320140 0.000000 8.489090 
# 
# From -- ./inp_files/149824.got.cif
#   From: 2010.05.17/outbox.cif.g08.bks.cpg/sg12_75_cif.got.tgz:149824.got - 2010.06.03 13:09:07.
