data_PCOD9205748
_publ_section_title
;
Structure prediction by ZEFSAII (Michael W. Deem and Ramdas Pophale) SiO2 
 PCOD9205748
Probable space group: C 2/M
;
_chemical_formula_sum "Si O2"
_cell_formula_units_Z 56
_cell_length_a 32.186197
_cell_length_b 9.030857
_cell_length_c 13.108223
_cell_angle_alpha 90.000000
_cell_angle_beta 51.895754
_cell_angle_gamma 90.000000
_cell_volume 2998.168851
_symmetry_space_group_name_H-M "C 2/M"
_symmetry_group_IT_number 12
_symmetry_cell_setting 'monoclinic'
loop_
_space_group_symop_operation_xyz
x,y,z
-x,y,-z
-x,-y,-z
x,-y,z
1/2+x,1/2+y,z
1/2-x,1/2+y,-z
1/2-x,1/2-y,-z
1/2+x,1/2-y,z
loop_
_atom_site_type_symbol
_atom_site_label
_atom_site_fract_x
_atom_site_fract_y
_atom_site_fract_z
Si Si1 0.752245 0.676433 0.386908
Si Si2 0.682002 0.833876 0.340064
Si Si3 0.084378 0.178537 0.387508
Si Si4 0.011217 0.179243 0.314420
Si Si5 0.153678 0.820019 0.883437
Si Si6 0.031333 0.180018 0.053452
Si Si7 0.719840 0.337798 0.960266
O O1 0.753919 0.500000 0.388533
O O2 0.750000 0.750000 0.500000
O O3 0.700138 0.730203 0.405006
O O4 0.804661 0.739080 0.252054
O O5 0.637750 0.760067 0.337013
O O6 0.735602 0.848651 0.194169
O O7 0.666359 0.000000 0.396299
O O8 0.059364 0.224248 0.316437
O O9 0.041489 0.214171 0.541236
O O10 0.091288 0.000000 0.375996
O O11 0.012716 0.231734 0.194779
O O12 0.013996 0.000000 0.306156
O O13 0.169328 0.777551 0.976242
O O14 0.160311 0.000000 0.866676
O O15 0.093378 0.784733 0.950690
O O16 0.026838 0.000000 0.061383
O O17 0.000000 0.232058 0.000000
O O18 0.705827 0.500000 0.021984
O O19 0.750000 0.250000 0.000000
#
# Coordination Sequence:
#
# PCOD9205748 Si02
#       7
#     8   8   8   8   8   8   8
#     4  11  22  38  59  81 108 144 181 222 271 328
#     4  10  21  36  52  78 111 139 177 225 274 334
#     4   9  17  31  53  78 106 142 186 234 280 330
#     4   8  16  30  48  75 108 142 187 238 281 328
#     4   9  19  35  53  79 112 143 179 228 274 321
#     4   9  17  30  51  78 109 146 186 228 276 329
#     4   9  19  32  48  73 105 138 174 220 271 327
#
# _framework density 18.678068
#
# number of rings (size 3 to 8) (size 9 to 14) (size 15 to 20)
#    0.000    2.714    0.000    3.429    2.000    4.000 
#    0.000    4.286    0.000    1.286    0.000    0.000 
#    0.000    0.000    0.000    0.000    0.000    0.000 
#
# Total GULP energy -155969.428715 kJ/mol
# GULP energy per Si atom -5570.336740 kJ/mol
# Density = 1.863556 g / cm^3
# Si number density = 18.678068 Si / 1000 Ang^3
#
#
#
# Elastic Constant Matrix: (Units=GPa)
#
#
# Indices 1 2 3 4 5 6 
#
# 1 167.0161 32.3410 49.3347 0.0000 15.9959 0.0000
# 2 32.3410 51.4047 21.4359 0.0000 8.5744 0.0000
# 3 49.3347 21.4359 72.6295 0.0000 22.3243 0.0000
# 4 0.0000 0.0000 0.0000 18.1813 0.0000 -0.4743
# 5 15.9959 8.5744 22.3243 0.0000 32.1613 0.0000
# 6 0.0000 0.0000 0.0000 -0.4743 0.0000 22.8494
#
#
#
# Elastic Compliance Matrix: (Units=1/GPa)
#
#
# Indices 1 2 3 4 5 6 
#
# 1 0.007906 -0.003118 -0.004445 0.000000 -0.000015 0.000000
# 2 -0.003118 0.023490 -0.004280 0.000000 -0.001741 0.000000
# 3 -0.004445 -0.004280 0.021637 0.000000 -0.011667 0.000000
# 4 0.000000 0.000000 0.000000 0.055031 0.000000 0.001142
# 5 -0.000015 -0.001741 -0.011667 0.000000 0.039664 0.000000
# 6 0.000000 0.000000 0.000000 0.001142 0.000000 0.043789
#
#
# Mechanical properties :
#
#
# Convention : Reuss Voigt Hill
#
# Bulk Modulus (GPa) = 34.07454 55.25264 44.66359
# Shear Modulus (GPa) = 22.22368 27.16762 24.69565
#
# Velocity S-wave (km/s) = 3.45313 3.81795 3.64012
# Velocity P-wave (km/s) = 5.84649 7.00582 6.45225
#
# Compressibility (1/GPa) = 0.02934742
#
# Stress axis : x y z
#
# Youngs Moduli (GPa) = 126.49152 42.57113 46.21625
#
# Poissons Ratio (x) = 0.13272 0.20544
# Poissons Ratio (y) = 0.39435 0.19781
# Poissons Ratio (z) = 0.56228 0.18221
#
# Static dielectric constant tensor:
#      x y z
#    x 1.674210 0.000000 0.019860 
#    y 0.000000 1.643680 0.000000 
#    z 0.019860 0.000000 1.684950 
# 
# From -- ./inp_files/187228.got.cif
#   From: 2010.05.17/outbox.cif.g08.bks.cpg/sg12_94_cif.got.tgz:187228.got - 2010.06.03 13:09:07.
