data_PCOD9205448
_publ_section_title
;
Structure prediction by ZEFSAII (Michael W. Deem and Ramdas Pophale) SiO2 
 PCOD9205448
Probable space group: C 2/M
;
_chemical_formula_sum "Si O2"
_cell_formula_units_Z 40
_cell_length_a 15.115804
_cell_length_b 12.305870
_cell_length_c 12.801745
_cell_angle_alpha 90.000000
_cell_angle_beta 128.236639
_cell_angle_gamma 90.000000
_cell_volume 1870.413063
_symmetry_space_group_name_H-M "C 2/M"
_symmetry_group_IT_number 12
_symmetry_cell_setting 'monoclinic'
loop_
_space_group_symop_operation_xyz
x,y,z
-x,y,-z
-x,-y,-z
x,-y,z
1/2+x,1/2+y,z
1/2-x,1/2+y,-z
1/2-x,1/2-y,-z
1/2+x,1/2-y,z
loop_
_atom_site_type_symbol
_atom_site_label
_atom_site_fract_x
_atom_site_fract_y
_atom_site_fract_z
Si Si1 0.477514 0.124274 0.791843
Si Si2 0.119402 0.000000 0.943661
Si Si3 0.722398 0.740588 0.272442
Si Si4 0.567063 0.772385 0.447457
Si Si5 0.647593 0.500000 0.208870
Si Si6 0.633546 0.709037 0.821992
O O1 0.391950 0.191999 0.800653
O O2 0.424628 0.136914 0.636070
O O3 0.594192 0.189694 0.864619
O O4 0.490012 0.000000 0.831103
O O5 0.157530 0.105971 0.909273
O O6 0.983149 0.000000 0.853788
O O7 0.158893 0.000000 0.091472
O O8 0.816788 0.775251 0.425934
O O9 0.700859 0.614015 0.281370
O O10 0.775125 0.757740 0.196740
O O11 0.500000 0.815168 0.500000
O O12 0.481791 0.687677 0.329703
#
# Coordination Sequence:
#
# PCOD9205448 Si02
#       6
#     8   4   8   8   4   8
#     4  10  21  35  55  89 122 156 186 245 302 345
#     4  11  22  46  59  87 119 155 210 249 289 337
#     4  11  21  38  60  92 116 158 205 233 305 356
#     4   8  18  36  56  88 120 158 192 240 296 355
#     4  11  24  38  71  81 113 167 201 253 280 349
#     4   9  22  38  61  84 124 154 194 250 291 353
#
# _framework density 21.385649000000001
#
# number of rings (size 3 to 8) (size 9 to 14) (size 15 to 20)
#    1.200    1.000    2.000    0.600    4.200    1.200 
#    1.800    1.500    0.000    1.200    0.000    0.000 
#    0.000    0.000    0.000    0.000    0.000    0.000 
#
# Total GULP energy -111535.946000 kJ/mol
# GULP energy per Si atom -5576.797300 kJ/mol
# Density = 2.133697 g / cm^3
# Si number density = 21.385649 Si / 1000 Ang^3
#
#
#
# Elastic Constant Matrix: (Units=GPa)
#
#
# Indices 1 2 3 4 5 6 
#
# 1 118.8603 61.7652 10.9395 0.0000 -2.1664 0.0000
# 2 61.7652 126.9408 6.8168 0.0000 -1.4332 0.0000
# 3 10.9395 6.8168 52.7063 0.0000 8.0041 0.0000
# 4 0.0000 0.0000 0.0000 -8.1782 0.0000 -27.3078
# 5 -2.1664 -1.4332 8.0041 0.0000 5.1948 0.0000
# 6 0.0000 0.0000 0.0000 -27.3078 0.0000 13.7231
#
#
#
# Elastic Compliance Matrix: (Units=1/GPa)
#
#
# Indices 1 2 3 4 5 6 
#
# 1 0.011639 -0.005419 -0.002905 0.000000 0.007835 0.000000
# 2 -0.005419 0.010553 -0.000443 0.000000 0.001334 0.000000
# 3 -0.002905 -0.000443 0.025895 0.000000 -0.041232 0.000000
# 4 0.000000 0.000000 0.000000 -0.015995 0.000000 -0.031829
# 5 0.007835 0.001334 -0.041232 0.000000 0.259663 0.000000
# 6 0.000000 0.000000 0.000000 -0.031829 0.000000 0.009532
#
#
# Mechanical properties :
#
#
# Convention : Reuss Voigt Hill
#
# Bulk Modulus (GPa) = 32.72825 50.83893 41.78359
# Shear Modulus (GPa) = 15.19734 16.74701 15.97218
#
# Velocity S-wave (km/s) = 2.66866 2.80142 2.73585
# Velocity P-wave (km/s) = 4.98325 5.85560 5.43694
#
# Compressibility (1/GPa) = 0.03055464
#
# Stress axis : x y z
#
# Youngs Moduli (GPa) = 85.91614 94.75844 38.61772
#
# Poissons Ratio (x) = 0.51348 0.11217
# Poissons Ratio (y) = 0.46557 0.01710
# Poissons Ratio (z) = 0.24956 0.04195
#
# Static dielectric constant tensor:
#      x y z
#    x 1.779370 0.000000 0.016950 
#    y 0.000000 1.728130 0.000000 
#    z 0.016950 0.000000 1.806610 
# 
# From -- ./inp_files/212126.got.cif
#   From: 2010.05.17/outbox.cif.g08.bks.cpg/sg12_107_cif.got.tgz:212126.got - 2010.06.03 13:09:07.
