data_PCOD9205709
_publ_section_title
;
Structure prediction by ZEFSAII (Michael W. Deem and Ramdas Pophale) SiO2 
 PCOD9205709
Probable space group: C 2/M
;
_chemical_formula_sum "Si O2"
_cell_formula_units_Z 40
_cell_length_a 10.892424
_cell_length_b 30.358074
_cell_length_c 7.282055
_cell_angle_alpha 90.000000
_cell_angle_beta 39.231872
_cell_angle_gamma 90.000000
_cell_volume 1522.951129
_symmetry_space_group_name_H-M "C 2/M"
_symmetry_group_IT_number 12
_symmetry_cell_setting 'monoclinic'
loop_
_space_group_symop_operation_xyz
x,y,z
-x,y,-z
-x,-y,-z
x,-y,z
1/2+x,1/2+y,z
1/2-x,1/2+y,-z
1/2-x,1/2-y,-z
1/2+x,1/2-y,z
loop_
_atom_site_type_symbol
_atom_site_label
_atom_site_fract_x
_atom_site_fract_y
_atom_site_fract_z
Si Si1 0.272881 0.720823 0.230747
Si Si2 0.222191 0.127589 0.830127
Si Si3 0.325156 0.097549 0.341513
Si Si4 0.220860 0.312096 0.700732
Si Si5 0.957208 0.048577 0.765044
O O1 0.236815 0.677590 0.149084
O O2 0.210250 0.705804 0.505337
O O3 0.202720 0.770378 0.270878
O O4 0.500000 0.727309 0.000000
O O5 0.371157 0.116797 0.490912
O O6 0.000000 0.131914 0.000000
O O7 0.190021 0.086804 0.003100
O O8 0.198692 0.138154 0.396577
O O9 0.176172 0.059525 0.575146
O O10 0.500000 0.085204 0.000000
O O11 0.000000 0.322214 0.000000
O O12 0.000000 0.048623 0.500000
O O13 0.892512 0.000000 0.898083
#
# Coordination Sequence:
#
# PCOD9205709 Si02
#       5
#     8   8   8   8   8
#     4   8  12  20  37  64  93 119 149 185 224 268
#     4   8  15  28  48  71  94 124 162 198 232 277
#     4   9  17  30  50  76  99 120 153 197 239 280
#     4   8  13  21  37  65  97 119 142 184 230 270
#     4  10  21  36  51  67  92 128 165 201 244 288
#
# _framework density 26.264793999999998
#
# number of rings (size 3 to 8) (size 9 to 14) (size 15 to 20)
#    0.000    3.400    0.000    1.200    0.000    4.000 
#    0.000    1.000    0.000    3.600    0.000    0.000 
#    0.000    0.000    0.000    0.000    0.000    0.000 
#
# Total GULP energy -111402.625591 kJ/mol
# GULP energy per Si atom -5570.131280 kJ/mol
# Density = 2.620501 g / cm^3
# Si number density = 26.264794 Si / 1000 Ang^3
#
#
#
# Elastic Constant Matrix: (Units=GPa)
#
#
# Indices 1 2 3 4 5 6 
#
# 1 48.8134 15.8033 9.8351 0.0000 -4.2711 0.0000
# 2 15.8033 200.2722 35.8439 0.0000 17.8831 0.0000
# 3 9.8351 35.8439 166.7650 0.0000 -1.5934 0.0000
# 4 0.0000 0.0000 0.0000 66.4290 0.0000 -24.0949
# 5 -4.2711 17.8831 -1.5934 0.0000 29.3942 0.0000
# 6 0.0000 0.0000 0.0000 -24.0949 0.0000 35.1005
#
#
#
# Elastic Compliance Matrix: (Units=1/GPa)
#
#
# Indices 1 2 3 4 5 6 
#
# 1 0.021656 -0.001945 -0.000818 0.000000 0.004286 0.000000
# 2 -0.001945 0.005692 -0.001145 0.000000 -0.003807 0.000000
# 3 -0.000818 -0.001145 0.006300 0.000000 0.000919 0.000000
# 4 0.000000 0.000000 0.000000 0.020045 0.000000 0.013760
# 5 0.004286 -0.003807 0.000919 0.000000 0.037009 0.000000
# 6 0.000000 0.000000 0.000000 0.013760 0.000000 0.037935
#
#
# Mechanical properties :
#
#
# Convention : Reuss Voigt Hill
#
# Bulk Modulus (GPa) = 38.71399 59.86834 49.29117
# Shear Modulus (GPa) = 34.46798 49.80931 42.13864
#
# Velocity S-wave (km/s) = 3.62653 4.35952 4.00981
# Velocity P-wave (km/s) = 5.68397 6.94149 6.34396
#
# Compressibility (1/GPa) = 0.02583045
#
# Stress axis : x y z
#
# Youngs Moduli (GPa) = 46.17717 175.69765 158.74033
#
# Poissons Ratio (x) = 0.34175 0.12987
# Poissons Ratio (y) = 0.08982 0.18176
# Poissons Ratio (z) = 0.03778 0.20117
#
# Static dielectric constant tensor:
#      x y z
#    x 2.374010 0.000000 0.097920 
#    y 0.000000 2.174830 0.000000 
#    z 0.097920 0.000000 2.012020 
# 
# From -- ./inp_files/40357.got.cif
#   From: 2010.05.17/outbox.cif.g08.bks.cpg/sg12_21_cif.got.tgz:40357.got - 2010.06.03 13:09:07.
