data_PCOD9205119
_publ_section_title
;
Structure prediction by ZEFSAII (Michael W. Deem and Ramdas Pophale) SiO2 
 PCOD9205119
Probable space group: C 2/M
;
_chemical_formula_sum "Si O2"
_cell_formula_units_Z 32
_cell_length_a 16.123010
_cell_length_b 7.648514
_cell_length_c 10.269771
_cell_angle_alpha 90.000000
_cell_angle_beta 69.595407
_cell_angle_gamma 90.000000
_cell_volume 1186.974180
_symmetry_space_group_name_H-M "C 2/M"
_symmetry_group_IT_number 12
_symmetry_cell_setting 'monoclinic'
loop_
_space_group_symop_operation_xyz
x,y,z
-x,y,-z
-x,-y,-z
x,-y,z
1/2+x,1/2+y,z
1/2-x,1/2+y,-z
1/2-x,1/2-y,-z
1/2+x,1/2-y,z
loop_
_atom_site_type_symbol
_atom_site_label
_atom_site_fract_x
_atom_site_fract_y
_atom_site_fract_z
Si Si1 0.894160 0.791905 0.670661
Si Si2 0.806035 0.287540 0.161561
Si Si3 0.452234 0.296457 0.902056
Si Si4 0.852901 0.293626 0.412954
O O1 0.794116 0.729715 0.755961
O O2 0.907155 0.767225 0.509426
O O3 0.953733 0.718289 0.756088
O O4 0.895410 0.000000 0.688525
O O5 0.806686 0.500000 0.155710
O O6 0.862515 0.228981 0.259200
O O7 0.850605 0.212248 0.008703
O O8 0.478009 0.500000 0.882238
O O9 0.500000 0.209066 0.000000
O O10 0.861231 0.500000 0.404505
O O11 0.750000 0.250000 0.500000
#
# Coordination Sequence:
#
# PCOD9205119 Si02
#       4
#     8   8   8   8
#     4   9  18  33  52  75 101 128 164 205 243 291
#     4   9  18  32  51  75  99 125 161 204 247 293
#     4  10  21  35  50  71 100 133 168 205 245 290
#     4   9  17  30  50  77 103 126 159 202 247 293
#
# _framework density 26.959302999999998
#
# number of rings (size 3 to 8) (size 9 to 14) (size 15 to 20)
#    0.000    2.750    0.000    3.000    0.000    6.500 
#    0.000    1.250    0.000    7.500    0.000    0.000 
#    0.000    0.000    0.000    0.000    0.000    0.000 
#
# Total GULP energy -89446.397927 kJ/mol
# GULP energy per Si atom -5590.399870 kJ/mol
# Density = 2.689794 g / cm^3
# Si number density = 26.959303 Si / 1000 Ang^3
#
#
#
# Elastic Constant Matrix: (Units=GPa)
#
#
# Indices 1 2 3 4 5 6 
#
# 1 219.2209 15.7178 47.3506 0.0000 60.4493 0.0000
# 2 15.7178 83.1990 -0.6288 0.0000 -3.1970 0.0000
# 3 47.3506 -0.6288 145.7470 0.0000 43.2081 0.0000
# 4 0.0000 0.0000 0.0000 29.9617 0.0000 3.1719
# 5 60.4493 -3.1970 43.2081 0.0000 58.3155 0.0000
# 6 0.0000 0.0000 0.0000 3.1719 0.0000 15.7390
#
#
#
# Elastic Compliance Matrix: (Units=1/GPa)
#
#
# Indices 1 2 3 4 5 6 
#
# 1 0.006572 -0.001504 -0.000125 0.000000 -0.006803 0.000000
# 2 -0.001504 0.012393 -0.000156 0.000000 0.002354 0.000000
# 3 -0.000125 -0.000156 0.008798 0.000000 -0.006398 0.000000
# 4 0.000000 0.000000 0.000000 0.034104 0.000000 -0.006873
# 5 -0.006803 0.002354 -0.006398 0.000000 0.029069 0.000000
# 6 0.000000 0.000000 0.000000 -0.006873 0.000000 0.064921
#
#
# Mechanical properties :
#
#
# Convention : Reuss Voigt Hill
#
# Bulk Modulus (GPa) = 41.33362 63.67179 52.50270
# Shear Modulus (GPa) = 29.85248 46.51841 38.18544
#
# Velocity S-wave (km/s) = 3.33125 4.15843 3.76761
# Velocity P-wave (km/s) = 5.49194 6.83562 6.20029
#
# Compressibility (1/GPa) = 0.02419338
#
# Stress axis : x y z
#
# Youngs Moduli (GPa) = 152.15592 80.69220 113.66530
#
# Poissons Ratio (x) = 0.12136 0.01421
# Poissons Ratio (y) = 0.22883 0.01770
# Poissons Ratio (z) = 0.01902 0.01257
#
# Static dielectric constant tensor:
#      x y z
#    x 2.252650 0.000000 -0.053590 
#    y 0.000000 1.950680 0.000000 
#    z -0.053590 0.000000 2.110120 
# 
# From -- ./inp_files/307830.got.cif
#   From: 2010.05.17/outbox.cif.g08.bks.cpg/sg12_154_cif.got.tgz:307830.got - 2010.06.03 13:09:07.
