data_PCOD9205717
_publ_section_title
;
Structure prediction by ZEFSAII (Michael W. Deem and Ramdas Pophale) SiO2 
 PCOD9205717
Probable space group: C 2/M
;
_chemical_formula_sum "Si O2"
_cell_formula_units_Z 40
_cell_length_a 14.516492
_cell_length_b 24.884124
_cell_length_c 7.959864
_cell_angle_alpha 90.000000
_cell_angle_beta 41.448058
_cell_angle_gamma 90.000000
_cell_volume 1903.306962
_symmetry_space_group_name_H-M "C 2/M"
_symmetry_group_IT_number 12
_symmetry_cell_setting 'monoclinic'
loop_
_space_group_symop_operation_xyz
x,y,z
-x,y,-z
-x,-y,-z
x,-y,z
1/2+x,1/2+y,z
1/2-x,1/2+y,-z
1/2-x,1/2-y,-z
1/2+x,1/2-y,z
loop_
_atom_site_type_symbol
_atom_site_label
_atom_site_fract_x
_atom_site_fract_y
_atom_site_fract_z
Si Si1 0.867516 0.289850 0.776092
Si Si2 0.904216 0.937905 0.298012
Si Si3 0.077658 0.383682 0.068264
Si Si4 0.317668 0.895270 0.621924
Si Si5 0.834874 0.938333 0.855799
O O1 0.915013 0.322646 0.876216
O O2 0.816747 0.336927 0.715622
O O3 0.000000 0.264242 0.500000
O O4 0.750000 0.250000 0.000000
O O5 0.858828 0.000000 0.388877
O O6 0.221021 0.899875 0.588951
O O7 0.009694 0.920057 0.302050
O O8 0.000000 0.939242 0.000000
O O9 0.232712 0.407496 0.868560
O O10 0.972329 0.409342 0.349615
O O11 0.000000 0.389361 0.000000
O O12 0.251969 0.933918 0.850888
O O13 0.845855 0.000000 0.791768
#
# Coordination Sequence:
#
# PCOD9205717 Si02
#       5
#     8   8   8   8   8
#     4   9  19  39  61  82 108 140 182 230 280 335
#     4   8  14  27  49  78 106 133 175 221 257 307
#     4  10  21  36  51  75 111 141 176 224 271 324
#     4   9  17  32  56  78 103 140 179 224 271 322
#     4   9  17  31  52  77 106 142 182 220 262 319
#
# _framework density 21.016052999999999
#
# number of rings (size 3 to 8) (size 9 to 14) (size 15 to 20)
#    0.000    3.000    0.000    3.600    0.000    2.800 
#    0.000   18.000    0.000    2.400    0.000    0.000 
#    0.000    0.800    0.000    0.000    0.000    0.000 
#
# Total GULP energy -111427.079600 kJ/mol
# GULP energy per Si atom -5571.353980 kJ/mol
# Density = 2.096822 g / cm^3
# Si number density = 21.016053 Si / 1000 Ang^3
#
#
#
# Elastic Constant Matrix: (Units=GPa)
#
#
# Indices 1 2 3 4 5 6 
#
# 1 186.1904 27.0722 45.1045 0.0000 -2.3484 0.0000
# 2 27.0722 32.2785 37.7933 0.0000 -5.7567 0.0000
# 3 45.1045 37.7933 108.4413 0.0000 -15.2186 0.0000
# 4 0.0000 0.0000 0.0000 14.9046 0.0000 -12.2723
# 5 -2.3484 -5.7567 -15.2186 0.0000 41.2516 0.0000
# 6 0.0000 0.0000 0.0000 -12.2723 0.0000 13.7454
#
#
#
# Elastic Compliance Matrix: (Units=1/GPa)
#
#
# Indices 1 2 3 4 5 6 
#
# 1 0.006241 -0.003724 -0.001393 0.000000 -0.000678 0.000000
# 2 -0.003724 0.054574 -0.017329 0.000000 0.001011 0.000000
# 3 -0.001393 -0.017329 0.016336 0.000000 0.003529 0.000000
# 4 0.000000 0.000000 0.000000 0.253318 0.000000 0.226169
# 5 -0.000678 0.001011 0.003529 0.000000 0.025646 0.000000
# 6 0.000000 0.000000 0.000000 0.226169 0.000000 0.274681
#
#
# Mechanical properties :
#
#
# Convention : Reuss Voigt Hill
#
# Bulk Modulus (GPa) = 31.00007 60.76112 45.88059
# Shear Modulus (GPa) = 7.28394 28.44300 17.86347
#
# Velocity S-wave (km/s) = 1.86371 3.68284 2.91862
# Velocity P-wave (km/s) = 4.40612 6.85995 5.76510
#
# Compressibility (1/GPa) = 0.03225799
#
# Stress axis : x y z
#
# Youngs Moduli (GPa) = 160.22254 18.32386 61.21607
#
# Poissons Ratio (x) = 0.06825 0.08528
# Poissons Ratio (y) = 0.59674 1.06079
# Poissons Ratio (z) = 0.22322 0.31753
#
# Static dielectric constant tensor:
#      x y z
#    x 1.859670 0.000000 0.016110 
#    y 0.000000 1.728980 0.000000 
#    z 0.016110 0.000000 1.831530 
# 
# From -- ./inp_files/66388.got.cif
#   From: 2010.05.17/outbox.cif.g08.bks.cpg/sg12_34_cif.got.tgz:66388.got - 2010.06.03 13:09:07.
