data_PCOD9205978
_publ_section_title
;
Structure prediction by ZEFSAII (Michael W. Deem and Ramdas Pophale) SiO2 
 PCOD9205978
Probable space group: C 2/M
;
_chemical_formula_sum "Si O2"
_cell_formula_units_Z 48
_cell_length_a 10.276969
_cell_length_b 7.477654
_cell_length_c 27.445216
_cell_angle_alpha 90.000000
_cell_angle_beta 100.102482
_cell_angle_gamma 90.000000
_cell_volume 2076.399125
_symmetry_space_group_name_H-M "C 2/M"
_symmetry_group_IT_number 12
_symmetry_cell_setting 'monoclinic'
loop_
_space_group_symop_operation_xyz
x,y,z
-x,y,-z
-x,-y,-z
x,-y,z
1/2+x,1/2+y,z
1/2-x,1/2+y,-z
1/2-x,1/2-y,-z
1/2+x,1/2-y,z
loop_
_atom_site_type_symbol
_atom_site_label
_atom_site_fract_x
_atom_site_fract_y
_atom_site_fract_z
Si Si1 0.740305 0.216982 0.142106
Si Si2 0.021412 0.290336 0.200660
Si Si3 0.635933 0.786149 0.031163
Si Si4 0.135889 0.786022 0.531200
Si Si5 0.540466 0.783139 0.695368
Si Si6 0.766501 0.710034 0.637483
O O1 0.891537 0.272496 0.158836
O O2 0.648864 0.282558 0.180788
O O3 0.678305 0.280643 0.087148
O O4 0.737866 0.000000 0.142077
O O5 0.048507 0.500000 0.210005
O O6 0.983698 0.217117 0.251248
O O7 0.620634 0.000000 0.035450
O O8 0.500000 0.714126 0.000000
O O9 0.750000 0.750000 0.000000
O O10 0.250000 0.750000 0.500000
O O11 0.184680 0.713864 0.586571
O O12 0.000000 0.713591 0.500000
O O13 0.118187 0.000000 0.535741
O O14 0.677325 0.727562 0.679793
O O15 0.414003 0.718952 0.655703
O O16 0.541047 0.000000 0.695897
O O17 0.784303 0.500000 0.628780
#
# Coordination Sequence:
#
# PCOD9205978 Si02
#       6
#     8   8   8   8   8   8
#     4  10  21  37  57  81 109 142 179 219 266 318
#     4  10  21  37  56  79 108 140 177 222 267 315
#     4  10  21  37  57  81 109 142 179 219 265 316
#     4  10  21  36  55  81 110 141 179 221 267 319
#     4  10  21  36  55  80 107 139 180 221 265 317
#     4  10  21  37  56  79 109 143 179 221 267 317
#
# _framework density 23.116945000000001
#
# number of rings (size 3 to 8) (size 9 to 14) (size 15 to 20)
#    0.000    2.000    0.000    3.000    0.000    6.667 
#    0.000    0.000    0.000    0.000    0.000    0.000 
#    0.000    0.000    0.000    0.000    0.000    0.000 
#
# Total GULP energy -134205.739247 kJ/mol
# GULP energy per Si atom -5591.905802 kJ/mol
# Density = 2.306433 g / cm^3
# Si number density = 23.116945 Si / 1000 Ang^3
#
#
#
# Elastic Constant Matrix: (Units=GPa)
#
#
# Indices 1 2 3 4 5 6 
#
# 1 85.5809 -22.3260 -26.8922 0.0000 0.5128 0.0000
# 2 -22.3260 63.8730 -10.0524 0.0000 7.3615 0.0000
# 3 -26.8922 -10.0524 63.5026 0.0000 0.4794 0.0000
# 4 0.0000 0.0000 0.0000 -0.2828 0.0000 -42.1209
# 5 0.5128 7.3615 0.4794 0.0000 43.8015 0.0000
# 6 0.0000 0.0000 0.0000 -42.1209 0.0000 -60.9618
#
#
#
# Elastic Compliance Matrix: (Units=1/GPa)
#
#
# Indices 1 2 3 4 5 6 
#
# 1 0.016002 0.007003 0.007896 0.000000 -0.001451 0.000000
# 2 0.007003 0.019453 0.006071 0.000000 -0.003418 0.000000
# 3 0.007896 0.006071 0.020062 0.000000 -0.001332 0.000000
# 4 0.000000 0.000000 0.000000 0.034698 0.000000 -0.023974
# 5 -0.001451 -0.003418 -0.001332 0.000000 0.023436 0.000000
# 6 0.000000 0.000000 0.000000 -0.023974 0.000000 0.000161
#
#
# Mechanical properties :
#
#
# Convention : Reuss Voigt Hill
#
# Bulk Modulus (GPa) = 10.26098 10.49061 10.37579
# Shear Modulus (GPa) = 47.91195 14.65984 31.28589
#
# Velocity S-wave (km/s) = 4.55751 2.52099 3.68282
# Velocity P-wave (km/s) = 5.66947 3.60856 4.75208
#
# Compressibility (1/GPa) = 0.09745657
#
# Stress axis : x y z
#
# Youngs Moduli (GPa) = 62.49379 51.40536 49.84491
#
# Poissons Ratio (x) = -0.35999 -0.39357
# Poissons Ratio (y) = -0.43764 -0.30260
# Poissons Ratio (z) = -0.49344 -0.31207
#
# Static dielectric constant tensor:
#      x y z
#    x 1.791280 0.000000 0.031090 
#    y 0.000000 1.903600 0.000000 
#    z 0.031090 0.000000 1.864710 
# 
# From -- ./inp_files/331990.got.cif
#   From: 2010.05.17/outbox.cif.g08.bks.cpg/sg12_166_cif.got.tgz:331990.got - 2010.06.03 13:09:07.
