data_PCOD9205723
_publ_section_title
;
Structure prediction by ZEFSAII (Michael W. Deem and Ramdas Pophale) SiO2 
 PCOD9205723
Probable space group: C 2/M
;
_chemical_formula_sum "Si O2"
_cell_formula_units_Z 64
_cell_length_a 29.502254
_cell_length_b 7.719294
_cell_length_c 12.375092
_cell_angle_alpha 90.000000
_cell_angle_beta 91.015680
_cell_angle_gamma 90.000000
_cell_volume 2817.818233
_symmetry_space_group_name_H-M "C 2/M"
_symmetry_group_IT_number 12
_symmetry_cell_setting 'monoclinic'
loop_
_space_group_symop_operation_xyz
x,y,z
-x,y,-z
-x,-y,-z
x,-y,z
1/2+x,1/2+y,z
1/2-x,1/2+y,-z
1/2-x,1/2-y,-z
1/2+x,1/2-y,z
loop_
_atom_site_type_symbol
_atom_site_label
_atom_site_fract_x
_atom_site_fract_y
_atom_site_fract_z
Si Si1 0.949403 0.706406 0.206905
Si Si2 0.231495 0.291124 0.617237
Si Si3 0.481406 0.208189 0.612917
Si Si4 0.930873 0.799539 0.972859
Si Si5 0.850278 0.701027 0.261405
Si Si6 0.903536 0.791846 0.748715
Si Si7 0.323695 0.297907 0.031506
Si Si8 0.697716 0.287665 0.200304
O O1 0.948035 0.500000 0.221282
O O2 0.899736 0.778299 0.239008
O O3 0.987217 0.777501 0.288598
O O4 0.956167 0.732256 0.079479
O O5 0.230107 0.500000 0.625562
O O6 0.250000 0.250000 0.500000
O O7 0.181441 0.224094 0.646289
O O8 0.265349 0.228630 0.712533
O O9 0.500000 0.274070 0.500000
O O10 0.429823 0.249090 0.641063
O O11 0.485022 0.000000 0.610998
O O12 0.931997 0.720120 0.853215
O O13 0.943462 0.000000 0.965197
O O14 0.876955 0.787804 0.998991
O O15 0.858137 0.500000 0.287989
O O16 0.822095 0.708214 0.147452
O O17 0.851848 0.733074 0.758422
O O18 0.902367 0.000000 0.759626
O O19 0.312946 0.500000 0.047132
O O20 0.297376 0.230461 0.924582
O O21 0.698044 0.500000 0.196469
#
# Coordination Sequence:
#
# PCOD9205723 Si02
#       8
#     8   8   8   8   8   8   8   8
#     4   9  18  33  51  71  99 133 163 196 245 298
#     4  10  21  36  52  72 100 133 170 207 242 285
#     4  10  22  37  50  68  97 132 170 209 246 286
#     4   8  15  29  50  76 101 124 156 200 246 293
#     4   9  18  32  50  73 101 130 160 200 247 291
#     4   9  18  34  55  76  99 128 162 201 246 295
#     4   8  14  28  51  75  99 128 160 194 241 300
#     4   8  16  33  54  75 102 132 158 196 251 296
#
# _framework density 22.712606000000001
#
# number of rings (size 3 to 8) (size 9 to 14) (size 15 to 20)
#    0.000    3.125    0.000    1.500    0.000    3.750 
#    0.000    6.875    0.000    0.000    0.000    0.000 
#    0.000    0.000    0.000    0.000    0.000    0.000 
#
# Total GULP energy -178526.847848 kJ/mol
# GULP energy per Si atom -5578.963995 kJ/mol
# Density = 2.266091 g / cm^3
# Si number density = 22.712606 Si / 1000 Ang^3
#
#
#
# Elastic Constant Matrix: (Units=GPa)
#
#
# Indices 1 2 3 4 5 6 
#
# 1 69.6070 -1.9784 33.0195 0.0000 -17.5569 0.0000
# 2 -1.9784 33.4178 -3.2238 0.0000 0.7748 0.0000
# 3 33.0195 -3.2238 50.2934 0.0000 -26.2227 0.0000
# 4 0.0000 0.0000 0.0000 27.3751 0.0000 -0.1811
# 5 -17.5569 0.7748 -26.2227 0.0000 40.9858 0.0000
# 6 0.0000 0.0000 0.0000 -0.1811 0.0000 11.5542
#
#
#
# Elastic Compliance Matrix: (Units=1/GPa)
#
#
# Indices 1 2 3 4 5 6 
#
# 1 0.020867 -0.000080 -0.013570 0.000000 0.000258 0.000000
# 2 -0.000080 0.030138 0.002505 0.000000 0.000999 0.000000
# 3 -0.013570 0.002505 0.038862 0.000000 0.019003 0.000000
# 4 0.000000 0.000000 0.000000 0.036533 0.000000 0.000573
# 5 0.000258 0.000999 0.019003 0.000000 0.036648 0.000000
# 6 0.000000 0.000000 0.000000 0.000573 0.000000 0.086558
#
#
# Mechanical properties :
#
#
# Convention : Reuss Voigt Hill
#
# Bulk Modulus (GPa) = 14.79828 23.21700 19.00764
# Shear Modulus (GPa) = 16.98248 24.34973 20.66611
#
# Velocity S-wave (km/s) = 2.73740 3.27782 3.01972
# Velocity P-wave (km/s) = 4.06457 4.95678 4.53268
#
# Compressibility (1/GPa) = 0.06757541
#
# Stress axis : x y z
#
# Youngs Moduli (GPa) = 47.92371 33.18079 25.73240
#
# Poissons Ratio (x) = 0.00265 0.34920
# Poissons Ratio (y) = 0.00382 -0.06446
# Poissons Ratio (z) = 0.65035 -0.08312
#
# Static dielectric constant tensor:
#      x y z
#    x 1.897220 0.000000 -0.003350 
#    y 0.000000 1.871770 0.000000 
#    z -0.003350 0.000000 1.849390 
# 
# From -- ./inp_files/187635.got.cif
#   From: 2010.05.17/outbox.cif.g08.bks.cpg/sg12_94_cif.got.tgz:187635.got - 2010.06.03 13:09:07.
