data_PCOD9205739
_publ_section_title
;
Structure prediction by ZEFSAII (Michael W. Deem and Ramdas Pophale) SiO2 
 PCOD9205739
Probable space group: C 2/M
;
_chemical_formula_sum "Si O2"
_cell_formula_units_Z 56
_cell_length_a 20.289957
_cell_length_b 7.974174
_cell_length_c 32.083602
_cell_angle_alpha 90.000000
_cell_angle_beta 30.917653
_cell_angle_gamma 90.000000
_cell_volume 2667.158274
_symmetry_space_group_name_H-M "C 2/M"
_symmetry_group_IT_number 12
_symmetry_cell_setting 'monoclinic'
loop_
_space_group_symop_operation_xyz
x,y,z
-x,y,-z
-x,-y,-z
x,-y,z
1/2+x,1/2+y,z
1/2-x,1/2+y,-z
1/2-x,1/2-y,-z
1/2+x,1/2-y,z
loop_
_atom_site_type_symbol
_atom_site_label
_atom_site_fract_x
_atom_site_fract_y
_atom_site_fract_z
Si Si1 0.999489 0.698053 0.596398
Si Si2 0.781177 0.201098 0.226563
Si Si3 0.322570 0.691247 0.568264
Si Si4 0.137374 0.205019 0.909304
Si Si5 0.619293 0.202519 0.742504
Si Si6 0.384364 0.692368 0.383075
Si Si7 0.407020 0.796852 0.792586
O O1 0.996365 0.500000 0.603925
O O2 0.053143 0.732709 0.521226
O O3 0.095739 0.766693 0.579514
O O4 0.858392 0.767717 0.683276
O O5 0.828732 0.262070 0.155943
O O6 0.876484 0.241669 0.212453
O O7 0.769683 0.000000 0.229398
O O8 0.352617 0.500000 0.561950
O O9 0.246046 0.768203 0.648968
O O10 0.213702 0.699086 0.590979
O O11 0.258643 0.252118 0.872225
O O12 0.132995 0.000000 0.911039
O O13 0.000000 0.264287 0.000000
O O14 0.493643 0.255287 0.784851
O O15 0.624400 0.000000 0.737893
O O16 0.343592 0.500000 0.400276
O O17 0.521325 0.723725 0.286687
O O18 0.413324 0.000000 0.785918
#
# Coordination Sequence:
#
# PCOD9205739 Si02
#       7
#     8   8   8   8   8   8   8
#     4  11  21  34  51  75 109 146 186 232 278 320
#     4  10  21  36  56  81 110 144 182 231 276 322
#     4  10  21  36  52  75 107 148 191 229 269 319
#     4   9  17  34  62  89 109 137 182 228 271 327
#     4   9  20  36  55  76 109 152 184 222 271 326
#     4  11  20  31  51  79 109 145 185 229 277 323
#     4   9  17  35  58  81 110 145 186 225 269 326
#
# _framework density 20.996129
#
# number of rings (size 3 to 8) (size 9 to 14) (size 15 to 20)
#    0.000    2.143    1.429    3.429    0.000    4.571 
#    0.000    3.571    0.000    1.714    0.000    0.000 
#    0.000    0.000    0.000    0.000    0.000    0.000 
#
# Total GULP energy -156356.958678 kJ/mol
# GULP energy per Si atom -5584.177096 kJ/mol
# Density = 2.094834 g / cm^3
# Si number density = 20.996129 Si / 1000 Ang^3
#
#
#
# Elastic Constant Matrix: (Units=GPa)
#
#
# Indices 1 2 3 4 5 6 
#
# 1 103.3719 -0.5864 59.1073 0.0103 2.7816 0.0129
# 2 -0.5864 28.9429 3.2323 0.0002 -0.9618 -0.0556
# 3 59.1073 3.2323 135.4365 0.0117 -17.1301 0.0009
# 4 0.0103 0.0002 0.0117 14.9463 0.0089 5.6845
# 5 2.7816 -0.9618 -17.1301 0.0089 23.1554 0.0060
# 6 0.0129 -0.0556 0.0009 5.6845 0.0060 17.0806
#
#
#
# Elastic Compliance Matrix: (Units=1/GPa)
#
#
# Indices 1 2 3 4 5 6 
#
# 1 0.013801 0.000826 -0.006893 0.000002 -0.006723 -0.000006
# 2 0.000826 0.034710 -0.001124 -0.000050 0.000511 0.000129
# 3 -0.006893 -0.001124 0.011603 -0.000010 0.009365 0.000001
# 4 0.000002 -0.000050 -0.000010 0.076602 -0.000033 -0.025494
# 5 -0.006723 0.000511 0.009365 -0.000033 0.050944 -0.000001
# 6 -0.000006 0.000129 0.000001 -0.025494 -0.000001 0.067031
#
#
# Mechanical properties :
#
#
# Convention : Reuss Voigt Hill
#
# Bulk Modulus (GPa) = 21.86668 43.47308 32.66988
# Shear Modulus (GPa) = 17.58597 24.76965 21.17781
#
# Velocity S-wave (km/s) = 2.89724 3.43844 3.17938
# Velocity P-wave (km/s) = 4.65072 6.04268 5.39181
#
# Compressibility (1/GPa) = 0.04573168
#
# Stress axis : x y z
#
# Youngs Moduli (GPa) = 72.45990 28.80990 86.18380
#
# Poissons Ratio (x) = -0.02380 0.59406
# Poissons Ratio (y) = -0.05985 0.09689
# Poissons Ratio (z) = 0.49946 0.03239
#
# Static dielectric constant tensor:
#      x y z
#    x 1.766760 0.000000 -0.031140 
#    y 0.000000 1.758790 0.000010 
#    z -0.031140 0.000010 1.768100 
# 
# From -- ./inp_files/319664.got.cif
#   From: 2010.05.17/outbox.cif.g08.bks.cpg/sg12_160_cif.got.tgz:319664.got - 2010.06.03 13:09:07.
