data_PCOD9205510
_publ_section_title
;
Structure prediction by ZEFSAII (Michael W. Deem and Ramdas Pophale) SiO2 
 PCOD9205510
Probable space group: C 2/M
;
_chemical_formula_sum "Si O2"
_cell_formula_units_Z 56
_cell_length_a 19.529280
_cell_length_b 23.122641
_cell_length_c 8.473499
_cell_angle_alpha 90.000000
_cell_angle_beta 55.678110
_cell_angle_gamma 90.000000
_cell_volume 3160.129972
_symmetry_space_group_name_H-M "C 2/M"
_symmetry_group_IT_number 12
_symmetry_cell_setting 'monoclinic'
loop_
_space_group_symop_operation_xyz
x,y,z
-x,y,-z
-x,-y,-z
x,-y,z
1/2+x,1/2+y,z
1/2-x,1/2+y,-z
1/2-x,1/2-y,-z
1/2+x,1/2-y,z
loop_
_atom_site_type_symbol
_atom_site_label
_atom_site_fract_x
_atom_site_fract_y
_atom_site_fract_z
Si Si1 0.626848 0.263695 0.164028
Si Si2 0.268967 0.165835 0.839448
Si Si3 0.042944 0.783642 0.777265
Si Si4 0.668598 0.660313 0.413965
Si Si5 0.242601 0.567128 0.904971
Si Si6 0.901897 0.435274 0.152378
Si Si7 0.830760 0.676926 0.402909
O O1 0.666628 0.200669 0.132095
O O2 0.531960 0.264957 0.239833
O O3 0.642484 0.296188 0.308863
O O4 0.682718 0.299346 0.967393
O O5 0.301379 0.169975 0.620758
O O6 0.258353 0.103166 0.931515
O O7 0.094097 0.836937 0.636150
O O8 0.107222 0.730298 0.702980
O O9 0.000000 0.795629 0.000000
O O10 0.694611 0.600643 0.295553
O O11 0.750648 0.683128 0.395233
O O12 0.263674 0.500000 0.897783
O O13 0.152680 0.570412 0.936282
O O14 0.882966 0.500000 0.239844
O O15 0.874342 0.382816 0.297458
O O16 0.000000 0.431695 0.000000
#
# Coordination Sequence:
#
# PCOD9205510 Si02
#       7
#     8   8   8   8   8   8   8
#     4  10  22  37  54  81 113 153 178 230 283 341
#     4  10  21  35  57  77 115 140 188 230 280 330
#     4  12  24  33  55  84 118 148 190 229 283 338
#     4  10  21  39  58  80 119 150 188 229 284 340
#     4   9  20  38  61  81 106 151 193 233 284 337
#     4   9  19  36  53  75 110 151 193 230 275 330
#     4  11  22  34  55  85 113 153 184 234 277 336
#
# _framework density 17.720790999999998
#
# number of rings (size 3 to 8) (size 9 to 14) (size 15 to 20)
#    0.000    1.857    1.429    2.143   10.000    0.571 
#    0.000    0.000    0.000    9.857    0.000    0.000 
#    0.000    0.000    0.000    0.000    0.000    0.000 
#
# Total GULP energy -156299.541406 kJ/mol
# GULP energy per Si atom -5582.126479 kJ/mol
# Density = 1.768046 g / cm^3
# Si number density = 17.720791 Si / 1000 Ang^3
#
#
#
# Elastic Constant Matrix: (Units=GPa)
#
#
# Indices 1 2 3 4 5 6 
#
# 1 82.5208 26.1349 24.1920 0.0000 -12.4008 0.0000
# 2 26.1349 90.5929 35.4697 0.0000 2.1925 0.0000
# 3 24.1920 35.4697 113.9449 0.0000 -0.3449 0.0000
# 4 0.0000 0.0000 0.0000 21.0327 0.0000 0.2605
# 5 -12.4008 2.1925 -0.3449 0.0000 23.5548 0.0000
# 6 0.0000 0.0000 0.0000 0.2605 0.0000 16.6786
#
#
#
# Elastic Compliance Matrix: (Units=1/GPa)
#
#
# Indices 1 2 3 4 5 6 
#
# 1 0.015155 -0.003784 -0.002014 0.000000 0.008301 0.000000
# 2 -0.003784 0.013551 -0.003425 0.000000 -0.003304 0.000000
# 3 -0.002014 -0.003425 0.010268 0.000000 -0.000591 0.000000
# 4 0.000000 0.000000 0.000000 0.047554 0.000000 -0.000743
# 5 0.008301 -0.003304 -0.000591 0.000000 0.047123 0.000000
# 6 0.000000 0.000000 0.000000 -0.000743 0.000000 0.059969
#
#
# Mechanical properties :
#
#
# Convention : Reuss Voigt Hill
#
# Bulk Modulus (GPa) = 48.71640 50.96130 49.83885
# Shear Modulus (GPa) = 22.84053 25.67068 24.25561
#
# Velocity S-wave (km/s) = 3.59404 3.81020 3.70370
# Velocity P-wave (km/s) = 6.69131 6.94098 6.81729
#
# Compressibility (1/GPa) = 0.02052697
#
# Stress axis : x y z
#
# Youngs Moduli (GPa) = 65.98646 73.79560 97.38820
#
# Poissons Ratio (x) = 0.27925 0.19618
# Poissons Ratio (y) = 0.24970 0.33354
# Poissons Ratio (z) = 0.13293 0.25274
#
# Static dielectric constant tensor:
#      x y z
#    x 1.608180 0.000000 0.012660 
#    y 0.000000 1.600780 0.000000 
#    z 0.012660 0.000000 1.630450 
# 
# From -- ./inp_files/77384.got.cif
#   From: 2010.05.17/outbox.cif.g08.bks.cpg/sg12_39_cif.got.tgz:77384.got - 2010.06.03 13:09:07.
