data_PCOD9205049
_publ_section_title
;
Structure prediction by ZEFSAII (Michael W. Deem and Ramdas Pophale) SiO2 
 PCOD9205049
Probable space group: C 2/M
;
_chemical_formula_sum "Si O2"
_cell_formula_units_Z 40
_cell_length_a 8.100495
_cell_length_b 26.121021
_cell_length_c 14.384686
_cell_angle_alpha 90.000000
_cell_angle_beta 148.369558
_cell_angle_gamma 90.000000
_cell_volume 1596.233967
_symmetry_space_group_name_H-M "C 2/M"
_symmetry_group_IT_number 12
_symmetry_cell_setting 'monoclinic'
loop_
_space_group_symop_operation_xyz
x,y,z
-x,y,-z
-x,-y,-z
x,-y,z
1/2+x,1/2+y,z
1/2-x,1/2+y,-z
1/2-x,1/2-y,-z
1/2+x,1/2-y,z
loop_
_atom_site_type_symbol
_atom_site_label
_atom_site_fract_x
_atom_site_fract_y
_atom_site_fract_z
Si Si1 0.993820 0.295823 0.861971
Si Si2 0.439906 0.556358 0.314535
Si Si3 0.709864 0.166401 0.795292
Si Si4 0.456763 0.337716 0.216935
Si Si5 0.982375 0.555517 0.263446
O O1 0.933083 0.310768 0.726347
O O2 0.674417 0.297190 0.769781
O O3 0.250000 0.250000 0.000000
O O4 0.185005 0.340822 0.007487
O O5 0.432301 0.500000 0.263750
O O6 0.492385 0.606626 0.278325
O O7 0.132273 0.560738 0.232598
O O8 0.726766 0.555368 0.525038
O O9 0.706480 0.105350 0.799178
O O10 0.750354 0.180176 0.707000
O O11 0.000000 0.183646 0.000000
O O12 0.827450 0.500000 0.197500
#
# Coordination Sequence:
#
# PCOD9205049 Si02
#       5
#     8   8   8   8   8
#     4  10  22  38  57  81 114 149 194 245 298 348
#     4   9  18  36  60  87 120 162 198 233 289 355
#     4  10  21  35  55  88 117 150 194 243 294 346
#     4  10  21  34  59  89 110 152 198 237 293 348
#     4   9  18  35  59  85 121 162 196 236 289 352
#
# _framework density 25.058983999999999
#
# number of rings (size 3 to 8) (size 9 to 14) (size 15 to 20)
#    0.000    2.400    2.000    1.200    8.400    2.000 
#    0.000    7.000    0.000    1.200   10.400    0.000 
#    0.000    0.000    0.000    0.000    0.000    0.000 
#
# Total GULP energy -111453.648808 kJ/mol
# GULP energy per Si atom -5572.682440 kJ/mol
# Density = 2.500195 g / cm^3
# Si number density = 25.058984 Si / 1000 Ang^3
#
#
#
# Elastic Constant Matrix: (Units=GPa)
#
#
# Indices 1 2 3 4 5 6 
#
# 1 218.1404 82.0156 14.0771 0.0000 -40.1780 0.0000
# 2 82.0156 158.5089 25.1164 0.0000 -19.8771 0.0000
# 3 14.0771 25.1164 33.7952 0.0000 -6.7976 0.0000
# 4 0.0000 0.0000 0.0000 43.3321 0.0000 -2.4691
# 5 -40.1780 -19.8771 -6.7976 0.0000 21.3486 0.0000
# 6 0.0000 0.0000 0.0000 -2.4691 0.0000 44.1945
#
#
#
# Elastic Compliance Matrix: (Units=1/GPa)
#
#
# Indices 1 2 3 4 5 6 
#
# 1 0.007840 -0.002668 0.001266 0.000000 0.012674 0.000000
# 2 -0.002668 0.008669 -0.005041 0.000000 0.001446 0.000000
# 3 0.001266 -0.005041 0.034557 0.000000 0.008693 0.000000
# 4 0.000000 0.000000 0.000000 0.023151 0.000000 0.001293
# 5 0.012674 0.001446 0.008693 0.000000 0.074808 0.000000
# 6 0.000000 0.000000 0.000000 0.001293 0.000000 0.022700
#
#
# Mechanical properties :
#
#
# Convention : Reuss Voigt Hill
#
# Bulk Modulus (GPa) = 26.19047 72.54029 49.36538
# Shear Modulus (GPa) = 25.33734 41.05739 33.19737
#
# Velocity S-wave (km/s) = 3.18324 4.05214 3.64369
# Velocity P-wave (km/s) = 4.89744 7.13469 6.11918
#
# Compressibility (1/GPa) = 0.03818183
#
# Stress axis : x y z
#
# Youngs Moduli (GPa) = 127.55335 115.35045 28.93729
#
# Poissons Ratio (x) = 0.30774 -0.03664
# Poissons Ratio (y) = 0.34029 0.14587
# Poissons Ratio (z) = -0.16153 0.58147
#
# Static dielectric constant tensor:
#      x y z
#    x 2.284590 0.000000 0.071190 
#    y 0.000000 2.001660 0.000000 
#    z 0.071190 0.000000 1.955090 
# 
# From -- ./inp_files/199511.got.cif
#   From: 2010.05.17/outbox.cif.g08.bks.cpg/sg12_100_cif.got.tgz:199511.got - 2010.06.03 13:09:07.
