data_PCOD9205918
_publ_section_title
;
Structure prediction by ZEFSAII (Michael W. Deem and Ramdas Pophale) SiO2 
 PCOD9205918
Probable space group: C 2/M
;
_chemical_formula_sum "Si O2"
_cell_formula_units_Z 44
_cell_length_a 9.236804
_cell_length_b 18.463395
_cell_length_c 18.914468
_cell_angle_alpha 90.000000
_cell_angle_beta 132.307467
_cell_angle_gamma 90.000000
_cell_volume 2385.564004
_symmetry_space_group_name_H-M "C 2/M"
_symmetry_group_IT_number 12
_symmetry_cell_setting 'monoclinic'
loop_
_space_group_symop_operation_xyz
x,y,z
-x,y,-z
-x,-y,-z
x,-y,z
1/2+x,1/2+y,z
1/2-x,1/2+y,-z
1/2-x,1/2-y,-z
1/2+x,1/2-y,z
loop_
_atom_site_type_symbol
_atom_site_label
_atom_site_fract_x
_atom_site_fract_y
_atom_site_fract_z
Si Si1 0.905537 0.815018 0.122929
Si Si2 0.417029 0.585482 0.255175
Si Si3 0.727521 0.720520 0.712862
Si Si4 0.500000 0.727616 0.000000
Si Si5 0.826064 0.298599 0.589470
Si Si6 0.307643 0.914533 0.475510
O O1 0.924950 0.886983 0.176889
O O2 0.070303 0.760090 0.205102
O O3 0.955696 0.819239 0.055951
O O4 0.692706 0.779038 0.067067
O O5 0.370034 0.500000 0.244895
O O6 0.279421 0.643268 0.250040
O O7 0.622950 0.598325 0.363845
O O8 0.709681 0.709697 0.623288
O O9 0.547512 0.771844 0.676573
O O10 0.750000 0.250000 0.500000
O O11 0.801326 0.378168 0.549644
O O12 0.500000 0.884640 0.500000
O O13 0.327218 0.000000 0.490034
#
# Coordination Sequence:
#
# PCOD9205918 Si02
#       6
#     8   8   8   4   8   8
#     4  11  20  41  62  95 116 154 194 252 302 374
#     4  11  23  39  60  89 127 162 196 249 308 355
#     4  12  22  37  60  88 122 159 205 245 297 352
#     4  10  22  36  72  90 116 144 206 248 310 364
#     4  12  21  33  56  86 117 160 211 249 275 342
#     4  10  21  36  54  81 122 166 202 245 296 340
#
# _framework density 18.444277
#
# number of rings (size 3 to 8) (size 9 to 14) (size 15 to 20)
#    0.000    0.909    5.455    2.727    0.000    0.727 
#    0.000    2.727    0.000    3.273    0.000    0.000 
#    0.000    0.000    0.000    0.000    0.000    0.000 
#
# Total GULP energy -122767.983823 kJ/mol
# GULP energy per Si atom -5580.362901 kJ/mol
# Density = 1.840230 g / cm^3
# Si number density = 18.444277 Si / 1000 Ang^3
#
#
#
# Elastic Constant Matrix: (Units=GPa)
#
#
# Indices 1 2 3 4 5 6 
#
# 1 79.8808 17.5780 33.0398 0.0000 -16.2079 0.0000
# 2 17.5780 76.4175 38.3874 0.0000 -4.3155 0.0000
# 3 33.0398 38.3874 72.2874 0.0000 -8.6006 0.0000
# 4 0.0000 0.0000 0.0000 23.4392 0.0000 -9.7215
# 5 -16.2079 -4.3155 -8.6006 0.0000 51.2878 0.0000
# 6 0.0000 0.0000 0.0000 -9.7215 0.0000 25.7327
#
#
#
# Elastic Compliance Matrix: (Units=1/GPa)
#
#
# Indices 1 2 3 4 5 6 
#
# 1 0.016186 -0.000027 -0.006913 0.000000 0.003954 0.000000
# 2 -0.000027 0.017847 -0.009477 0.000000 -0.000096 0.000000
# 3 -0.006913 -0.009477 0.022112 0.000000 0.000726 0.000000
# 4 0.000000 0.000000 0.000000 0.050590 0.000000 0.019112
# 5 0.003954 -0.000096 0.000726 0.000000 0.020861 0.000000
# 6 0.000000 0.000000 0.000000 0.019112 0.000000 0.046081
#
#
# Mechanical properties :
#
#
# Convention : Reuss Voigt Hill
#
# Bulk Modulus (GPa) = 42.89695 45.17734 44.03714
# Shear Modulus (GPa) = 23.33360 29.39731 26.36546
#
# Velocity S-wave (km/s) = 3.56066 3.99663 3.78493
# Velocity P-wave (km/s) = 6.34133 6.77086 6.55961
#
# Compressibility (1/GPa) = 0.02331168
#
# Stress axis : x y z
#
# Youngs Moduli (GPa) = 61.78081 56.03090 45.22371
#
# Poissons Ratio (x) = 0.00152 0.31264
# Poissons Ratio (y) = 0.00168 0.42857
# Poissons Ratio (z) = 0.42711 0.53098
#
# Static dielectric constant tensor:
#      x y z
#    x 1.712880 0.000000 -0.016740 
#    y 0.000000 1.698310 0.000000 
#    z -0.016740 0.000000 1.664860 
# 
# From -- ./inp_files/195428.got.cif
#   From: 2010.05.17/outbox.cif.g08.bks.cpg/sg12_98_cif.got.tgz:195428.got - 2010.06.03 13:09:07.
