data_PCOD9205882
_publ_section_title
;
Structure prediction by ZEFSAII (Michael W. Deem and Ramdas Pophale) SiO2 
 PCOD9205882
Probable space group: C 2/M
;
_chemical_formula_sum "Si O2"
_cell_formula_units_Z 48
_cell_length_a 10.541990
_cell_length_b 8.635014
_cell_length_c 29.340168
_cell_angle_alpha 90.000000
_cell_angle_beta 69.037978
_cell_angle_gamma 90.000000
_cell_volume 2494.079959
_symmetry_space_group_name_H-M "C 2/M"
_symmetry_group_IT_number 12
_symmetry_cell_setting 'monoclinic'
loop_
_space_group_symop_operation_xyz
x,y,z
-x,y,-z
-x,-y,-z
x,-y,z
1/2+x,1/2+y,z
1/2-x,1/2+y,-z
1/2-x,1/2-y,-z
1/2+x,1/2-y,z
loop_
_atom_site_type_symbol
_atom_site_label
_atom_site_fract_x
_atom_site_fract_y
_atom_site_fract_z
Si Si1 0.840779 0.187145 0.307288
Si Si2 0.971279 0.314363 0.637248
Si Si3 0.591020 0.686962 0.804917
Si Si4 0.719031 0.313021 0.140343
Si Si5 0.844747 0.312771 0.027778
Si Si6 0.399871 0.685708 0.471794
O O1 0.686674 0.233073 0.339372
O O2 0.873717 0.233912 0.251236
O O3 0.946728 0.257456 0.329177
O O4 0.849386 0.000000 0.308746
O O5 0.976185 0.500000 0.634740
O O6 0.040915 0.246591 0.583306
O O7 0.596188 0.500000 0.806104
O O8 0.437882 0.736790 0.836811
O O9 0.696953 0.752346 0.827532
O O10 0.721057 0.500000 0.141117
O O11 0.788495 0.261953 0.084208
O O12 0.841474 0.500000 0.027164
O O13 0.750000 0.250000 0.000000
O O14 0.000000 0.262833 0.000000
O O15 0.500000 0.733050 0.500000
O O16 0.394348 0.500000 0.471232
O O17 0.250000 0.750000 0.500000
#
# Coordination Sequence:
#
# PCOD9205882 Si02
#       6
#     8   8   8   8   8   8
#     4  10  22  39  58  83 115 148 185 231 278 329
#     4  11  23  38  59  86 114 148 188 228 276 331
#     4  10  21  37  57  82 111 145 186 229 277 333
#     4  10  21  36  55  81 111 144 185 232 280 333
#     4  10  21  36  54  79 110 144 185 231 280 335
#     4  11  24  41  62  88 117 151 190 231 278 330
#
# _framework density 19.245573
#
# number of rings (size 3 to 8) (size 9 to 14) (size 15 to 20)
#    0.000    1.667    0.000    4.000    0.000    7.667 
#    0.000    0.000    0.000    0.000    0.000    0.000 
#    0.000    0.000    0.000    0.000    0.000    0.000 
#
# Total GULP energy -134199.187905 kJ/mol
# GULP energy per Si atom -5591.632829 kJ/mol
# Density = 1.920177 g / cm^3
# Si number density = 19.245573 Si / 1000 Ang^3
#
#
#
# Elastic Constant Matrix: (Units=GPa)
#
#
# Indices 1 2 3 4 5 6 
#
# 1 76.9282 12.5879 -19.9566 0.0000 -0.2101 0.0000
# 2 12.5879 11.0071 8.8785 0.0000 -0.9692 0.0000
# 3 -19.9566 8.8785 65.9285 0.0000 -0.9384 0.0000
# 4 0.0000 0.0000 0.0000 22.3053 0.0000 12.8119
# 5 -0.2101 -0.9692 -0.9384 0.0000 45.5017 0.0000
# 6 0.0000 0.0000 0.0000 12.8119 0.0000 31.8278
#
#
#
# Elastic Compliance Matrix: (Units=1/GPa)
#
#
# Indices 1 2 3 4 5 6 
#
# 1 0.021236 -0.033095 0.010879 0.000000 -0.000382 0.000000
# 2 -0.033095 0.153661 -0.030676 0.000000 0.002487 0.000000
# 3 0.010879 -0.030676 0.022590 0.000000 -0.000137 0.000000
# 4 0.000000 0.000000 0.000000 0.058316 0.000000 -0.023474
# 5 -0.000382 0.002487 -0.000137 0.000000 0.022026 0.000000
# 6 0.000000 0.000000 0.000000 -0.023474 0.000000 0.040868
#
#
# Mechanical properties :
#
#
# Convention : Reuss Voigt Hill
#
# Bulk Modulus (GPa) = 10.90457 17.43149 14.16803
# Shear Modulus (GPa) = 10.98788 30.08389 20.53588
#
# Velocity S-wave (km/s) = 2.39201 3.95797 3.27011
# Velocity P-wave (km/s) = 3.64791 5.47398 4.65143
#
# Compressibility (1/GPa) = 0.09170468
#
# Stress axis : x y z
#
# Youngs Moduli (GPa) = 47.09030 6.50784 44.26682
#
# Poissons Ratio (x) = 0.21538 -0.48160
# Poissons Ratio (y) = 1.55845 1.35792
# Poissons Ratio (z) = -0.51232 0.19963
#
# Static dielectric constant tensor:
#      x y z
#    x 1.604670 0.000000 -0.025700 
#    y 0.000000 1.658440 0.000000 
#    z -0.025700 0.000000 1.642880 
# 
# From -- ./inp_files/334622.got.cif
#   From: 2010.05.17/outbox.cif.g08.bks.cpg/sg12_168_cif.got.tgz:334622.got - 2010.06.03 13:09:07.
