data_PCOD9205209
_publ_section_title
;
Structure prediction by ZEFSAII (Michael W. Deem and Ramdas Pophale) SiO2 
 PCOD9205209
Probable space group: C 2/M
;
_chemical_formula_sum "Si O2"
_cell_formula_units_Z 48
_cell_length_a 15.479588
_cell_length_b 8.630335
_cell_length_c 29.994352
_cell_angle_alpha 90.000000
_cell_angle_beta 40.353671
_cell_angle_gamma 90.000000
_cell_volume 2594.591155
_symmetry_space_group_name_H-M "C 2/M"
_symmetry_group_IT_number 12
_symmetry_cell_setting 'monoclinic'
loop_
_space_group_symop_operation_xyz
x,y,z
-x,y,-z
-x,-y,-z
x,-y,z
1/2+x,1/2+y,z
1/2-x,1/2+y,-z
1/2-x,1/2-y,-z
1/2+x,1/2-y,z
loop_
_atom_site_type_symbol
_atom_site_label
_atom_site_fract_x
_atom_site_fract_y
_atom_site_fract_z
Si Si1 0.158864 0.313571 0.834361
Si Si2 0.579050 0.687383 0.676388
Si Si3 0.859997 0.315017 0.828009
Si Si4 0.871538 0.814923 0.923163
Si Si5 0.881222 0.185770 0.675781
Si Si6 0.622275 0.186645 0.421781
O O1 0.156211 0.500000 0.838394
O O2 0.238551 0.247093 0.845357
O O3 0.247764 0.271631 0.755850
O O4 0.011526 0.247784 0.887147
O O5 0.570985 0.500000 0.684316
O O6 0.494098 0.761928 0.749655
O O7 0.503843 0.727919 0.660102
O O8 0.732507 0.736285 0.617587
O O9 0.855514 0.500000 0.832431
O O10 0.857262 0.243650 0.878124
O O11 0.871192 0.000000 0.924325
O O12 0.750000 0.750000 0.000000
O O13 0.889990 0.262094 0.624417
O O14 0.880868 0.000000 0.670656
O O15 0.500000 0.244801 0.500000
O O16 0.620343 0.000000 0.424119
#
# Coordination Sequence:
#
# PCOD9205209 Si02
#       6
#     8   8   8   8   8   8
#     4  10  21  40  63  88 116 148 189 238 288 338
#     4   9  19  37  57  78 109 147 185 231 286 336
#     4  11  22  38  61  89 116 148 192 237 284 340
#     4  12  25  41  60  86 119 155 192 233 283 337
#     4   9  19  35  56  80 107 141 182 228 279 334
#     4  10  21  35  52  77 110 147 186 229 280 337
#
# _framework density 18.500022999999999
#
# number of rings (size 3 to 8) (size 9 to 14) (size 15 to 20)
#    0.000    1.833    0.000    5.500    0.000    8.333 
#    0.000    3.333    0.000    0.000    0.000    0.000 
#    0.000    0.000    0.000    0.000    0.000    0.000 
#
# Total GULP energy -134113.801981 kJ/mol
# GULP energy per Si atom -5588.075083 kJ/mol
# Density = 1.845792 g / cm^3
# Si number density = 18.500023 Si / 1000 Ang^3
#
#
#
# Elastic Constant Matrix: (Units=GPa)
#
#
# Indices 1 2 3 4 5 6 
#
# 1 117.2488 39.8334 98.1667 0.0001 -41.0081 0.0007
# 2 39.8334 75.1228 40.5379 0.0010 -19.8177 0.0024
# 3 98.1667 40.5379 122.4437 -0.0002 -52.1397 -0.0002
# 4 0.0001 0.0010 -0.0002 29.9180 -0.0001 4.0999
# 5 -41.0081 -19.8177 -52.1397 -0.0001 3.0375 0.0000
# 6 0.0007 0.0024 -0.0002 4.0999 0.0000 34.4446
#
#
#
# Elastic Compliance Matrix: (Units=1/GPa)
#
#
# Indices 1 2 3 4 5 6 
#
# 1 0.026499 -0.003087 -0.019581 0.000000 0.001509 0.000000
# 2 -0.003087 0.016478 -0.003971 0.000000 -0.002325 -0.000001
# 3 -0.019581 -0.003971 0.015599 0.000000 -0.022501 0.000001
# 4 0.000000 0.000000 0.000000 0.033979 0.000000 -0.004044
# 5 0.001509 -0.002325 -0.022501 0.000000 -0.051806 0.000000
# 6 0.000000 -0.000001 0.000001 -0.004044 0.000000 0.029514
#
#
# Mechanical properties :
#
#
# Convention : Reuss Voigt Hill
#
# Bulk Modulus (GPa) = 188.70176 74.65460 131.67818
# Shear Modulus (GPa) = 39.90270 22.56517 31.23394
#
# Velocity S-wave (km/s) = 4.64928 3.49626 4.11337
# Velocity P-wave (km/s) = 11.44742 7.53259 9.68977
#
# Compressibility (1/GPa) = 0.00529937
#
# Stress axis : x y z
#
# Youngs Moduli (GPa) = 37.73661 60.68866 64.10796
#
# Poissons Ratio (x) = 0.18734 1.25528
# Poissons Ratio (y) = 0.11649 0.25455
# Poissons Ratio (z) = 0.73891 0.24097
#
# Static dielectric constant tensor:
#      x y z
#    x 1.622460 0.000000 -0.015040 
#    y 0.000000 1.623350 0.000000 
#    z -0.015040 0.000000 1.612260 
# 
# From -- ./inp_files/308587.got.cif
#   From: 2010.05.17/outbox.cif.g08.bks.cpg/sg12_155_cif.got.tgz:308587.got - 2010.06.03 13:09:07.
