data_PCOD9205825
_publ_section_title
;
Structure prediction by ZEFSAII (Michael W. Deem and Ramdas Pophale) SiO2 
 PCOD9205825
Probable space group: C 2/M
;
_chemical_formula_sum "Si O2"
_cell_formula_units_Z 64
_cell_length_a 26.385227
_cell_length_b 27.558550
_cell_length_c 10.331925
_cell_angle_alpha 90.000000
_cell_angle_beta 151.602311
_cell_angle_gamma 90.000000
_cell_volume 3572.975155
_symmetry_space_group_name_H-M "C 2/M"
_symmetry_group_IT_number 12
_symmetry_cell_setting 'monoclinic'
loop_
_space_group_symop_operation_xyz
x,y,z
-x,y,-z
-x,-y,-z
x,-y,z
1/2+x,1/2+y,z
1/2-x,1/2+y,-z
1/2-x,1/2-y,-z
1/2+x,1/2-y,z
loop_
_atom_site_type_symbol
_atom_site_label
_atom_site_fract_x
_atom_site_fract_y
_atom_site_fract_z
Si Si1 0.801646 0.359978 0.870128
Si Si2 0.819854 0.791839 0.592801
Si Si3 0.589058 0.442499 0.016310
Si Si4 0.156924 0.056932 0.458664
Si Si5 0.742387 0.192269 0.955065
Si Si6 0.491773 0.189822 0.634171
Si Si7 0.927720 0.135198 0.226732
Si Si8 0.504945 0.287395 0.808370
O O1 0.755681 0.330785 0.643733
O O2 0.745327 0.411566 0.729170
O O3 0.767650 0.334291 0.928405
O O4 0.929623 0.354526 0.157584
O O5 0.750000 0.750000 0.500000
O O6 0.900261 0.777322 0.657639
O O7 0.901670 0.807145 0.888969
O O8 0.602340 0.500000 0.017674
O O9 0.462420 0.433729 0.755904
O O10 0.620691 0.405907 0.974170
O O11 0.647775 0.432380 0.284328
O O12 0.177602 0.000000 0.519210
O O13 0.633796 0.182779 0.630301
O O14 0.750000 0.250000 0.000000
O O15 0.839358 0.170097 0.091786
O O16 0.500000 0.201053 0.500000
O O17 0.533004 0.236709 0.804051
O O18 0.005630 0.170964 0.321299
O O19 0.000000 0.111647 0.500000
#
# Coordination Sequence:
#
# PCOD9205825 Si02
#       8
#     8   8   8   8   8   8   8   8
#     4  11  20  37  57  80 109 144 193 237 277 337
#     4  11  22  34  51  76 108 144 180 236 277 324
#     4   9  19  36  57  85 116 143 180 233 294 349
#     4   9  18  36  62  85 110 146 186 236 291 342
#     4  11  23  37  56  78 115 157 191 226 279 340
#     4  10  21  36  54  74 106 148 187 228 270 328
#     4  12  22  34  55  83 110 150 186 226 282 339
#     4  11  22  35  50  76 111 142 191 224 274 335
#
# _framework density 17.912244000000001
#
# number of rings (size 3 to 8) (size 9 to 14) (size 15 to 20)
#    0.000    1.500    1.250    7.125    1.750    2.250 
#    0.000    0.625    0.000    4.125    0.000    1.750 
#    0.000    0.000    0.000    0.000    0.000    0.000 
#
# Total GULP energy -178561.708635 kJ/mol
# GULP energy per Si atom -5580.053395 kJ/mol
# Density = 1.787147 g / cm^3
# Si number density = 17.912244 Si / 1000 Ang^3
#
#
#
# Elastic Constant Matrix: (Units=GPa)
#
#
# Indices 1 2 3 4 5 6 
#
# 1 62.2720 36.2822 30.1347 0.0000 -2.0804 0.0000
# 2 36.2822 91.1294 45.6259 0.0000 -4.8946 0.0000
# 3 30.1347 45.6259 107.4309 0.0000 0.4806 0.0000
# 4 0.0000 0.0000 0.0000 31.8992 0.0000 -3.9326
# 5 -2.0804 -4.8946 0.4806 0.0000 23.7903 0.0000
# 6 0.0000 0.0000 0.0000 -3.9326 0.0000 24.4714
#
#
#
# Elastic Compliance Matrix: (Units=1/GPa)
#
#
# Indices 1 2 3 4 5 6 
#
# 1 0.021682 -0.007061 -0.003086 0.000000 0.000506 0.000000
# 2 -0.007061 0.016452 -0.005019 0.000000 0.002869 0.000000
# 3 -0.003086 -0.005019 0.012312 0.000000 -0.001551 0.000000
# 4 0.000000 0.000000 0.000000 0.031982 0.000000 0.005140
# 5 0.000506 0.002869 -0.001551 0.000000 0.042700 0.000000
# 6 0.000000 0.000000 0.000000 0.005140 0.000000 0.041690
#
#
# Mechanical properties :
#
#
# Convention : Reuss Voigt Hill
#
# Bulk Modulus (GPa) = 49.71295 53.87977 51.79636
# Shear Modulus (GPa) = 24.52725 25.95147 25.23936
#
# Velocity S-wave (km/s) = 3.70442 3.81046 3.75781
# Velocity P-wave (km/s) = 6.79050 7.03595 6.91431
#
# Compressibility (1/GPa) = 0.02011548
#
# Stress axis : x y z
#
# Youngs Moduli (GPa) = 46.12020 60.78428 81.21843
#
# Poissons Ratio (x) = 0.42917 0.25061
# Poissons Ratio (y) = 0.32564 0.40766
# Poissons Ratio (z) = 0.14231 0.30509
#
# Static dielectric constant tensor:
#      x y z
#    x 1.650500 0.000000 0.008060 
#    y 0.000000 1.603550 0.000000 
#    z 0.008060 0.000000 1.663040 
# 
# From -- ./inp_files/100224.got.cif
#   From: 2010.05.17/outbox.cif.g08.bks.cpg/sg12_51_cif.got.tgz:100224.got - 2010.06.03 13:09:07.
