data_PCOD9205317
_publ_section_title
;
Structure prediction by ZEFSAII (Michael W. Deem and Ramdas Pophale) SiO2 
 PCOD9205317
Probable space group: C 2/M
;
_chemical_formula_sum "Si O2"
_cell_formula_units_Z 44
_cell_length_a 26.515221
_cell_length_b 12.993371
_cell_length_c 15.164451
_cell_angle_alpha 90.000000
_cell_angle_beta 156.436918
_cell_angle_gamma 90.000000
_cell_volume 2088.533708
_symmetry_space_group_name_H-M "C 2/M"
_symmetry_group_IT_number 12
_symmetry_cell_setting 'monoclinic'
loop_
_space_group_symop_operation_xyz
x,y,z
-x,y,-z
-x,-y,-z
x,-y,z
1/2+x,1/2+y,z
1/2-x,1/2+y,-z
1/2-x,1/2-y,-z
1/2+x,1/2-y,z
loop_
_atom_site_type_symbol
_atom_site_label
_atom_site_fract_x
_atom_site_fract_y
_atom_site_fract_z
Si Si1 0.280531 0.201058 0.372487
Si Si2 0.117317 0.117633 0.256615
Si Si3 0.922164 0.119155 0.089066
Si Si4 0.434922 0.182670 0.214328
Si Si5 0.792833 0.882661 0.266328
Si Si6 0.500000 0.756452 0.500000
O O1 0.222507 0.183356 0.375616
O O2 0.423251 0.162349 0.591541
O O3 0.268607 0.317413 0.316367
O O4 0.193395 0.137540 0.163488
O O5 0.049036 0.148950 0.237742
O O6 0.162634 0.000000 0.339086
O O7 0.000000 0.115995 0.000000
O O8 0.908586 0.197405 0.147411
O O9 0.928924 0.000000 0.123988
O O10 0.435203 0.175650 0.320058
O O11 0.331243 0.121244 0.993835
O O12 0.898401 0.816299 0.384810
O O13 0.830154 0.000000 0.342479
#
# Coordination Sequence:
#
# PCOD9205317 Si02
#       6
#     8   8   8   8   8   4
#     4   9  18  32  52  76 105 138 166 207 255 298
#     4   8  14  28  52  78 103 135 175 211 244 291
#     4   9  18  33  54  79 104 136 178 214 246 294
#     4  10  21  35  54  78 106 132 167 216 262 305
#     4  10  21  36  54  77 105 135 168 209 256 310
#     4  10  21  40  57  72  96 134 175 214 259 308
#
# _framework density 21.067412000000001
#
# number of rings (size 3 to 8) (size 9 to 14) (size 15 to 20)
#    0.000    2.727    0.000    2.455    0.000    5.818 
#    0.000    0.455    0.000   14.727    0.000    0.000 
#    0.000    0.000    0.000    0.000    0.000    0.000 
#
# Total GULP energy -122831.314672 kJ/mol
# GULP energy per Si atom -5583.241576 kJ/mol
# Density = 2.101946 g / cm^3
# Si number density = 21.067412 Si / 1000 Ang^3
#
#
#
# Elastic Constant Matrix: (Units=GPa)
#
#
# Indices 1 2 3 4 5 6 
#
# 1 43.3846 16.6923 8.0408 0.0000 -13.4337 0.0000
# 2 16.6923 39.1905 6.9038 0.0000 6.3683 0.0000
# 3 8.0408 6.9038 102.6706 0.0000 -1.8169 0.0000
# 4 0.0000 0.0000 0.0000 -4.7492 0.0000 11.2103
# 5 -13.4337 6.3683 -1.8169 0.0000 34.9605 0.0000
# 6 0.0000 0.0000 0.0000 11.2103 0.0000 14.5607
#
#
#
# Elastic Compliance Matrix: (Units=1/GPa)
#
#
# Indices 1 2 3 4 5 6 
#
# 1 0.035143 -0.017442 -0.001285 0.000000 0.016614 0.000000
# 2 -0.017442 0.035309 -0.001242 0.000000 -0.013198 0.000000
# 3 -0.001285 -0.001242 0.009928 0.000000 0.000248 0.000000
# 4 0.000000 0.000000 0.000000 -0.074738 0.000000 0.057541
# 5 0.016614 -0.013198 0.000248 0.000000 0.037405 0.000000
# 6 0.000000 0.000000 0.000000 0.057541 0.000000 0.024377
#
#
# Mechanical properties :
#
#
# Convention : Reuss Voigt Hill
#
# Bulk Modulus (GPa) = 24.72661 27.61330 26.16995
# Shear Modulus (GPa) = 41.37607 19.19498 30.28552
#
# Velocity S-wave (km/s) = 4.43649 3.02175 3.79562
# Velocity P-wave (km/s) = 6.16488 5.03093 5.62654
#
# Compressibility (1/GPa) = 0.04044227
#
# Stress axis : x y z
#
# Youngs Moduli (GPa) = 28.45508 28.32166 100.72062
#
# Poissons Ratio (x) = 0.49398 0.12947
# Poissons Ratio (y) = 0.49630 0.12508
# Poissons Ratio (z) = 0.03658 0.03517
#
# Static dielectric constant tensor:
#      x y z
#    x 1.770910 0.000000 -0.017320 
#    y 0.000000 1.741790 0.000000 
#    z -0.017320 0.000000 1.792300 
# 
# From -- ./inp_files/296547.got.cif
#   From: 2010.05.17/outbox.cif.g08.bks.cpg/sg12_149_cif.got.tgz:296547.got - 2010.06.03 13:09:07.
