data_PCOD9205641
_publ_section_title
;
Structure prediction by ZEFSAII (Michael W. Deem and Ramdas Pophale) SiO2 
 PCOD9205641
Probable space group: C 2/M
;
_chemical_formula_sum "Si O2"
_cell_formula_units_Z 56
_cell_length_a 14.675493
_cell_length_b 22.398916
_cell_length_c 9.008835
_cell_angle_alpha 90.000000
_cell_angle_beta 89.564783
_cell_angle_gamma 90.000000
_cell_volume 2961.254980
_symmetry_space_group_name_H-M "C 2/M"
_symmetry_group_IT_number 12
_symmetry_cell_setting 'monoclinic'
loop_
_space_group_symop_operation_xyz
x,y,z
-x,y,-z
-x,-y,-z
x,-y,z
1/2+x,1/2+y,z
1/2-x,1/2+y,-z
1/2-x,1/2-y,-z
1/2+x,1/2-y,z
loop_
_atom_site_type_symbol
_atom_site_label
_atom_site_fract_x
_atom_site_fract_y
_atom_site_fract_z
Si Si1 0.359611 0.340335 0.455218
Si Si2 0.235693 0.294260 0.208022
Si Si3 0.521314 0.695926 0.280885
Si Si4 0.313832 0.666644 0.904603
Si Si5 0.522186 0.819979 0.172456
Si Si6 0.948674 0.432637 0.344496
Si Si7 0.266278 0.430726 0.670382
O O1 0.279298 0.309222 0.365253
O O2 0.405054 0.301108 0.585903
O O3 0.442789 0.347901 0.338331
O O4 0.323631 0.398583 0.540012
O O5 0.237430 0.224030 0.167551
O O6 0.130630 0.314411 0.197223
O O7 0.290933 0.328658 0.077568
O O8 0.580094 0.676315 0.138346
O O9 0.480813 0.761213 0.251907
O O10 0.282694 0.607346 0.819986
O O11 0.483719 0.880821 0.237894
O O12 0.500000 0.816033 0.000000
O O13 0.966337 0.500000 0.286966
O O14 0.840469 0.426696 0.366705
O O15 0.000000 0.426577 0.500000
O O16 0.290609 0.500000 0.687400
#
# Coordination Sequence:
#
# PCOD9205641 Si02
#       7
#     8   8   8   8   8   8   8
#     4  10  21  38  57  85 113 147 194 238 288 334
#     4  10  21  35  60  86 114 153 188 240 291 340
#     4   9  22  36  54  86 113 144 185 240 296 336
#     4   9  20  37  55  84 114 146 191 229 294 341
#     4  11  23  36  55  85 119 153 189 233 288 347
#     4  10  22  37  56  81 113 153 195 234 278 341
#     4  10  21  39  59  80 114 155 195 235 281 344
#
# _framework density 18.910900999999999
#
# number of rings (size 3 to 8) (size 9 to 14) (size 15 to 20)
#    0.000    2.143    0.000    1.714   10.000    5.429 
#    0.000    7.143    0.000    0.000    0.000   10.000 
#    0.000    0.000    0.000    0.000    0.000    0.000 
#
# Total GULP energy -156298.249259 kJ/mol
# GULP energy per Si atom -5582.080331 kJ/mol
# Density = 1.886786 g / cm^3
# Si number density = 18.910901 Si / 1000 Ang^3
#
#
#
# Elastic Constant Matrix: (Units=GPa)
#
#
# Indices 1 2 3 4 5 6 
#
# 1 72.5613 41.6842 37.8825 0.0000 2.6589 0.0000
# 2 41.6842 149.0383 64.7136 0.0000 -0.9031 0.0000
# 3 37.8825 64.7136 71.6501 0.0000 0.0194 0.0000
# 4 0.0000 0.0000 0.0000 16.2813 0.0000 -3.4066
# 5 2.6589 -0.9031 0.0194 0.0000 37.5984 0.0000
# 6 0.0000 0.0000 0.0000 -3.4066 0.0000 24.2207
#
#
#
# Elastic Compliance Matrix: (Units=1/GPa)
#
#
# Indices 1 2 3 4 5 6 
#
# 1 0.019335 -0.001608 -0.008770 0.000000 -0.001401 0.000000
# 2 -0.001608 0.011175 -0.009243 0.000000 0.000387 0.000000
# 3 -0.008770 -0.009243 0.026942 0.000000 0.000384 0.000000
# 4 0.000000 0.000000 0.000000 0.063282 0.000000 0.008901
# 5 -0.001401 0.000387 0.000384 0.000000 0.026705 0.000000
# 6 0.000000 0.000000 0.000000 0.008901 0.000000 0.042539
#
#
# Mechanical properties :
#
#
# Convention : Reuss Voigt Hill
#
# Bulk Modulus (GPa) = 54.91618 64.64560 59.78089
# Shear Modulus (GPa) = 21.25026 25.55137 23.40082
#
# Velocity S-wave (km/s) = 3.35581 3.67978 3.52152
# Velocity P-wave (km/s) = 6.64212 7.23277 6.94372
#
# Compressibility (1/GPa) = 0.01820957
#
# Stress axis : x y z
#
# Youngs Moduli (GPa) = 51.71893 89.48272 37.11725
#
# Poissons Ratio (x) = 0.14393 0.32551
# Poissons Ratio (y) = 0.08319 0.34308
# Poissons Ratio (z) = 0.45356 0.82710
#
# Static dielectric constant tensor:
#      x y z
#    x 1.697210 0.000000 -0.014000 
#    y 0.000000 1.633440 0.000000 
#    z -0.014000 0.000000 1.662230 
# 
# From -- ./inp_files/64109.got.cif
#   From: 2010.05.17/outbox.cif.g08.bks.cpg/sg12_33_cif.got.tgz:64109.got - 2010.06.03 13:09:07.
