data_PCOD9205962
_publ_section_title
;
Structure prediction by ZEFSAII (Michael W. Deem and Ramdas Pophale) SiO2 
 PCOD9205962
Probable space group: C 2/M
;
_chemical_formula_sum "Si O2"
_cell_formula_units_Z 40
_cell_length_a 21.765087
_cell_length_b 7.393841
_cell_length_c 13.927295
_cell_angle_alpha 90.000000
_cell_angle_beta 131.146259
_cell_angle_gamma 90.000000
_cell_volume 1687.761019
_symmetry_space_group_name_H-M "C 2/M"
_symmetry_group_IT_number 12
_symmetry_cell_setting 'monoclinic'
loop_
_space_group_symop_operation_xyz
x,y,z
-x,y,-z
-x,-y,-z
x,-y,z
1/2+x,1/2+y,z
1/2-x,1/2+y,-z
1/2-x,1/2-y,-z
1/2+x,1/2-y,z
loop_
_atom_site_type_symbol
_atom_site_label
_atom_site_fract_x
_atom_site_fract_y
_atom_site_fract_z
Si Si1 0.628757 0.210899 0.333555
Si Si2 0.782872 0.281726 0.384720
Si Si3 0.913970 0.720998 0.363634
Si Si4 0.345670 0.215806 0.091005
Si Si5 0.969799 0.721311 0.072100
O O1 0.689430 0.225625 0.304921
O O2 0.671927 0.287489 0.472163
O O3 0.540468 0.281228 0.217889
O O4 0.617598 0.000000 0.343331
O O5 0.782098 0.500000 0.383876
O O6 0.836870 0.223934 0.350304
O O7 0.916112 0.500000 0.365589
O O8 0.894706 0.781636 0.235543
O O9 0.000000 0.778015 0.500000
O O10 0.385085 0.281074 0.031745
O O11 0.356146 0.000000 0.102623
O O12 0.250000 0.250000 0.000000
O O13 0.969373 0.500000 0.066810
O O14 0.000000 0.784721 0.000000
#
# Coordination Sequence:
#
# PCOD9205962 Si02
#       5
#     8   8   8   8   8
#     4   9  17  30  49  72  98 129 167 206 247 296
#     4   9  17  29  48  74 100 126 161 209 257 298
#     4   9  17  31  53  76 100 134 176 215 254 304
#     4  10  21  36  55  79 107 138 175 218 263 311
#     4   9  18  32  51  73  98 133 174 208 242 297
#
# _framework density 23.700036999999998
#
# number of rings (size 3 to 8) (size 9 to 14) (size 15 to 20)
#    0.000    2.800    0.000    1.200    2.800    4.800 
#    0.000    1.000    0.000    6.000    0.000    0.000 
#    0.000    0.000    0.000    0.000    0.000    0.000 
#
# Total GULP energy -111673.205716 kJ/mol
# GULP energy per Si atom -5583.660286 kJ/mol
# Density = 2.364609 g / cm^3
# Si number density = 23.700037 Si / 1000 Ang^3
#
#
#
# Elastic Constant Matrix: (Units=GPa)
#
#
# Indices 1 2 3 4 5 6 
#
# 1 184.7536 -11.4016 56.3630 0.0000 -2.5460 0.0000
# 2 -11.4016 77.8398 -2.4867 0.0000 -4.6133 0.0000
# 3 56.3630 -2.4867 74.2118 0.0000 1.9802 0.0000
# 4 0.0000 0.0000 0.0000 -12.7360 0.0000 -2.5750
# 5 -2.5460 -4.6133 1.9802 0.0000 36.7647 0.0000
# 6 0.0000 0.0000 0.0000 -2.5750 0.0000 9.6136
#
#
#
# Elastic Compliance Matrix: (Units=1/GPa)
#
#
# Indices 1 2 3 4 5 6 
#
# 1 0.007133 0.000925 -0.005410 0.000000 0.000901 0.000000
# 2 0.000925 0.013075 -0.000311 0.000000 0.001721 0.000000
# 3 -0.005410 -0.000311 0.017610 0.000000 -0.001362 0.000000
# 4 0.000000 0.000000 0.000000 -0.074484 0.000000 -0.019951
# 5 0.000901 0.001721 -0.001362 0.000000 0.027552 0.000000
# 6 0.000000 0.000000 0.000000 -0.019951 0.000000 0.098675
#
#
# Mechanical properties :
#
#
# Convention : Reuss Voigt Hill
#
# Bulk Modulus (GPa) = 35.42818 46.86162 41.14490
# Shear Modulus (GPa) = 46.05754 26.35049 36.20401
#
# Velocity S-wave (km/s) = 4.41313 3.33803 3.91268
# Velocity P-wave (km/s) = 6.39911 5.88832 6.14902
#
# Compressibility (1/GPa) = 0.02822612
#
# Stress axis : x y z
#
# Youngs Moduli (GPa) = 140.20054 76.48451 56.78629
#
# Poissons Ratio (x) = -0.07077 0.30723
# Poissons Ratio (y) = -0.12973 0.01764
# Poissons Ratio (z) = 0.75851 0.02376
#
# Static dielectric constant tensor:
#      x y z
#    x 1.900010 0.000000 -0.024260 
#    y 0.000000 1.797880 0.000000 
#    z -0.024260 0.000000 1.888210 
# 
# From -- ./inp_files/153884.got.cif
#   From: 2010.05.17/outbox.cif.g08.bks.cpg/sg12_77_cif.got.tgz:153884.got - 2010.06.03 13:09:07.
