data_PCOD9205009
_publ_section_title
;
Structure prediction by ZEFSAII (Michael W. Deem and Ramdas Pophale) SiO2 
 PCOD9205009
Probable space group: C 2/M
;
_chemical_formula_sum "Si O2"
_cell_formula_units_Z 64
_cell_length_a 16.536563
_cell_length_b 22.038595
_cell_length_c 9.455099
_cell_angle_alpha 90.000000
_cell_angle_beta 93.814643
_cell_angle_gamma 90.000000
_cell_volume 3438.206734
_symmetry_space_group_name_H-M "C 2/M"
_symmetry_group_IT_number 12
_symmetry_cell_setting 'monoclinic'
loop_
_space_group_symop_operation_xyz
x,y,z
-x,y,-z
-x,-y,-z
x,-y,z
1/2+x,1/2+y,z
1/2-x,1/2+y,-z
1/2-x,1/2-y,-z
1/2+x,1/2-y,z
loop_
_atom_site_type_symbol
_atom_site_label
_atom_site_fract_x
_atom_site_fract_y
_atom_site_fract_z
Si Si1 0.596033 0.068023 0.998822
Si Si2 0.797872 0.186967 0.988187
Si Si3 0.679755 0.124402 0.750619
Si Si4 0.091739 0.850770 0.489554
Si Si5 0.747460 0.428782 0.523093
Si Si6 0.090675 0.230082 0.214028
Si Si7 0.803614 0.348354 0.782515
Si Si8 0.058841 0.270351 0.640971
O O1 0.623821 0.083220 0.843792
O O2 0.623511 0.000000 0.041125
O O3 0.500000 0.070680 0.000000
O O4 0.635308 0.118202 0.103721
O O5 0.750611 0.149977 0.860703
O O6 0.886012 0.202693 0.936137
O O7 0.750000 0.250000 0.000000
O O8 0.780287 0.156382 0.137404
O O9 0.716335 0.087440 0.625396
O O10 0.625255 0.179929 0.686173
O O11 0.156655 0.902577 0.518015
O O12 0.100286 0.821202 0.335047
O O13 0.099828 0.792716 0.595699
O O14 0.000000 0.872441 0.500000
O O15 0.751776 0.500000 0.551845
O O16 0.794464 0.389051 0.644298
O O17 0.157240 0.283131 0.247927
O O18 0.002289 0.258065 0.235343
O O19 0.000000 0.287247 0.500000
#
# Coordination Sequence:
#
# PCOD9205009 Si02
#       8
#     8   8   8   8   8   8   8   8
#     4  10  21  38  55  76 116 164 198 228 272 336
#     4   9  19  33  54  83 110 145 180 224 284 347
#     4  11  21  35  59  84 113 145 193 235 276 334
#     4   9  20  36  57  83 111 144 183 234 295 347
#     4  12  24  37  58  84 112 153 200 242 280 330
#     4   9  16  35  56  82 113 139 180 223 290 349
#     4  10  21  34  56  84 119 145 190 236 291 339
#     4   9  19  32  55  88 116 144 174 231 303 346
#
# _framework density 18.614355
#
# number of rings (size 3 to 8) (size 9 to 14) (size 15 to 20)
#    0.000    2.375    1.250    3.000    3.500    1.250 
#    0.000    0.000    0.000    3.750    0.000    3.500 
#    0.000    0.000    0.000    0.000    0.000    0.000 
#
# Total GULP energy -178517.210390 kJ/mol
# GULP energy per Si atom -5578.662825 kJ/mol
# Density = 1.857199 g / cm^3
# Si number density = 18.614355 Si / 1000 Ang^3
#
#
#
# Elastic Constant Matrix: (Units=GPa)
#
#
# Indices 1 2 3 4 5 6 
#
# 1 58.3009 10.7488 23.9083 0.0000 -25.2093 0.0000
# 2 10.7488 38.3083 11.8903 0.0000 -9.3351 0.0000
# 3 23.9083 11.8903 80.8894 0.0000 -20.3709 0.0000
# 4 0.0000 0.0000 0.0000 12.8093 0.0000 -6.6506
# 5 -25.2093 -9.3351 -20.3709 0.0000 35.4678 0.0000
# 6 0.0000 0.0000 0.0000 -6.6506 0.0000 21.3626
#
#
#
# Elastic Compliance Matrix: (Units=1/GPa)
#
#
# Indices 1 2 3 4 5 6 
#
# 1 0.025771 -0.002358 -0.003290 0.000000 0.015807 0.000000
# 2 -0.002358 0.028596 -0.002377 0.000000 0.004485 0.000000
# 3 -0.003290 -0.002377 0.015126 0.000000 0.005724 0.000000
# 4 0.000000 0.000000 0.000000 0.093120 0.000000 0.028990
# 5 0.015807 0.004485 0.005724 0.000000 0.043898 0.000000
# 6 0.000000 0.000000 0.000000 0.028990 0.000000 0.055836
#
#
# Mechanical properties :
#
#
# Convention : Reuss Voigt Hill
#
# Bulk Modulus (GPa) = 18.71121 30.06594 24.38857
# Shear Modulus (GPa) = 16.87985 22.65801 19.76893
#
# Velocity S-wave (km/s) = 3.01461 3.49267 3.26241
# Velocity P-wave (km/s) = 4.71073 5.69667 5.22700
#
# Compressibility (1/GPa) = 0.05344391
#
# Stress axis : x y z
#
# Youngs Moduli (GPa) = 38.80285 34.96939 66.11263
#
# Poissons Ratio (x) = 0.08246 0.21749
# Poissons Ratio (y) = 0.09150 0.15715
# Poissons Ratio (z) = 0.12765 0.08312
#
# Static dielectric constant tensor:
#      x y z
#    x 1.672890 0.000000 -0.009420 
#    y 0.000000 1.625150 0.000000 
#    z -0.009420 0.000000 1.683360 
# 
# From -- ./inp_files/77506.got.cif
#   From: 2010.05.17/outbox.cif.g08.bks.cpg/sg12_39_cif.got.tgz:77506.got - 2010.06.03 13:09:07.
