data_PCOD9205059
_publ_section_title
;
Structure prediction by ZEFSAII (Michael W. Deem and Ramdas Pophale) SiO2 
 PCOD9205059
Probable space group: C 2/M
;
_chemical_formula_sum "Si O2"
_cell_formula_units_Z 64
_cell_length_a 20.960924
_cell_length_b 18.010885
_cell_length_c 12.600075
_cell_angle_alpha 90.000000
_cell_angle_beta 133.445963
_cell_angle_gamma 90.000000
_cell_volume 3453.576945
_symmetry_space_group_name_H-M "C 2/M"
_symmetry_group_IT_number 12
_symmetry_cell_setting 'monoclinic'
loop_
_space_group_symop_operation_xyz
x,y,z
-x,y,-z
-x,-y,-z
x,-y,z
1/2+x,1/2+y,z
1/2-x,1/2+y,-z
1/2-x,1/2-y,-z
1/2+x,1/2-y,z
loop_
_atom_site_type_symbol
_atom_site_label
_atom_site_fract_x
_atom_site_fract_y
_atom_site_fract_z
Si Si1 0.018446 0.321906 0.307811
Si Si2 0.765586 0.300442 0.218634
Si Si3 0.313633 0.582754 0.457716
Si Si4 0.070593 0.736172 0.996702
Si Si5 0.917486 0.797294 0.458860
Si Si6 0.657504 0.916901 0.106958
Si Si7 0.783214 0.329069 0.487699
Si Si8 0.652474 0.086252 0.855489
O O1 0.040284 0.274361 0.436436
O O2 0.113884 0.343028 0.371873
O O3 0.949122 0.386315 0.254640
O O4 0.973107 0.270368 0.168137
O O5 0.664820 0.275403 0.092565
O O6 0.836564 0.232610 0.295172
O O7 0.772688 0.326542 0.349216
O O8 0.796135 0.360858 0.167492
O O9 0.350466 0.500000 0.501319
O O10 0.379605 0.647561 0.502439
O O11 0.237932 0.585628 0.280731
O O12 0.270882 0.606025 0.519428
O O13 0.094129 0.651686 0.058702
O O14 0.000000 0.767420 0.000000
O O15 0.000000 0.836313 0.500000
O O16 0.617916 0.000000 0.068341
O O17 0.685474 0.906676 0.015412
O O18 0.750000 0.250000 0.500000
O O19 0.658021 0.000000 0.831151
#
# Coordination Sequence:
#
# PCOD9205059 Si02
#       8
#     8   8   8   8   8   8   8   8
#     4  10  21  34  60  88 117 154 196 244 295 352
#     4  11  22  37  63  87 115 159 196 247 300 347
#     4  11  22  37  60  86 119 160 199 237 296 355
#     4  11  21  34  57  91 113 152 201 238 289 360
#     4  11  21  38  59  87 118 151 196 248 291 338
#     4   9  19  36  57  86 122 154 187 242 298 351
#     4  11  20  37  60  84 122 156 193 248 294 344
#     4  10  22  39  58  87 123 151 194 249 303 354
#
# _framework density 18.531511999999999
#
# number of rings (size 3 to 8) (size 9 to 14) (size 15 to 20)
#    0.000    1.500    5.000    1.500    0.000    4.500 
#    0.000    6.875    0.000    1.125    0.000    0.000 
#    0.000    0.000    0.000    0.000    0.000    0.000 
#
# Total GULP energy -178432.115747 kJ/mol
# GULP energy per Si atom -5576.003617 kJ/mol
# Density = 1.848933 g / cm^3
# Si number density = 18.531512 Si / 1000 Ang^3
#
#
#
# Elastic Constant Matrix: (Units=GPa)
#
#
# Indices 1 2 3 4 5 6 
#
# 1 124.2986 31.9320 22.0286 0.0000 16.7972 0.0000
# 2 31.9320 63.7325 -3.0159 0.0000 3.9275 0.0000
# 3 22.0286 -3.0159 43.4049 0.0000 10.9754 0.0000
# 4 0.0000 0.0000 0.0000 12.6630 0.0000 -4.6300
# 5 16.7972 3.9275 10.9754 0.0000 25.5788 0.0000
# 6 0.0000 0.0000 0.0000 -4.6300 0.0000 22.0147
#
#
#
# Elastic Compliance Matrix: (Units=1/GPa)
#
#
# Indices 1 2 3 4 5 6 
#
# 1 0.010860 -0.005408 -0.004817 0.000000 -0.004235 0.000000
# 2 -0.005408 0.018678 0.004341 0.000000 -0.001179 0.000000
# 3 -0.004817 0.004341 0.028215 0.000000 -0.009610 0.000000
# 4 0.000000 0.000000 0.000000 0.085549 0.000000 0.017992
# 5 -0.004235 -0.001179 -0.009610 0.000000 0.046180 0.000000
# 6 0.000000 0.000000 0.000000 0.017992 0.000000 0.049208
#
#
# Mechanical properties :
#
#
# Convention : Reuss Voigt Hill
#
# Bulk Modulus (GPa) = 21.74620 37.03613 29.39117
# Shear Modulus (GPa) = 18.81198 24.08405 21.44801
#
# Velocity S-wave (km/s) = 3.18957 3.60895 3.40572
# Velocity P-wave (km/s) = 5.03237 6.11513 5.59998
#
# Compressibility (1/GPa) = 0.04598504
#
# Stress axis : x y z
#
# Youngs Moduli (GPa) = 92.07716 53.53766 35.44205
#
# Poissons Ratio (x) = 0.28955 0.17072
# Poissons Ratio (y) = 0.49799 -0.15385
# Poissons Ratio (z) = 0.44352 -0.23240
#
# Static dielectric constant tensor:
#      x y z
#    x 1.687420 0.000000 0.007920 
#    y 0.000000 1.639360 0.000000 
#    z 0.007920 0.000000 1.654130 
# 
# From -- ./inp_files/168834.got.cif
#   From: 2010.05.17/outbox.cif.g08.bks.cpg/sg12_85_cif.got.tgz:168834.got - 2010.06.03 13:09:07.
