data_PCOD9205828
_publ_section_title
;
Structure prediction by ZEFSAII (Michael W. Deem and Ramdas Pophale) SiO2 
 PCOD9205828
Probable space group: C 2/M
;
_chemical_formula_sum "Si O2"
_cell_formula_units_Z 40
_cell_length_a 32.601805
_cell_length_b 7.526023
_cell_length_c 16.168101
_cell_angle_alpha 90.000000
_cell_angle_beta 26.860985
_cell_angle_gamma 90.000000
_cell_volume 1792.415580
_symmetry_space_group_name_H-M "C 2/M"
_symmetry_group_IT_number 12
_symmetry_cell_setting 'monoclinic'
loop_
_space_group_symop_operation_xyz
x,y,z
-x,y,-z
-x,-y,-z
x,-y,z
1/2+x,1/2+y,z
1/2-x,1/2+y,-z
1/2-x,1/2-y,-z
1/2+x,1/2-y,z
loop_
_atom_site_type_symbol
_atom_site_label
_atom_site_fract_x
_atom_site_fract_y
_atom_site_fract_z
Si Si1 0.751359 0.695861 0.092694
Si Si2 0.715104 0.219035 0.792671
Si Si3 0.040227 0.291595 0.012242
Si Si4 0.462510 0.297508 0.483637
Si Si5 0.579523 0.284437 0.615279
O O1 0.791770 0.500000 0.017412
O O2 0.796868 0.785603 0.090829
O O3 0.645702 0.690732 0.309066
O O4 0.750000 0.750000 0.000000
O O5 0.815067 0.269761 0.580975
O O6 0.714144 0.000000 0.797386
O O7 0.634724 0.281203 0.878090
O O8 0.057803 0.500000 0.964698
O O9 0.968123 0.275227 0.215802
O O10 0.000000 0.214182 0.000000
O O11 0.500000 0.211577 0.500000
O O12 0.500915 0.500000 0.412507
O O13 0.472583 0.219648 0.374045
O O14 0.577604 0.500000 0.615332
#
# Coordination Sequence:
#
# PCOD9205828 Si02
#       5
#     8   8   8   8   8
#     4   9  17  29  47  70  97 129 161 197 243 295
#     4   8  17  35  52  70 103 139 165 200 258 310
#     4  10  21  36  54  75 101 136 172 208 259 311
#     4   8  15  28  46  69  96 127 160 193 239 294
#     4   9  18  34  55  75  99 133 171 212 251 296
#
# _framework density 22.316254000000001
#
# number of rings (size 3 to 8) (size 9 to 14) (size 15 to 20)
#    0.000    3.200    0.000    2.400    2.800    1.200 
#    0.000    5.000    0.000    1.200    0.000    0.000 
#    0.000    0.000    0.000    0.000    0.000    0.000 
#
# Total GULP energy -111450.891260 kJ/mol
# GULP energy per Si atom -5572.544563 kJ/mol
# Density = 2.226546 g / cm^3
# Si number density = 22.316254 Si / 1000 Ang^3
#
#
#
# Elastic Constant Matrix: (Units=GPa)
#
#
# Indices 1 2 3 4 5 6 
#
# 1 246.6170 5.2799 60.0799 0.0001 3.7736 0.0007
# 2 5.2799 50.4783 -14.0421 0.0011 -5.3217 0.0031
# 3 60.0799 -14.0421 63.9320 0.0002 3.5554 0.0020
# 4 0.0001 0.0011 0.0002 6.8679 0.0001 -3.0905
# 5 3.7736 -5.3217 3.5554 0.0001 36.0494 0.0009
# 6 0.0007 0.0031 0.0020 -3.0905 0.0009 -15.9791
#
#
#
# Elastic Compliance Matrix: (Units=1/GPa)
#
#
# Indices 1 2 3 4 5 6 
#
# 1 0.005470 -0.002165 -0.005597 0.000000 -0.000340 -0.000001
# 2 -0.002165 0.022216 0.006756 -0.000001 0.002840 0.000006
# 3 -0.005597 0.006756 0.022420 0.000000 -0.000628 0.000004
# 4 0.000000 -0.000001 0.000000 0.133947 0.000000 -0.025907
# 5 -0.000340 0.002840 -0.000628 0.000000 0.028257 0.000002
# 6 -0.000001 0.000006 0.000004 -0.025907 0.000002 -0.057571
#
#
# Mechanical properties :
#
#
# Convention : Reuss Voigt Hill
#
# Bulk Modulus (GPa) = 20.79252 51.51807 36.15530
# Shear Modulus (GPa) = 28.93827 26.03495 27.48661
#
# Velocity S-wave (km/s) = 3.60493 3.41931 3.51335
# Velocity P-wave (km/s) = 5.16379 6.22290 5.71792
#
# Compressibility (1/GPa) = 0.04809422
#
# Stress axis : x y z
#
# Youngs Moduli (GPa) = 182.81756 45.01309 44.60270
#
# Poissons Ratio (x) = 0.09745 0.24964
# Poissons Ratio (y) = 0.39580 -0.30134
# Poissons Ratio (z) = 1.02322 -0.30411
#
# Static dielectric constant tensor:
#      x y z
#    x 1.874420 0.000000 0.003900 
#    y 0.000000 1.898440 0.000000 
#    z 0.003900 0.000000 1.785880 
# 
# From -- ./inp_files/140388.got.cif
#   From: 2010.05.17/outbox.cif.g08.bks.cpg/sg12_71_cif.got.tgz:140388.got - 2010.06.03 13:09:07.
