data_PCOD9205636
_publ_section_title
;
Structure prediction by ZEFSAII (Michael W. Deem and Ramdas Pophale) SiO2 
 PCOD9205636
Probable space group: C 2/M
;
_chemical_formula_sum "Si O2"
_cell_formula_units_Z 64
_cell_length_a 12.690757
_cell_length_b 21.110771
_cell_length_c 12.210850
_cell_angle_alpha 90.000000
_cell_angle_beta 67.253008
_cell_angle_gamma 90.000000
_cell_volume 3016.981556
_symmetry_space_group_name_H-M "C 2/M"
_symmetry_group_IT_number 12
_symmetry_cell_setting 'monoclinic'
loop_
_space_group_symop_operation_xyz
x,y,z
-x,y,-z
-x,-y,-z
x,-y,z
1/2+x,1/2+y,z
1/2-x,1/2+y,-z
1/2-x,1/2-y,-z
1/2+x,1/2-y,z
loop_
_atom_site_type_symbol
_atom_site_label
_atom_site_fract_x
_atom_site_fract_y
_atom_site_fract_z
Si Si1 0.157852 0.862906 0.207358
Si Si2 0.822621 0.652429 0.720473
Si Si3 0.205031 0.670292 0.526011
Si Si4 0.516560 0.931883 0.624656
Si Si5 0.135019 0.929466 0.428573
Si Si6 0.871179 0.159825 0.025263
Si Si7 0.020825 0.753630 0.698272
Si Si8 0.394842 0.207463 0.100089
O O1 0.157840 0.920903 0.290233
O O2 0.277180 0.825878 0.177814
O O3 0.043099 0.821305 0.279096
O O4 0.159899 0.871995 0.076301
O O5 0.789957 0.661245 0.606763
O O6 0.714979 0.649269 0.841386
O O7 0.893641 0.588974 0.714623
O O8 0.915220 0.707584 0.707931
O O9 0.107743 0.621736 0.611131
O O10 0.313031 0.634419 0.536564
O O11 0.363222 0.763133 0.419056
O O12 0.500000 0.933073 0.500000
O O13 0.552394 0.000000 0.650518
O O14 0.000000 0.928413 0.500000
O O15 0.175545 0.000000 0.450890
O O16 0.869447 0.236851 0.022350
O O17 0.000000 0.141214 0.000000
O O18 0.060975 0.738683 0.805230
O O19 0.500000 0.170135 0.000000
#
# Coordination Sequence:
#
# PCOD9205636 Si02
#       8
#     8   8   8   8   8   8   8   8
#     4  12  23  42  67  95 135 175 220 276 328 402
#     4  10  21  35  59  93 132 161 202 271 329 394
#     4  10  21  39  65  94 128 164 215 272 333 393
#     4   8  15  31  57  86 113 150 198 257 321 376
#     4  11  27  48  69  92 128 184 235 275 327 397
#     4  11  22  37  60  92 128 170 218 260 330 405
#     4  11  20  37  61 102 134 162 209 266 344 402
#     4  11  20  36  62  96 132 178 211 254 328 407
#
# _framework density 21.213256000000001
#
# number of rings (size 3 to 8) (size 9 to 14) (size 15 to 20)
#    0.000    1.500    5.000    2.625    1.750    1.500 
#    0.000    2.500    0.000    1.125    0.000    0.000 
#    0.000    0.000    0.000    0.000    0.000    0.000 
#
# Total GULP energy -178379.390799 kJ/mol
# GULP energy per Si atom -5574.355962 kJ/mol
# Density = 2.116497 g / cm^3
# Si number density = 21.213256 Si / 1000 Ang^3
#
#
#
# Elastic Constant Matrix: (Units=GPa)
#
#
# Indices 1 2 3 4 5 6 
#
# 1 105.9374 12.1447 40.3448 0.0000 -14.1882 0.0000
# 2 12.1447 40.1052 2.5336 0.0000 4.4673 0.0000
# 3 40.3448 2.5336 116.8799 0.0000 -20.3827 0.0000
# 4 0.0000 0.0000 0.0000 10.3764 0.0000 1.4925
# 5 -14.1882 4.4673 -20.3827 0.0000 47.6393 0.0000
# 6 0.0000 0.0000 0.0000 1.4925 0.0000 6.6112
#
#
#
# Elastic Compliance Matrix: (Units=1/GPa)
#
#
# Indices 1 2 3 4 5 6 
#
# 1 0.011473 -0.003504 -0.003491 0.000000 0.002252 0.000000
# 2 -0.003504 0.026385 0.000026 0.000000 -0.003507 0.000000
# 3 -0.003491 0.000026 0.010351 0.000000 0.003386 0.000000
# 4 0.000000 0.000000 0.000000 0.099607 0.000000 -0.022487
# 5 0.002252 -0.003507 0.003386 0.000000 0.023439 0.000000
# 6 0.000000 0.000000 0.000000 -0.022487 0.000000 0.156334
#
#
# Mechanical properties :
#
#
# Convention : Reuss Voigt Hill
#
# Bulk Modulus (GPa) = 29.18113 41.44098 35.31106
# Shear Modulus (GPa) = 14.16630 26.78535 20.47582
#
# Velocity S-wave (km/s) = 2.58699 3.55726 3.11020
# Velocity P-wave (km/s) = 4.76543 6.03738 5.43872
#
# Compressibility (1/GPa) = 0.03426872
#
# Stress axis : x y z
#
# Youngs Moduli (GPa) = 87.16490 37.90095 96.60924
#
# Poissons Ratio (x) = 0.13282 0.33731
# Poissons Ratio (y) = 0.30546 -0.00253
# Poissons Ratio (z) = 0.30433 -0.00099
#
# Static dielectric constant tensor:
#      x y z
#    x 1.832360 0.000000 -0.030630 
#    y 0.000000 1.862150 0.000000 
#    z -0.030630 0.000000 1.776190 
# 
# From -- ./inp_files/135922.got.cif
#   From: 2010.05.17/outbox.cif.g08.bks.cpg/sg12_68_cif.got.tgz:135922.got - 2010.06.03 13:09:07.
