data_PCOD9205687
_publ_section_title
;
Structure prediction by ZEFSAII (Michael W. Deem and Ramdas Pophale) SiO2 
 PCOD9205687
Probable space group: C 2/M
;
_chemical_formula_sum "Si O2"
_cell_formula_units_Z 60
_cell_length_a 13.089344
_cell_length_b 21.009731
_cell_length_c 16.456341
_cell_angle_alpha 90.000000
_cell_angle_beta 37.915773
_cell_angle_gamma 90.000000
_cell_volume 2780.963174
_symmetry_space_group_name_H-M "C 2/M"
_symmetry_group_IT_number 12
_symmetry_cell_setting 'monoclinic'
loop_
_space_group_symop_operation_xyz
x,y,z
-x,y,-z
-x,-y,-z
x,-y,z
1/2+x,1/2+y,z
1/2-x,1/2+y,-z
1/2-x,1/2-y,-z
1/2+x,1/2-y,z
loop_
_atom_site_type_symbol
_atom_site_label
_atom_site_fract_x
_atom_site_fract_y
_atom_site_fract_z
Si Si1 0.866094 0.106118 0.433683
Si Si2 0.500000 0.831232 0.000000
Si Si3 0.925264 0.429597 0.271869
Si Si4 0.413203 0.739502 0.475826
Si Si5 0.248951 0.573908 0.792326
Si Si6 0.850251 0.663886 0.764078
Si Si7 0.802891 0.850838 0.305329
Si Si8 0.598400 0.722777 0.043520
O O1 0.734788 0.069072 0.569449
O O2 0.837894 0.180507 0.475113
O O3 0.826920 0.099659 0.362845
O O4 0.055592 0.088100 0.334183
O O5 0.340343 0.876245 0.092343
O O6 0.508272 0.783394 0.918978
O O7 0.003016 0.500000 0.219409
O O8 0.848960 0.415268 0.231100
O O9 0.048611 0.379021 0.235717
O O10 0.500000 0.708348 0.500000
O O11 0.538229 0.776869 0.337389
O O12 0.297822 0.791674 0.592040
O O13 0.225168 0.500000 0.830140
O O14 0.796071 0.629495 0.713981
O O15 0.686306 0.689349 0.911619
O O16 0.981482 0.824505 0.165969
O O17 0.750000 0.750000 0.000000
#
# Coordination Sequence:
#
# PCOD9205687 Si02
#       8
#     8   4   8   8   8   8   8   8
#     4  12  23  38  65  94 131 170 214 268 332 392
#     4  12  23  42  66  94 127 172 212 252 332 400
#     4  11  25  43  66  91 124 175 226 275 325 380
#     4  10  21  35  62  93 127 163 207 264 331 385
#     4  11  25  43  63  92 131 172 224 276 319 381
#     4  11  22  43  62  93 132 166 212 272 320 392
#     4  11  23  39  61  99 132 165 204 269 331 393
#     4  12  24  38  65  97 133 165 208 259 330 394
#
# _framework density 21.575258000000002
#
# number of rings (size 3 to 8) (size 9 to 14) (size 15 to 20)
#    0.000    0.800    2.667    5.400    5.600    1.067 
#    0.000    2.000    0.000    2.400    0.000    0.000 
#    0.000    0.000    0.000    0.000    0.000    0.000 
#
# Total GULP energy -167711.547690 kJ/mol
# GULP energy per Si atom -5590.384923 kJ/mol
# Density = 2.152615 g / cm^3
# Si number density = 21.575258 Si / 1000 Ang^3
#
#
#
# Elastic Constant Matrix: (Units=GPa)
#
#
# Indices 1 2 3 4 5 6 
#
# 1 74.0470 -3.4926 -24.2912 -0.0036 8.5996 0.0003
# 2 -3.4926 46.8406 -1.0704 -0.0004 -2.9489 -0.0004
# 3 -24.2912 -1.0704 76.3153 0.0065 -10.9905 -0.0020
# 4 -0.0036 -0.0004 0.0065 7.5445 -0.0069 9.7153
# 5 8.5996 -2.9489 -10.9905 -0.0069 41.6982 0.0047
# 6 0.0003 -0.0004 -0.0020 9.7153 0.0047 9.3167
#
#
#
# Elastic Compliance Matrix: (Units=1/GPa)
#
#
# Indices 1 2 3 4 5 6 
#
# 1 0.015288 0.001128 0.004614 0.000001 -0.001857 0.000001
# 2 0.001128 0.021549 0.000881 -0.000005 0.001523 0.000005
# 3 0.004614 0.000881 0.015027 0.000029 0.003071 -0.000028
# 4 0.000001 -0.000005 0.000029 -0.386635 -0.000102 0.403176
# 5 -0.001857 0.001523 0.003071 -0.000102 0.025282 0.000094
# 6 0.000001 0.000005 -0.000028 0.403176 0.000094 -0.313090
#
#
# Mechanical properties :
#
#
# Convention : Reuss Voigt Hill
#
# Bulk Modulus (GPa) = 15.35830 15.49936 15.42883
# Shear Modulus (GPa) = -8.14169 26.78235 9.32033
#
# Velocity S-wave (km/s) = -1.94469 3.52710 2.08070
# Velocity P-wave (km/s) = 1.44621 4.87716 3.59709
#
# Compressibility (1/GPa) = 0.06511136
#
# Stress axis : x y z
#
# Youngs Moduli (GPa) = 65.41252 46.40544 66.54686
#
# Poissons Ratio (x) = -0.05237 -0.30708
# Poissons Ratio (y) = -0.07382 -0.05862
# Poissons Ratio (z) = -0.30184 -0.04088
#
# Static dielectric constant tensor:
#      x y z
#    x 1.859490 0.000000 0.016230 
#    y 0.000000 1.809510 0.000000 
#    z 0.016230 0.000000 1.776430 
# 
# From -- ./inp_files/217910.got.cif
#   From: 2010.05.17/outbox.cif.g08.bks.cpg/sg12_109_cif.got.tgz:217910.got - 2010.06.03 13:09:07.
