data_PCOD9205340
_publ_section_title
;
Structure prediction by ZEFSAII (Michael W. Deem and Ramdas Pophale) SiO2 
 PCOD9205340
Probable space group: C 2/M
;
_chemical_formula_sum "Si O2"
_cell_formula_units_Z 56
_cell_length_a 12.578518
_cell_length_b 14.413310
_cell_length_c 17.989385
_cell_angle_alpha 90.000000
_cell_angle_beta 44.685029
_cell_angle_gamma 90.000000
_cell_volume 2293.474470
_symmetry_space_group_name_H-M "C 2/M"
_symmetry_group_IT_number 12
_symmetry_cell_setting 'monoclinic'
loop_
_space_group_symop_operation_xyz
x,y,z
-x,y,-z
-x,-y,-z
x,-y,z
1/2+x,1/2+y,z
1/2-x,1/2+y,-z
1/2-x,1/2-y,-z
1/2+x,1/2-y,z
loop_
_atom_site_type_symbol
_atom_site_label
_atom_site_fract_x
_atom_site_fract_y
_atom_site_fract_z
Si Si1 0.382917 0.394557 0.711724
Si Si2 0.302664 0.113196 0.331256
Si Si3 0.857085 0.887804 0.315152
Si Si4 0.331529 0.158452 0.054209
Si Si5 0.213894 0.392970 0.248273
Si Si6 0.881557 0.612871 0.449794
Si Si7 0.352139 0.847077 0.878454
O O1 0.428795 0.500000 0.669760
O O2 0.320365 0.353072 0.666584
O O3 0.517554 0.349284 0.691454
O O4 0.246786 0.395567 0.839315
O O5 0.280373 0.138838 0.428382
O O6 0.468933 0.147855 0.225821
O O7 0.308128 0.000000 0.323972
O O8 0.846175 0.854347 0.235404
O O9 0.698363 0.865711 0.433416
O O10 0.884749 0.000000 0.301604
O O11 0.224390 0.246610 0.091530
O O12 0.500000 0.182110 0.000000
O O13 0.334457 0.113523 0.970586
O O14 0.204588 0.500000 0.275643
O O15 0.227459 0.393685 0.153240
O O16 0.050405 0.352084 0.350804
O O17 0.888155 0.500000 0.444958
#
# Coordination Sequence:
#
# PCOD9205340 Si02
#       7
#     8   8   8   8   8   8   8
#     4  10  21  35  54  81 111 143 182 227 275 317
#     4   9  17  33  57  85 112 142 180 221 265 317
#     4   9  17  30  49  81 117 144 176 219 265 316
#     4  11  23  39  56  78 103 139 184 227 278 331
#     4   9  17  31  54  83 113 147 181 217 264 316
#     4   8  14  26  50  82 113 144 179 215 259 315
#     4  10  21  36  57  79 104 136 182 227 269 326
#
# _framework density 24.417102
#
# number of rings (size 3 to 8) (size 9 to 14) (size 15 to 20)
#    0.000    2.571    1.429    1.714    0.000    6.000 
#    0.000    2.857    0.000    7.714    7.429    0.000 
#    0.000    0.000    0.000    0.000    0.000    0.000 
#
# Total GULP energy -156173.265205 kJ/mol
# GULP energy per Si atom -5577.616614 kJ/mol
# Density = 2.436153 g / cm^3
# Si number density = 24.417102 Si / 1000 Ang^3
#
#
#
# Elastic Constant Matrix: (Units=GPa)
#
#
# Indices 1 2 3 4 5 6 
#
# 1 191.2991 20.0491 23.5636 0.0000 49.7553 0.0000
# 2 20.0491 56.4745 -14.3075 0.0000 -3.2892 0.0000
# 3 23.5636 -14.3075 32.0759 -0.0001 24.3524 0.0001
# 4 0.0000 0.0000 -0.0001 20.2853 0.0001 0.9379
# 5 49.7553 -3.2892 24.3524 0.0001 38.6268 0.0000
# 6 0.0000 0.0000 0.0001 0.9379 0.0000 19.8198
#
#
#
# Elastic Compliance Matrix: (Units=1/GPa)
#
#
# Indices 1 2 3 4 5 6 
#
# 1 0.008601 -0.003382 0.001540 0.000000 -0.012338 0.000000
# 2 -0.003382 0.022496 0.014879 0.000000 -0.003109 0.000000
# 3 0.001540 0.014879 0.071402 0.000001 -0.045733 0.000000
# 4 0.000000 0.000000 0.000001 0.049405 -0.000001 -0.002338
# 5 -0.012338 -0.003109 -0.045733 -0.000001 0.070349 0.000000
# 6 0.000000 0.000000 0.000000 -0.002338 0.000000 0.050565
#
#
# Mechanical properties :
#
#
# Convention : Reuss Voigt Hill
#
# Bulk Modulus (GPa) = 7.77764 37.60665 22.69214
# Shear Modulus (GPa) = 17.26505 32.44932 24.85718
#
# Velocity S-wave (km/s) = 2.66200 3.64944 3.19411
# Velocity P-wave (km/s) = 3.55535 5.76135 4.78715
#
# Compressibility (1/GPa) = 0.12857379
#
# Stress axis : x y z
#
# Youngs Moduli (GPa) = 116.26247 44.45198 14.00522
#
# Poissons Ratio (x) = 0.15033 -0.02157
# Poissons Ratio (y) = 0.39319 -0.20838
# Poissons Ratio (z) = -0.17907 -0.66140
#
# Static dielectric constant tensor:
#      x y z
#    x 1.975260 0.000000 0.012620 
#    y 0.000000 2.000670 0.000000 
#    z 0.012620 0.000000 1.934050 
# 
# From -- ./inp_files/264173.got.cif
#   From: 2010.05.17/outbox.cif.g08.bks.cpg/sg12_133_cif.got.tgz:264173.got - 2010.06.03 13:09:07.
