data_PCOD9205844
_publ_section_title
;
Structure prediction by ZEFSAII (Michael W. Deem and Ramdas Pophale) SiO2 
 PCOD9205844
Probable space group: C 2/M
;
_chemical_formula_sum "Si O2"
_cell_formula_units_Z 64
_cell_length_a 9.904893
_cell_length_b 26.405253
_cell_length_c 11.871401
_cell_angle_alpha 90.000000
_cell_angle_beta 116.651059
_cell_angle_gamma 90.000000
_cell_volume 2774.984195
_symmetry_space_group_name_H-M "C 2/M"
_symmetry_group_IT_number 12
_symmetry_cell_setting 'monoclinic'
loop_
_space_group_symop_operation_xyz
x,y,z
-x,y,-z
-x,-y,-z
x,-y,z
1/2+x,1/2+y,z
1/2-x,1/2+y,-z
1/2-x,1/2-y,-z
1/2+x,1/2-y,z
loop_
_atom_site_type_symbol
_atom_site_label
_atom_site_fract_x
_atom_site_fract_y
_atom_site_fract_z
Si Si1 0.907923 0.055715 0.349278
Si Si2 0.710241 0.445444 0.347152
Si Si3 0.599505 0.684720 0.145972
Si Si4 0.623621 0.149688 0.901800
Si Si5 0.942058 0.442169 0.241905
Si Si6 0.670505 0.787152 0.283375
Si Si7 0.166300 0.149370 0.809684
Si Si8 0.873884 0.639449 0.539896
O O1 0.810376 0.101701 0.265323
O O2 0.000000 0.066923 0.500000
O O3 0.033541 0.050888 0.299053
O O4 0.837806 0.000000 0.338845
O O5 0.771283 0.500000 0.419287
O O6 0.784876 0.443830 0.253156
O O7 0.755928 0.394287 0.427475
O O8 0.750106 0.661780 0.146855
O O9 0.643954 0.728703 0.249359
O O10 0.486507 0.648899 0.174088
O O11 0.500000 0.703377 0.000000
O O12 0.582582 0.090472 0.878357
O O13 0.479935 0.184616 0.822232
O O14 0.702833 0.157376 0.050054
O O15 0.991514 0.500000 0.247415
O O16 0.048748 0.404963 0.355091
O O17 0.817370 0.802870 0.266317
O O18 0.685093 0.813631 0.410115
O O19 0.000000 0.657909 0.500000
#
# Coordination Sequence:
#
# PCOD9205844 Si02
#       8
#     8   8   8   8   8   8   8   8
#     4  10  21  36  54  77 108 147 185 222 270 329
#     4   9  16  30  52  75 103 144 191 230 265 315
#     4  10  21  38  59  82 110 146 188 231 274 324
#     4  10  21  36  56  84 115 144 181 228 276 329
#     4   9  17  30  52  81 111 144 180 222 273 327
#     4  11  21  36  59  84 112 146 185 229 278 330
#     4  11  22  37  59  85 111 145 186 228 276 328
#     4   9  18  32  53  81 113 145 184 229 273 324
#
# _framework density 23.063193999999999
#
# number of rings (size 3 to 8) (size 9 to 14) (size 15 to 20)
#    0.000    2.125    0.000    3.750    0.000    4.000 
#    0.000    3.125    0.000   20.250    0.000    0.000 
#    0.000    0.000    0.000    0.000    0.000    0.000 
#
# Total GULP energy -178534.719686 kJ/mol
# GULP energy per Si atom -5579.209990 kJ/mol
# Density = 2.301070 g / cm^3
# Si number density = 23.063194 Si / 1000 Ang^3
#
#
#
# Elastic Constant Matrix: (Units=GPa)
#
#
# Indices 1 2 3 4 5 6 
#
# 1 86.1189 -12.8951 1.5072 0.0000 -15.1694 0.0000
# 2 -12.8951 82.9641 29.3243 0.0000 -12.4905 0.0000
# 3 1.5072 29.3243 41.3130 0.0000 -18.7119 0.0000
# 4 0.0000 0.0000 0.0000 18.6040 0.0000 0.0357
# 5 -15.1694 -12.4905 -18.7119 0.0000 22.5665 0.0000
# 6 0.0000 0.0000 0.0000 0.0357 0.0000 -49.6353
#
#
#
# Elastic Compliance Matrix: (Units=1/GPa)
#
#
# Indices 1 2 3 4 5 6 
#
# 1 0.014623 0.003097 0.003999 0.000000 0.014859 0.000000
# 2 0.003097 0.016757 -0.010992 0.000000 0.002242 0.000000
# 3 0.003999 -0.010992 0.048562 0.000000 0.036871 0.000000
# 4 0.000000 0.000000 0.000000 0.053752 0.000000 0.000039
# 5 0.014859 0.002242 0.036871 0.000000 0.086116 0.000000
# 6 0.000000 0.000000 0.000000 0.000039 0.000000 -0.020147
#
#
# Mechanical properties :
#
#
# Convention : Reuss Voigt Hill
#
# Bulk Modulus (GPa) = 13.86021 27.36321 20.61171
# Shear Modulus (GPa) = 21.59768 11.13768 16.36768
#
# Velocity S-wave (km/s) = 3.06348 2.19993 2.66689
# Velocity P-wave (km/s) = 4.30533 4.28289 4.29413
#
# Compressibility (1/GPa) = 0.07214900
#
# Stress axis : x y z
#
# Youngs Moduli (GPa) = 68.38576 59.67486 20.59231
#
# Poissons Ratio (x) = -0.18479 -0.08234
# Poissons Ratio (y) = -0.21176 0.22635
# Poissons Ratio (z) = -0.27346 0.65594
#
# Static dielectric constant tensor:
#      x y z
#    x 1.890420 0.000000 0.010010 
#    y 0.000000 1.889930 0.000000 
#    z 0.010010 0.000000 1.879290 
# 
# From -- ./inp_files/135972.got.cif
#   From: 2010.05.17/outbox.cif.g08.bks.cpg/sg12_68_cif.got.tgz:135972.got - 2010.06.03 13:09:07.
