data_PCOD9205640
_publ_section_title
;
Structure prediction by ZEFSAII (Michael W. Deem and Ramdas Pophale) SiO2 
 PCOD9205640
Probable space group: C 2/M
;
_chemical_formula_sum "Si O2"
_cell_formula_units_Z 48
_cell_length_a 18.650288
_cell_length_b 15.736923
_cell_length_c 18.691679
_cell_angle_alpha 90.000000
_cell_angle_beta 153.508417
_cell_angle_gamma 90.000000
_cell_volume 2447.107950
_symmetry_space_group_name_H-M "C 2/M"
_symmetry_group_IT_number 12
_symmetry_cell_setting 'monoclinic'
loop_
_space_group_symop_operation_xyz
x,y,z
-x,y,-z
-x,-y,-z
x,-y,z
1/2+x,1/2+y,z
1/2-x,1/2+y,-z
1/2-x,1/2-y,-z
1/2+x,1/2-y,z
loop_
_atom_site_type_symbol
_atom_site_label
_atom_site_fract_x
_atom_site_fract_y
_atom_site_fract_z
Si Si1 0.000000 0.226987 0.500000
Si Si2 0.948031 0.643666 0.563981
Si Si3 0.011994 0.402825 0.131157
Si Si4 0.863637 0.673330 0.126791
Si Si5 0.195045 0.500000 0.735026
Si Si6 0.233491 0.096798 0.767424
Si Si7 0.670291 0.500000 0.990385
Si Si8 0.295784 0.500000 0.659353
O O1 0.897250 0.287512 0.459957
O O2 0.099361 0.166930 0.641150
O O3 0.041274 0.684371 0.714118
O O4 0.079423 0.580948 0.644454
O O5 0.801108 0.582776 0.454208
O O6 0.020366 0.500000 0.164441
O O7 0.850794 0.393395 0.939547
O O8 0.995379 0.341764 0.182815
O O9 0.156804 0.391667 0.205274
O O10 0.750000 0.750000 0.000000
O O11 0.760375 0.585311 0.043076
O O12 0.271745 0.500000 0.724905
O O13 0.314215 0.500000 0.909071
O O14 0.171545 0.000000 0.712644
O O15 0.481700 0.500000 0.804496
#
# Coordination Sequence:
#
# PCOD9205640 Si02
#       8
#     4   8   8   8   4   8   4   4
#     4  12  19  35  54  86 122 138 188 237 289 338
#     4  10  21  35  60  83 116 163 181 228 297 347
#     4   9  18  39  61  76 107 146 196 233 289 346
#     4  11  22  40  61  83 117 159 202 236 287 350
#     4   9  17  39  59  81 114 152 187 226 288 348
#     4   9  20  35  59  84 104 146 187 243 289 342
#     4  10  23  36  62  91 111 153 200 242 284 348
#     4  11  19  39  59  89 123 145 193 239 292 351
#
# _framework density 19.614991
#
# number of rings (size 3 to 8) (size 9 to 14) (size 15 to 20)
#    0.000    2.000    2.500    3.500    0.000    1.333 
#    0.000    6.667    0.000    0.000    0.000    0.000 
#    0.000    0.000    0.000    0.000    0.000    0.000 
#
# Total GULP energy -133891.810378 kJ/mol
# GULP energy per Si atom -5578.825432 kJ/mol
# Density = 1.957035 g / cm^3
# Si number density = 19.614991 Si / 1000 Ang^3
#
#
#
# Elastic Constant Matrix: (Units=GPa)
#
#
# Indices 1 2 3 4 5 6 
#
# 1 43.7640 3.3263 -6.0957 0.0001 -19.9693 0.0001
# 2 3.3263 75.8211 25.6039 0.0002 -13.3675 0.0002
# 3 -6.0957 25.6039 54.9034 -0.0001 -0.1306 -0.0006
# 4 0.0001 0.0002 -0.0001 18.9982 -0.0001 -4.1450
# 5 -19.9693 -13.3675 -0.1306 -0.0001 26.3423 -0.0003
# 6 0.0001 0.0002 -0.0006 -4.1450 -0.0003 13.6553
#
#
#
# Elastic Compliance Matrix: (Units=1/GPa)
#
#
# Indices 1 2 3 4 5 6 
#
# 1 0.036157 0.002483 0.002924 0.000000 0.028684 0.000000
# 2 0.002483 0.017666 -0.007937 0.000000 0.010808 0.000000
# 3 0.002924 -0.007937 0.022236 0.000000 -0.001700 0.000001
# 4 0.000000 0.000000 0.000000 0.056370 0.000000 0.017111
# 5 0.028684 0.010808 -0.001700 0.000000 0.065182 0.000001
# 6 0.000000 0.000000 0.000001 0.017111 0.000001 0.078426
#
#
# Mechanical properties :
#
#
# Convention : Reuss Voigt Hill
#
# Bulk Modulus (GPa) = 14.08451 24.46193 19.27322
# Shear Modulus (GPa) = 16.40634 21.90943 19.15789
#
# Velocity S-wave (km/s) = 2.89523 3.34574 3.12860
# Velocity P-wave (km/s) = 4.28632 5.23674 4.78518
#
# Compressibility (1/GPa) = 0.07099999
#
# Stress axis : x y z
#
# Youngs Moduli (GPa) = 27.65733 56.60714 44.97252
#
# Poissons Ratio (x) = -0.14057 -0.13152
# Poissons Ratio (y) = -0.06868 0.35694
# Poissons Ratio (z) = -0.08088 0.44928
#
# Static dielectric constant tensor:
#      x y z
#    x 1.676410 0.000000 -0.005410 
#    y 0.000000 1.702080 0.000000 
#    z -0.005410 0.000000 1.690940 
# 
# From -- ./inp_files/278300.got.cif
#   From: 2010.05.17/outbox.cif.g08.bks.cpg/sg12_140_cif.got.tgz:278300.got - 2010.06.03 13:09:07.
