data_PCOD9205272
_publ_section_title
;
Structure prediction by ZEFSAII (Michael W. Deem and Ramdas Pophale) SiO2 
 PCOD9205272
Probable space group: C 2/M
;
_chemical_formula_sum "Si O2"
_cell_formula_units_Z 56
_cell_length_a 19.091327
_cell_length_b 8.708394
_cell_length_c 30.018763
_cell_angle_alpha 90.000000
_cell_angle_beta 37.536437
_cell_angle_gamma 90.000000
_cell_volume 3040.701610
_symmetry_space_group_name_H-M "C 2/M"
_symmetry_group_IT_number 12
_symmetry_cell_setting 'monoclinic'
loop_
_space_group_symop_operation_xyz
x,y,z
-x,y,-z
-x,-y,-z
x,-y,z
1/2+x,1/2+y,z
1/2-x,1/2+y,-z
1/2-x,1/2-y,-z
1/2+x,1/2-y,z
loop_
_atom_site_type_symbol
_atom_site_label
_atom_site_fract_x
_atom_site_fract_y
_atom_site_fract_z
Si Si1 0.200758 0.815738 0.200908
Si Si2 0.878213 0.184427 0.931534
Si Si3 0.919503 0.685161 0.500441
Si Si4 0.454286 0.816882 0.799296
Si Si5 0.045855 0.185283 0.927969
Si Si6 0.496890 0.683677 0.367861
Si Si7 0.655901 0.314727 0.640024
O O1 0.143080 0.743930 0.185849
O O2 0.329616 0.758421 0.142214
O O3 0.117880 0.772064 0.284025
O O4 0.196826 0.000000 0.198617
O O5 0.933405 0.246408 0.858251
O O6 0.955584 0.229504 0.935105
O O7 0.872998 0.000000 0.932899
O O8 0.750000 0.250000 0.000000
O O9 0.918620 0.500000 0.501096
O O10 0.968420 0.739274 0.428684
O O11 0.787853 0.735222 0.573947
O O12 0.000000 0.739403 0.500000
O O13 0.575269 0.762187 0.717571
O O14 0.448738 0.000000 0.804129
O O15 0.057313 0.000000 0.921381
O O16 0.000000 0.229293 0.000000
O O17 0.496828 0.500000 0.373726
O O18 0.400640 0.721729 0.379337
O O19 0.649372 0.500000 0.648906
#
# Coordination Sequence:
#
# PCOD9205272 Si02
#       7
#     8   8   8   8   8   8   8
#     4  10  21  38  60  86 115 146 184 232 285 337
#     4  11  23  39  60  86 118 152 187 232 282 331
#     4  10  21  35  53  79 110 144 182 227 279 333
#     4  11  22  37  59  85 113 148 192 234 278 336
#     4  10  22  39  59  85 115 147 186 231 277 331
#     4   9  19  35  55  79 107 141 181 226 274 329
#     4   9  19  37  57  79 109 143 184 231 279 332
#
# _framework density 18.416803000000002
#
# number of rings (size 3 to 8) (size 9 to 14) (size 15 to 20)
#    0.000    2.000    0.000    4.286    0.000    7.429 
#    0.000    4.286    0.000    0.000    0.000    0.000 
#    0.000    0.000    0.000    0.000    0.000    0.000 
#
# Total GULP energy -156423.816433 kJ/mol
# GULP energy per Si atom -5586.564873 kJ/mol
# Density = 1.837489 g / cm^3
# Si number density = 18.416803 Si / 1000 Ang^3
#
#
#
# Elastic Constant Matrix: (Units=GPa)
#
#
# Indices 1 2 3 4 5 6 
#
# 1 163.5765 56.5444 136.2857 0.0000 -5.6414 0.0004
# 2 56.5444 45.4915 51.7223 0.0000 -0.5190 0.0008
# 3 136.2857 51.7223 164.7040 0.0000 -0.7947 0.0000
# 4 0.0000 0.0000 0.0000 37.4395 0.0000 -0.7246
# 5 -5.6414 -0.5190 -0.7947 0.0000 37.8558 0.0000
# 6 0.0004 0.0008 0.0000 -0.7246 0.0000 21.1991
#
#
#
# Elastic Compliance Matrix: (Units=1/GPa)
#
#
# Indices 1 2 3 4 5 6 
#
# 1 0.022872 -0.010722 -0.015544 0.000000 0.002935 0.000000
# 2 -0.010722 0.039218 -0.003449 0.000000 -0.001133 -0.000001
# 3 -0.015544 -0.003449 0.020007 0.000000 -0.001944 0.000000
# 4 0.000000 0.000000 0.000000 0.026727 0.000000 0.000914
# 5 0.002935 -0.001133 -0.001944 0.000000 0.026797 0.000000
# 6 0.000000 -0.000001 0.000000 0.000914 0.000000 0.047203
#
#
# Mechanical properties :
#
#
# Convention : Reuss Voigt Hill
#
# Bulk Modulus (GPa) = 44.11820 95.87521 69.99670
# Shear Modulus (GPa) = 20.01515 27.91352 23.96434
#
# Velocity S-wave (km/s) = 3.30022 3.89737 3.61116
# Velocity P-wave (km/s) = 6.20720 8.51024 7.44827
#
# Compressibility (1/GPa) = 0.02266638
#
# Stress axis : x y z
#
# Youngs Moduli (GPa) = 43.72197 25.49856 49.98161
#
# Poissons Ratio (x) = 0.27340 0.77692
# Poissons Ratio (y) = 0.46880 0.17238
# Poissons Ratio (z) = 0.67962 0.08794
#
# Static dielectric constant tensor:
#      x y z
#    x 1.614490 0.000000 -0.007410 
#    y 0.000000 1.622670 0.000000 
#    z -0.007410 0.000000 1.609360 
# 
# From -- ./inp_files/362908.got.cif
#   From: 2010.05.17/outbox.cif.g08.bks.cpg/sg12_182_cif.got.tgz:362908.got - 2010.06.03 13:09:07.
