data_PCOD9205101
_publ_section_title
;
Structure prediction by ZEFSAII (Michael W. Deem and Ramdas Pophale) SiO2 
 PCOD9205101
Probable space group: C 2/M
;
_chemical_formula_sum "Si O2"
_cell_formula_units_Z 48
_cell_length_a 13.532559
_cell_length_b 33.408272
_cell_length_c 14.465831
_cell_angle_alpha 90.000000
_cell_angle_beta 20.717334
_cell_angle_gamma 90.000000
_cell_volume 2313.573992
_symmetry_space_group_name_H-M "C 2/M"
_symmetry_group_IT_number 12
_symmetry_cell_setting 'monoclinic'
loop_
_space_group_symop_operation_xyz
x,y,z
-x,y,-z
-x,-y,-z
x,-y,z
1/2+x,1/2+y,z
1/2-x,1/2+y,-z
1/2-x,1/2-y,-z
1/2+x,1/2-y,z
loop_
_atom_site_type_symbol
_atom_site_label
_atom_site_fract_x
_atom_site_fract_y
_atom_site_fract_z
Si Si1 0.073564 0.953281 0.837121
Si Si2 0.126040 0.201511 0.493029
Si Si3 0.442065 0.953634 0.345944
Si Si4 0.127276 0.155353 0.991797
Si Si5 0.248731 0.127815 0.515062
Si Si6 0.374611 0.747600 0.006689
O O1 0.775968 0.951434 0.044246
O O2 0.127368 0.000000 0.809831
O O3 0.000000 0.933592 0.000000
O O4 0.339990 0.943930 0.540662
O O5 0.145101 0.160436 0.532133
O O6 0.426433 0.222167 0.221325
O O7 0.000000 0.195417 0.500000
O O8 0.928189 0.233330 0.717362
O O9 0.289395 0.915964 0.432750
O O10 0.359323 0.000000 0.398917
O O11 0.446184 0.141202 0.715741
O O12 0.114935 0.201826 0.033627
O O13 0.000000 0.153565 0.000000
O O14 0.954690 0.130101 0.218176
O O15 0.500000 0.746467 0.000000
#
# Coordination Sequence:
#
# PCOD9205101 Si02
#       6
#     8   8   8   8   8   8
#     4   9  17  30  49  70  93 129 175 216 255 307
#     4  10  21  38  59  83 109 139 185 234 271 320
#     4  10  21  35  49  70 102 137 177 223 269 318
#     4  11  24  39  55  83 120 149 179 217 262 327
#     4  12  24  36  57  83 108 148 187 225 278 317
#     4   9  19  37  58  80 112 149 177 216 272 322
#
# _framework density 20.747121
#
# number of rings (size 3 to 8) (size 9 to 14) (size 15 to 20)
#    0.000    1.833    0.000    4.000    0.000   12.667 
#    0.000    0.000    0.000    0.500    0.000    0.000 
#    0.000   10.667    0.000    0.000    0.000    1.667 
#
# Total GULP energy -133986.815999 kJ/mol
# GULP energy per Si atom -5582.784000 kJ/mol
# Density = 2.069990 g / cm^3
# Si number density = 20.747121 Si / 1000 Ang^3
#
#
#
# Elastic Constant Matrix: (Units=GPa)
#
#
# Indices 1 2 3 4 5 6 
#
# 1 70.9779 23.3462 12.3713 0.0002 0.9759 -0.0005
# 2 23.3462 134.0110 -7.3288 -0.0002 4.8737 0.0000
# 3 12.3713 -7.3288 101.8054 -0.0011 0.2926 -0.0003
# 4 0.0002 -0.0002 -0.0011 31.7785 0.0000 -4.2418
# 5 0.9759 4.8737 0.2926 0.0000 13.6962 0.0007
# 6 -0.0005 0.0000 -0.0003 -4.2418 0.0007 6.5855
#
#
#
# Elastic Compliance Matrix: (Units=1/GPa)
#
#
# Indices 1 2 3 4 5 6 
#
# 1 0.015367 -0.002788 -0.002068 0.000000 -0.000059 0.000001
# 2 -0.002788 0.008097 0.000929 0.000000 -0.002702 0.000000
# 3 -0.002068 0.000929 0.010142 0.000000 -0.000400 0.000001
# 4 0.000000 0.000000 0.000000 0.034428 -0.000001 0.022175
# 5 -0.000059 -0.002702 -0.000400 -0.000001 0.073987 -0.000009
# 6 0.000001 0.000000 0.000001 0.022175 -0.000009 0.166131
#
#
# Mechanical properties :
#
#
# Convention : Reuss Voigt Hill
#
# Bulk Modulus (GPa) = 38.83050 40.39685 39.61368
# Shear Modulus (GPa) = 15.40407 28.97243 22.18825
#
# Velocity S-wave (km/s) = 2.72778 3.74097 3.27381
# Velocity P-wave (km/s) = 5.35516 6.17844 5.78148
#
# Compressibility (1/GPa) = 0.02575295
#
# Stress axis : x y z
#
# Youngs Moduli (GPa) = 65.07364 123.50403 98.59971
#
# Poissons Ratio (x) = 0.34434 0.20390
# Poissons Ratio (y) = 0.18143 -0.09164
# Poissons Ratio (z) = 0.13457 -0.11479
#
# Static dielectric constant tensor:
#      x y z
#    x 1.766350 0.000000 0.034810 
#    y 0.000000 1.807690 0.000000 
#    z 0.034810 0.000000 1.729260 
# 
# From -- ./inp_files/219513.got.cif
#   From: 2010.05.17/outbox.cif.g08.bks.cpg/sg12_110_cif.got.tgz:219513.got - 2010.06.03 13:09:07.
