data_PCOD9205946
_publ_section_title
;
Structure prediction by ZEFSAII (Michael W. Deem and Ramdas Pophale) SiO2 
 PCOD9205946
Probable space group: C 2/M
;
_chemical_formula_sum "Si O2"
_cell_formula_units_Z 64
_cell_length_a 19.605806
_cell_length_b 8.915248
_cell_length_c 19.147241
_cell_angle_alpha 90.000000
_cell_angle_beta 95.204629
_cell_angle_gamma 90.000000
_cell_volume 3332.959738
_symmetry_space_group_name_H-M "C 2/M"
_symmetry_group_IT_number 12
_symmetry_cell_setting 'monoclinic'
loop_
_space_group_symop_operation_xyz
x,y,z
-x,y,-z
-x,-y,-z
x,-y,z
1/2+x,1/2+y,z
1/2-x,1/2+y,-z
1/2-x,1/2-y,-z
1/2+x,1/2-y,z
loop_
_atom_site_type_symbol
_atom_site_label
_atom_site_fract_x
_atom_site_fract_y
_atom_site_fract_z
Si Si1 0.976054 0.673952 0.799235
Si Si2 0.024070 0.166670 0.923127
Si Si3 0.095730 0.681941 0.706646
Si Si4 0.632351 0.175622 0.336064
Si Si5 0.252858 0.320347 0.738785
Si Si6 0.841337 0.675500 0.039412
Si Si7 0.281512 0.177518 0.889152
Si Si8 0.010314 0.683313 0.421328
O O1 0.979075 0.500000 0.821216
O O2 0.917798 0.684685 0.735666
O O3 0.966695 0.780884 0.863819
O O4 0.046948 0.718766 0.767473
O O5 0.084016 0.288151 0.925964
O O6 0.049095 0.000000 0.907229
O O7 0.000000 0.163757 0.000000
O O8 0.097609 0.500000 0.704194
O O9 0.173892 0.732834 0.722118
O O10 0.052676 0.731562 0.634418
O O11 0.699910 0.264194 0.320471
O O12 0.583244 0.229645 0.394519
O O13 0.648900 0.000000 0.348921
O O14 0.252927 0.500000 0.741310
O O15 0.282551 0.259081 0.814962
O O16 0.823873 0.500000 0.045921
O O17 0.788636 0.774373 0.078714
O O18 0.835374 0.713271 0.956301
O O19 0.284896 0.000000 0.876520
O O20 0.010920 0.500000 0.419154
O O21 0.000000 0.730252 0.500000
#
# Coordination Sequence:
#
# PCOD9205946 Si02
#       8
#     8   8   8   8   8   8   8   8
#     4   9  18  35  56  72  95 134 180 227 270 319
#     4  11  24  36  48  71 102 133 173 228 275 316
#     4   8  16  31  51  78 104 132 175 217 255 307
#     4   9  19  34  53  81 111 137 176 225 269 317
#     4  11  21  32  51  77 110 145 175 213 266 324
#     4  10  21  37  54  73  97 132 176 219 274 333
#     4  10  21  36  55  76 100 132 174 225 269 316
#     4   8  14  30  58  84 106 138 179 220 257 302
#
# _framework density 19.202151000000001
#
# number of rings (size 3 to 8) (size 9 to 14) (size 15 to 20)
#    0.000    2.500    0.000    3.750    1.750    4.000 
#    0.000    1.250    0.000    1.875    0.000    0.000 
#    0.000    0.000    0.000    0.000    0.000    0.000 
#
# Total GULP energy -178461.821448 kJ/mol
# GULP energy per Si atom -5576.931920 kJ/mol
# Density = 1.915845 g / cm^3
# Si number density = 19.202151 Si / 1000 Ang^3
#
#
#
# Elastic Constant Matrix: (Units=GPa)
#
#
# Indices 1 2 3 4 5 6 
#
# 1 65.6357 14.0677 14.8788 0.0000 -14.6655 0.0000
# 2 14.0677 28.0995 23.4445 0.0000 -5.9355 0.0000
# 3 14.8788 23.4445 99.5793 0.0000 -10.8628 0.0000
# 4 0.0000 0.0000 0.0000 14.4251 0.0000 -8.5282
# 5 -14.6655 -5.9355 -10.8628 0.0000 19.2608 0.0000
# 6 0.0000 0.0000 0.0000 -8.5282 0.0000 17.4569
#
#
#
# Elastic Compliance Matrix: (Units=1/GPa)
#
#
# Indices 1 2 3 4 5 6 
#
# 1 0.019611 -0.007262 0.000175 0.000000 0.012793 0.000000
# 2 -0.007262 0.048250 -0.009863 0.000000 0.003777 0.000000
# 3 0.000175 -0.009863 0.012809 0.000000 0.004318 0.000000
# 4 0.000000 0.000000 0.000000 0.097477 0.000000 0.047620
# 5 0.012793 0.003777 0.004318 0.000000 0.065259 0.000000
# 6 0.000000 0.000000 0.000000 0.047620 0.000000 0.080548
#
#
# Mechanical properties :
#
#
# Convention : Reuss Voigt Hill
#
# Bulk Modulus (GPa) = 21.38066 33.12184 27.25125
# Shear Modulus (GPa) = 13.38893 19.62347 16.50620
#
# Velocity S-wave (km/s) = 2.64344 3.20025 2.93508
# Velocity P-wave (km/s) = 4.52501 5.56255 5.07039
#
# Compressibility (1/GPa) = 0.04677123
#
# Stress axis : x y z
#
# Youngs Moduli (GPa) = 50.99246 20.72538 78.06904
#
# Poissons Ratio (x) = 0.15050 -0.01366
# Poissons Ratio (y) = 0.37029 0.76997
# Poissons Ratio (z) = -0.00893 0.20441
#
# Static dielectric constant tensor:
#      x y z
#    x 1.693170 0.000000 -0.004330 
#    y 0.000000 1.649210 0.000000 
#    z -0.004330 0.000000 1.683470 
# 
# From -- ./inp_files/281325.got.cif
#   From: 2010.05.17/outbox.cif.g08.bks.cpg/sg12_141_cif.got.tgz:281325.got - 2010.06.03 13:09:07.
