data_PCOD9205484
_publ_section_title
;
Structure prediction by ZEFSAII (Michael W. Deem and Ramdas Pophale) SiO2 
 PCOD9205484
Probable space group: C 2/M
;
_chemical_formula_sum "Si O2"
_cell_formula_units_Z 64
_cell_length_a 25.889713
_cell_length_b 14.457650
_cell_length_c 9.325074
_cell_angle_alpha 90.000000
_cell_angle_beta 65.358156
_cell_angle_gamma 90.000000
_cell_volume 3172.550558
_symmetry_space_group_name_H-M "C 2/M"
_symmetry_group_IT_number 12
_symmetry_cell_setting 'monoclinic'
loop_
_space_group_symop_operation_xyz
x,y,z
-x,y,-z
-x,-y,-z
x,-y,z
1/2+x,1/2+y,z
1/2-x,1/2+y,-z
1/2-x,1/2-y,-z
1/2+x,1/2-y,z
loop_
_atom_site_type_symbol
_atom_site_label
_atom_site_fract_x
_atom_site_fract_y
_atom_site_fract_z
Si Si1 0.755916 0.610232 0.408805
Si Si2 0.560633 0.891268 0.761136
Si Si3 0.203435 0.827176 0.007246
Si Si4 0.406726 0.794200 0.572167
Si Si5 0.560983 0.102117 0.201337
Si Si6 0.142744 0.316751 0.897739
Si Si7 0.144534 0.892763 0.366612
Si Si8 0.791081 0.605532 0.688218
O O1 0.765140 0.500000 0.388589
O O2 0.799048 0.656195 0.247541
O O3 0.691811 0.627154 0.433826
O O4 0.769682 0.637344 0.555926
O O5 0.575665 0.852748 0.586474
O O6 0.492343 0.888557 0.843399
O O7 0.594956 0.826790 0.830763
O O8 0.577784 0.000000 0.759241
O O9 0.154782 0.777567 0.968439
O O10 0.239833 0.891218 0.859588
O O11 0.250000 0.750000 0.000000
O O12 0.176053 0.874972 0.177522
O O13 0.441937 0.823692 0.669981
O O14 0.403786 0.684331 0.558476
O O15 0.342087 0.828445 0.676797
O O16 0.557911 0.000000 0.270010
O O17 0.619072 0.113985 0.046384
O O18 0.127327 0.000000 0.395458
O O19 0.812228 0.500000 0.651658
#
# Coordination Sequence:
#
# PCOD9205484 Si02
#       8
#     8   8   8   8   8   8   8   8
#     4  10  21  35  56  86 122 159 192 231 286 353
#     4  11  24  40  60  91 126 156 192 243 301 359
#     4  12  22  38  55  87 120 161 204 240 291 346
#     4  12  22  38  62  88 117 160 199 244 297 355
#     4  11  23  39  60  88 123 157 195 241 296 363
#     4  12  21  36  60  85 122 163 198 231 285 354
#     4  11  24  42  60  86 121 158 202 251 297 348
#     4  11  22  36  58  89 125 161 197 239 293 359
#
# _framework density 20.173043
#
# number of rings (size 3 to 8) (size 9 to 14) (size 15 to 20)
#    0.000    0.750    5.000    3.375    1.750    3.000 
#    0.000    0.000    0.000    1.500    0.000    0.875 
#    0.000    0.000    0.000    0.000    0.000    0.000 
#
# Total GULP energy -178857.240342 kJ/mol
# GULP energy per Si atom -5589.288761 kJ/mol
# Density = 2.012713 g / cm^3
# Si number density = 20.173043 Si / 1000 Ang^3
#
#
#
# Elastic Constant Matrix: (Units=GPa)
#
#
# Indices 1 2 3 4 5 6 
#
# 1 63.9887 33.6801 3.8543 0.0000 23.5166 0.0000
# 2 33.6801 86.6803 -1.9977 0.0000 7.8227 0.0000
# 3 3.8543 -1.9977 52.7864 0.0000 10.4385 0.0000
# 4 0.0000 0.0000 0.0000 28.4754 0.0000 1.1180
# 5 23.5166 7.8227 10.4385 0.0000 35.9516 0.0000
# 6 0.0000 0.0000 0.0000 1.1180 0.0000 27.8596
#
#
#
# Elastic Compliance Matrix: (Units=1/GPa)
#
#
# Indices 1 2 3 4 5 6 
#
# 1 0.025669 -0.008588 0.000797 0.000000 -0.015153 0.000000
# 2 -0.008588 0.014692 0.000747 0.000000 0.002204 0.000000
# 3 0.000797 0.000747 0.020210 0.000000 -0.006552 0.000000
# 4 0.000000 0.000000 0.000000 0.035173 0.000000 -0.001411
# 5 -0.015153 0.002204 -0.006552 0.000000 0.039150 0.000000
# 6 0.000000 0.000000 0.000000 -0.001411 0.000000 0.035951
#
#
# Mechanical properties :
#
#
# Convention : Reuss Voigt Hill
#
# Bulk Modulus (GPa) = 21.51271 30.50321 26.00796
# Shear Modulus (GPa) = 24.94681 29.65192 27.29936
#
# Velocity S-wave (km/s) = 3.52041 3.83806 3.68266
# Velocity P-wave (km/s) = 5.21647 5.89869 5.56804
#
# Compressibility (1/GPa) = 0.04648415
#
# Stress axis : x y z
#
# Youngs Moduli (GPa) = 38.95760 68.06491 49.48050
#
# Poissons Ratio (x) = 0.58453 -0.03945
# Poissons Ratio (y) = 0.33456 -0.03698
# Poissons Ratio (z) = -0.03106 -0.05086
#
# Static dielectric constant tensor:
#      x y z
#    x 1.735100 0.000000 -0.006030 
#    y 0.000000 1.721730 0.000000 
#    z -0.006030 0.000000 1.741030 
# 
# From -- ./inp_files/104542.got.cif
#   From: 2010.05.17/outbox.cif.g08.bks.cpg/sg12_53_cif.got.tgz:104542.got - 2010.06.03 13:09:07.
