data_PCOD9205526
_publ_section_title
;
Structure prediction by ZEFSAII (Michael W. Deem and Ramdas Pophale) SiO2 
 PCOD9205526
Probable space group: C 2/M
;
_chemical_formula_sum "Si O2"
_cell_formula_units_Z 40
_cell_length_a 21.461589
_cell_length_b 10.086322
_cell_length_c 8.845279
_cell_angle_alpha 90.000000
_cell_angle_beta 100.110199
_cell_angle_gamma 90.000000
_cell_volume 1884.992315
_symmetry_space_group_name_H-M "C 2/M"
_symmetry_group_IT_number 12
_symmetry_cell_setting 'monoclinic'
loop_
_space_group_symop_operation_xyz
x,y,z
-x,y,-z
-x,-y,-z
x,-y,z
1/2+x,1/2+y,z
1/2-x,1/2+y,-z
1/2-x,1/2-y,-z
1/2+x,1/2-y,z
loop_
_atom_site_type_symbol
_atom_site_label
_atom_site_fract_x
_atom_site_fract_y
_atom_site_fract_z
Si Si1 0.550618 0.854634 0.701697
Si Si2 0.653198 0.779496 0.516850
Si Si3 0.944112 0.847166 0.725366
Si Si4 0.764361 0.351863 0.732346
Si Si5 0.385817 0.844495 0.947327
O O1 0.598167 0.853904 0.581643
O O2 0.502451 0.732622 0.677733
O O3 0.518724 0.000000 0.696335
O O4 0.591379 0.838012 0.871803
O O5 0.616014 0.662471 0.413206
O O6 0.705002 0.736008 0.661485
O O7 0.691020 0.851447 0.398838
O O8 0.925692 0.757320 0.862565
O O9 0.958130 0.000000 0.765844
O O10 0.741877 0.500000 0.754166
O O11 0.812250 0.310302 0.885418
O O12 0.393896 0.000000 0.902811
#
# Coordination Sequence:
#
# PCOD9205526 Si02
#       5
#     8   8   8   8   8
#     4  11  23  38  58  85 115 149 191 234 277 332
#     4  10  21  35  57  84 112 146 188 232 279 332
#     4  11  23  38  57  84 117 151 188 231 281 335
#     4   9  18  36  58  79 109 148 186 228 280 334
#     4   9  20  39  61  84 112 149 190 230 277 336
#
# _framework density 21.220244000000001
#
# number of rings (size 3 to 8) (size 9 to 14) (size 15 to 20)
#    0.000    2.000    0.000    3.000    0.000    9.600 
#    0.000    1.000    0.000    0.000    0.000    0.000 
#    0.000    0.000    0.000    0.000    0.000    0.000 
#
# Total GULP energy -111615.918801 kJ/mol
# GULP energy per Si atom -5580.795940 kJ/mol
# Density = 2.117195 g / cm^3
# Si number density = 21.220244 Si / 1000 Ang^3
#
#
#
# Elastic Constant Matrix: (Units=GPa)
#
#
# Indices 1 2 3 4 5 6 
#
# 1 68.9420 31.1273 22.2931 0.0000 17.6573 0.0000
# 2 31.1273 113.6814 20.3390 0.0000 7.3804 0.0000
# 3 22.2931 20.3390 74.6618 0.0000 20.4939 0.0000
# 4 0.0000 0.0000 0.0000 16.0815 0.0000 4.9201
# 5 17.6573 7.3804 20.4939 0.0000 36.4568 0.0000
# 6 0.0000 0.0000 0.0000 4.9201 0.0000 17.5661
#
#
#
# Elastic Compliance Matrix: (Units=1/GPa)
#
#
# Indices 1 2 3 4 5 6 
#
# 1 0.019060 -0.004302 -0.002630 0.000000 -0.006882 0.000000
# 2 -0.004302 0.010227 -0.001780 0.000000 0.001013 0.000000
# 3 -0.002630 -0.001780 0.016809 0.000000 -0.007815 0.000000
# 4 0.000000 0.000000 0.000000 0.068011 0.000000 -0.019049
# 5 -0.006882 0.001013 -0.007815 0.000000 0.034951 0.000000
# 6 0.000000 0.000000 0.000000 -0.019049 0.000000 0.062263
#
#
# Mechanical properties :
#
#
# Convention : Reuss Voigt Hill
#
# Bulk Modulus (GPa) = 34.87596 44.97821 39.92709
# Shear Modulus (GPa) = 20.98174 26.25594 23.61884
#
# Velocity S-wave (km/s) = 3.14787 3.52135 3.33983
# Velocity P-wave (km/s) = 5.44821 6.14615 5.80767
#
# Compressibility (1/GPa) = 0.02867304
#
# Stress axis : x y z
#
# Youngs Moduli (GPa) = 52.46523 97.78088 59.49181
#
# Poissons Ratio (x) = 0.42061 0.15648
# Poissons Ratio (y) = 0.22568 0.10588
# Poissons Ratio (z) = 0.13800 0.17403
#
# Static dielectric constant tensor:
#      x y z
#    x 1.773550 0.000000 0.021510 
#    y 0.000000 1.745760 0.000000 
#    z 0.021510 0.000000 1.776350 
# 
# From -- ./inp_files/92910.got.cif
#   From: 2010.05.17/outbox.cif.g08.bks.cpg/sg12_47_cif.got.tgz:92910.got - 2010.06.03 13:09:07.
