data_PCOD9205524
_publ_section_title
;
Structure prediction by ZEFSAII (Michael W. Deem and Ramdas Pophale) SiO2 
 PCOD9205524
Probable space group: C 2/M
;
_chemical_formula_sum "Si O2"
_cell_formula_units_Z 48
_cell_length_a 7.916143
_cell_length_b 29.531262
_cell_length_c 14.133231
_cell_angle_alpha 90.000000
_cell_angle_beta 44.669858
_cell_angle_gamma 90.000000
_cell_volume 2322.764550
_symmetry_space_group_name_H-M "C 2/M"
_symmetry_group_IT_number 12
_symmetry_cell_setting 'monoclinic'
loop_
_space_group_symop_operation_xyz
x,y,z
-x,y,-z
-x,-y,-z
x,-y,z
1/2+x,1/2+y,z
1/2-x,1/2+y,-z
1/2-x,1/2-y,-z
1/2+x,1/2-y,z
loop_
_atom_site_type_symbol
_atom_site_label
_atom_site_fract_x
_atom_site_fract_y
_atom_site_fract_z
Si Si1 0.439673 0.093994 0.680920
Si Si2 0.203133 0.050147 0.335813
Si Si3 0.423533 0.294259 0.423112
Si Si4 0.726386 0.322489 0.859615
Si Si5 0.141560 0.109452 0.630756
Si Si6 0.569345 0.232052 0.863624
O O1 0.535851 0.061028 0.724097
O O2 0.409577 0.143569 0.738330
O O3 0.201047 0.091780 0.711939
O O4 0.652997 0.090244 0.520123
O O5 0.000000 0.049681 0.500000
O O6 0.111954 0.090143 0.303909
O O7 0.198737 0.000000 0.294381
O O8 0.500000 0.307737 0.500000
O O9 0.250000 0.250000 0.500000
O O10 0.326008 0.337096 0.402882
O O11 0.668412 0.283121 0.271826
O O12 0.594464 0.286444 0.844146
O O13 0.878411 0.291739 0.871684
O O14 0.500000 0.346860 0.000000
O O15 0.500000 0.222013 0.000000
#
# Coordination Sequence:
#
# PCOD9205524 Si02
#       6
#     8   8   8   8   8   8
#     4  10  21  36  55  86 115 149 188 245 294 354
#     4   9  18  36  60  86 115 147 185 238 302 367
#     4  12  25  37  57  86 122 165 206 247 300 354
#     4  11  23  37  55  78 114 154 203 247 289 340
#     4  10  21  35  57  83 123 150 191 239 297 360
#     4  11  23  38  56  79 113 161 213 253 290 343
#
# _framework density 20.665029000000001
#
# number of rings (size 3 to 8) (size 9 to 14) (size 15 to 20)
#    0.000    1.500    0.000    7.500    9.333    0.667 
#    0.000    3.333    0.000    0.500    0.000    1.167 
#    0.000    0.000    0.000    0.000    0.000    0.000 
#
# Total GULP energy -133727.990959 kJ/mol
# GULP energy per Si atom -5571.999623 kJ/mol
# Density = 2.061799 g / cm^3
# Si number density = 20.665029 Si / 1000 Ang^3
#
#
#
# Elastic Constant Matrix: (Units=GPa)
#
#
# Indices 1 2 3 4 5 6 
#
# 1 112.5489 44.1362 26.7801 0.0000 -2.4272 0.0000
# 2 44.1362 70.5175 1.0382 0.0000 1.1574 0.0000
# 3 26.7801 1.0382 60.7694 0.0000 -2.1625 0.0000
# 4 0.0000 0.0000 0.0000 6.7198 0.0000 -2.8247
# 5 -2.4272 1.1574 -2.1625 0.0000 24.3075 0.0000
# 6 0.0000 0.0000 0.0000 -2.8247 0.0000 21.5408
#
#
#
# Elastic Compliance Matrix: (Units=1/GPa)
#
#
# Indices 1 2 3 4 5 6 
#
# 1 0.013609 -0.008452 -0.005808 0.000000 0.001245 0.000000
# 2 -0.008452 0.019446 0.003340 0.000000 -0.001473 0.000000
# 3 -0.005808 0.003340 0.018992 0.000000 0.000951 0.000000
# 4 0.000000 0.000000 0.000000 0.157494 0.000000 0.020652
# 5 0.001245 -0.001473 0.000951 0.000000 0.041418 0.000000
# 6 0.000000 0.000000 0.000000 0.020652 0.000000 0.049132
#
#
# Mechanical properties :
#
#
# Convention : Reuss Voigt Hill
#
# Bulk Modulus (GPa) = 33.10641 43.08276 38.09459
# Shear Modulus (GPa) = 15.06020 21.97238 18.51629
#
# Velocity S-wave (km/s) = 2.70252 3.26431 2.99661
# Velocity P-wave (km/s) = 5.07872 5.92461 5.51790
#
# Compressibility (1/GPa) = 0.03020563
#
# Stress axis : x y z
#
# Youngs Moduli (GPa) = 73.48334 51.42410 52.65358
#
# Poissons Ratio (x) = 0.43466 0.30583
# Poissons Ratio (y) = 0.62111 -0.17587
# Poissons Ratio (z) = 0.42682 -0.17177
#
# Static dielectric constant tensor:
#      x y z
#    x 1.836490 0.000000 0.028820 
#    y 0.000000 1.756060 0.000000 
#    z 0.028820 0.000000 1.752690 
# 
# From -- ./inp_files/200127.got.cif
#   From: 2010.05.17/outbox.cif.g08.bks.cpg/sg12_101_cif.got.tgz:200127.got - 2010.06.03 13:09:07.
