data_PCOD9205591
_publ_section_title
;
Structure prediction by ZEFSAII (Michael W. Deem and Ramdas Pophale) SiO2 
 PCOD9205591
Probable space group: C 2/M
;
_chemical_formula_sum "Si O2"
_cell_formula_units_Z 38
_cell_length_a 9.577826
_cell_length_b 20.466844
_cell_length_c 10.799026
_cell_angle_alpha 90.000000
_cell_angle_beta 131.441667
_cell_angle_gamma 90.000000
_cell_volume 1586.899187
_symmetry_space_group_name_H-M "C 2/M"
_symmetry_group_IT_number 12
_symmetry_cell_setting 'monoclinic'
loop_
_space_group_symop_operation_xyz
x,y,z
-x,y,-z
-x,-y,-z
x,-y,z
1/2+x,1/2+y,z
1/2-x,1/2+y,-z
1/2-x,1/2-y,-z
1/2+x,1/2-y,z
loop_
_atom_site_type_symbol
_atom_site_label
_atom_site_fract_x
_atom_site_fract_y
_atom_site_fract_z
Si Si1 0.832534 0.500000 0.192732
Si Si2 0.423760 0.761409 0.194139
Si Si3 0.391055 0.894465 0.743328
Si Si4 0.121447 0.872607 0.383952
Si Si5 0.500000 0.828420 0.500000
Si Si6 0.013007 0.000000 0.814681
Si Si7 0.500000 0.000000 0.000000
O O1 0.664370 0.500000 0.192626
O O2 0.964285 0.436325 0.260744
O O3 0.717404 0.500000 0.995988
O O4 0.531960 0.821494 0.192226
O O5 0.523720 0.692522 0.277066
O O6 0.421603 0.787359 0.336102
O O7 0.250000 0.750000 0.000000
O O8 0.191102 0.881494 0.564904
O O9 0.389260 0.942037 0.857468
O O10 0.323295 0.869516 0.437204
O O11 0.011770 0.934959 0.276010
#
# Coordination Sequence:
#
# PCOD9205591 Si02
#       7
#     4   8   8   8   4   4   2
#     4  10  21  35  58  87 118 157 205 259 317 387
#     4  11  24  41  64  94 129 171 225 276 328 399
#     4  10  21  40  60  88 121 161 217 264 323 395
#     4  11  23  39  63  92 126 169 218 273 327 391
#     4  10  22  41  64  91 126 170 220 280 336 381
#     4  11  20  35  57  87 123 158 203 263 327 378
#     4  10  22  38  66  92 126 174 208 270 340 394
#
# _framework density 23.946071
#
# number of rings (size 3 to 8) (size 9 to 14) (size 15 to 20)
#    0.000    1.474    0.000    7.579    0.000    7.158 
#    0.000    0.000    0.000    6.947    0.000    0.000 
#    0.000    0.000    0.000    0.000    0.000    0.000 
#
# Total GULP energy -105842.553509 kJ/mol
# GULP energy per Si atom -5570.660711 kJ/mol
# Density = 2.389157 g / cm^3
# Si number density = 23.946071 Si / 1000 Ang^3
#
#
#
# Elastic Constant Matrix: (Units=GPa)
#
#
# Indices 1 2 3 4 5 6 
#
# 1 65.0417 29.0680 48.1894 0.0000 14.4142 0.0000
# 2 29.0680 242.7368 124.8166 0.0000 20.6037 0.0000
# 3 48.1894 124.8166 255.4014 0.0000 19.1234 0.0000
# 4 0.0000 0.0000 0.0000 75.8039 0.0000 8.6271
# 5 14.4142 20.6037 19.1234 0.0000 37.4663 0.0000
# 6 0.0000 0.0000 0.0000 8.6271 0.0000 73.8642
#
#
#
# Elastic Compliance Matrix: (Units=1/GPa)
#
#
# Indices 1 2 3 4 5 6 
#
# 1 0.018981 -0.000228 -0.003049 0.000000 -0.005621 0.000000
# 2 -0.000228 0.005614 -0.002574 0.000000 -0.001685 0.000000
# 3 -0.003049 -0.002574 0.005776 0.000000 -0.000359 0.000000
# 4 0.000000 0.000000 0.000000 0.013370 0.000000 -0.001562
# 5 -0.005621 -0.001685 -0.000359 0.000000 0.029963 0.000000
# 6 0.000000 0.000000 0.000000 -0.001562 0.000000 0.013721
#
#
# Mechanical properties :
#
#
# Convention : Reuss Voigt Hill
#
# Bulk Modulus (GPa) = 53.56762 107.48089 80.52425
# Shear Modulus (GPa) = 47.46077 61.50061 54.48069
#
# Velocity S-wave (km/s) = 4.45678 5.07333 4.77502
# Velocity P-wave (km/s) = 6.99303 8.90507 8.00634
#
# Compressibility (1/GPa) = 0.01866800
#
# Stress axis : x y z
#
# Youngs Moduli (GPa) = 52.68308 178.13374 173.14000
#
# Poissons Ratio (x) = 0.04063 0.52792
# Poissons Ratio (y) = 0.01202 0.44571
# Poissons Ratio (z) = 0.16064 0.45856
#
# Static dielectric constant tensor:
#      x y z
#    x 2.508870 0.000000 -0.200030 
#    y 0.000000 1.689250 0.000000 
#    z -0.200030 0.000000 1.949790 
# 
# From -- ./inp_files/47209.got.cif
#   From: 2010.05.17/outbox.cif.g08.bks.cpg/sg12_24_cif.got.tgz:47209.got - 2010.06.03 13:09:07.
