data_PCOD9205649
_publ_section_title
;
Structure prediction by ZEFSAII (Michael W. Deem and Ramdas Pophale) SiO2 
 PCOD9205649
Probable space group: C 2/M
;
_chemical_formula_sum "Si O2"
_cell_formula_units_Z 48
_cell_length_a 11.749878
_cell_length_b 16.744757
_cell_length_c 10.127573
_cell_angle_alpha 90.000000
_cell_angle_beta 82.564181
_cell_angle_gamma 90.000000
_cell_volume 1975.831590
_symmetry_space_group_name_H-M "C 2/M"
_symmetry_group_IT_number 12
_symmetry_cell_setting 'monoclinic'
loop_
_space_group_symop_operation_xyz
x,y,z
-x,y,-z
-x,-y,-z
x,-y,z
1/2+x,1/2+y,z
1/2-x,1/2+y,-z
1/2-x,1/2-y,-z
1/2+x,1/2-y,z
loop_
_atom_site_type_symbol
_atom_site_label
_atom_site_fract_x
_atom_site_fract_y
_atom_site_fract_z
Si Si1 0.582448 0.086064 0.359556
Si Si2 0.552781 0.590667 0.282933
Si Si3 0.904008 0.190883 0.134608
Si Si4 0.365626 0.742803 0.572225
Si Si5 0.428795 0.869344 0.144656
Si Si6 0.782006 0.916799 0.979689
O O1 0.500000 0.086213 0.500000
O O2 0.642554 0.172713 0.348117
O O3 0.500798 0.088266 0.244820
O O4 0.645717 0.000000 0.354094
O O5 0.543993 0.500000 0.339557
O O6 0.435947 0.634196 0.253424
O O7 0.626763 0.656860 0.352643
O O8 0.608317 0.581640 0.130214
O O9 0.895898 0.279730 0.190699
O O10 0.793340 0.157177 0.075253
O O11 0.000000 0.195009 0.000000
O O12 0.500000 0.745168 0.500000
O O13 0.250000 0.750000 0.500000
O O14 0.316418 0.912374 0.112617
O O15 0.500000 0.864608 0.000000
O O16 0.774643 0.000000 0.056999
#
# Coordination Sequence:
#
# PCOD9205649 Si02
#       6
#     8   8   8   8   8   8
#     4  10  23  44  69  95 131 181 234 284 348 426
#     4  10  21  39  66  94 130 176 228 282 347 420
#     4   9  18  36  58  89 123 166 214 271 342 411
#     4  11  26  47  71 100 136 180 234 295 348 414
#     4  11  22  39  64  96 134 174 227 293 353 411
#     4  10  21  35  60  93 130 179 226 280 347 423
#
# _framework density 24.293568
#
# number of rings (size 3 to 8) (size 9 to 14) (size 15 to 20)
#    0.000    1.833    1.667    1.500    4.667    4.333 
#    3.000    0.000    0.000    0.000    0.000    0.000 
#    0.000    0.000    0.000    0.000    0.000    0.000 
#
# Total GULP energy -133732.505387 kJ/mol
# GULP energy per Si atom -5572.187724 kJ/mol
# Density = 2.423827 g / cm^3
# Si number density = 24.293568 Si / 1000 Ang^3
#
#
#
# Elastic Constant Matrix: (Units=GPa)
#
#
# Indices 1 2 3 4 5 6 
#
# 1 62.7120 26.5786 26.8589 0.0000 24.0257 0.0000
# 2 26.5786 239.4760 41.4418 0.0000 25.7998 0.0000
# 3 26.8589 41.4418 93.5450 0.0000 16.0652 0.0000
# 4 0.0000 0.0000 0.0000 23.4155 0.0000 2.2005
# 5 24.0257 25.7998 16.0652 0.0000 48.6675 0.0000
# 6 0.0000 0.0000 0.0000 2.2005 0.0000 43.5943
#
#
#
# Elastic Compliance Matrix: (Units=1/GPa)
#
#
# Indices 1 2 3 4 5 6 
#
# 1 0.021470 -0.000682 -0.004351 0.000000 -0.008802 0.000000
# 2 -0.000682 0.004705 -0.001609 0.000000 -0.001627 0.000000
# 3 -0.004351 -0.001609 0.012866 0.000000 -0.001246 0.000000
# 4 0.000000 0.000000 0.000000 0.042910 0.000000 -0.002166
# 5 -0.008802 -0.001627 -0.001246 0.000000 0.026166 0.000000
# 6 0.000000 0.000000 0.000000 -0.002166 0.000000 0.023048
#
#
# Mechanical properties :
#
#
# Convention : Reuss Voigt Hill
#
# Bulk Modulus (GPa) = 38.82367 65.05462 51.93915
# Shear Modulus (GPa) = 32.67192 43.19237 37.93214
#
# Velocity S-wave (km/s) = 3.67124 4.22113 3.95575
# Velocity P-wave (km/s) = 5.82979 7.11294 6.50309
#
# Compressibility (1/GPa) = 0.02575748
#
# Stress axis : x y z
#
# Youngs Moduli (GPa) = 46.57592 212.53140 77.72243
#
# Poissons Ratio (x) = 0.14489 0.33817
# Poissons Ratio (y) = 0.03175 0.12509
# Poissons Ratio (z) = 0.20265 0.34205
#
# Static dielectric constant tensor:
#      x y z
#    x 2.081830 0.000000 -0.109900 
#    y 0.000000 2.025050 0.000000 
#    z -0.109900 0.000000 1.932350 
# 
# From -- ./inp_files/131137.got.cif
#   From: 2010.05.17/outbox.cif.g08.bks.cpg/sg12_66_cif.got.tgz:131137.got - 2010.06.03 13:09:07.
