data_PCOD9205848
_publ_section_title
;
Structure prediction by ZEFSAII (Michael W. Deem and Ramdas Pophale) SiO2 
 PCOD9205848
Probable space group: C 2/M
;
_chemical_formula_sum "Si O2"
_cell_formula_units_Z 56
_cell_length_a 19.794457
_cell_length_b 8.905608
_cell_length_c 30.952270
_cell_angle_alpha 90.000000
_cell_angle_beta 143.083727
_cell_angle_gamma 90.000000
_cell_volume 3277.322807
_symmetry_space_group_name_H-M "C 2/M"
_symmetry_group_IT_number 12
_symmetry_cell_setting 'monoclinic'
loop_
_space_group_symop_operation_xyz
x,y,z
-x,y,-z
-x,-y,-z
x,-y,z
1/2+x,1/2+y,z
1/2-x,1/2+y,-z
1/2-x,1/2-y,-z
1/2+x,1/2-y,z
loop_
_atom_site_type_symbol
_atom_site_label
_atom_site_fract_x
_atom_site_fract_y
_atom_site_fract_z
Si Si1 0.872659 0.180414 0.058312
Si Si2 0.515713 0.819217 0.649919
Si Si3 0.925069 0.820270 0.777606
Si Si4 0.722738 0.319075 0.215194
Si Si5 0.865004 0.680092 0.655652
Si Si6 0.473857 0.179517 0.936924
Si Si7 0.828896 0.180078 0.503105
O O1 0.935785 0.242967 0.048360
O O2 0.953998 0.221400 0.140178
O O3 0.132960 0.000000 0.946758
O O4 0.750000 0.250000 0.000000
O O5 0.646422 0.778574 0.719143
O O6 0.450295 0.774635 0.660536
O O7 0.450717 0.745925 0.576260
O O8 0.506698 0.000000 0.641579
O O9 0.833725 0.779110 0.767649
O O10 0.898720 0.748816 0.718306
O O11 0.922679 0.000000 0.771988
O O12 0.712895 0.500000 0.205223
O O13 0.647234 0.240480 0.140247
O O14 0.870711 0.500000 0.661519
O O15 0.738438 0.719615 0.575043
O O16 0.478478 0.000000 0.933561
O O17 0.500000 0.214514 0.000000
O O18 0.750000 0.250000 0.500000
O O19 0.830415 0.000000 0.507610
#
# Coordination Sequence:
#
# PCOD9205848 Si02
#       7
#     8   8   8   8   8   8   8
#     4  10  21  37  56  78 104 135 172 212 256 306
#     4   9  18  33  52  74  99 128 167 210 248 293
#     4   9  19  34  51  72  99 131 165 202 245 296
#     4   9  19  36  54  73 100 134 171 208 250 301
#     4   9  18  31  49  74 100 128 164 205 248 296
#     4  10  21  36  54  78 106 135 171 213 255 303
#     4   9  17  30  48  72 100 129 164 204 248 295
#
# _framework density 17.087118
#
# number of rings (size 3 to 8) (size 9 to 14) (size 15 to 20)
#    0.000    2.714    0.000    3.000    0.000    8.571 
#    0.000    3.571    0.000    4.286    0.000    0.000 
#    0.000    0.000    0.000    0.000    0.000    0.000 
#
# Total GULP energy -156064.843213 kJ/mol
# GULP energy per Si atom -5573.744400 kJ/mol
# Density = 1.704823 g / cm^3
# Si number density = 17.087118 Si / 1000 Ang^3
#
#
#
# Elastic Constant Matrix: (Units=GPa)
#
#
# Indices 1 2 3 4 5 6 
#
# 1 68.4785 36.0454 101.3733 0.0000 -0.0420 0.0001
# 2 36.0454 38.7604 67.6288 0.0000 -1.3734 0.0002
# 3 101.3733 67.6288 205.2183 0.0000 -0.5712 0.0000
# 4 0.0000 0.0000 0.0000 36.7005 0.0000 -2.0738
# 5 -0.0420 -1.3734 -0.5712 0.0000 33.8634 0.0000
# 6 0.0001 0.0002 0.0000 -2.0738 0.0000 25.3290
#
#
#
# Elastic Compliance Matrix: (Units=1/GPa)
#
#
# Indices 1 2 3 4 5 6 
#
# 1 0.055635 -0.008961 -0.024531 0.000000 -0.000708 0.000000
# 2 -0.008961 0.062300 -0.016098 0.000000 0.002244 0.000000
# 3 -0.024531 -0.016098 0.022295 0.000000 -0.000307 0.000000
# 4 0.000000 0.000000 0.000000 0.027374 0.000000 0.002241
# 5 -0.000708 0.002244 -0.000307 0.000000 0.029615 0.000000
# 6 0.000000 0.000000 0.000000 0.002241 0.000000 0.039664
#
#
# Mechanical properties :
#
#
# Convention : Reuss Voigt Hill
#
# Bulk Modulus (GPa) = 24.36104 80.28359 52.32232
# Shear Modulus (GPa) = 14.29611 26.33922 20.31767
#
# Velocity S-wave (km/s) = 2.89565 3.93041 3.45202
# Velocity P-wave (km/s) = 5.04654 8.22705 6.82466
#
# Compressibility (1/GPa) = 0.04104914
#
# Stress axis : x y z
#
# Youngs Moduli (GPa) = 17.97441 16.05149 44.85342
#
# Poissons Ratio (x) = 0.14384 1.10031
# Poissons Ratio (y) = 0.16107 0.72204
# Poissons Ratio (z) = 0.44093 0.25839
#
# Static dielectric constant tensor:
#      x y z
#    x 1.563440 0.000000 0.011980 
#    y 0.000000 1.573630 0.000000 
#    z 0.011980 0.000000 1.588580 
# 
# From -- ./inp_files/280206.got.cif
#   From: 2010.05.17/outbox.cif.g08.bks.cpg/sg12_141_cif.got.tgz:280206.got - 2010.06.03 13:09:07.
