data_PCOD9205163
_publ_section_title
;
Structure prediction by ZEFSAII (Michael W. Deem and Ramdas Pophale) SiO2 
 PCOD9205163
Probable space group: C 2/M
;
_chemical_formula_sum "Si O2"
_cell_formula_units_Z 48
_cell_length_a 31.030080
_cell_length_b 9.851147
_cell_length_c 16.945637
_cell_angle_alpha 90.000000
_cell_angle_beta 150.930978
_cell_angle_gamma 90.000000
_cell_volume 2516.757212
_symmetry_space_group_name_H-M "C 2/M"
_symmetry_group_IT_number 12
_symmetry_cell_setting 'monoclinic'
loop_
_space_group_symop_operation_xyz
x,y,z
-x,y,-z
-x,-y,-z
x,-y,z
1/2+x,1/2+y,z
1/2-x,1/2+y,-z
1/2-x,1/2-y,-z
1/2+x,1/2-y,z
loop_
_atom_site_type_symbol
_atom_site_label
_atom_site_fract_x
_atom_site_fract_y
_atom_site_fract_z
Si Si1 0.478756 0.155653 0.057294
Si Si2 0.515417 0.346788 0.256234
Si Si3 0.215764 0.351608 0.186355
Si Si4 0.619685 0.162984 0.546838
Si Si5 0.663339 0.715405 0.953826
Si Si6 0.865430 0.650456 0.251608
O O1 0.521028 0.267233 0.182464
O O2 0.506730 0.000000 0.122190
O O3 0.500000 0.179170 0.000000
O O4 0.373284 0.160726 0.905234
O O5 0.551664 0.500000 0.312080
O O6 0.559121 0.247418 0.390575
O O7 0.412195 0.356257 0.116498
O O8 0.256648 0.500000 0.266317
O O9 0.282791 0.228589 0.308172
O O10 0.187642 0.342434 0.049092
O O11 0.596519 0.189672 0.602118
O O12 0.617987 0.000000 0.532526
O O13 0.623818 0.752807 0.805595
O O14 0.758171 0.645682 0.092302
O O15 0.897782 0.500000 0.282906
#
# Coordination Sequence:
#
# PCOD9205163 Si02
#       6
#     8   8   8   8   8   8
#     4   9  19  37  61  86 108 131 164 209 260 315
#     4  11  22  36  54  77 107 139 175 216 260 310
#     4   9  17  32  55  79 105 137 171 209 258 314
#     4  10  21  35  51  74 107 144 179 217 260 306
#     4   9  18  31  50  76 103 136 175 221 263 303
#     4   9  17  31  50  72 100 137 180 218 258 309
#
# _framework density 19.072163
#
# number of rings (size 3 to 8) (size 9 to 14) (size 15 to 20)
#    0.000    2.500    0.000    2.000    0.000    7.000 
#    0.000    5.833    0.000    0.000    0.000    0.000 
#    0.000    0.000    0.000    0.000    0.000    0.000 
#
# Total GULP energy -133729.830406 kJ/mol
# GULP energy per Si atom -5572.076267 kJ/mol
# Density = 1.902875 g / cm^3
# Si number density = 19.072163 Si / 1000 Ang^3
#
#
#
# Elastic Constant Matrix: (Units=GPa)
#
#
# Indices 1 2 3 4 5 6 
#
# 1 84.0823 45.5764 22.0134 0.0000 -22.7447 0.0000
# 2 45.5764 135.8630 51.3200 0.0000 -20.2612 0.0000
# 3 22.0134 51.3200 72.2000 0.0000 -17.5152 0.0000
# 4 0.0000 0.0000 0.0000 18.5603 0.0000 -0.2198
# 5 -22.7447 -20.2612 -17.5152 0.0000 22.2957 0.0000
# 6 0.0000 0.0000 0.0000 -0.2198 0.0000 -0.7884
#
#
#
# Elastic Compliance Matrix: (Units=1/GPa)
#
#
# Indices 1 2 3 4 5 6 
#
# 1 0.018063 -0.004214 0.001271 0.000000 0.015597 0.000000
# 2 -0.004214 0.011399 -0.006607 0.000000 0.000870 0.000000
# 3 0.001271 -0.006607 0.021024 0.000000 0.011809 0.000000
# 4 0.000000 0.000000 0.000000 0.053701 0.000000 -0.014970
# 5 0.015597 0.000870 0.011809 0.000000 0.070830 0.000000
# 6 0.000000 0.000000 0.000000 -0.014970 0.000000 -1.264215
#
#
# Mechanical properties :
#
#
# Convention : Reuss Voigt Hill
#
# Bulk Modulus (GPa) = 31.85939 58.88498 45.37218
# Shear Modulus (GPa) = -4.71860 19.56257 7.42198
#
# Velocity S-wave (km/s) = -1.57463 3.20615 1.97484
# Velocity P-wave (km/s) = 3.66538 6.68190 5.38900
#
# Compressibility (1/GPa) = 0.03138792
#
# Stress axis : x y z
#
# Youngs Moduli (GPa) = 55.36090 87.72469 47.56541
#
# Poissons Ratio (x) = 0.36966 -0.06048
# Poissons Ratio (y) = 0.23328 0.31425
# Poissons Ratio (z) = -0.07039 0.57958
#
# Static dielectric constant tensor:
#      x y z
#    x 1.646850 0.000000 0.022410 
#    y 0.000000 1.686730 0.000000 
#    z 0.022410 0.000000 1.703630 
# 
# From -- ./inp_files/249381.got.cif
#   From: 2010.05.17/outbox.cif.g08.bks.cpg/sg12_125_cif.got.tgz:249381.got - 2010.06.03 13:09:07.
