data_PCOD9205829
_publ_section_title
;
Structure prediction by ZEFSAII (Michael W. Deem and Ramdas Pophale) SiO2 
 PCOD9205829
Probable space group: C 2/M
;
_chemical_formula_sum "Si O2"
_cell_formula_units_Z 48
_cell_length_a 14.050352
_cell_length_b 13.366182
_cell_length_c 19.979842
_cell_angle_alpha 90.000000
_cell_angle_beta 28.931801
_cell_angle_gamma 90.000000
_cell_volume 1815.197812
_symmetry_space_group_name_H-M "C 2/M"
_symmetry_group_IT_number 12
_symmetry_cell_setting 'monoclinic'
loop_
_space_group_symop_operation_xyz
x,y,z
-x,y,-z
-x,-y,-z
x,-y,z
1/2+x,1/2+y,z
1/2-x,1/2+y,-z
1/2-x,1/2-y,-z
1/2+x,1/2-y,z
loop_
_atom_site_type_symbol
_atom_site_label
_atom_site_fract_x
_atom_site_fract_y
_atom_site_fract_z
Si Si1 0.349241 0.604598 0.191249
Si Si2 0.762445 0.391178 0.585557
Si Si3 0.056479 0.609057 0.249286
Si Si4 0.447350 0.823025 0.130545
Si Si5 0.323960 0.664189 0.831149
Si Si6 0.191497 0.831178 0.420613
O O1 0.459486 0.500000 0.114130
O O2 0.259706 0.607422 0.319922
O O3 0.174808 0.606602 0.245622
O O4 0.474859 0.703539 0.104758
O O5 0.847829 0.500000 0.515078
O O6 0.535583 0.386369 0.700973
O O7 0.854150 0.279686 0.521762
O O8 0.095056 0.500000 0.192887
O O9 0.123635 0.719877 0.184806
O O10 0.817778 0.616208 0.400761
O O11 0.288921 0.848840 0.170123
O O12 0.349706 0.837665 0.262243
O O13 0.659203 0.870638 0.985890
O O14 0.000000 0.870072 0.500000
#
# Coordination Sequence:
#
# PCOD9205829 Si02
#       6
#     8   8   8   8   8   8
#     4   8  15  29  50  75 102 132 167 209 255 300
#     4   9  18  34  55  78 103 134 175 218 258 301
#     4   9  18  33  53  79 107 134 168 211 261 310
#     4   9  18  34  53  76 107 137 170 212 256 305
#     4   9  18  34  56  79 104 134 169 214 262 305
#     4  10  21  36  54  76 104 139 174 209 253 306
#
# _framework density 26.443401000000001
#
# number of rings (size 3 to 8) (size 9 to 14) (size 15 to 20)
#    0.000    3.000    0.000    0.000    0.000    7.333 
#    0.000   23.333    0.000    6.000    0.000    0.000 
#    0.000    0.000    0.000    0.000    0.000    0.000 
#
# Total GULP energy -133984.846714 kJ/mol
# GULP energy per Si atom -5582.701946 kJ/mol
# Density = 2.638321 g / cm^3
# Si number density = 26.443401 Si / 1000 Ang^3
#
#
#
# Elastic Constant Matrix: (Units=GPa)
#
#
# Indices 1 2 3 4 5 6 
#
# 1 57.2668 -7.1030 11.3030 -0.0140 -14.3050 -0.0007
# 2 -7.1030 93.2820 7.3163 -0.0162 -0.5653 -0.0011
# 3 11.3030 7.3163 92.4493 -0.0344 -7.8599 0.0039
# 4 -0.0140 -0.0162 -0.0344 28.2035 0.0029 -6.0270
# 5 -14.3050 -0.5653 -7.8599 0.0029 35.4608 0.0012
# 6 -0.0007 -0.0011 0.0039 -6.0270 0.0012 12.9825
#
#
#
# Elastic Compliance Matrix: (Units=1/GPa)
#
#
# Indices 1 2 3 4 5 6 
#
# 1 0.019968 0.001718 -0.001926 0.000009 0.007655 0.000005
# 2 0.001718 0.010935 -0.001021 0.000007 0.000641 0.000004
# 3 -0.001926 -0.001021 0.011278 0.000012 0.001706 0.000002
# 4 0.000009 0.000007 0.000012 0.039362 0.000003 0.018273
# 5 0.007655 0.000641 0.001706 0.000003 0.031677 -0.000002
# 6 0.000005 0.000004 0.000002 0.018273 -0.000002 0.085510
#
#
# Mechanical properties :
#
#
# Convention : Reuss Voigt Hill
#
# Bulk Modulus (GPa) = 25.17493 29.55898 27.36695
# Shear Modulus (GPa) = 23.31779 30.76149 27.03964
#
# Velocity S-wave (km/s) = 2.97273 3.41441 3.20120
# Velocity P-wave (km/s) = 4.61777 5.17173 4.90258
#
# Compressibility (1/GPa) = 0.03972205
#
# Stress axis : x y z
#
# Youngs Moduli (GPa) = 50.08086 91.44985 88.66714
#
# Poissons Ratio (x) = -0.15710 0.17081
# Poissons Ratio (y) = -0.08604 0.09052
# Poissons Ratio (z) = 0.09648 0.09336
#
# Static dielectric constant tensor:
#      x y z
#    x 2.151760 0.000010 0.047710 
#    y 0.000010 2.086200 0.000010 
#    z 0.047710 0.000010 2.072000 
# 
# From -- ./inp_files/340072.got.cif
#   From: 2010.05.17/outbox.cif.g08.bks.cpg/sg12_171_cif.got.tgz:340072.got - 2010.06.03 13:09:07.
