data_PCOD9205730
_publ_section_title
;
Structure prediction by ZEFSAII (Michael W. Deem and Ramdas Pophale) SiO2 
 PCOD9205730
Probable space group: C 2/M
;
_chemical_formula_sum "Si O2"
_cell_formula_units_Z 64
_cell_length_a 10.513335
_cell_length_b 17.658098
_cell_length_c 20.353875
_cell_angle_alpha 90.000000
_cell_angle_beta 96.806982
_cell_angle_gamma 90.000000
_cell_volume 3751.970180
_symmetry_space_group_name_H-M "C 2/M"
_symmetry_group_IT_number 12
_symmetry_cell_setting 'monoclinic'
loop_
_space_group_symop_operation_xyz
x,y,z
-x,y,-z
-x,-y,-z
x,-y,z
1/2+x,1/2+y,z
1/2-x,1/2+y,-z
1/2-x,1/2-y,-z
1/2+x,1/2-y,z
loop_
_atom_site_type_symbol
_atom_site_label
_atom_site_fract_x
_atom_site_fract_y
_atom_site_fract_z
Si Si1 0.060631 0.814410 0.813062
Si Si2 0.021774 0.088679 0.681422
Si Si3 0.678759 0.088784 0.323021
Si Si4 0.620812 0.092521 0.464593
Si Si5 0.144122 0.681925 0.188784
Si Si6 0.388709 0.592397 0.543047
Si Si7 0.616830 0.909331 0.052969
Si Si8 0.906288 0.090587 0.053242
O O1 0.020155 0.863484 0.747407
O O2 0.208751 0.789847 0.810630
O O3 0.060420 0.866498 0.877806
O O4 0.961249 0.746945 0.815715
O O5 0.166526 0.092938 0.661713
O O6 0.925043 0.115571 0.619023
O O7 0.997469 0.000000 0.694303
O O8 0.619739 0.116007 0.388280
O O9 0.639795 0.135026 0.256373
O O10 0.646826 0.000000 0.311729
O O11 0.500000 0.117033 0.500000
O O12 0.751678 0.117046 0.507813
O O13 0.622062 0.000000 0.463502
O O14 0.116929 0.629004 0.124226
O O15 0.500000 0.616664 0.500000
O O16 0.389831 0.500000 0.543417
O O17 0.756293 0.893876 0.029796
O O18 0.605948 0.000000 0.060417
O O19 0.500000 0.883293 0.000000
O O20 0.919043 0.000000 0.063739
O O21 0.000000 0.113267 0.000000
#
# Coordination Sequence:
#
# PCOD9205730 Si02
#       8
#     8   8   8   8   8   8   8   8
#     4  10  21  36  52  73 103 138 171 205 246 296
#     4   9  16  29  53  77  96 125 170 216 250 290
#     4   9  16  30  53  75  96 129 170 209 250 298
#     4   9  16  26  43  71 103 127 154 201 259 306
#     4  10  21  36  53  73 102 137 172 206 245 296
#     4   9  14  24  45  73  97 120 159 208 253 295
#     4   9  18  34  57  82 104 129 165 208 249 292
#     4   9  18  34  57  81 104 131 165 206 250 294
#
# _framework density 17.057704000000001
#
# number of rings (size 3 to 8) (size 9 to 14) (size 15 to 20)
#    0.000    2.750    1.250    0.750    0.000    4.500 
#    2.250    2.500    0.000    3.000    0.000    0.000 
#    0.000    0.000    0.000    0.000    0.000    0.000 
#
# Total GULP energy -178363.076070 kJ/mol
# GULP energy per Si atom -5573.846127 kJ/mol
# Density = 1.701888 g / cm^3
# Si number density = 17.057704 Si / 1000 Ang^3
#
#
#
# Elastic Constant Matrix: (Units=GPa)
#
#
# Indices 1 2 3 4 5 6 
#
# 1 134.2708 45.5283 100.3835 0.0000 -2.3848 0.0000
# 2 45.5283 27.5725 38.4145 0.0000 -1.7718 0.0000
# 3 100.3835 38.4145 143.2784 0.0000 -0.7935 0.0000
# 4 0.0000 0.0000 0.0000 -9.5828 0.0000 -0.2774
# 5 -2.3848 -1.7718 -0.7935 0.0000 30.2696 0.0000
# 6 0.0000 0.0000 0.0000 -0.2774 0.0000 19.2138
#
#
#
# Elastic Compliance Matrix: (Units=1/GPa)
#
#
# Indices 1 2 3 4 5 6 
#
# 1 0.022790 -0.024549 -0.009384 0.000000 0.000113 0.000000
# 2 -0.024549 0.084608 -0.005469 0.000000 0.002875 0.000000
# 3 -0.009384 -0.005469 0.015017 0.000000 -0.000666 0.000000
# 4 0.000000 0.000000 0.000000 -0.104310 0.000000 -0.001506
# 5 0.000113 0.002875 -0.000666 0.000000 0.033196 0.000000
# 6 0.000000 0.000000 0.000000 -0.001506 0.000000 0.052024
#
#
# Mechanical properties :
#
#
# Convention : Reuss Voigt Hill
#
# Bulk Modulus (GPa) = 22.93058 74.86379 48.89719
# Shear Modulus (GPa) = 25.42385 16.03314 20.72849
#
# Velocity S-wave (km/s) = 3.86484 3.06916 3.48975
# Velocity P-wave (km/s) = 5.77824 7.51954 6.70565
#
# Compressibility (1/GPa) = 0.04360988
#
# Stress axis : x y z
#
# Youngs Moduli (GPa) = 43.87974 11.81923 66.59195
#
# Poissons Ratio (x) = 0.29015 0.62492
# Poissons Ratio (y) = 1.07720 0.36418
# Poissons Ratio (z) = 0.41178 0.06464
#
# Static dielectric constant tensor:
#      x y z
#    x 1.576180 0.000000 0.001360 
#    y 0.000000 1.557470 0.000000 
#    z 0.001360 0.000000 1.560480 
# 
# From -- ./inp_files/263937.got.cif
#   From: 2010.05.17/outbox.cif.g08.bks.cpg/sg12_132_cif.got.tgz:263937.got - 2010.06.03 13:09:07.
