data_PCOD9205534
_publ_section_title
;
Structure prediction by ZEFSAII (Michael W. Deem and Ramdas Pophale) SiO2 
 PCOD9205534
Probable space group: C 2/M
;
_chemical_formula_sum "Si O2"
_cell_formula_units_Z 58
_cell_length_a 31.399080
_cell_length_b 12.776392
_cell_length_c 22.532411
_cell_angle_alpha 90.000000
_cell_angle_beta 17.160557
_cell_angle_gamma 90.000000
_cell_volume 2667.036503
_symmetry_space_group_name_H-M "C 2/M"
_symmetry_group_IT_number 12
_symmetry_cell_setting 'monoclinic'
loop_
_space_group_symop_operation_xyz
x,y,z
-x,y,-z
-x,-y,-z
x,-y,z
1/2+x,1/2+y,z
1/2-x,1/2+y,-z
1/2-x,1/2-y,-z
1/2+x,1/2-y,z
loop_
_atom_site_type_symbol
_atom_site_label
_atom_site_fract_x
_atom_site_fract_y
_atom_site_fract_z
Si Si1 0.360190 0.173515 0.950461
Si Si2 0.756668 0.381246 0.426042
Si Si3 0.592299 0.886080 0.984185
Si Si4 0.373726 0.329631 0.121047
Si Si5 0.617163 0.208342 0.531769
Si Si6 0.500000 0.500000 0.500000
Si Si7 0.955518 0.885767 0.880373
Si Si8 0.058823 0.885618 0.302537
O O1 0.508818 0.146541 0.719076
O O2 0.382295 0.294936 0.939300
O O3 0.335804 0.119329 0.046820
O O4 0.225489 0.145904 0.089261
O O5 0.743828 0.500000 0.417457
O O6 0.722295 0.284387 0.429452
O O7 0.629419 0.373888 0.644002
O O8 0.922040 0.372405 0.225189
O O9 0.634950 0.794485 0.883290
O O10 0.618230 0.000000 0.923006
O O11 0.220561 0.359475 0.352736
O O12 0.500000 0.349655 0.000000
O O13 0.409350 0.377255 0.009885
O O14 0.522157 0.291413 0.621231
O O15 0.499551 0.410356 0.447341
O O16 0.082056 0.000000 0.092807
O O17 0.952807 0.000000 0.713078
#
# Coordination Sequence:
#
# PCOD9205534 Si02
#       8
#     8   8   8   8   8   2   8   8
#     4  10  22  38  62  83 115 155 203 243 289 352
#     4   9  18  35  56  82 110 151 197 242 297 349
#     4  10  21  35  57  85 120 153 191 245 304 361
#     4  11  23  35  56  86 123 158 194 243 294 355
#     4  11  22  36  57  87 121 156 196 243 291 346
#     4   8  24  36  64  92 120 152 184 236 314 366
#     4   9  21  38  58  78 110 157 206 244 286 343
#     4  10  22  39  62  91 120 153 190 237 303 364
#
# _framework density 21.746984000000001
#
# number of rings (size 3 to 8) (size 9 to 14) (size 15 to 20)
#    0.414    1.655    1.379    1.241    5.793    3.862 
#    0.000    1.379    0.000    1.655    0.000    0.000 
#    0.000    0.000    0.000    0.000    0.000    0.000 
#
# Total GULP energy -161700.222965 kJ/mol
# GULP energy per Si atom -5575.869757 kJ/mol
# Density = 2.169749 g / cm^3
# Si number density = 21.746984 Si / 1000 Ang^3
#
#
#
# Elastic Constant Matrix: (Units=GPa)
#
#
# Indices 1 2 3 4 5 6 
#
# 1 54.5180 -9.4691 22.2135 -0.0004 3.0938 -0.0001
# 2 -9.4691 51.2003 1.3662 -0.0010 4.6467 -0.0001
# 3 22.2135 1.3662 88.9617 -0.0008 14.9256 -0.0002
# 4 -0.0004 -0.0010 -0.0008 13.9291 0.0004 0.7674
# 5 3.0938 4.6467 14.9256 0.0004 43.5540 0.0001
# 6 -0.0001 -0.0001 -0.0002 0.7674 0.0001 -11.0037
#
#
#
# Elastic Compliance Matrix: (Units=1/GPa)
#
#
# Indices 1 2 3 4 5 6 
#
# 1 0.021236 0.004080 -0.005347 0.000001 -0.000112 0.000000
# 2 0.004080 0.020506 -0.000974 0.000002 -0.002144 0.000000
# 3 -0.005347 -0.000974 0.013273 0.000001 -0.004065 0.000000
# 4 0.000001 0.000002 0.000001 0.071517 -0.000001 0.004987
# 5 -0.000112 -0.002144 -0.004065 -0.000001 0.024590 0.000000
# 6 0.000000 0.000000 0.000000 0.004987 0.000000 -0.090530
#
#
# Mechanical properties :
#
#
# Convention : Reuss Voigt Hill
#
# Bulk Modulus (GPa) = 19.78850 24.76678 22.27764
# Shear Modulus (GPa) = 61.03730 21.33383 41.18557
#
# Velocity S-wave (km/s) = 5.30358 3.13549 4.35656
# Velocity P-wave (km/s) = 6.82811 4.95194 5.96426
#
# Compressibility (1/GPa) = 0.05053440
#
# Stress axis : x y z
#
# Youngs Moduli (GPa) = 47.08973 48.76549 75.34244
#
# Poissons Ratio (x) = -0.19897 0.40282
# Poissons Ratio (y) = -0.19214 0.07339
# Poissons Ratio (z) = 0.25177 0.04750
#
# Static dielectric constant tensor:
#      x y z
#    x 1.769480 0.000000 0.008590 
#    y 0.000000 1.812790 0.000000 
#    z 0.008590 0.000000 1.811460 
# 
# From -- ./inp_files/330275.got.cif
#   From: 2010.05.17/outbox.cif.g08.bks.cpg/sg12_166_cif.got.tgz:330275.got - 2010.06.03 13:09:07.
