data_PCOD9205838
_publ_section_title
;
Structure prediction by ZEFSAII (Michael W. Deem and Ramdas Pophale) SiO2 
 PCOD9205838
Probable space group: C 2/M
;
_chemical_formula_sum "Si O2"
_cell_formula_units_Z 40
_cell_length_a 15.819820
_cell_length_b 14.820716
_cell_length_c 14.071242
_cell_angle_alpha 90.000000
_cell_angle_beta 152.467473
_cell_angle_gamma 90.000000
_cell_volume 1525.042848
_symmetry_space_group_name_H-M "C 2/M"
_symmetry_group_IT_number 12
_symmetry_cell_setting 'monoclinic'
loop_
_space_group_symop_operation_xyz
x,y,z
-x,y,-z
-x,-y,-z
x,-y,z
1/2+x,1/2+y,z
1/2-x,1/2+y,-z
1/2-x,1/2-y,-z
1/2+x,1/2-y,z
loop_
_atom_site_type_symbol
_atom_site_label
_atom_site_fract_x
_atom_site_fract_y
_atom_site_fract_z
Si Si1 0.303968 0.166724 0.123096
Si Si2 0.152907 0.598153 0.018927
Si Si3 0.402659 0.398181 0.546352
Si Si4 0.249614 0.246534 0.751381
Si Si5 0.402484 0.395675 0.761813
O O1 0.379864 0.206467 0.296592
O O2 0.250000 0.250000 0.000000
O O3 0.414617 0.108150 0.157432
O O4 0.122823 0.114425 0.976237
O O5 0.097156 0.500000 0.999890
O O6 0.375955 0.597579 0.236066
O O7 0.117217 0.687376 0.044843
O O8 0.339393 0.500000 0.463634
O O9 0.326684 0.330789 0.393088
O O10 0.347756 0.372229 0.598739
O O11 0.325511 0.326405 0.761560
O O12 0.356180 0.500000 0.735528
#
# Coordination Sequence:
#
# PCOD9205838 Si02
#       5
#     8   8   8   8   8
#     4   9  19  33  51  75 104 135 171 214 259 310
#     4   9  18  34  56  80 106 138 175 216 263 314
#     4   9  18  34  56  80 106 138 175 216 263 314
#     4  11  19  29  52  85 110 132 172 222 265 309
#     4  10  21  36  54  77 107 142 177 216 263 313
#
# _framework density 26.228769
#
# number of rings (size 3 to 8) (size 9 to 14) (size 15 to 20)
#    0.000    2.400    0.000    4.200    0.000    4.000 
#    0.000    0.000    0.000   27.600    0.000   22.400 
#    0.000    0.000    0.000    0.000    0.000    0.000 
#
# Total GULP energy -111816.470007 kJ/mol
# GULP energy per Si atom -5590.823500 kJ/mol
# Density = 2.616907 g / cm^3
# Si number density = 26.228769 Si / 1000 Ang^3
#
#
#
# Elastic Constant Matrix: (Units=GPa)
#
#
# Indices 1 2 3 4 5 6 
#
# 1 212.5882 102.9561 53.5602 -0.0001 -53.1450 0.0002
# 2 102.9561 174.9504 25.5484 -0.0011 -43.7395 -0.0008
# 3 53.5602 25.5484 82.2893 -0.0016 -25.7743 -0.0014
# 4 -0.0001 -0.0011 -0.0016 31.0856 -0.0024 -6.3934
# 5 -53.1450 -43.7395 -25.7743 -0.0024 53.4096 -0.0014
# 6 0.0002 -0.0008 -0.0014 -6.3934 -0.0014 42.1078
#
#
#
# Elastic Compliance Matrix: (Units=1/GPa)
#
#
# Indices 1 2 3 4 5 6 
#
# 1 0.008025 -0.003333 -0.002995 0.000000 0.003811 0.000000
# 2 -0.003333 0.008586 0.000786 0.000001 0.004095 0.000000
# 3 -0.002995 0.000786 0.015463 0.000001 0.005125 0.000001
# 4 0.000000 0.000001 0.000001 0.033206 0.000003 0.005042
# 5 0.003811 0.004095 0.005125 0.000003 0.028342 0.000002
# 6 0.000000 0.000000 0.000001 0.005042 0.000002 0.024514
#
#
# Mechanical properties :
#
#
# Convention : Reuss Voigt Hill
#
# Bulk Modulus (GPa) = 47.64011 92.66191 70.15101
# Shear Modulus (GPa) = 36.70614 44.50481 40.60547
#
# Velocity S-wave (km/s) = 3.74500 4.12368 3.93889
# Velocity P-wave (km/s) = 6.07476 7.62090 6.89133
#
# Compressibility (1/GPa) = 0.02099071
#
# Stress axis : x y z
#
# Youngs Moduli (GPa) = 124.60818 116.46832 64.67013
#
# Poissons Ratio (x) = 0.38814 0.19369
# Poissons Ratio (y) = 0.41527 -0.05082
# Poissons Ratio (z) = 0.37322 -0.09153
#
# Static dielectric constant tensor:
#      x y z
#    x 2.117910 0.000000 0.027730 
#    y 0.000000 2.048280 0.000000 
#    z 0.027730 0.000000 2.158840 
# 
# From -- ./inp_files/215058.got.cif
#   From: 2010.05.17/outbox.cif.g08.bks.cpg/sg12_108_cif.got.tgz:215058.got - 2010.06.03 13:09:07.
