data_PCOD9205305
_publ_section_title
;
Structure prediction by ZEFSAII (Michael W. Deem and Ramdas Pophale) SiO2 
 PCOD9205305
Probable space group: C 2/M
;
_chemical_formula_sum "Si O2"
_cell_formula_units_Z 40
_cell_length_a 5.185724
_cell_length_b 26.133319
_cell_length_c 14.669488
_cell_angle_alpha 90.000000
_cell_angle_beta 113.496849
_cell_angle_gamma 90.000000
_cell_volume 1823.169702
_symmetry_space_group_name_H-M "C 2/M"
_symmetry_group_IT_number 12
_symmetry_cell_setting 'monoclinic'
loop_
_space_group_symop_operation_xyz
x,y,z
-x,y,-z
-x,-y,-z
x,-y,z
1/2+x,1/2+y,z
1/2-x,1/2+y,-z
1/2-x,1/2-y,-z
1/2+x,1/2-y,z
loop_
_atom_site_type_symbol
_atom_site_label
_atom_site_fract_x
_atom_site_fract_y
_atom_site_fract_z
Si Si1 0.222368 0.121746 0.319174
Si Si2 0.845953 0.228482 0.611736
Si Si3 0.834555 0.116406 0.884950
Si Si4 0.170847 0.444826 0.117689
Si Si5 0.306681 0.561219 0.384372
O O1 0.232406 0.169754 0.387867
O O2 0.165815 0.146385 0.210824
O O3 0.510891 0.090070 0.354829
O O4 0.979346 0.083979 0.322677
O O5 0.750000 0.250000 0.500000
O O6 0.677119 0.262291 0.660460
O O7 0.517705 0.098918 0.861444
O O8 0.018303 0.068211 0.874363
O O9 0.000000 0.134563 0.000000
O O10 0.158568 0.500000 0.162974
O O11 0.000000 0.449416 0.000000
O O12 0.500000 0.571812 0.500000
O O13 0.268520 0.500000 0.375227
#
# Coordination Sequence:
#
# PCOD9205305 Si02
#       5
#     8   8   8   8   8
#     4  12  24  40  68  91 126 172 206 257 318 364
#     4  10  23  40  64  96 118 148 199 272 323 373
#     4  10  21  35  53  84 119 158 204 248 300 362
#     4   9  17  30  49  75 112 158 206 253 289 325
#     4  11  26  43  62  92 132 174 212 248 301 382
#
# _framework density 21.939810999999999
#
# number of rings (size 3 to 8) (size 9 to 14) (size 15 to 20)
#    0.000    1.600    0.000    4.200    8.400    8.800 
#    0.000    0.000    0.000    1.200    0.000    0.000 
#    0.000    0.000    0.000    0.000    0.000    0.000 
#
# Total GULP energy -111505.930153 kJ/mol
# GULP energy per Si atom -5575.296508 kJ/mol
# Density = 2.188987 g / cm^3
# Si number density = 21.939811 Si / 1000 Ang^3
#
#
#
# Elastic Constant Matrix: (Units=GPa)
#
#
# Indices 1 2 3 4 5 6 
#
# 1 165.1119 36.8858 22.5871 0.0000 -5.5409 0.0000
# 2 36.8858 92.0313 26.7493 0.0000 -9.3435 0.0000
# 3 22.5871 26.7493 108.5974 0.0000 -3.9279 0.0000
# 4 0.0000 0.0000 0.0000 10.2902 0.0000 -1.9318
# 5 -5.5409 -9.3435 -3.9279 0.0000 29.7488 0.0000
# 6 0.0000 0.0000 0.0000 -1.9318 0.0000 24.7810
#
#
#
# Elastic Compliance Matrix: (Units=1/GPa)
#
#
# Indices 1 2 3 4 5 6 
#
# 1 0.006719 -0.002425 -0.000786 0.000000 0.000386 0.000000
# 2 -0.002425 0.012913 -0.002558 0.000000 0.003266 0.000000
# 3 -0.000786 -0.002558 0.010015 0.000000 0.000373 0.000000
# 4 0.000000 0.000000 0.000000 0.098623 0.000000 0.007688
# 5 0.000386 0.003266 0.000373 0.000000 0.034762 0.000000
# 6 0.000000 0.000000 0.000000 0.007688 0.000000 0.040953
#
#
# Mechanical properties :
#
#
# Convention : Reuss Voigt Hill
#
# Bulk Modulus (GPa) = 55.22323 59.79834 57.51078
# Shear Modulus (GPa) = 22.56725 31.59856 27.08291
#
# Velocity S-wave (km/s) = 3.21066 3.79916 3.51724
# Velocity P-wave (km/s) = 6.24255 6.82346 6.53946
#
# Compressibility (1/GPa) = 0.01810832
#
# Stress axis : x y z
#
# Youngs Moduli (GPa) = 148.83668 77.44123 99.84619
#
# Poissons Ratio (x) = 0.18781 0.07849
# Poissons Ratio (y) = 0.36096 0.25542
# Poissons Ratio (z) = 0.11700 0.19810
#
# Static dielectric constant tensor:
#      x y z
#    x 1.856340 0.000000 0.021710 
#    y 0.000000 1.781650 0.000000 
#    z 0.021710 0.000000 1.964550 
# 
# From -- ./inp_files/191637.got.cif
#   From: 2010.05.17/outbox.cif.g08.bks.cpg/sg12_96_cif.got.tgz:191637.got - 2010.06.03 13:09:07.
