data_PCOD9205352
_publ_section_title
;
Structure prediction by ZEFSAII (Michael W. Deem and Ramdas Pophale) SiO2 
 PCOD9205352
Probable space group: C 2/M
;
_chemical_formula_sum "Si O2"
_cell_formula_units_Z 64
_cell_length_a 14.914079
_cell_length_b 7.550503
_cell_length_c 22.874141
_cell_angle_alpha 90.000000
_cell_angle_beta 96.248410
_cell_angle_gamma 90.000000
_cell_volume 2560.527450
_symmetry_space_group_name_H-M "C 2/M"
_symmetry_group_IT_number 12
_symmetry_cell_setting 'monoclinic'
loop_
_space_group_symop_operation_xyz
x,y,z
-x,y,-z
-x,-y,-z
x,-y,z
1/2+x,1/2+y,z
1/2-x,1/2+y,-z
1/2-x,1/2-y,-z
1/2+x,1/2-y,z
loop_
_atom_site_type_symbol
_atom_site_label
_atom_site_fract_x
_atom_site_fract_y
_atom_site_fract_z
Si Si1 0.013751 0.798729 0.380830
Si Si2 0.052857 0.289742 0.256198
Si Si3 0.193542 0.213396 0.438245
Si Si4 0.241342 0.203550 0.913862
Si Si5 0.411036 0.784982 0.864973
Si Si6 0.340762 0.211813 0.215511
Si Si7 0.310792 0.206065 0.340070
Si Si8 0.432884 0.709172 0.043364
O O1 0.061316 0.796303 0.320060
O O2 0.090174 0.721141 0.428708
O O3 0.916304 0.711722 0.366061
O O4 0.993967 0.000000 0.396701
O O5 0.068152 0.500000 0.264718
O O6 0.106260 0.225081 0.202734
O O7 0.948039 0.264842 0.230930
O O8 0.250000 0.250000 0.500000
O O9 0.249734 0.283742 0.386740
O O10 0.187239 0.000000 0.432598
O O11 0.338839 0.284312 0.907185
O O12 0.197335 0.204557 0.845838
O O13 0.166733 0.283962 0.951829
O O14 0.254589 0.000000 0.932064
O O15 0.509136 0.730410 0.893655
O O16 0.407449 0.000000 0.864069
O O17 0.301426 0.282454 0.274229
O O18 0.325780 0.000000 0.209400
O O19 0.287013 0.000000 0.332530
O O20 0.422679 0.500000 0.030972
O O21 0.500000 0.789456 0.000000
#
# Coordination Sequence:
#
# PCOD9205352 Si02
#       8
#     8   8   8   8   8   8   8   8
#     4  10  21  36  57  86 114 143 186 236 278 325
#     4   9  18  34  55  80 114 148 179 222 281 341
#     4  10  23  41  59  82 114 152 193 234 279 333
#     4  10  21  35  54  82 113 144 183 232 279 326
#     4  10  21  37  56  82 112 145 186 231 277 331
#     4   9  17  32  56  81 110 145 182 223 273 336
#     4   9  20  39  58  80 114 153 186 226 282 340
#     4  10  22  40  58  79 113 152 188 232 283 332
#
# _framework density 24.99485
#
# number of rings (size 3 to 8) (size 9 to 14) (size 15 to 20)
#    0.000    2.375    1.250    1.125    1.750    5.750 
#    0.000    2.500    0.000    0.000    0.000    0.000 
#    0.000    0.000    0.000    0.000    0.000    0.000 
#
# Total GULP energy -178856.246984 kJ/mol
# GULP energy per Si atom -5589.257718 kJ/mol
# Density = 2.493796 g / cm^3
# Si number density = 24.994850 Si / 1000 Ang^3
#
#
#
# Elastic Constant Matrix: (Units=GPa)
#
#
# Indices 1 2 3 4 5 6 
#
# 1 110.3183 4.9248 17.7976 0.0000 1.5139 0.0000
# 2 4.9248 64.1030 3.9930 0.0000 -0.2160 0.0000
# 3 17.7976 3.9930 43.0981 0.0000 12.3046 0.0000
# 4 0.0000 0.0000 0.0000 24.1454 0.0000 6.4841
# 5 1.5139 -0.2160 12.3046 0.0000 47.3854 0.0000
# 6 0.0000 0.0000 0.0000 6.4841 0.0000 9.2839
#
#
#
# Elastic Compliance Matrix: (Units=1/GPa)
#
#
# Indices 1 2 3 4 5 6 
#
# 1 0.009754 -0.000485 -0.004205 0.000000 0.000778 0.000000
# 2 -0.000485 0.015725 -0.001384 0.000000 0.000447 0.000000
# 3 -0.004205 -0.001384 0.027035 0.000000 -0.006892 0.000000
# 4 0.000000 0.000000 0.000000 0.050977 0.000000 -0.035603
# 5 0.000778 0.000447 -0.006892 0.000000 0.022870 0.000000
# 6 0.000000 0.000000 0.000000 -0.035603 0.000000 0.132579
#
#
# Mechanical properties :
#
#
# Convention : Reuss Voigt Hill
#
# Bulk Modulus (GPa) = 24.77339 30.10558 27.43949
# Shear Modulus (GPa) = 17.57196 28.88322 23.22759
#
# Velocity S-wave (km/s) = 2.65434 3.40305 3.05174
# Velocity P-wave (km/s) = 4.39624 5.24518 4.83936
#
# Compressibility (1/GPa) = 0.04036589
#
# Stress axis : x y z
#
# Youngs Moduli (GPa) = 102.52136 63.59352 36.98851
#
# Poissons Ratio (x) = 0.03083 0.15555
# Poissons Ratio (y) = 0.04970 0.05120
# Poissons Ratio (z) = 0.43113 0.08803
#
# Static dielectric constant tensor:
#      x y z
#    x 2.009020 0.000000 -0.031550 
#    y 0.000000 1.909210 0.000000 
#    z -0.031550 0.000000 1.998680 
# 
# From -- ./inp_files/338895.got.cif
#   From: 2010.05.17/outbox.cif.g08.bks.cpg/sg12_170_cif.got.tgz:338895.got - 2010.06.03 13:09:07.
