data_PCOD9205122
_publ_section_title
;
Structure prediction by ZEFSAII (Michael W. Deem and Ramdas Pophale) SiO2 
 PCOD9205122
Probable space group: C 2/M
;
_chemical_formula_sum "Si O2"
_cell_formula_units_Z 56
_cell_length_a 27.500336
_cell_length_b 8.982292
_cell_length_c 17.978678
_cell_angle_alpha 90.000000
_cell_angle_beta 125.408199
_cell_angle_gamma 90.000000
_cell_volume 3619.632289
_symmetry_space_group_name_H-M "C 2/M"
_symmetry_group_IT_number 12
_symmetry_cell_setting 'monoclinic'
loop_
_space_group_symop_operation_xyz
x,y,z
-x,y,-z
-x,-y,-z
x,-y,z
1/2+x,1/2+y,z
1/2-x,1/2+y,-z
1/2-x,1/2-y,-z
1/2+x,1/2-y,z
loop_
_atom_site_type_symbol
_atom_site_label
_atom_site_fract_x
_atom_site_fract_y
_atom_site_fract_z
Si Si1 0.703630 0.677291 0.777488
Si Si2 0.515211 0.818917 0.395261
Si Si3 0.169053 0.679544 0.064011
Si Si4 0.540670 0.677938 0.965987
Si Si5 0.596752 0.179622 0.601429
Si Si6 0.981906 0.673560 0.207513
Si Si7 0.659846 0.827406 0.887921
O O1 0.699749 0.500000 0.768229
O O2 0.773432 0.720048 0.836376
O O3 0.659626 0.751926 0.679410
O O4 0.680912 0.728589 0.838530
O O5 0.453743 0.775577 0.382538
O O6 0.569378 0.775905 0.497365
O O7 0.516301 0.768565 0.310959
O O8 0.514132 0.000000 0.392271
O O9 0.161555 0.500000 0.057938
O O10 0.106898 0.753508 0.030989
O O11 0.182354 0.719886 0.989402
O O12 0.545162 0.500000 0.967173
O O13 0.512961 0.737297 0.864203
O O14 0.500000 0.720849 0.000000
O O15 0.600607 0.000000 0.607163
O O16 0.997106 0.500000 0.207779
O O17 0.911977 0.677214 0.168501
O O18 0.676816 0.000000 0.889234
#
# Coordination Sequence:
#
# PCOD9205122 Si02
#       7
#     8   8   8   8   8   8   8
#     4  11  20  28  40  64  95 123 153 190 225 258
#     4   8  14  27  46  65  87 121 162 193 215 254
#     4   9  20  34  46  62  87 121 157 186 219 270
#     4  10  21  35  50  71  94 113 141 186 237 281
#     4   9  16  28  45  62  88 127 162 189 218 255
#     4   9  16  29  49  70  91 119 156 189 220 265
#     4   9  16  28  44  61  86 122 159 187 214 260
#
# _framework density 15.471183999999999
#
# number of rings (size 3 to 8) (size 9 to 14) (size 15 to 20)
#    0.000    2.714    1.429    3.000    0.000    4.571 
#    0.000    2.143    0.000    0.000    0.000    1.000 
#    0.000    0.000    0.000    0.000    0.000    0.000 
#
# Total GULP energy -156006.665515 kJ/mol
# GULP energy per Si atom -5571.666626 kJ/mol
# Density = 1.543597 g / cm^3
# Si number density = 15.471184 Si / 1000 Ang^3
#
#
#
# Elastic Constant Matrix: (Units=GPa)
#
#
# Indices 1 2 3 4 5 6 
#
# 1 61.6213 25.2870 58.6338 0.0000 -5.3806 0.0000
# 2 25.2870 25.2030 37.2311 0.0000 0.8420 0.0000
# 3 58.6338 37.2311 153.3742 0.0000 8.8136 0.0000
# 4 0.0000 0.0000 0.0000 22.0344 0.0000 -0.6281
# 5 -5.3806 0.8420 8.8136 0.0000 18.8122 0.0000
# 6 0.0000 0.0000 0.0000 -0.6281 0.0000 19.1730
#
#
#
# Elastic Compliance Matrix: (Units=1/GPa)
#
#
# Indices 1 2 3 4 5 6 
#
# 1 0.035397 -0.022977 -0.008833 0.000000 0.015291 0.000000
# 2 -0.022977 0.077130 -0.009622 0.000000 -0.005516 0.000000
# 3 -0.008833 -0.009622 0.012695 0.000000 -0.008043 0.000000
# 4 0.000000 0.000000 0.000000 0.045426 0.000000 0.001488
# 5 0.015291 -0.005516 -0.008043 0.000000 0.061546 0.000000
# 6 0.000000 0.000000 0.000000 0.001488 0.000000 0.052205
#
#
# Mechanical properties :
#
#
# Convention : Reuss Voigt Hill
#
# Bulk Modulus (GPa) = 23.60873 53.61134 38.61003
# Shear Modulus (GPa) = 13.11016 19.94036 16.52526
#
# Velocity S-wave (km/s) = 2.91416 3.59398 3.27177
# Velocity P-wave (km/s) = 5.15907 7.20763 6.26761
#
# Compressibility (1/GPa) = 0.04235721
#
# Stress axis : x y z
#
# Youngs Moduli (GPa) = 28.25084 12.96507 78.77267
#
# Poissons Ratio (x) = 0.29790 0.69581
# Poissons Ratio (y) = 0.64913 0.75796
# Poissons Ratio (z) = 0.24954 0.12475
#
# Static dielectric constant tensor:
#      x y z
#    x 1.487940 0.000000 0.012040 
#    y 0.000000 1.516460 0.000000 
#    z 0.012040 0.000000 1.554660 
# 
# From -- ./inp_files/291679.got.cif
#   From: 2010.05.17/outbox.cif.g08.bks.cpg/sg12_146_cif.got.tgz:291679.got - 2010.06.03 13:09:07.
