data_PCOD9205517
_publ_section_title
;
Structure prediction by ZEFSAII (Michael W. Deem and Ramdas Pophale) SiO2 
 PCOD9205517
Probable space group: C 2/M
;
_chemical_formula_sum "Si O2"
_cell_formula_units_Z 56
_cell_length_a 10.093017
_cell_length_b 28.393486
_cell_length_c 11.612353
_cell_angle_alpha 90.000000
_cell_angle_beta 64.802864
_cell_angle_gamma 90.000000
_cell_volume 3011.173235
_symmetry_space_group_name_H-M "C 2/M"
_symmetry_group_IT_number 12
_symmetry_cell_setting 'monoclinic'
loop_
_space_group_symop_operation_xyz
x,y,z
-x,y,-z
-x,-y,-z
x,-y,z
1/2+x,1/2+y,z
1/2-x,1/2+y,-z
1/2-x,1/2-y,-z
1/2+x,1/2-y,z
loop_
_atom_site_type_symbol
_atom_site_label
_atom_site_fract_x
_atom_site_fract_y
_atom_site_fract_z
Si Si1 0.771443 0.399061 0.888123
Si Si2 0.281175 0.000000 0.177092
Si Si3 0.328644 0.602154 0.813100
Si Si4 0.344322 0.375530 0.312060
Si Si5 0.112342 0.500000 0.127534
Si Si6 0.653815 0.795490 0.507691
Si Si7 0.648548 0.945745 0.520195
Si Si8 0.089796 0.366645 0.732332
O O1 0.678213 0.380261 0.816344
O O2 0.821198 0.452902 0.843663
O O3 0.923647 0.370717 0.835582
O O4 0.694898 0.397946 0.040452
O O5 0.189948 0.951998 0.223357
O O6 0.435939 0.000000 0.187943
O O7 0.335798 0.000000 0.024143
O O8 0.484305 0.624247 0.724478
O O9 0.199265 0.630290 0.798446
O O10 0.251392 0.331771 0.395627
O O11 0.273857 0.421321 0.398326
O O12 0.500000 0.785729 0.500000
O O13 0.750000 0.750000 0.500000
O O14 0.615803 0.822500 0.640159
O O15 0.500000 0.944148 0.500000
O O16 0.622930 0.911933 0.638604
O O17 0.682075 0.000000 0.534023
#
# Coordination Sequence:
#
# PCOD9205517 Si02
#       8
#     8   4   8   8   4   8   8   8
#     4  11  20  38  60  88 126 173 212 244 291 361
#     4   9  18  33  45  84 125 168 216 239 280 329
#     4  11  24  34  59  92 132 169 202 254 299 351
#     4  11  23  41  60  90 124 157 206 252 313 367
#     4   9  18  29  55  78 116 179 218 239 265 343
#     4  11  25  46  73  94 115 151 202 259 314 378
#     4  10  21  35  57  82 113 162 206 252 296 345
#     4  11  21  39  63  90 120 159 209 245 303 366
#
# _framework density 18.597403
#
# number of rings (size 3 to 8) (size 9 to 14) (size 15 to 20)
#    0.000    1.429    4.286    1.714    6.000    1.714 
#    0.000    2.857    0.000    5.143    0.000    0.000 
#    0.000    0.000    0.000    0.000    0.000    0.000 
#
# Total GULP energy -156408.334629 kJ/mol
# GULP energy per Si atom -5586.011951 kJ/mol
# Density = 1.855507 g / cm^3
# Si number density = 18.597403 Si / 1000 Ang^3
#
#
#
# Elastic Constant Matrix: (Units=GPa)
#
#
# Indices 1 2 3 4 5 6 
#
# 1 82.1078 27.8085 5.5985 0.0000 -14.6222 0.0000
# 2 27.8085 99.6749 17.9176 0.0000 -7.4638 0.0000
# 3 5.5985 17.9176 53.0395 0.0000 -5.5961 0.0000
# 4 0.0000 0.0000 0.0000 12.8896 0.0000 1.9019
# 5 -14.6222 -7.4638 -5.5961 0.0000 28.5130 0.0000
# 6 0.0000 0.0000 0.0000 1.9019 0.0000 21.3868
#
#
#
# Elastic Compliance Matrix: (Units=1/GPa)
#
#
# Indices 1 2 3 4 5 6 
#
# 1 0.014558 -0.003638 0.000388 0.000000 0.006590 0.000000
# 2 -0.003638 0.011719 -0.003521 0.000000 0.000511 0.000000
# 3 0.000388 -0.003521 0.020347 0.000000 0.003271 0.000000
# 4 0.000000 0.000000 0.000000 0.078613 0.000000 -0.006991
# 5 0.006590 0.000511 0.003271 0.000000 0.039227 0.000000
# 6 0.000000 0.000000 0.000000 -0.006991 0.000000 0.047379
#
#
# Mechanical properties :
#
#
# Convention : Reuss Voigt Hill
#
# Bulk Modulus (GPa) = 30.22793 37.49684 33.86239
# Shear Modulus (GPa) = 21.14937 24.79106 22.97022
#
# Velocity S-wave (km/s) = 3.37593 3.65504 3.51825
# Velocity P-wave (km/s) = 5.61115 6.16592 5.89507
#
# Compressibility (1/GPa) = 0.03308199
#
# Stress axis : x y z
#
# Youngs Moduli (GPa) = 68.68944 85.33342 49.14624
#
# Poissons Ratio (x) = 0.31043 -0.01905
# Poissons Ratio (y) = 0.24988 0.17304
# Poissons Ratio (z) = -0.02662 0.30045
#
# Static dielectric constant tensor:
#      x y z
#    x 1.636840 0.000000 0.012900 
#    y 0.000000 1.634540 0.000000 
#    z 0.012900 0.000000 1.649370 
# 
# From -- ./inp_files/125674.got.cif
#   From: 2010.05.17/outbox.cif.g08.bks.cpg/sg12_63_cif.got.tgz:125674.got - 2010.06.03 13:09:07.
