data_PCOD9205062
_publ_section_title
;
Structure prediction by ZEFSAII (Michael W. Deem and Ramdas Pophale) SiO2 
 PCOD9205062
Probable space group: C 2/M
;
_chemical_formula_sum "Si O2"
_cell_formula_units_Z 48
_cell_length_a 18.185251
_cell_length_b 19.836404
_cell_length_c 14.117847
_cell_angle_alpha 90.000000
_cell_angle_beta 31.335855
_cell_angle_gamma 90.000000
_cell_volume 2648.493570
_symmetry_space_group_name_H-M "C 2/M"
_symmetry_group_IT_number 12
_symmetry_cell_setting 'monoclinic'
loop_
_space_group_symop_operation_xyz
x,y,z
-x,y,-z
-x,-y,-z
x,-y,z
1/2+x,1/2+y,z
1/2-x,1/2+y,-z
1/2-x,1/2-y,-z
1/2+x,1/2-y,z
loop_
_atom_site_type_symbol
_atom_site_label
_atom_site_fract_x
_atom_site_fract_y
_atom_site_fract_z
Si Si1 0.337593 0.188468 0.451733
Si Si2 0.500000 0.328447 0.000000
Si Si3 0.340303 0.183858 0.874919
Si Si4 0.207766 0.723334 0.280998
Si Si5 0.625681 0.422528 0.697884
Si Si6 0.117944 0.076827 0.191213
Si Si7 0.000000 0.154183 0.500000
O O1 0.250000 0.250000 0.500000
O O2 0.504758 0.189555 0.249367
O O3 0.328978 0.194252 0.575441
O O4 0.259411 0.119054 0.510970
O O5 0.622681 0.282485 0.909768
O O6 0.568772 0.378119 0.847575
O O7 0.348417 0.184964 0.750835
O O8 0.250000 0.250000 0.000000
O O9 0.251268 0.121000 0.011378
O O10 0.134658 0.796233 0.362895
O O11 0.659602 0.500000 0.685631
O O12 0.497934 0.422835 0.764329
O O13 0.038798 0.109790 0.367257
O O14 0.159357 0.000000 0.165858
#
# Coordination Sequence:
#
# PCOD9205062 Si02
#       7
#     8   4   8   8   8   8   4
#     4  11  23  37  60  90 123 156 199 249 307 358
#     4  10  21  34  60  90 121 150 198 240 309 354
#     4  12  21  39  61  88 120 154 202 257 303 352
#     4  11  21  35  61  91 119 152 194 253 303 350
#     4  10  21  38  57  83 119 161 198 239 298 363
#     4  11  24  40  61  86 121 166 204 247 303 364
#     4  12  21  40  60  88 121 156 204 252 301 356
#
# _framework density 18.123508999999999
#
# number of rings (size 3 to 8) (size 9 to 14) (size 15 to 20)
#    0.000    1.000    5.000    2.500    2.333    0.667 
#    0.000    0.000    0.000    3.000    0.000    5.833 
#    0.000    0.000    0.000    0.000    0.000    0.000 
#
# Total GULP energy -133878.193352 kJ/mol
# GULP energy per Si atom -5578.258056 kJ/mol
# Density = 1.808226 g / cm^3
# Si number density = 18.123509 Si / 1000 Ang^3
#
#
#
# Elastic Constant Matrix: (Units=GPa)
#
#
# Indices 1 2 3 4 5 6 
#
# 1 76.7780 41.6786 49.9929 0.0000 -9.9712 0.0005
# 2 41.6786 151.0201 79.5133 -0.0001 -15.3043 0.0004
# 3 49.9929 79.5133 119.1717 -0.0006 -24.9185 0.0005
# 4 0.0000 -0.0001 -0.0006 119.1243 0.0004 -13.2092
# 5 -9.9712 -15.3043 -24.9185 0.0004 48.8658 -0.0005
# 6 0.0005 0.0004 0.0005 -13.2092 -0.0005 28.6162
#
#
#
# Elastic Compliance Matrix: (Units=1/GPa)
#
#
# Indices 1 2 3 4 5 6 
#
# 1 0.018150 -0.001540 -0.006619 0.000000 -0.000154 0.000000
# 2 -0.001540 0.010342 -0.006316 0.000000 -0.000296 0.000000
# 3 -0.006619 -0.006316 0.016439 0.000000 0.005054 0.000000
# 4 0.000000 0.000000 0.000000 0.008847 0.000000 0.004084
# 5 -0.000154 -0.000296 0.005054 0.000000 0.022917 0.000000
# 6 0.000000 0.000000 0.000000 0.004084 0.000000 0.036830
#
#
# Mechanical properties :
#
#
# Convention : Reuss Voigt Hill
#
# Bulk Modulus (GPa) = 62.57307 76.59327 69.58317
# Shear Modulus (GPa) = 33.82852 51.04025 42.43438
#
# Velocity S-wave (km/s) = 4.32505 5.31259 4.84405
# Velocity P-wave (km/s) = 7.71637 8.94344 8.35246
#
# Compressibility (1/GPa) = 0.01598132
#
# Stress axis : x y z
#
# Youngs Moduli (GPa) = 55.09570 96.69057 60.83041
#
# Poissons Ratio (x) = 0.14889 0.40263
# Poissons Ratio (y) = 0.08484 0.38423
# Poissons Ratio (z) = 0.36467 0.61075
#
# Static dielectric constant tensor:
#      x y z
#    x 1.603750 0.000000 -0.010450 
#    y 0.000000 1.616410 0.000000 
#    z -0.010450 0.000000 1.660430 
# 
# From -- ./inp_files/63406.got.cif
#   From: 2010.05.17/outbox.cif.g08.bks.cpg/sg12_32_cif.got.tgz:63406.got - 2010.06.03 13:09:07.
