data_PCOD9205684
_publ_section_title
;
Structure prediction by ZEFSAII (Michael W. Deem and Ramdas Pophale) SiO2 
 PCOD9205684
Probable space group: C 2/M
;
_chemical_formula_sum "Si O2"
_cell_formula_units_Z 58
_cell_length_a 20.839702
_cell_length_b 28.714594
_cell_length_c 8.789415
_cell_angle_alpha 90.000000
_cell_angle_beta 33.640901
_cell_angle_gamma 90.000000
_cell_volume 2913.754389
_symmetry_space_group_name_H-M "C 2/M"
_symmetry_group_IT_number 12
_symmetry_cell_setting 'monoclinic'
loop_
_space_group_symop_operation_xyz
x,y,z
-x,y,-z
-x,-y,-z
x,-y,z
1/2+x,1/2+y,z
1/2-x,1/2+y,-z
1/2-x,1/2-y,-z
1/2+x,1/2-y,z
loop_
_atom_site_type_symbol
_atom_site_label
_atom_site_fract_x
_atom_site_fract_y
_atom_site_fract_z
Si Si1 0.521195 0.649401 0.639092
Si Si2 0.040373 0.391530 0.257427
Si Si3 0.731441 0.187848 0.909726
Si Si4 0.000000 0.500000 0.000000
Si Si5 0.438871 0.448403 0.283624
Si Si6 0.610511 0.836886 0.686575
Si Si7 0.174698 0.572469 0.734427
Si Si8 0.197326 0.788684 0.882662
O O1 0.500000 0.648117 0.500000
O O2 0.648103 0.672298 0.405691
O O3 0.521569 0.596822 0.700690
O O4 0.419599 0.681449 0.910074
O O5 0.000000 0.408587 0.500000
O O6 0.941845 0.365873 0.352922
O O7 0.139089 0.352978 0.088960
O O8 0.101033 0.430249 0.035340
O O9 0.680527 0.233338 0.927372
O O10 0.757473 0.198630 0.035971
O O11 0.100130 0.540116 0.772832
O O12 0.461208 0.500000 0.307683
O O13 0.302911 0.443222 0.517192
O O14 0.500000 0.446704 0.000000
O O15 0.669406 0.875227 0.680222
O O16 0.704696 0.801906 0.433144
O O17 0.500000 0.817861 0.000000
#
# Coordination Sequence:
#
# PCOD9205684 Si02
#       8
#     8   8   8   2   8   8   8   8
#     4  10  22  40  61  90 126 157 203 259 308 356
#     4  11  20  36  63  89 120 155 201 247 302 366
#     4  10  21  35  62  90 118 162 202 249 306 357
#     4  12  20  40  64  88 118 162 202 250 306 374
#     4  11  23  40  66  90 117 164 212 247 303 369
#     4  10  21  37  58  86 119 164 198 243 306 359
#     4  11  22  40  63  87 124 161 199 252 310 361
#     4  10  21  37  60  89 124 161 204 248 300 373
#
# _framework density 19.905591000000001
#
# number of rings (size 3 to 8) (size 9 to 14) (size 15 to 20)
#    0.000    1.517    5.517    0.828    1.931    0.828 
#    0.000    3.793    0.000    0.000    0.000    0.000 
#    0.000    0.000    0.000    0.000    0.000    0.000 
#
# Total GULP energy -161616.726020 kJ/mol
# GULP energy per Si atom -5572.990552 kJ/mol
# Density = 1.986028 g / cm^3
# Si number density = 19.905591 Si / 1000 Ang^3
#
#
#
# Elastic Constant Matrix: (Units=GPa)
#
#
# Indices 1 2 3 4 5 6 
#
# 1 41.9339 9.3869 17.9382 0.0000 -5.0443 0.0000
# 2 9.3869 93.1834 40.0959 0.0000 -15.0810 0.0000
# 3 17.9382 40.0959 127.9389 0.0000 6.4426 0.0000
# 4 0.0000 0.0000 0.0000 24.4853 0.0000 30.6912
# 5 -5.0443 -15.0810 6.4426 0.0000 24.3336 0.0000
# 6 0.0000 0.0000 0.0000 30.6912 0.0000 106.1088
#
#
#
# Elastic Compliance Matrix: (Units=1/GPa)
#
#
# Indices 1 2 3 4 5 6 
#
# 1 0.026356 0.000181 -0.004087 0.000000 0.006658 0.000000
# 2 0.000181 0.014613 -0.005131 0.000000 0.010453 0.000000
# 3 -0.004087 -0.005131 0.010338 0.000000 -0.006765 0.000000
# 4 0.000000 0.000000 0.000000 0.064069 0.000000 -0.018532
# 5 0.006658 0.010453 -0.006765 0.000000 0.050745 0.000000
# 6 0.000000 0.000000 0.000000 -0.018532 0.000000 0.014784
#
#
# Mechanical properties :
#
#
# Convention : Reuss Voigt Hill
#
# Bulk Modulus (GPa) = 30.09155 44.21090 37.15123
# Shear Modulus (GPa) = 23.80294 44.02789 33.91542
#
# Velocity S-wave (km/s) = 3.46177 4.70812 4.13221
# Velocity P-wave (km/s) = 5.57929 7.19817 6.43980
#
# Compressibility (1/GPa) = 0.03323192
#
# Stress axis : x y z
#
# Youngs Moduli (GPa) = 37.94220 68.43225 96.72874
#
# Poissons Ratio (x) = -0.01241 0.39537
# Poissons Ratio (y) = -0.00688 0.49636
# Poissons Ratio (z) = 0.15509 0.35116
#
# Static dielectric constant tensor:
#      x y z
#    x 1.758310 0.000000 0.013160 
#    y 0.000000 1.777190 0.000000 
#    z 0.013160 0.000000 1.696960 
# 
# From -- ./inp_files/54284.got.cif
#   From: 2010.05.17/outbox.cif.g08.bks.cpg/sg12_28_cif.got.tgz:54284.got - 2010.06.03 13:09:07.
