data_PCOD9205605
_publ_section_title
;
Structure prediction by ZEFSAII (Michael W. Deem and Ramdas Pophale) SiO2 
 PCOD9205605
Probable space group: C 2/M
;
_chemical_formula_sum "Si O2"
_cell_formula_units_Z 32
_cell_length_a 5.952482
_cell_length_b 26.308774
_cell_length_c 10.701076
_cell_angle_alpha 90.000000
_cell_angle_beta 70.160903
_cell_angle_gamma 90.000000
_cell_volume 1576.354659
_symmetry_space_group_name_H-M "C 2/M"
_symmetry_group_IT_number 12
_symmetry_cell_setting 'monoclinic'
loop_
_space_group_symop_operation_xyz
x,y,z
-x,y,-z
-x,-y,-z
x,-y,z
1/2+x,1/2+y,z
1/2-x,1/2+y,-z
1/2-x,1/2-y,-z
1/2+x,1/2-y,z
loop_
_atom_site_type_symbol
_atom_site_label
_atom_site_fract_x
_atom_site_fract_y
_atom_site_fract_z
Si Si1 0.071672 0.850172 0.756788
Si Si2 0.000000 0.776886 0.000000
Si Si3 0.958969 0.416005 0.374686
Si Si4 0.206630 0.444062 0.858132
Si Si5 0.500000 0.345686 0.500000
O O1 0.321191 0.878980 0.695054
O O2 0.019190 0.821591 0.634244
O O3 0.882458 0.895675 0.821220
O O4 0.073934 0.811527 0.869269
O O5 0.250000 0.750000 0.000000
O O6 0.908261 0.445878 0.258110
O O7 0.728453 0.381599 0.443380
O O8 0.000000 0.443184 0.500000
O O9 0.320610 0.500000 0.860642
O O10 0.000000 0.436573 0.000000
#
# Coordination Sequence:
#
# PCOD9205605 Si02
#       5
#     8   4   8   8   4
#     4  10  21  41  66  89 133 166 212 268 322 383
#     4  12  30  46  71 102 127 170 222 272 336 398
#     4   9  18  35  60  88 121 173 206 258 316 376
#     4  10  21  35  58  92 128 169 213 256 315 381
#     4   8  18  36  67  90 122 166 210 258 331 376
#
# _framework density 20.300001000000002
#
# number of rings (size 3 to 8) (size 9 to 14) (size 15 to 20)
#    0.000    2.250    0.000    1.500    8.750    1.500 
#    0.000   25.625    0.000    0.000    0.000    0.000 
#    0.000    0.000    0.000    0.000    0.000    0.000 
#
# Total GULP energy -89077.075669 kJ/mol
# GULP energy per Si atom -5567.317229 kJ/mol
# Density = 2.025380 g / cm^3
# Si number density = 20.300001 Si / 1000 Ang^3
#
#
#
# Elastic Constant Matrix: (Units=GPa)
#
#
# Indices 1 2 3 4 5 6 
#
# 1 115.7428 57.7608 64.0485 0.0000 -1.5230 0.0000
# 2 57.7608 77.5418 67.6695 0.0000 11.5474 0.0000
# 3 64.0485 67.6695 188.6821 0.0000 18.8249 0.0000
# 4 0.0000 0.0000 0.0000 -103.0962 0.0000 38.4380
# 5 -1.5230 11.5474 18.8249 0.0000 40.8809 0.0000
# 6 0.0000 0.0000 0.0000 38.4380 0.0000 11.0562
#
#
#
# Elastic Compliance Matrix: (Units=1/GPa)
#
#
# Indices 1 2 3 4 5 6 
#
# 1 0.014680 -0.009966 -0.001829 0.000000 0.004204 0.000000
# 2 -0.009966 0.025747 -0.005333 0.000000 -0.005188 0.000000
# 3 -0.001829 -0.005333 0.008060 0.000000 -0.002273 0.000000
# 4 0.000000 0.000000 0.000000 -0.004224 0.000000 0.014686
# 5 0.004204 -0.005188 -0.002273 0.000000 0.027130 0.000000
# 6 0.000000 0.000000 0.000000 0.014686 0.000000 0.039390
#
#
# Mechanical properties :
#
#
# Convention : Reuss Voigt Hill
#
# Bulk Modulus (GPa) = 70.26448 84.54713 77.40580
# Shear Modulus (GPa) = 33.38187 2.60072 17.99129
#
# Velocity S-wave (km/s) = 4.05955 1.13310 2.98026
# Velocity P-wave (km/s) = 7.52738 6.59175 7.07505
#
# Compressibility (1/GPa) = 0.01423194
#
# Stress axis : x y z
#
# Youngs Moduli (GPa) = 68.11827 38.84011 124.06612
#
# Poissons Ratio (x) = 0.38707 0.22687
# Poissons Ratio (y) = 0.67884 0.66169
# Poissons Ratio (z) = 0.12456 0.20715
#
# Static dielectric constant tensor:
#      x y z
#    x 1.750630 0.000000 0.059890 
#    y 0.000000 1.685200 0.000000 
#    z 0.059890 0.000000 1.736710 
# 
# From -- ./inp_files/34604.got.cif
#   From: 2010.05.17/outbox.cif.g08.bks.cpg/sg12_18_cif.got.tgz:34604.got - 2010.06.03 13:09:07.
