data_PCOD9205704
_publ_section_title
;
Structure prediction by ZEFSAII (Michael W. Deem and Ramdas Pophale) SiO2 
 PCOD9205704
Probable space group: C 2/M
;
_chemical_formula_sum "Si O2"
_cell_formula_units_Z 48
_cell_length_a 27.437436
_cell_length_b 7.306344
_cell_length_c 24.063780
_cell_angle_alpha 90.000000
_cell_angle_beta 157.423266
_cell_angle_gamma 90.000000
_cell_volume 1852.032841
_symmetry_space_group_name_H-M "C 2/M"
_symmetry_group_IT_number 12
_symmetry_cell_setting 'monoclinic'
loop_
_space_group_symop_operation_xyz
x,y,z
-x,y,-z
-x,-y,-z
x,-y,z
1/2+x,1/2+y,z
1/2-x,1/2+y,-z
1/2-x,1/2-y,-z
1/2+x,1/2-y,z
loop_
_atom_site_type_symbol
_atom_site_label
_atom_site_fract_x
_atom_site_fract_y
_atom_site_fract_z
Si Si1 0.858015 0.277338 0.683095
Si Si2 0.722358 0.776904 0.883368
Si Si3 0.651278 0.718797 0.544365
Si Si4 0.583651 0.203858 0.636927
Si Si5 0.042138 0.288829 0.790525
Si Si6 0.914420 0.279594 0.860758
O O1 0.858672 0.500000 0.681474
O O2 0.781985 0.276340 0.442936
O O3 0.940736 0.222513 0.824875
O O4 0.919137 0.206353 0.691352
O O5 0.697715 0.715340 0.793763
O O6 0.612262 0.709976 0.810425
O O7 0.722358 0.000000 0.882928
O O8 0.851380 0.716657 0.048643
O O9 0.632891 0.500000 0.523704
O O10 0.523826 0.809899 0.428555
O O11 0.763809 0.758761 0.707450
O O12 0.500000 0.294709 0.500000
O O13 0.619317 0.000000 0.655188
O O14 0.016171 0.500000 0.750201
O O15 0.925618 0.500000 0.872856
O O16 0.000000 0.206356 0.000000
#
# Coordination Sequence:
#
# PCOD9205704 Si02
#       6
#     8   8   8   8   8   8
#     4   7  13  25  44  69  95 118 141 186 246 288
#     4   9  19  33  49  70  97 129 163 201 238 278
#     4   8  16  30  48  70  95 119 153 200 239 282
#     4  10  21  36  49  63  95 139 170 192 231 285
#     4   9  16  31  54  76  96 120 157 201 246 291
#     4   7  11  21  39  64  91 115 140 179 231 276
#
# _framework density 25.917470000000002
#
# number of rings (size 3 to 8) (size 9 to 14) (size 15 to 20)
#    1.000    2.667    0.000    0.000    0.000    2.333 
#    0.000    3.333    0.000    0.500    0.000    0.000 
#    0.000    0.000    0.000    0.000    0.000    0.000 
#
# Total GULP energy -133734.520315 kJ/mol
# GULP energy per Si atom -5572.271680 kJ/mol
# Density = 2.585848 g / cm^3
# Si number density = 25.917470 Si / 1000 Ang^3
#
#
#
# Elastic Constant Matrix: (Units=GPa)
#
#
# Indices 1 2 3 4 5 6 
#
# 1 69.8711 3.1860 12.4377 0.0000 -0.4057 0.0000
# 2 3.1860 122.8349 4.5344 0.0000 2.5625 0.0000
# 3 12.4377 4.5344 126.0478 0.0000 -63.5737 0.0000
# 4 0.0000 0.0000 0.0000 9.0452 0.0000 2.3660
# 5 -0.4057 2.5625 -63.5737 0.0000 45.2467 0.0000
# 6 0.0000 0.0000 0.0000 2.3660 0.0000 -49.1043
#
#
#
# Elastic Compliance Matrix: (Units=1/GPa)
#
#
# Indices 1 2 3 4 5 6 
#
# 1 0.015145 -0.000073 -0.004878 0.000000 -0.006714 0.000000
# 2 -0.000073 0.008272 -0.001809 0.000000 -0.003011 0.000000
# 3 -0.004878 -0.001809 0.029207 0.000000 0.041097 0.000000
# 4 0.000000 0.000000 0.000000 0.109180 0.000000 0.005261
# 5 -0.006714 -0.003011 0.041097 0.000000 0.079954 0.000000
# 6 0.000000 0.000000 0.000000 0.005261 0.000000 -0.020111
#
#
# Mechanical properties :
#
#
# Convention : Reuss Voigt Hill
#
# Bulk Modulus (GPa) = 25.57204 39.89665 32.73435
# Shear Modulus (GPa) = 20.14489 20.94389 20.54439
#
# Velocity S-wave (km/s) = 2.79098 2.84579 2.81852
# Velocity P-wave (km/s) = 4.50269 5.12105 4.82180
#
# Compressibility (1/GPa) = 0.03910521
#
# Stress axis : x y z
#
# Youngs Moduli (GPa) = 66.02958 120.88264 34.23786
#
# Poissons Ratio (x) = 0.00878 0.16701
# Poissons Ratio (y) = 0.00480 0.06194
# Poissons Ratio (z) = 0.32210 0.21868
#
# Static dielectric constant tensor:
#      x y z
#    x 2.068650 0.000000 -0.021750 
#    y 0.000000 2.031470 0.000000 
#    z -0.021750 0.000000 2.105300 
# 
# From -- ./inp_files/327323.got.cif
#   From: 2010.05.17/outbox.cif.g08.bks.cpg/sg12_164_cif.got.tgz:327323.got - 2010.06.03 13:09:07.
