data_PCOD9205669
_publ_section_title
;
Structure prediction by ZEFSAII (Michael W. Deem and Ramdas Pophale) SiO2 
 PCOD9205669
Probable space group: C 2/M
;
_chemical_formula_sum "Si O2"
_cell_formula_units_Z 56
_cell_length_a 11.572293
_cell_length_b 21.411083
_cell_length_c 11.610855
_cell_angle_alpha 90.000000
_cell_angle_beta 77.479917
_cell_angle_gamma 90.000000
_cell_volume 2808.471331
_symmetry_space_group_name_H-M "C 2/M"
_symmetry_group_IT_number 12
_symmetry_cell_setting 'monoclinic'
loop_
_space_group_symop_operation_xyz
x,y,z
-x,y,-z
-x,-y,-z
x,-y,z
1/2+x,1/2+y,z
1/2-x,1/2+y,-z
1/2-x,1/2-y,-z
1/2+x,1/2-y,z
loop_
_atom_site_type_symbol
_atom_site_label
_atom_site_fract_x
_atom_site_fract_y
_atom_site_fract_z
Si Si1 0.227452 0.384167 0.536310
Si Si2 0.381371 0.774105 0.570922
Si Si3 0.081638 0.314271 0.871961
Si Si4 0.776054 0.068778 0.277077
Si Si5 0.952404 0.831924 0.141372
Si Si6 0.172145 0.837164 0.257851
Si Si7 0.017118 0.392347 0.315721
O O1 0.199814 0.311157 0.504617
O O2 0.283982 0.414952 0.411837
O O3 0.301083 0.382131 0.638764
O O4 0.100212 0.415645 0.592728
O O5 0.500000 0.739141 0.500000
O O6 0.327974 0.730232 0.679377
O O7 0.436724 0.833178 0.623427
O O8 0.076193 0.241609 0.835137
O O9 0.217925 0.334309 0.853874
O O10 0.029573 0.362294 0.791045
O O11 0.000000 0.318425 0.000000
O O12 0.842038 0.123213 0.192793
O O13 0.635648 0.068182 0.278823
O O14 0.826001 0.000000 0.243382
O O15 0.053876 0.848361 0.212405
O O16 0.000000 0.839283 0.000000
#
# Coordination Sequence:
#
# PCOD9205669 Si02
#       7
#     8   8   8   8   8   8   8
#     4   9  20  34  58  91 118 152 198 248 308 354
#     4   9  16  28  52  82 124 158 184 230 293 375
#     4  10  21  35  61  91 126 160 195 249 307 364
#     4  11  24  42  64  85 120 166 210 251 291 362
#     4  11  26  39  59  89 123 169 209 246 298 362
#     4  11  21  35  55  87 127 159 191 247 306 361
#     4   9  18  36  58  93 123 153 197 245 305 361
#
# _framework density 19.939674
#
# number of rings (size 3 to 8) (size 9 to 14) (size 15 to 20)
#    0.000    2.000    1.429    3.429    4.000    2.571 
#    0.000    1.429    0.000    1.286    0.000    0.000 
#    0.000    0.000    0.000    0.000    0.000    0.000 
#
# Total GULP energy -156049.557293 kJ/mol
# GULP energy per Si atom -5573.198475 kJ/mol
# Density = 1.989429 g / cm^3
# Si number density = 19.939674 Si / 1000 Ang^3
#
#
#
# Elastic Constant Matrix: (Units=GPa)
#
#
# Indices 1 2 3 4 5 6 
#
# 1 48.3160 1.4993 16.3548 0.0000 3.2036 0.0000
# 2 1.4993 39.4878 12.4705 0.0000 -6.6873 0.0000
# 3 16.3548 12.4705 73.4188 0.0000 -16.2109 0.0000
# 4 0.0000 0.0000 0.0000 -0.3906 0.0000 5.2768
# 5 3.2036 -6.6873 -16.2109 0.0000 29.5935 0.0000
# 6 0.0000 0.0000 0.0000 5.2768 0.0000 2.9338
#
#
#
# Elastic Compliance Matrix: (Units=1/GPa)
#
#
# Indices 1 2 3 4 5 6 
#
# 1 0.023318 0.000157 -0.006564 0.000000 -0.006085 0.000000
# 2 0.000157 0.027194 -0.003755 0.000000 0.004071 0.000000
# 3 -0.006564 -0.003755 0.017849 0.000000 0.009640 0.000000
# 4 0.000000 0.000000 0.000000 -0.101198 0.000000 0.182018
# 5 -0.006085 0.004071 0.009640 0.000000 0.040650 0.000000
# 6 0.000000 0.000000 0.000000 0.182018 0.000000 0.013473
#
#
# Mechanical properties :
#
#
# Convention : Reuss Voigt Hill
#
# Bulk Modulus (GPa) = 20.81783 24.65245 22.73514
# Shear Modulus (GPa) = 86.77265 15.15388 50.96326
#
# Velocity S-wave (km/s) = 6.60394 2.75978 5.06105
# Velocity P-wave (km/s) = 8.28327 4.74821 6.75122
#
# Compressibility (1/GPa) = 0.04803574
#
# Stress axis : x y z
#
# Youngs Moduli (GPa) = 42.88588 36.77334 56.02545
#
# Poissons Ratio (x) = -0.00578 0.36778
# Poissons Ratio (y) = -0.00675 0.21038
# Poissons Ratio (z) = 0.28152 0.13809
#
# Static dielectric constant tensor:
#      x y z
#    x 1.800960 0.000000 -0.025950 
#    y 0.000000 1.727250 0.000000 
#    z -0.025950 0.000000 1.741600 
# 
# From -- ./inp_files/133845.got.cif
#   From: 2010.05.17/outbox.cif.g08.bks.cpg/sg12_67_cif.got.tgz:133845.got - 2010.06.03 13:09:07.
