data_PCOD9205024
_publ_section_title
;
Structure prediction by ZEFSAII (Michael W. Deem and Ramdas Pophale) SiO2 
 PCOD9205024
Probable space group: C 2/M
;
_chemical_formula_sum "Si O2"
_cell_formula_units_Z 50
_cell_length_a 11.488517
_cell_length_b 15.109322
_cell_length_c 15.139258
_cell_angle_alpha 90.000000
_cell_angle_beta 61.622752
_cell_angle_gamma 90.000000
_cell_volume 2312.149671
_symmetry_space_group_name_H-M "C 2/M"
_symmetry_group_IT_number 12
_symmetry_cell_setting 'monoclinic'
loop_
_space_group_symop_operation_xyz
x,y,z
-x,y,-z
-x,-y,-z
x,-y,z
1/2+x,1/2+y,z
1/2-x,1/2+y,-z
1/2-x,1/2-y,-z
1/2+x,1/2-y,z
loop_
_atom_site_type_symbol
_atom_site_label
_atom_site_fract_x
_atom_site_fract_y
_atom_site_fract_z
Si Si1 0.000000 0.500000 0.500000
Si Si2 0.926253 0.797851 0.290546
Si Si3 0.956575 0.676916 0.426603
Si Si4 0.034454 0.671699 0.890592
Si Si5 0.749743 0.397055 0.952412
Si Si6 0.320678 0.395410 0.832670
Si Si7 0.775672 0.605669 0.748724
O O1 0.083317 0.580278 0.521344
O O2 0.946733 0.736590 0.197575
O O3 0.824987 0.871100 0.292216
O O4 0.875584 0.738252 0.389597
O O5 0.066415 0.843878 0.260158
O O6 0.086915 0.652394 0.322328
O O7 0.000000 0.727257 0.500000
O O8 0.172633 0.620269 0.851772
O O9 0.906672 0.612086 0.913323
O O10 0.000000 0.710756 0.000000
O O11 0.712685 0.500000 0.962825
O O12 0.724434 0.362410 0.863093
O O13 0.679687 0.359940 0.064993
O O14 0.348032 0.500000 0.824024
O O15 0.799837 0.500000 0.741999
#
# Coordination Sequence:
#
# PCOD9205024 Si02
#       7
#     2   8   8   8   8   8   8
#     4   8  20  44  72  88 112 148 204 268 288 364
#     4  12  24  35  61  91 124 160 191 252 302 365
#     4  10  21  43  66  88 115 148 203 256 303 350
#     4  10  21  34  57  84 121 158 208 255 293 338
#     4   9  19  35  60  82 118 167 214 248 279 347
#     4  10  22  40  54  84 127 170 205 239 294 355
#     4  11  21  38  60  90 121 161 203 244 302 359
#
# _framework density 21.624897000000001
#
# number of rings (size 3 to 8) (size 9 to 14) (size 15 to 20)
#    0.480    1.280    2.400    1.920    2.240    3.840 
#    1.440    2.400    0.000    1.920    0.000    0.000 
#    0.000    0.000    0.000    0.000    0.000    0.000 
#
# Total GULP energy -139200.603789 kJ/mol
# GULP energy per Si atom -5568.024152 kJ/mol
# Density = 2.157568 g / cm^3
# Si number density = 21.624897 Si / 1000 Ang^3
#
#
#
# Elastic Constant Matrix: (Units=GPa)
#
#
# Indices 1 2 3 4 5 6 
#
# 1 53.4851 20.3278 17.7799 0.0000 15.7883 0.0000
# 2 20.3278 54.6735 38.1813 0.0000 9.6136 0.0000
# 3 17.7799 38.1813 78.0808 0.0000 19.0402 0.0000
# 4 0.0000 0.0000 0.0000 -15.4728 0.0000 18.4116
# 5 15.7883 9.6136 19.0402 0.0000 33.7685 0.0000
# 6 0.0000 0.0000 0.0000 18.4116 0.0000 29.4777
#
#
#
# Elastic Compliance Matrix: (Units=1/GPa)
#
#
# Indices 1 2 3 4 5 6 
#
# 1 0.024242 -0.007754 0.000576 0.000000 -0.009452 0.000000
# 2 -0.007754 0.030258 -0.013697 0.000000 0.002734 0.000000
# 3 0.000576 -0.013697 0.021436 0.000000 -0.008457 0.000000
# 4 0.000000 0.000000 0.000000 -0.037075 0.000000 0.023157
# 5 -0.009452 0.002734 -0.008457 0.000000 0.038022 0.000000
# 6 0.000000 0.000000 0.000000 0.023157 0.000000 0.019460
#
#
# Mechanical properties :
#
#
# Convention : Reuss Voigt Hill
#
# Bulk Modulus (GPa) = 29.25106 37.64639 33.44872
# Shear Modulus (GPa) = 33.44714 16.88471 25.16593
#
# Velocity S-wave (km/s) = 3.93707 2.79731 3.41508
# Velocity P-wave (km/s) = 5.85007 5.28014 5.57240
#
# Compressibility (1/GPa) = 0.03418680
#
# Stress axis : x y z
#
# Youngs Moduli (GPa) = 41.25023 33.04912 46.65032
#
# Poissons Ratio (x) = 0.25626 -0.02688
# Poissons Ratio (y) = 0.31984 0.63898
# Poissons Ratio (z) = -0.02377 0.45268
#
# Static dielectric constant tensor:
#      x y z
#    x 1.816120 0.000000 -0.005050 
#    y 0.000000 1.781980 0.000000 
#    z -0.005050 0.000000 1.861830 
# 
# From -- ./inp_files/204938.got.cif
#   From: 2010.05.17/outbox.cif.g08.bks.cpg/sg12_103_cif.got.tgz:204938.got - 2010.06.03 13:09:07.
