data_PCOD9205550
_publ_section_title
;
Structure prediction by ZEFSAII (Michael W. Deem and Ramdas Pophale) SiO2 
 PCOD9205550
Probable space group: C 2/M
;
_chemical_formula_sum "Si O2"
_cell_formula_units_Z 50
_cell_length_a 11.490498
_cell_length_b 15.666535
_cell_length_c 15.421267
_cell_angle_alpha 90.000000
_cell_angle_beta 47.145776
_cell_angle_gamma 90.000000
_cell_volume 2035.106287
_symmetry_space_group_name_H-M "C 2/M"
_symmetry_group_IT_number 12
_symmetry_cell_setting 'monoclinic'
loop_
_space_group_symop_operation_xyz
x,y,z
-x,y,-z
-x,-y,-z
x,-y,z
1/2+x,1/2+y,z
1/2-x,1/2+y,-z
1/2-x,1/2-y,-z
1/2+x,1/2-y,z
loop_
_atom_site_type_symbol
_atom_site_label
_atom_site_fract_x
_atom_site_fract_y
_atom_site_fract_z
Si Si1 0.717536 0.149165 0.525684
Si Si2 0.744685 0.406369 0.303430
Si Si3 0.000000 0.500000 0.000000
Si Si4 0.569443 0.845047 0.081525
Si Si5 0.877628 0.325923 0.754288
Si Si6 0.994363 0.130096 0.722342
Si Si7 0.981298 0.843504 0.101982
O O1 0.750000 0.250000 0.500000
O O2 0.791843 0.119800 0.580279
O O3 0.529198 0.132457 0.628150
O O4 0.822945 0.112166 0.395117
O O5 0.821222 0.500000 0.265015
O O6 0.881254 0.347130 0.198222
O O7 0.605884 0.409260 0.304730
O O8 0.098238 0.422128 0.000899
O O9 0.642341 0.863094 0.138794
O O10 0.581610 0.746685 0.044459
O O11 0.709417 0.328626 0.792307
O O12 0.942494 0.229898 0.739292
O O13 0.964565 0.110929 0.837630
O O14 0.000000 0.887442 0.000000
#
# Coordination Sequence:
#
# PCOD9205550 Si02
#       7
#     8   8   2   8   8   8   8
#     4   9  20  37  59  90 123 159 200 256 312 373
#     4  11  21  38  62  94 131 158 200 258 311 369
#     4  12  20  36  56  84 124 158 210 254 308 372
#     4  10  21  35  57  90 118 164 205 255 313 366
#     4   9  20  37  57  84 121 156 206 261 305 357
#     4  10  21  35  59  89 122 160 204 251 313 362
#     4  11  22  38  60  88 123 162 213 260 303 359
#
# _framework density 24.568740999999999
#
# number of rings (size 3 to 8) (size 9 to 14) (size 15 to 20)
#    0.000    1.920    3.200    1.440    0.000    5.760 
#    0.000    0.000    1.760    0.480    0.000    3.360 
#    0.000    0.000    0.000    0.000    0.000    0.000 
#
# Total GULP energy -139271.929798 kJ/mol
# GULP energy per Si atom -5570.877192 kJ/mol
# Density = 2.451282 g / cm^3
# Si number density = 24.568741 Si / 1000 Ang^3
#
#
#
# Elastic Constant Matrix: (Units=GPa)
#
#
# Indices 1 2 3 4 5 6 
#
# 1 134.7456 21.0358 48.5123 -0.0001 -5.7272 0.0001
# 2 21.0358 46.3511 8.7182 -0.0001 6.0510 0.0001
# 3 48.5123 8.7182 112.3670 -0.0001 4.8739 0.0001
# 4 -0.0001 -0.0001 -0.0001 4.5879 0.0001 -1.5300
# 5 -5.7272 6.0510 4.8739 0.0001 34.2739 -0.0001
# 6 0.0001 0.0001 0.0001 -1.5300 -0.0001 -12.3686
#
#
#
# Elastic Compliance Matrix: (Units=1/GPa)
#
#
# Indices 1 2 3 4 5 6 
#
# 1 0.009589 -0.003982 -0.003955 0.000000 0.002868 0.000000
# 2 -0.003982 0.024010 0.000070 0.000000 -0.004914 0.000000
# 3 -0.003955 0.000070 0.010697 0.000000 -0.002194 0.000000
# 4 0.000000 0.000000 0.000000 0.209330 -0.000001 -0.025894
# 5 0.002868 -0.004914 -0.002194 -0.000001 0.030836 0.000000
# 6 0.000000 0.000000 0.000000 -0.025894 0.000000 -0.077647
#
#
# Mechanical properties :
#
#
# Convention : Reuss Voigt Hill
#
# Bulk Modulus (GPa) = 35.01402 49.99961 42.50681
# Shear Modulus (GPa) = 21.54516 19.64513 20.59515
#
# Velocity S-wave (km/s) = 2.96452 2.83079 2.89842
# Velocity P-wave (km/s) = 5.09904 5.57490 5.34227
#
# Compressibility (1/GPa) = 0.02855999
#
# Stress axis : x y z
#
# Youngs Moduli (GPa) = 104.28626 41.64896 93.48580
#
# Poissons Ratio (x) = 0.16586 0.36976
# Poissons Ratio (y) = 0.41529 -0.00650
# Poissons Ratio (z) = 0.41248 -0.00290
#
# Static dielectric constant tensor:
#      x y z
#    x 1.972140 0.000000 -0.011860 
#    y 0.000000 2.088710 0.000000 
#    z -0.011860 0.000000 1.959470 
# 
# From -- ./inp_files/206013.got.cif
#   From: 2010.05.17/outbox.cif.g08.bks.cpg/sg12_104_cif.got.tgz:206013.got - 2010.06.03 13:09:07.
