data_PCOD9205990
_publ_section_title
;
Structure prediction by ZEFSAII (Michael W. Deem and Ramdas Pophale) SiO2 
 PCOD9205990
Probable space group: C 2/M
;
_chemical_formula_sum "Si O2"
_cell_formula_units_Z 58
_cell_length_a 19.683640
_cell_length_b 7.727406
_cell_length_c 19.181704
_cell_angle_alpha 90.000000
_cell_angle_beta 107.586931
_cell_angle_gamma 90.000000
_cell_volume 2781.233953
_symmetry_space_group_name_H-M "C 2/M"
_symmetry_group_IT_number 12
_symmetry_cell_setting 'monoclinic'
loop_
_space_group_symop_operation_xyz
x,y,z
-x,y,-z
-x,-y,-z
x,-y,z
1/2+x,1/2+y,z
1/2-x,1/2+y,-z
1/2-x,1/2-y,-z
1/2+x,1/2-y,z
loop_
_atom_site_type_symbol
_atom_site_label
_atom_site_fract_x
_atom_site_fract_y
_atom_site_fract_z
Si Si1 0.541790 0.198593 0.077711
Si Si2 0.839730 0.296555 0.236273
Si Si3 0.400629 0.208825 0.681941
Si Si4 0.916721 0.290193 0.406074
Si Si5 0.324297 0.208739 0.798540
Si Si6 0.667254 0.206629 0.480791
Si Si7 0.000000 0.000000 0.500000
Si Si8 0.032314 0.804402 0.809939
O O1 0.616759 0.274325 0.128080
O O2 0.491259 0.197043 0.130129
O O3 0.557862 0.000000 0.062197
O O4 0.500000 0.280453 0.000000
O O5 0.848998 0.500000 0.229645
O O6 0.873674 0.254501 0.322130
O O7 0.756465 0.254919 0.210354
O O8 0.887382 0.211335 0.191289
O O9 0.349531 0.268478 0.729499
O O10 0.373589 0.276696 0.599669
O O11 0.480384 0.253805 0.729970
O O12 0.397004 0.000000 0.678176
O O13 0.933840 0.500000 0.413833
O O14 0.866508 0.238920 0.456399
O O15 0.980824 0.156515 0.436800
O O16 0.329800 0.000000 0.799111
O O17 0.750000 0.250000 0.500000
O O18 0.660298 0.000000 0.478021
O O19 0.016145 0.000000 0.824406
#
# Coordination Sequence:
#
# PCOD9205990 Si02
#       8
#     8   8   8   8   8   8   2   8
#     4   9  19  40  67  93 123 156 186 226 287 352
#     4  11  23  39  58  81 120 159 197 248 298 351
#     4   9  19  36  57  79 110 150 191 240 296 351
#     4  10  25  41  57  86 117 157 209 259 308 369
#     4   9  18  34  59  89 116 150 196 237 285 355
#     4  10  21  36  55  80 112 146 195 254 306 360
#     4  12  26  40  64  78 116 164 206 254 320 374
#     4  11  23  36  58  89 116 148 194 240 283 343
#
# _framework density 20.854054000000001
#
# number of rings (size 3 to 8) (size 9 to 14) (size 15 to 20)
#    0.000    2.069    0.000    3.517    4.828    3.034 
#    0.000    0.690    0.000    0.000    0.000    0.000 
#    0.000    0.000    0.000    0.000    0.000    0.000 
#
# Total GULP energy -161666.327353 kJ/mol
# GULP energy per Si atom -5574.700943 kJ/mol
# Density = 2.080659 g / cm^3
# Si number density = 20.854054 Si / 1000 Ang^3
#
#
#
# Elastic Constant Matrix: (Units=GPa)
#
#
# Indices 1 2 3 4 5 6 
#
# 1 121.5600 0.7482 41.6534 0.0000 7.9423 0.0000
# 2 0.7482 50.6074 18.0500 0.0000 8.4746 0.0000
# 3 41.6534 18.0500 115.7383 0.0000 16.9891 0.0000
# 4 0.0000 0.0000 0.0000 0.0147 0.0000 9.6964
# 5 7.9423 8.4746 16.9891 0.0000 16.3082 0.0000
# 6 0.0000 0.0000 0.0000 9.6964 0.0000 15.2638
#
#
#
# Elastic Compliance Matrix: (Units=1/GPa)
#
#
# Indices 1 2 3 4 5 6 
#
# 1 0.009489 0.001364 -0.003359 0.000000 -0.001831 0.000000
# 2 0.001364 0.022254 -0.002558 0.000000 -0.009564 0.000000
# 3 -0.003359 -0.002558 0.011584 0.000000 -0.009103 0.000000
# 4 0.000000 0.000000 0.000000 -0.162735 0.000000 0.103378
# 5 -0.001831 -0.009564 -0.009103 0.000000 0.076664 0.000000
# 6 0.000000 0.000000 0.000000 0.103378 0.000000 -0.000157
#
#
# Mechanical properties :
#
#
# Convention : Reuss Voigt Hill
#
# Bulk Modulus (GPa) = 29.22115 45.42319 37.32217
# Shear Modulus (GPa) = -223.30926 21.48094 -100.91416
#
# Velocity S-wave (km/s) = -10.35927 3.21294 -6.96389
# Velocity P-wave (km/s) = 11.35972 5.96596 6.83559
#
# Compressibility (1/GPa) = 0.03422179
#
# Stress axis : x y z
#
# Youngs Moduli (GPa) = 105.39001 44.93655 86.32528
#
# Poissons Ratio (x) = -0.06131 0.28996
# Poissons Ratio (y) = -0.14379 0.22079
# Poissons Ratio (z) = 0.35399 0.11493
#
# Static dielectric constant tensor:
#      x y z
#    x 1.469200 0.000000 0.155170 
#    y 0.000000 1.774660 0.000000 
#    z 0.155170 0.000000 1.672250 
# 
# From -- ./inp_files/281544.got.cif
#   From: 2010.05.17/outbox.cif.g08.bks.cpg/sg12_141_cif.got.tgz:281544.got - 2010.06.03 13:09:07.
