data_PCOD9206569
_publ_section_title
;
Structure prediction by ZEFSAII (Michael W. Deem and Ramdas Pophale) SiO2 
 PCOD9206569
Probable space group: C 2/M
;
_chemical_formula_sum "Si O2"
_cell_formula_units_Z 64
_cell_length_a 23.866645
_cell_length_b 9.168515
_cell_length_c 15.330773
_cell_angle_alpha 90.000000
_cell_angle_beta 92.128989
_cell_angle_gamma 90.000000
_cell_volume 3352.390031
_symmetry_space_group_name_H-M "C 2/M"
_symmetry_group_IT_number 12
_symmetry_cell_setting 'monoclinic'
loop_
_space_group_symop_operation_xyz
x,y,z
-x,y,-z
-x,-y,-z
x,-y,z
1/2+x,1/2+y,z
1/2-x,1/2+y,-z
1/2-x,1/2-y,-z
1/2+x,1/2-y,z
loop_
_atom_site_type_symbol
_atom_site_label
_atom_site_fract_x
_atom_site_fract_y
_atom_site_fract_z
Si Si1 0.959280 0.177477 0.918991
Si Si2 0.586537 0.173243 0.418979
Si Si3 0.008390 0.174915 0.275181
Si Si4 0.219556 0.672064 0.417885
Si Si5 0.170098 0.171611 0.061908
Si Si6 0.917825 0.672413 0.383399
Si Si7 0.779995 0.169815 0.128496
Si Si8 0.797968 0.670668 0.296971
O O1 0.981181 0.220933 0.824421
O O2 0.894024 0.219973 0.927497
O O3 0.959657 0.000000 0.921601
O O4 0.000000 0.227297 0.000000
O O5 0.555952 0.261878 0.341959
O O6 0.653169 0.194000 0.417257
O O7 0.568716 0.215772 0.516356
O O8 0.574837 0.000000 0.408543
O O9 0.951850 0.237984 0.314086
O O10 0.008189 0.000000 0.277687
O O11 0.230648 0.500000 0.422749
O O12 0.250000 0.750000 0.500000
O O13 0.246308 0.741153 0.333482
O O14 0.217441 0.265211 0.113398
O O15 0.174761 0.000000 0.087387
O O16 0.187524 0.181687 0.961311
O O17 0.930709 0.500000 0.375348
O O18 0.851763 0.689195 0.362069
O O19 0.810628 0.263685 0.203492
O O20 0.777616 0.000000 0.152508
O O21 0.785089 0.500000 0.291043
#
# Coordination Sequence:
#
# PCOD9206569 Si02
#       8
#     8   8   8   8   8   8   8   8
#     4   9  20  39  61  85 117 156 195 242 300 358
#     4  10  22  42  63  84 120 163 198 238 299 365
#     4  11  24  38  61  94 118 150 205 256 297 346
#     4  11  22  39  61  89 122 159 199 241 296 354
#     4   9  19  38  62  85 116 157 197 241 301 365
#     4  10  22  42  62  83 118 165 203 241 302 362
#     4  10  21  36  59  91 120 152 197 247 300 357
#     4  11  23  39  60  87 121 160 203 245 298 363
#
# _framework density 19.090857
#
# number of rings (size 3 to 8) (size 9 to 14) (size 15 to 20)
#    0.000    1.875    1.250    1.875    3.500    4.500 
#    0.000    0.625    0.000    1.875    0.000    0.000 
#    0.000    0.000    0.000    0.000    0.000    0.000 
#
# Total GULP energy -178718.406492 kJ/mol
# GULP energy per Si atom -5584.950203 kJ/mol
# Density = 1.904741 g / cm^3
# Si number density = 19.090857 Si / 1000 Ang^3
#
#
#
# Elastic Constant Matrix: (Units=GPa)
#
#
# Indices 1 2 3 4 5 6 
#
# 1 91.5867 41.2398 44.9488 0.0000 -15.9995 0.0000
# 2 41.2398 49.0535 33.5020 0.0000 -11.4875 0.0000
# 3 44.9488 33.5020 109.2348 0.0000 -4.2731 0.0000
# 4 0.0000 0.0000 0.0000 28.6352 0.0000 0.9643
# 5 -15.9995 -11.4875 -4.2731 0.0000 23.8481 0.0000
# 6 0.0000 0.0000 0.0000 0.9643 0.0000 29.1362
#
#
#
# Elastic Compliance Matrix: (Units=1/GPa)
#
#
# Indices 1 2 3 4 5 6 
#
# 1 0.019494 -0.012088 -0.004059 0.000000 0.006528 0.000000
# 2 -0.012088 0.036561 -0.005909 0.000000 0.008443 0.000000
# 3 -0.004059 -0.005909 0.012507 0.000000 -0.003328 0.000000
# 4 0.000000 0.000000 0.000000 0.034961 0.000000 -0.001157
# 5 0.006528 0.008443 -0.003328 0.000000 0.049782 0.000000
# 6 0.000000 0.000000 0.000000 -0.001157 0.000000 0.034360
#
#
# Mechanical properties :
#
#
# Convention : Reuss Voigt Hill
#
# Bulk Modulus (GPa) = 40.89877 54.36180 47.63028
# Shear Modulus (GPa) = 20.83970 25.00286 22.92128
#
# Velocity S-wave (km/s) = 3.30753 3.62287 3.46879
# Velocity P-wave (km/s) = 6.00467 6.78509 6.40677
#
# Compressibility (1/GPa) = 0.02445062
#
# Stress axis : x y z
#
# Youngs Moduli (GPa) = 51.29765 27.35149 79.95655
#
# Poissons Ratio (x) = 0.33062 0.32453
# Poissons Ratio (y) = 0.62008 0.47245
# Poissons Ratio (z) = 0.20821 0.16162
#
# Static dielectric constant tensor:
#      x y z
#    x 1.663820 0.000000 -0.007220 
#    y 0.000000 1.634460 0.000000 
#    z -0.007220 0.000000 1.681860 
# 
# From -- ./inp_files/238770.got.cif
#   From: 2010.05.17/outbox.cif.g08.bks.cpg/sg12_120_cif.got.tgz:238770.got - 2010.06.03 13:09:07.
