data_PCOD9206222
_publ_section_title
;
Structure prediction by ZEFSAII (Michael W. Deem and Ramdas Pophale) SiO2 
 PCOD9206222
Probable space group: C 2/M
;
_chemical_formula_sum "Si O2"
_cell_formula_units_Z 54
_cell_length_a 17.021137
_cell_length_b 33.870483
_cell_length_c 5.213004
_cell_angle_alpha 90.000000
_cell_angle_beta 114.466157
_cell_angle_gamma 90.000000
_cell_volume 2735.506416
_symmetry_space_group_name_H-M "C 2/M"
_symmetry_group_IT_number 12
_symmetry_cell_setting 'monoclinic'
loop_
_space_group_symop_operation_xyz
x,y,z
-x,y,-z
-x,-y,-z
x,-y,z
1/2+x,1/2+y,z
1/2-x,1/2+y,-z
1/2-x,1/2-y,-z
1/2+x,1/2-y,z
loop_
_atom_site_type_symbol
_atom_site_label
_atom_site_fract_x
_atom_site_fract_y
_atom_site_fract_z
Si Si1 0.059833 0.000000 0.331726
Si Si2 0.627729 0.125462 0.805099
Si Si3 0.941451 0.288416 0.172482
Si Si4 0.500000 0.000000 0.000000
Si Si5 0.167440 0.123918 0.906599
Si Si6 0.060598 0.202416 0.832752
Si Si7 0.881997 0.424675 0.701254
Si Si8 0.673424 0.576416 0.404991
O O1 0.121901 0.962312 0.409929
O O2 0.000000 0.000000 0.500000
O O3 0.000000 0.000000 0.000000
O O4 0.604512 0.170380 0.837245
O O5 0.593604 0.104763 0.499533
O O6 0.730470 0.126167 0.917301
O O7 0.604115 0.098208 0.013626
O O8 0.894710 0.245816 0.087388
O O9 0.000000 0.283278 0.500000
O O10 0.000000 0.292687 0.000000
O O11 0.563552 0.964907 0.210637
O O12 0.124710 0.165868 0.900673
O O13 0.154200 0.108566 0.600291
O O14 0.140098 0.092512 0.086637
O O15 0.000000 0.200639 0.500000
O O16 0.000000 0.198683 0.000000
O O17 0.777431 0.431532 0.538728
#
# Coordination Sequence:
#
# PCOD9206222 Si02
#       8
#     4   8   8   2   8   8   8   8
#     4  12  25  38  60  89 114 151 205 235 283 366
#     4  10  22  40  59  87 114 157 197 235 294 354
#     4  10  21  36  58  84 120 157 190 242 300 339
#     4  12  26  42  64  94 116 154 204 246 290 362
#     4  10  21  38  62  83 116 156 195 239 296 351
#     4  10  21  36  56  89 119 153 197 242 294 352
#     4  10  24  40  62  86 118 153 195 244 299 349
#     4  10  22  42  58  84 122 155 187 250 305 339
#
# _framework density 19.740404999999999
#
# number of rings (size 3 to 8) (size 9 to 14) (size 15 to 20)
#    0.000    1.778    0.000    3.111    3.111    5.333 
#    0.000    4.444    0.000   10.667    0.000    0.000 
#    0.000    0.000    0.000    0.000    0.000    0.000 
#
# Total GULP energy -150451.238122 kJ/mol
# GULP energy per Si atom -5572.268079 kJ/mol
# Density = 1.969547 g / cm^3
# Si number density = 19.740405 Si / 1000 Ang^3
#
#
#
# Elastic Constant Matrix: (Units=GPa)
#
#
# Indices 1 2 3 4 5 6 
#
# 1 67.3163 63.4905 37.4302 0.0000 -22.9929 0.0000
# 2 63.4905 166.1705 16.2887 0.0000 -5.7037 0.0000
# 3 37.4302 16.2887 92.8611 0.0000 -24.1130 0.0000
# 4 0.0000 0.0000 0.0000 47.0651 0.0000 13.7371
# 5 -22.9929 -5.7037 -24.1130 0.0000 24.1744 0.0000
# 6 0.0000 0.0000 0.0000 13.7371 0.0000 45.1728
#
#
#
# Elastic Compliance Matrix: (Units=1/GPa)
#
#
# Indices 1 2 3 4 5 6 
#
# 1 0.042934 -0.014689 -0.006782 0.000000 0.030605 0.000000
# 2 -0.014689 0.011153 0.001376 0.000000 -0.009967 0.000000
# 3 -0.006782 0.001376 0.015750 0.000000 0.009584 0.000000
# 4 0.000000 0.000000 0.000000 0.023317 0.000000 -0.007091
# 5 0.030605 -0.009967 0.009584 0.000000 0.077683 0.000000
# 6 0.000000 0.000000 0.000000 -0.007091 0.000000 0.024293
#
#
# Mechanical properties :
#
#
# Convention : Reuss Voigt Hill
#
# Bulk Modulus (GPa) = 33.72931 62.30740 48.01836
# Shear Modulus (GPa) = 20.39132 37.22503 28.80818
#
# Velocity S-wave (km/s) = 3.21748 4.34721 3.82429
# Velocity P-wave (km/s) = 5.56115 7.53854 6.62404
#
# Compressibility (1/GPa) = 0.02964781
#
# Stress axis : x y z
#
# Youngs Moduli (GPa) = 23.29150 89.65982 63.49360
#
# Poissons Ratio (x) = 1.31701 0.43061
# Poissons Ratio (y) = 0.34213 -0.08739
# Poissons Ratio (z) = 0.15796 -0.12341
#
# Static dielectric constant tensor:
#      x y z
#    x 1.725580 0.000000 -0.010710 
#    y 0.000000 1.721400 0.000000 
#    z -0.010710 0.000000 1.689120 
# 
# From -- ./inp_files/18178.got.cif
#   From: 2010.05.17/outbox.cif.g08.bks.cpg/sg12_10_cif.got.tgz:18178.got - 2010.06.03 13:09:07.
