data_PCOD9206150
_publ_section_title
;
Structure prediction by ZEFSAII (Michael W. Deem and Ramdas Pophale) SiO2 
 PCOD9206150
Probable space group: C 2/M
;
_chemical_formula_sum "Si O2"
_cell_formula_units_Z 48
_cell_length_a 19.251335
_cell_length_b 8.701239
_cell_length_c 15.312431
_cell_angle_alpha 90.000000
_cell_angle_beta 81.764430
_cell_angle_gamma 90.000000
_cell_volume 2538.540967
_symmetry_space_group_name_H-M "C 2/M"
_symmetry_group_IT_number 12
_symmetry_cell_setting 'monoclinic'
loop_
_space_group_symop_operation_xyz
x,y,z
-x,y,-z
-x,-y,-z
x,-y,z
1/2+x,1/2+y,z
1/2-x,1/2+y,-z
1/2-x,1/2-y,-z
1/2+x,1/2-y,z
loop_
_atom_site_type_symbol
_atom_site_label
_atom_site_fract_x
_atom_site_fract_y
_atom_site_fract_z
Si Si1 0.069809 0.176403 0.544513
Si Si2 0.231269 0.812797 0.755541
Si Si3 0.799126 0.318407 0.564753
Si Si4 0.962396 0.813845 0.915110
Si Si5 0.428034 0.686908 0.253742
Si Si6 0.694356 0.814927 0.078877
O O1 0.123882 0.274468 0.479189
O O2 0.061053 0.231090 0.646471
O O3 0.000000 0.174111 0.500000
O O4 0.096750 0.000000 0.546055
O O5 0.273367 0.758931 0.662834
O O6 0.149808 0.763512 0.763458
O O7 0.273793 0.766386 0.833348
O O8 0.229530 0.000000 0.756034
O O9 0.791171 0.500000 0.568190
O O10 0.750000 0.250000 0.500000
O O11 0.884087 0.747409 0.922224
O O12 0.011712 0.763186 0.824915
O O13 0.957627 0.000000 0.914128
O O14 0.000000 0.771965 0.000000
O O15 0.429060 0.500000 0.251607
O O16 0.692935 0.000000 0.074930
O O17 0.750000 0.750000 0.000000
#
# Coordination Sequence:
#
# PCOD9206150 Si02
#       6
#     8   8   8   8   8   8
#     4  10  21  36  56  83 117 155 195 239 285 337
#     4   9  19  36  59  83 113 153 192 236 291 343
#     4  11  21  37  60  85 116 155 198 240 286 340
#     4  10  21  38  62  87 114 152 193 231 284 349
#     4   9  17  34  57  80 111 151 191 231 280 340
#     4  11  23  40  62  88 117 149 190 240 291 345
#
# _framework density 18.9085
#
# number of rings (size 3 to 8) (size 9 to 14) (size 15 to 20)
#    0.000    2.000    1.667    2.000    2.333    3.333 
#    0.000    3.333    0.000    0.000    0.000    0.000 
#    0.000    0.000    0.000    0.000    0.000    0.000 
#
# Total GULP energy -133915.789092 kJ/mol
# GULP energy per Si atom -5579.824546 kJ/mol
# Density = 1.886546 g / cm^3
# Si number density = 18.908500 Si / 1000 Ang^3
#
#
#
# Elastic Constant Matrix: (Units=GPa)
#
#
# Indices 1 2 3 4 5 6 
#
# 1 167.2471 32.7348 114.1607 0.0000 -5.5890 0.0000
# 2 32.7348 22.0915 32.4169 0.0000 -1.5535 0.0000
# 3 114.1607 32.4169 197.7152 0.0000 -6.8236 0.0000
# 4 0.0000 0.0000 0.0000 17.7792 0.0000 -7.0839
# 5 -5.5890 -1.5535 -6.8236 0.0000 38.2183 0.0000
# 6 0.0000 0.0000 0.0000 -7.0839 0.0000 29.2240
#
#
#
# Elastic Compliance Matrix: (Units=1/GPa)
#
#
# Indices 1 2 3 4 5 6 
#
# 1 0.011164 -0.009318 -0.004905 0.000000 0.000378 0.000000
# 2 -0.009318 0.067402 -0.005658 0.000000 0.000367 0.000000
# 3 -0.004905 -0.005658 0.008840 0.000000 0.000631 0.000000
# 4 0.000000 0.000000 0.000000 0.062259 0.000000 0.015091
# 5 0.000378 0.000367 0.000631 0.000000 0.026348 0.000000
# 6 0.000000 0.000000 0.000000 0.015091 0.000000 0.037877
#
#
# Mechanical properties :
#
#
# Convention : Reuss Voigt Hill
#
# Bulk Modulus (GPa) = 20.98956 82.85317 51.92137
# Shear Modulus (GPa) = 18.55063 30.89372 24.72218
#
# Velocity S-wave (km/s) = 3.13561 4.04648 3.61981
# Velocity P-wave (km/s) = 4.92281 8.10833 6.70743
#
# Compressibility (1/GPa) = 0.04764272
#
# Stress axis : x y z
#
# Youngs Moduli (GPa) = 89.57536 14.83633 113.12826
#
# Poissons Ratio (x) = 0.13824 0.55491
# Poissons Ratio (y) = 0.83465 0.64011
# Poissons Ratio (z) = 0.43938 0.08395
#
# Static dielectric constant tensor:
#      x y z
#    x 1.622860 0.000000 0.019470 
#    y 0.000000 1.665310 0.000000 
#    z 0.019470 0.000000 1.641410 
# 
# From -- ./inp_files/221691.got.cif
#   From: 2010.05.17/outbox.cif.g08.bks.cpg/sg12_111_cif.got.tgz:221691.got - 2010.06.03 13:09:07.
