data_PCOD9206094
_publ_section_title
;
Structure prediction by ZEFSAII (Michael W. Deem and Ramdas Pophale) SiO2 
 PCOD9206094
Probable space group: C 2/M
;
_chemical_formula_sum "Si O2"
_cell_formula_units_Z 56
_cell_length_a 9.566619
_cell_length_b 25.708865
_cell_length_c 9.648132
_cell_angle_alpha 90.000000
_cell_angle_beta 90.321395
_cell_angle_gamma 90.000000
_cell_volume 2372.890982
_symmetry_space_group_name_H-M "C 2/M"
_symmetry_group_IT_number 12
_symmetry_cell_setting 'monoclinic'
loop_
_space_group_symop_operation_xyz
x,y,z
-x,y,-z
-x,-y,-z
x,-y,z
1/2+x,1/2+y,z
1/2-x,1/2+y,-z
1/2-x,1/2-y,-z
1/2+x,1/2-y,z
loop_
_atom_site_type_symbol
_atom_site_label
_atom_site_fract_x
_atom_site_fract_y
_atom_site_fract_z
Si Si1 0.160860 0.759049 0.790561
Si Si2 0.903230 0.770056 0.612015
Si Si3 0.135580 0.638901 0.821960
Si Si4 0.316302 0.860865 0.790066
Si Si5 0.105908 0.938950 0.690762
Si Si6 0.744539 0.628845 0.479855
Si Si7 0.872447 0.938628 0.890703
O O1 0.255287 0.752374 0.653598
O O2 0.165106 0.700488 0.849103
O O3 0.235274 0.810432 0.850627
O O4 0.001662 0.771598 0.748864
O O5 0.866758 0.826663 0.556298
O O6 0.000000 0.742114 0.500000
O O7 0.164177 0.625624 0.658510
O O8 0.242567 0.600691 0.900571
O O9 0.971044 0.631982 0.846731
O O10 0.214967 0.910204 0.793627
O O11 0.328645 0.855156 0.620666
O O12 0.842048 0.919864 0.458856
O O13 0.952076 0.925509 0.745902
O O14 0.119591 0.000000 0.702059
O O15 0.831037 0.000000 0.891180
O O16 0.000000 0.932995 0.000000
#
# Coordination Sequence:
#
# PCOD9206094 Si02
#       7
#     8   8   8   8   8   8   8
#     4  11  22  30  52  83 128 165 205 244 288 352
#     4  11  19  29  45  77 121 171 202 234 275 341
#     4  11  23  36  60  92 126 165 204 244 307 360
#     4  10  21  36  55  92 135 167 203 241 298 367
#     4   9  21  40  62  87 121 157 199 253 306 363
#     4   9  22  32  55  89 128 167 198 236 294 360
#     4  10  24  47  70  89 112 151 207 263 310 363
#
# _framework density 23.599903000000001
#
# number of rings (size 3 to 8) (size 9 to 14) (size 15 to 20)
#    0.857    1.000    2.857    0.857   10.000    1.143 
#    0.000    2.857    0.000    6.000    0.000    0.000 
#    0.000    0.000    0.000    0.000    0.000    0.000 
#
# Total GULP energy -156192.460668 kJ/mol
# GULP energy per Si atom -5578.302167 kJ/mol
# Density = 2.354619 g / cm^3
# Si number density = 23.599903 Si / 1000 Ang^3
#
#
#
# Elastic Constant Matrix: (Units=GPa)
#
#
# Indices 1 2 3 4 5 6 
#
# 1 133.5563 65.8237 13.8646 0.0000 37.0857 0.0000
# 2 65.8237 133.8542 20.5933 0.0000 29.7538 0.0000
# 3 13.8646 20.5933 106.7189 0.0000 21.4227 0.0000
# 4 0.0000 0.0000 0.0000 11.2859 0.0000 15.3122
# 5 37.0857 29.7538 21.4227 0.0000 29.1446 0.0000
# 6 0.0000 0.0000 0.0000 15.3122 0.0000 29.9866
#
#
#
# Elastic Compliance Matrix: (Units=1/GPa)
#
#
# Indices 1 2 3 4 5 6 
#
# 1 0.012998 -0.003489 0.001865 0.000000 -0.014348 0.000000
# 2 -0.003489 0.010602 -0.000365 0.000000 -0.006116 0.000000
# 3 0.001865 -0.000365 0.011262 0.000000 -0.010278 0.000000
# 4 0.000000 0.000000 0.000000 0.288437 0.000000 -0.147286
# 5 -0.014348 -0.006116 -0.010278 0.000000 0.066367 0.000000
# 6 0.000000 0.000000 0.000000 -0.147286 0.000000 0.108558
#
#
# Mechanical properties :
#
#
# Convention : Reuss Voigt Hill
#
# Bulk Modulus (GPa) = 32.38035 63.85476 48.11756
# Shear Modulus (GPa) = 9.75615 32.33993 21.04804
#
# Velocity S-wave (km/s) = 2.03542 3.70583 2.98966
# Velocity P-wave (km/s) = 4.39025 6.73994 5.68775
#
# Compressibility (1/GPa) = 0.03088292
#
# Stress axis : x y z
#
# Youngs Moduli (GPa) = 76.93708 94.31959 88.79541
#
# Poissons Ratio (x) = 0.32911 -0.16559
# Poissons Ratio (y) = 0.26846 0.03240
# Poissons Ratio (z) = -0.14348 0.03442
#
# Static dielectric constant tensor:
#      x y z
#    x 1.849460 0.000000 -0.020870 
#    y 0.000000 1.869130 0.000000 
#    z -0.020870 0.000000 2.075440 
# 
# From -- ./inp_files/124375.got.cif
#   From: 2010.05.17/outbox.cif.g08.bks.cpg/sg12_63_cif.got.tgz:124375.got - 2010.06.03 13:09:07.
