data_PCOD9206442
_publ_section_title
;
Structure prediction by ZEFSAII (Michael W. Deem and Ramdas Pophale) SiO2 
 PCOD9206442
Probable space group: C 2/M
;
_chemical_formula_sum "Si O2"
_cell_formula_units_Z 44
_cell_length_a 4.915757
_cell_length_b 30.532099
_cell_length_c 13.919524
_cell_angle_alpha 90.000000
_cell_angle_beta 65.952981
_cell_angle_gamma 90.000000
_cell_volume 1907.843563
_symmetry_space_group_name_H-M "C 2/M"
_symmetry_group_IT_number 12
_symmetry_cell_setting 'monoclinic'
loop_
_space_group_symop_operation_xyz
x,y,z
-x,y,-z
-x,-y,-z
x,-y,z
1/2+x,1/2+y,z
1/2-x,1/2+y,-z
1/2-x,1/2-y,-z
1/2+x,1/2-y,z
loop_
_atom_site_type_symbol
_atom_site_label
_atom_site_fract_x
_atom_site_fract_y
_atom_site_fract_z
Si Si1 0.552783 0.839740 0.092102
Si Si2 0.319727 0.605750 0.716056
Si Si3 0.500000 0.417316 0.000000
Si Si4 0.814382 0.670903 0.432206
Si Si5 0.254540 0.721020 0.225984
Si Si6 0.755524 0.050303 0.228813
O O1 0.270136 0.857793 0.191832
O O2 0.726624 0.883790 0.038114
O O3 0.749957 0.811956 0.137320
O O4 0.500000 0.815265 0.000000
O O5 0.296481 0.630719 0.618617
O O6 0.619292 0.582866 0.707799
O O7 0.069638 0.568000 0.751739
O O8 0.460490 0.444178 0.103822
O O9 0.500000 0.695053 0.500000
O O10 0.047137 0.699139 0.336754
O O11 0.000000 0.658254 0.500000
O O12 0.073195 0.764040 0.217912
O O13 0.752293 0.000000 0.259178
#
# Coordination Sequence:
#
# PCOD9206442 Si02
#       6
#     8   8   4   8   8   8
#     4  10  21  38  60  81 122 166 203 240 290 346
#     4  10  22  39  60  90 122 156 203 246 291 366
#     4  10  21  36  58  88 120 166 216 242 270 356
#     4  11  23  42  70  90 112 156 204 251 305 358
#     4  11  26  41  59  91 125 153 197 251 304 359
#     4  11  21  36  60  90 127 160 194 248 302 340
#
# _framework density 23.062688999999999
#
# number of rings (size 3 to 8) (size 9 to 14) (size 15 to 20)
#    0.000    1.455    1.818    3.000    2.545    5.818 
#    0.000    2.727    0.000   10.909    0.000    0.000 
#    0.000    0.000    0.000    0.000    0.000    0.000 
#
# Total GULP energy -123134.294741 kJ/mol
# GULP energy per Si atom -5597.013397 kJ/mol
# Density = 2.301020 g / cm^3
# Si number density = 23.062689 Si / 1000 Ang^3
#
#
#
# Elastic Constant Matrix: (Units=GPa)
#
#
# Indices 1 2 3 4 5 6 
#
# 1 75.6737 6.5154 18.2581 0.0000 13.9051 0.0000
# 2 6.5154 84.0810 19.6689 0.0000 11.1846 0.0000
# 3 18.2581 19.6689 117.8783 0.0000 26.3399 0.0000
# 4 0.0000 0.0000 0.0000 18.5460 0.0000 4.5417
# 5 13.9051 11.1846 26.3399 0.0000 33.1669 0.0000
# 6 0.0000 0.0000 0.0000 4.5417 0.0000 34.2634
#
#
#
# Elastic Compliance Matrix: (Units=1/GPa)
#
#
# Indices 1 2 3 4 5 6 
#
# 1 0.014431 -0.000187 -0.001053 0.000000 -0.005151 0.000000
# 2 -0.000187 0.012643 -0.001393 0.000000 -0.003079 0.000000
# 3 -0.001053 -0.001393 0.010547 0.000000 -0.007465 0.000000
# 4 0.000000 0.000000 0.000000 0.055729 0.000000 -0.007387
# 5 -0.005151 -0.003079 -0.007465 0.000000 0.039277 0.000000
# 6 0.000000 0.000000 0.000000 -0.007387 0.000000 0.030165
#
#
# Mechanical properties :
#
#
# Convention : Reuss Voigt Hill
#
# Bulk Modulus (GPa) = 30.90588 40.72419 35.81503
# Shear Modulus (GPa) = 27.95765 32.74131 30.34948
#
# Velocity S-wave (km/s) = 3.48551 3.77193 3.63155
# Velocity P-wave (km/s) = 5.44319 6.05527 5.75737
#
# Compressibility (1/GPa) = 0.03235630
#
# Stress axis : x y z
#
# Youngs Moduli (GPa) = 69.29394 79.09427 94.81537
#
# Poissons Ratio (x) = 0.01477 0.09985
# Poissons Ratio (y) = 0.01294 0.13204
# Poissons Ratio (z) = 0.07297 0.11015
#
# Static dielectric constant tensor:
#      x y z
#    x 1.869030 0.000000 -0.027670 
#    y 0.000000 1.835480 0.000000 
#    z -0.027670 0.000000 1.911140 
# 
# From -- ./inp_files/116086.got.cif
#   From: 2010.05.17/outbox.cif.g08.bks.cpg/sg12_59_cif.got.tgz:116086.got - 2010.06.03 13:09:07.
