data_PCOD9206444
_publ_section_title
;
Structure prediction by ZEFSAII (Michael W. Deem and Ramdas Pophale) SiO2 
 PCOD9206444
Probable space group: C 2/M
;
_chemical_formula_sum "Si O2"
_cell_formula_units_Z 44
_cell_length_a 28.280991
_cell_length_b 12.111329
_cell_length_c 6.240690
_cell_angle_alpha 90.000000
_cell_angle_beta 98.796846
_cell_angle_gamma 90.000000
_cell_volume 2112.418966
_symmetry_space_group_name_H-M "C 2/M"
_symmetry_group_IT_number 12
_symmetry_cell_setting 'monoclinic'
loop_
_space_group_symop_operation_xyz
x,y,z
-x,y,-z
-x,-y,-z
x,-y,z
1/2+x,1/2+y,z
1/2-x,1/2+y,-z
1/2-x,1/2-y,-z
1/2+x,1/2-y,z
loop_
_atom_site_type_symbol
_atom_site_label
_atom_site_fract_x
_atom_site_fract_y
_atom_site_fract_z
Si Si1 0.916902 0.276609 0.227963
Si Si2 0.000000 0.724774 0.000000
Si Si3 0.850828 0.817191 0.809659
Si Si4 0.160098 0.378305 0.518811
Si Si5 0.942306 0.875812 0.626905
Si Si6 0.249905 0.875807 0.101132
O O1 0.958642 0.332626 0.113735
O O2 0.885843 0.352469 0.363796
O O3 0.940760 0.184243 0.397205
O O4 0.879604 0.217203 0.042823
O O5 0.970957 0.801272 0.814775
O O6 0.837114 0.707504 0.670543
O O7 0.888163 0.877306 0.680179
O O8 0.802544 0.879221 0.831288
O O9 0.155550 0.500000 0.424971
O O10 0.206999 0.371699 0.699001
O O11 0.960387 0.000000 0.632570
O O12 0.255709 0.000000 0.994249
O O13 0.250000 0.750000 0.000000
#
# Coordination Sequence:
#
# PCOD9206444 Si02
#       6
#     8   4   8   8   8   8
#     4  10  21  38  58  85 122 153 205 252 315 366
#     4  10  21  36  59  86 120 162 195 254 309 382
#     4  10  21  39  59  87 124 163 204 253 310 369
#     4  10  22  40  63  88 120 163 213 260 310 370
#     4  10  21  36  58  88 121 159 200 251 311 376
#     4  11  22  39  63  95 130 169 213 258 313 376
#
# _framework density 20.829201000000001
#
# number of rings (size 3 to 8) (size 9 to 14) (size 15 to 20)
#    0.000    1.818    1.818    1.909    0.000    6.545 
#    0.000    1.364    0.000   14.182    0.000    0.000 
#    0.000    0.000    0.000    0.000    0.000    0.000 
#
# Total GULP energy -122654.872184 kJ/mol
# GULP energy per Si atom -5575.221463 kJ/mol
# Density = 2.078179 g / cm^3
# Si number density = 20.829201 Si / 1000 Ang^3
#
#
#
# Elastic Constant Matrix: (Units=GPa)
#
#
# Indices 1 2 3 4 5 6 
#
# 1 106.7348 4.0668 8.6208 0.0000 -11.8743 0.0000
# 2 4.0668 117.7323 33.5181 0.0000 2.6299 0.0000
# 3 8.6208 33.5181 72.3697 0.0000 6.1288 0.0000
# 4 0.0000 0.0000 0.0000 2.4870 0.0000 3.7144
# 5 -11.8743 2.6299 6.1288 0.0000 29.7474 0.0000
# 6 0.0000 0.0000 0.0000 3.7144 0.0000 1.5660
#
#
#
# Elastic Compliance Matrix: (Units=1/GPa)
#
#
# Indices 1 2 3 4 5 6 
#
# 1 0.009973 0.000002 -0.001553 0.000000 0.004301 0.000000
# 2 0.000002 0.009784 -0.004538 0.000000 0.000071 0.000000
# 3 -0.001553 -0.004538 0.016409 0.000000 -0.003599 0.000000
# 4 0.000000 0.000000 0.000000 -0.158161 0.000000 0.375125
# 5 0.004301 0.000071 -0.003599 0.000000 0.036068 0.000000
# 6 0.000000 0.000000 0.000000 0.375125 0.000000 -0.251173
#
#
# Mechanical properties :
#
#
# Convention : Reuss Voigt Hill
#
# Bulk Modulus (GPa) = 41.68710 43.24982 42.46846
# Shear Modulus (GPa) = -15.77661 23.46883 3.84611
#
# Velocity S-wave (km/s) = -2.75513 3.36032 1.36033
# Velocity P-wave (km/s) = 3.15218 5.98872 4.78545
#
# Compressibility (1/GPa) = 0.02398824
#
# Stress axis : x y z
#
# Youngs Moduli (GPa) = 100.27239 102.20689 60.94076
#
# Poissons Ratio (x) = -0.00016 0.09464
# Poissons Ratio (y) = -0.00016 0.27653
# Poissons Ratio (z) = 0.15571 0.46378
#
# Static dielectric constant tensor:
#      x y z
#    x 1.784540 0.000000 -0.038560 
#    y 0.000000 1.748580 0.000000 
#    z -0.038560 0.000000 1.704520 
# 
# From -- ./inp_files/30882.got.cif
#   From: 2010.05.17/outbox.cif.g08.bks.cpg/sg12_16_cif.got.tgz:30882.got - 2010.06.03 13:09:07.
