data_PCOD9206196
_publ_section_title
;
Structure prediction by ZEFSAII (Michael W. Deem and Ramdas Pophale) SiO2 
 PCOD9206196
Probable space group: C 2/M
;
_chemical_formula_sum "Si O2"
_cell_formula_units_Z 64
_cell_length_a 14.947582
_cell_length_b 7.756798
_cell_length_c 23.399904
_cell_angle_alpha 90.000000
_cell_angle_beta 95.920402
_cell_angle_gamma 90.000000
_cell_volume 2698.639304
_symmetry_space_group_name_H-M "C 2/M"
_symmetry_group_IT_number 12
_symmetry_cell_setting 'monoclinic'
loop_
_space_group_symop_operation_xyz
x,y,z
-x,y,-z
-x,-y,-z
x,-y,z
1/2+x,1/2+y,z
1/2-x,1/2+y,-z
1/2-x,1/2-y,-z
1/2+x,1/2-y,z
loop_
_atom_site_type_symbol
_atom_site_label
_atom_site_fract_x
_atom_site_fract_y
_atom_site_fract_z
Si Si1 0.463936 0.791466 0.134598
Si Si2 0.672055 0.298030 0.159865
Si Si3 0.262687 0.211831 0.592088
Si Si4 0.077327 0.798762 0.620494
Si Si5 0.072772 0.698056 0.462081
Si Si6 0.707929 0.207657 0.936454
Si Si7 0.943966 0.292135 0.259389
Si Si8 0.649688 0.795822 0.284686
O O1 0.566043 0.727441 0.139634
O O2 0.394669 0.733950 0.081404
O O3 0.420359 0.742748 0.193239
O O4 0.470674 0.000000 0.134616
O O5 0.690861 0.500000 0.164143
O O6 0.730187 0.225311 0.111461
O O7 0.691724 0.231110 0.224893
O O8 0.158600 0.262788 0.585290
O O9 0.331116 0.275548 0.547993
O O10 0.300901 0.272169 0.656004
O O11 0.264035 0.000000 0.590761
O O12 0.985934 0.699677 0.600378
O O13 0.105880 0.776809 0.688234
O O14 0.061340 0.000000 0.609840
O O15 0.086204 0.500000 0.480395
O O16 0.000000 0.781408 0.500000
O O17 0.706242 0.000000 0.932392
O O18 0.750000 0.250000 0.000000
O O19 0.940182 0.500000 0.261981
O O20 0.047354 0.230281 0.273453
O O21 0.643547 0.000000 0.292510
#
# Coordination Sequence:
#
# PCOD9206196 Si02
#       8
#     8   8   8   8   8   8   8   8
#     4   9  20  39  59  80 111 153 189 224 278 341
#     4  10  21  36  56  86 117 142 183 241 286 322
#     4   9  19  36  55  81 114 148 183 225 279 336
#     4  11  22  34  54  85 118 145 177 232 290 329
#     4  10  21  41  64  79 104 153 200 230 268 334
#     4  10  23  41  59  82 114 152 192 235 280 332
#     4   9  17  33  58  81 110 149 189 225 267 335
#     4   9  17  34  58  79 111 153 186 221 276 342
#
# _framework density 23.715655000000002
#
# number of rings (size 3 to 8) (size 9 to 14) (size 15 to 20)
#    0.000    2.375    1.250    1.500    1.750    4.750 
#    0.000    4.375    0.000    0.000    0.000    0.000 
#    0.000    0.000    0.000    0.000    0.000    0.000 
#
# Total GULP energy -178757.824378 kJ/mol
# GULP energy per Si atom -5586.182012 kJ/mol
# Density = 2.366168 g / cm^3
# Si number density = 23.715655 Si / 1000 Ang^3
#
#
#
# Elastic Constant Matrix: (Units=GPa)
#
#
# Indices 1 2 3 4 5 6 
#
# 1 91.4364 1.8883 21.0760 0.0000 -8.0153 0.0000
# 2 1.8883 45.0317 -0.1858 0.0000 4.0689 0.0000
# 3 21.0760 -0.1858 80.4050 0.0000 0.5968 0.0000
# 4 0.0000 0.0000 0.0000 27.6485 0.0000 -1.1568
# 5 -8.0153 4.0689 0.5968 0.0000 42.8219 0.0000
# 6 0.0000 0.0000 0.0000 -1.1568 0.0000 12.8696
#
#
#
# Elastic Compliance Matrix: (Units=1/GPa)
#
#
# Indices 1 2 3 4 5 6 
#
# 1 0.011878 -0.000722 -0.003133 0.000000 0.002336 0.000000
# 2 -0.000722 0.022443 0.000258 0.000000 -0.002271 0.000000
# 3 -0.003133 0.000258 0.013265 0.000000 -0.000796 0.000000
# 4 0.000000 0.000000 0.000000 0.036305 0.000000 0.003263
# 5 0.002336 -0.002271 -0.000796 0.000000 0.024017 0.000000
# 6 0.000000 0.000000 0.000000 0.003263 0.000000 0.077996
#
#
# Mechanical properties :
#
#
# Convention : Reuss Voigt Hill
#
# Bulk Modulus (GPa) = 24.75688 29.15889 26.95788
# Shear Modulus (GPa) = 24.20594 29.60764 26.90679
#
# Velocity S-wave (km/s) = 3.19826 3.53716 3.37197
# Velocity P-wave (km/s) = 4.90920 5.38553 5.15287
#
# Compressibility (1/GPa) = 0.04039282
#
# Stress axis : x y z
#
# Youngs Moduli (GPa) = 84.18733 44.55702 75.38829
#
# Poissons Ratio (x) = 0.03217 0.23616
# Poissons Ratio (y) = 0.06079 -0.01945
# Poissons Ratio (z) = 0.26372 -0.01150
#
# Static dielectric constant tensor:
#      x y z
#    x 1.916740 0.000000 -0.008720 
#    y 0.000000 1.866030 0.000000 
#    z -0.008720 0.000000 1.949450 
# 
# From -- ./inp_files/338853.got.cif
#   From: 2010.05.17/outbox.cif.g08.bks.cpg/sg12_170_cif.got.tgz:338853.got - 2010.06.03 13:09:07.
