data_PCOD9206341
_publ_section_title
;
Structure prediction by ZEFSAII (Michael W. Deem and Ramdas Pophale) SiO2 
 PCOD9206341
Probable space group: C 2/M
;
_chemical_formula_sum "Si O2"
_cell_formula_units_Z 60
_cell_length_a 8.846723
_cell_length_b 11.350298
_cell_length_c 29.697773
_cell_angle_alpha 90.000000
_cell_angle_beta 111.660689
_cell_angle_gamma 90.000000
_cell_volume 2771.467057
_symmetry_space_group_name_H-M "C 2/M"
_symmetry_group_IT_number 12
_symmetry_cell_setting 'monoclinic'
loop_
_space_group_symop_operation_xyz
x,y,z
-x,y,-z
-x,-y,-z
x,-y,z
1/2+x,1/2+y,z
1/2-x,1/2+y,-z
1/2-x,1/2-y,-z
1/2+x,1/2-y,z
loop_
_atom_site_type_symbol
_atom_site_label
_atom_site_fract_x
_atom_site_fract_y
_atom_site_fract_z
Si Si1 0.853047 0.131557 0.019514
Si Si2 0.187481 0.500000 0.630113
Si Si3 0.758732 0.365130 0.727980
Si Si4 0.441332 0.633324 0.867003
Si Si5 0.038574 0.323381 0.452683
Si Si6 0.091481 0.217320 0.323244
Si Si7 0.229585 0.134848 0.832193
Si Si8 0.800803 0.134908 0.416127
O O1 0.932155 0.136786 0.077667
O O2 0.772875 0.000000 0.006180
O O3 0.750000 0.250000 0.000000
O O4 0.000000 0.133244 0.000000
O O5 0.079629 0.400235 0.591445
O O6 0.298855 0.602305 0.665778
O O7 0.787344 0.500000 0.718516
O O8 0.592262 0.319361 0.687073
O O9 0.736362 0.359607 0.778920
O O10 0.899924 0.285797 0.722989
O O11 0.364822 0.500000 0.859521
O O12 0.327305 0.748340 0.858787
O O13 0.550124 0.642175 0.833913
O O14 0.977776 0.191660 0.435760
O O15 0.000000 0.351348 0.500000
O O16 0.220630 0.347144 0.456596
O O17 0.171412 0.302684 0.369057
O O18 0.289333 0.000000 0.851114
O O19 0.808883 0.000000 0.405234
#
# Coordination Sequence:
#
# PCOD9206341 Si02
#       8
#     8   4   8   8   8   8   8   8
#     4  10  21  36  57  88 123 162 211 259 305 361
#     4  10  21  38  64  86 114 156 186 228 291 342
#     4  11  23  41  62  89 119 152 195 245 293 355
#     4  10  21  39  60  86 125 164 204 257 309 361
#     4  11  23  43  63  89 120 154 192 235 283 343
#     4  11  22  41  63  88 119 154 190 239 296 345
#     4  10  22  39  60  87 120 158 204 250 307 367
#     4  11  24  41  62  89 121 151 194 237 285 346
#
# _framework density 21.649184999999999
#
# number of rings (size 3 to 8) (size 9 to 14) (size 15 to 20)
#    0.000    1.467    1.333    4.200    0.000    1.600 
#    7.200    0.000    0.000    0.000    0.000    0.000 
#    0.000    0.000    0.000    0.000    0.000    0.000 
#
# Total GULP energy -167051.783592 kJ/mol
# GULP energy per Si atom -5568.392786 kJ/mol
# Density = 2.159991 g / cm^3
# Si number density = 21.649185 Si / 1000 Ang^3
#
#
#
# Elastic Constant Matrix: (Units=GPa)
#
#
# Indices 1 2 3 4 5 6 
#
# 1 25.4917 29.6354 -2.7505 0.0000 -4.2153 0.0000
# 2 29.6354 206.1674 17.8649 0.0000 18.9916 0.0000
# 3 -2.7505 17.8649 38.2442 0.0000 -8.6277 0.0000
# 4 0.0000 0.0000 0.0000 16.2137 0.0000 11.3479
# 5 -4.2153 18.9916 -8.6277 0.0000 29.6482 0.0000
# 6 0.0000 0.0000 0.0000 11.3479 0.0000 15.2322
#
#
#
# Elastic Compliance Matrix: (Units=1/GPa)
#
#
# Indices 1 2 3 4 5 6 
#
# 1 0.056760 -0.011098 0.013582 0.000000 0.019132 0.000000
# 2 -0.011098 0.007766 -0.006319 0.000000 -0.008392 0.000000
# 3 0.013582 -0.006319 0.033633 0.000000 0.015766 0.000000
# 4 0.000000 0.000000 0.000000 0.128873 0.000000 -0.096010
# 5 0.019132 -0.008392 0.015766 0.000000 0.046412 0.000000
# 6 0.000000 0.000000 0.000000 -0.096010 0.000000 0.137178
#
#
# Mechanical properties :
#
#
# Convention : Reuss Voigt Hill
#
# Bulk Modulus (GPa) = 11.05102 39.93367 25.49235
# Shear Modulus (GPa) = 11.14938 27.22904 19.18921
#
# Velocity S-wave (km/s) = 2.27183 3.55031 2.98043
# Velocity P-wave (km/s) = 3.46371 5.94072 4.86258
#
# Compressibility (1/GPa) = 0.09048935
#
# Stress axis : x y z
#
# Youngs Moduli (GPa) = 17.61814 128.76119 29.73246
#
# Poissons Ratio (x) = 1.42902 -0.40384
# Poissons Ratio (y) = 0.19553 0.18788
# Poissons Ratio (z) = -0.23930 0.81366
#
# Static dielectric constant tensor:
#      x y z
#    x 1.813890 0.000000 -0.041820 
#    y 0.000000 1.808800 0.000000 
#    z -0.041820 0.000000 1.813950 
# 
# From -- ./inp_files/372195.got.cif
#   From: 2010.05.17/outbox.cif.g08.bks.cpg/sg12_187_cif.got.tgz:372195.got - 2010.06.03 13:09:07.
