data_PCOD9206494
_publ_section_title
;
Structure prediction by ZEFSAII (Michael W. Deem and Ramdas Pophale) SiO2 
 PCOD9206494
Probable space group: C 2/M
;
_chemical_formula_sum "Si O2"
_cell_formula_units_Z 56
_cell_length_a 9.537139
_cell_length_b 26.394304
_cell_length_c 20.588444
_cell_angle_alpha 90.000000
_cell_angle_beta 150.148281
_cell_angle_gamma 90.000000
_cell_volume 2579.700466
_symmetry_space_group_name_H-M "C 2/M"
_symmetry_group_IT_number 12
_symmetry_cell_setting 'monoclinic'
loop_
_space_group_symop_operation_xyz
x,y,z
-x,y,-z
-x,-y,-z
x,-y,z
1/2+x,1/2+y,z
1/2-x,1/2+y,-z
1/2-x,1/2-y,-z
1/2+x,1/2-y,z
loop_
_atom_site_type_symbol
_atom_site_label
_atom_site_fract_x
_atom_site_fract_y
_atom_site_fract_z
Si Si1 0.814403 0.410188 0.096442
Si Si2 0.841943 0.399453 0.366857
Si Si3 0.315283 0.898874 0.628467
Si Si4 0.038700 0.293123 0.711661
Si Si5 0.166215 0.000000 0.336981
Si Si6 0.861968 0.198939 0.011925
Si Si7 0.289835 0.214189 0.355130
Si Si8 0.970305 0.500000 0.907727
O O1 0.826351 0.351289 0.075279
O O2 0.018681 0.417048 0.240973
O O3 0.888124 0.450432 0.069710
O O4 0.500000 0.416474 0.000000
O O5 0.648748 0.448380 0.289807
O O6 0.705035 0.344309 0.313477
O O7 0.000000 0.399793 0.500000
O O8 0.039762 0.406497 0.383576
O O9 0.319723 0.837684 0.635248
O O10 0.000000 0.919036 0.500000
O O11 0.041807 0.270187 0.641335
O O12 0.971700 0.249974 0.736069
O O13 0.347456 0.318278 0.837596
O O14 0.500000 0.000000 0.500000
O O15 0.861509 0.000000 0.249655
O O16 0.750000 0.250000 0.000000
O O17 0.000000 0.214758 0.000000
O O18 0.500000 0.218838 0.500000
O O19 0.000000 0.500000 0.000000
#
# Coordination Sequence:
#
# PCOD9206494 Si02
#       8
#     8   8   8   8   4   8   8   4
#     4  11  26  52  73 104 151 188 246 299 358 436
#     4   9  22  42  67  97 144 183 225 293 364 411
#     4  11  24  42  74 105 139 186 238 288 360 430
#     4  11  21  38  61  94 136 179 230 285 346 414
#     4  10  24  46  70 102 143 172 235 302 359 415
#     4  11  23  43  67  98 137 190 235 292 354 424
#     4  10  21  36  58  96 135 178 225 279 353 414
#     4  12  31  48  80 110 139 197 248 296 367 427
#
# _framework density 21.707946
#
# number of rings (size 3 to 8) (size 9 to 14) (size 15 to 20)
#    0.000    1.429    2.857    1.929    6.000    4.571 
#    0.000    0.714    0.000    0.000    0.000    0.000 
#    0.000    0.000    0.000    0.000    0.000    0.000 
#
# Total GULP energy -155897.137989 kJ/mol
# GULP energy per Si atom -5567.754928 kJ/mol
# Density = 2.165854 g / cm^3
# Si number density = 21.707946 Si / 1000 Ang^3
#
#
#
# Elastic Constant Matrix: (Units=GPa)
#
#
# Indices 1 2 3 4 5 6 
#
# 1 116.6332 66.8402 24.7929 0.0017 -25.3549 0.0072
# 2 66.8402 110.3400 6.5684 -0.0032 16.4373 -0.0049
# 3 24.7929 6.5684 112.1439 -0.0407 -9.5280 0.0189
# 4 0.0017 -0.0032 -0.0407 19.9279 0.0090 24.6340
# 5 -25.3549 16.4373 -9.5280 0.0090 35.3524 -0.0073
# 6 0.0072 -0.0049 0.0189 24.6340 -0.0073 73.8096
#
#
#
# Elastic Compliance Matrix: (Units=1/GPa)
#
#
# Indices 1 2 3 4 5 6 
#
# 1 0.026733 -0.020216 -0.002352 -0.000038 0.027938 0.000012
# 2 -0.020216 0.025130 0.000791 0.000031 -0.025970 -0.000009
# 3 -0.002352 0.000791 0.009432 0.000037 0.000487 -0.000015
# 4 -0.000038 0.000031 0.000037 0.085425 -0.000059 -0.028511
# 5 0.027938 -0.025970 0.000487 -0.000059 0.060530 0.000021
# 6 0.000012 -0.000009 -0.000015 -0.028511 0.000021 0.023064
#
#
# Mechanical properties :
#
#
# Convention : Reuss Voigt Hill
#
# Bulk Modulus (GPa) = 56.36579 59.50222 57.93400
# Shear Modulus (GPa) = 17.87109 41.87901 29.87505
#
# Velocity S-wave (km/s) = 2.87235 4.39703 3.71378
# Velocity P-wave (km/s) = 6.08460 7.29715 6.71829
#
# Compressibility (1/GPa) = 0.01774126
#
# Stress axis : x y z
#
# Youngs Moduli (GPa) = 37.40764 39.79236 106.01909
#
# Poissons Ratio (x) = 0.80442 0.24939
# Poissons Ratio (y) = 0.75622 -0.08385
# Poissons Ratio (z) = 0.08800 -0.03147
#
# Static dielectric constant tensor:
#      x y z
#    x 1.782300 0.000000 0.005010 
#    y 0.000000 1.841320 0.000000 
#    z 0.005010 0.000000 1.872890 
# 
# From -- ./inp_files/303091.got.cif
#   From: 2010.05.17/outbox.cif.g08.bks.cpg/sg12_152_cif.got.tgz:303091.got - 2010.06.03 13:09:07.
