data_PCOD9206135
_publ_section_title
;
Structure prediction by ZEFSAII (Michael W. Deem and Ramdas Pophale) SiO2 
 PCOD9206135
Probable space group: C 2/M
;
_chemical_formula_sum "Si O2"
_cell_formula_units_Z 48
_cell_length_a 10.593623
_cell_length_b 8.458164
_cell_length_c 27.546398
_cell_angle_alpha 90.000000
_cell_angle_beta 89.875332
_cell_angle_gamma 90.000000
_cell_volume 2468.223058
_symmetry_space_group_name_H-M "C 2/M"
_symmetry_group_IT_number 12
_symmetry_cell_setting 'monoclinic'
loop_
_space_group_symop_operation_xyz
x,y,z
-x,y,-z
-x,-y,-z
x,-y,z
1/2+x,1/2+y,z
1/2-x,1/2+y,-z
1/2-x,1/2-y,-z
1/2+x,1/2-y,z
loop_
_atom_site_type_symbol
_atom_site_label
_atom_site_fract_x
_atom_site_fract_y
_atom_site_fract_z
Si Si1 0.626628 0.191169 0.972310
Si Si2 0.633360 0.191191 0.306752
Si Si3 0.873313 0.310283 0.472015
Si Si4 0.135367 0.308826 0.860265
Si Si5 0.382650 0.191139 0.804992
Si Si6 0.386295 0.310361 0.362146
O O1 0.627545 0.243593 0.916258
O O2 0.627114 0.000000 0.972649
O O3 0.500000 0.244379 0.000000
O O4 0.750000 0.250000 0.000000
O O5 0.624603 0.244615 0.250894
O O6 0.513716 0.250062 0.337065
O O7 0.763906 0.243235 0.331591
O O8 0.631756 0.000000 0.307072
O O9 0.871608 0.500000 0.471606
O O10 0.750000 0.250000 0.500000
O O11 0.875880 0.249538 0.417066
O O12 0.000000 0.258028 0.500000
O O13 0.136543 0.500000 0.859892
O O14 0.261864 0.248987 0.834775
O O15 0.011894 0.255871 0.830615
O O16 0.382019 0.000000 0.805123
O O17 0.387275 0.500000 0.362435
#
# Coordination Sequence:
#
# PCOD9206135 Si02
#       6
#     8   8   8   8   8   8
#     4  10  21  37  56  80 111 145 184 230 278 331
#     4  10  22  39  58  84 116 148 186 230 276 330
#     4  11  24  41  61  86 116 150 190 235 281 332
#     4  10  21  36  56  83 111 143 186 231 276 330
#     4  10  21  38  59  82 112 149 185 227 279 330
#     4  11  23  38  59  87 116 149 189 230 277 333
#
# _framework density 19.447189999999999
#
# number of rings (size 3 to 8) (size 9 to 14) (size 15 to 20)
#    0.000    1.667    0.000    4.000    0.000   10.333 
#    0.000    0.000    0.000    0.000    0.000    0.000 
#    0.000    0.000    0.000    0.000    0.000    0.000 
#
# Total GULP energy -134195.943898 kJ/mol
# GULP energy per Si atom -5591.497662 kJ/mol
# Density = 1.940293 g / cm^3
# Si number density = 19.447190 Si / 1000 Ang^3
#
#
#
# Elastic Constant Matrix: (Units=GPa)
#
#
# Indices 1 2 3 4 5 6 
#
# 1 62.9231 -15.2885 -36.1506 0.0000 2.2229 0.0000
# 2 -15.2885 -0.1509 -14.9299 0.0000 3.4337 0.0000
# 3 -36.1506 -14.9299 53.4691 0.0000 1.5623 0.0000
# 4 0.0000 0.0000 0.0000 27.7212 0.0000 -6.0897
# 5 2.2229 3.4337 1.5623 0.0000 47.1707 0.0000
# 6 0.0000 0.0000 0.0000 -6.0897 0.0000 36.0081
#
#
#
# Elastic Compliance Matrix: (Units=1/GPa)
#
#
# Indices 1 2 3 4 5 6 
#
# 1 0.005551 -0.030705 -0.004883 0.000000 0.002135 0.000000
# 2 -0.030705 -0.045789 -0.033718 0.000000 0.005897 0.000000
# 3 -0.004883 -0.033718 0.005913 0.000000 0.002489 0.000000
# 4 0.000000 0.000000 0.000000 0.037465 0.000000 0.006336
# 5 0.002135 0.005897 0.002489 0.000000 0.020587 0.000000
# 6 0.000000 0.000000 0.000000 0.006336 0.000000 0.028843
#
#
# Mechanical properties :
#
#
# Convention : Reuss Voigt Hill
#
# Bulk Modulus (GPa) = -5.78247 -1.83298 -3.80773
# Shear Modulus (GPa) = 37.44263 34.35401 35.89832
#
# Velocity S-wave (km/s) = 4.39264 4.20757 4.30110
# Velocity P-wave (km/s) = 4.76940 4.76028 4.76484
#
# Compressibility (1/GPa) = -0.17293633
#
# Stress axis : x y z
#
# Youngs Moduli (GPa) = 180.14370 -21.83924 169.10568
#
# Poissons Ratio (x) = -0.67058 0.82574
# Poissons Ratio (y) = 5.53136 5.70185
# Poissons Ratio (z) = 0.87963 -0.73637
#
# Static dielectric constant tensor:
#      x y z
#    x 1.636890 0.000000 0.020760 
#    y 0.000000 1.675080 0.000000 
#    z 0.020760 0.000000 1.649390 
# 
# From -- ./inp_files/334653.got.cif
#   From: 2010.05.17/outbox.cif.g08.bks.cpg/sg12_168_cif.got.tgz:334653.got - 2010.06.03 13:09:07.
