data_PCOD9206800
_publ_section_title
;
Structure prediction by ZEFSAII (Michael W. Deem and Ramdas Pophale) SiO2 
 PCOD9206800
Probable space group: C 2/M
;
_chemical_formula_sum "Si O2"
_cell_formula_units_Z 52
_cell_length_a 18.554725
_cell_length_b 21.773198
_cell_length_c 6.957400
_cell_angle_alpha 90.000000
_cell_angle_beta 128.487754
_cell_angle_gamma 90.000000
_cell_volume 2200.097389
_symmetry_space_group_name_H-M "C 2/M"
_symmetry_group_IT_number 12
_symmetry_cell_setting 'monoclinic'
loop_
_space_group_symop_operation_xyz
x,y,z
-x,y,-z
-x,-y,-z
x,-y,z
1/2+x,1/2+y,z
1/2-x,1/2+y,-z
1/2-x,1/2-y,-z
1/2+x,1/2-y,z
loop_
_atom_site_type_symbol
_atom_site_label
_atom_site_fract_x
_atom_site_fract_y
_atom_site_fract_z
Si Si1 0.017214 0.366790 0.754615
Si Si2 0.481313 0.730163 0.177977
Si Si3 0.483265 0.000000 0.241634
Si Si4 0.213583 0.202207 0.278994
Si Si5 0.281761 0.000000 0.024226
Si Si6 0.583482 0.500000 0.488948
Si Si7 0.285260 0.132975 0.054609
Si Si8 0.375592 0.366103 0.525909
O O1 0.983343 0.300418 0.764902
O O2 0.982395 0.433040 0.770519
O O3 0.000000 0.367461 0.500000
O O4 0.127856 0.363101 0.943490
O O5 0.548858 0.685677 0.404234
O O6 0.500000 0.703557 0.000000
O O7 0.370924 0.726964 0.995065
O O8 0.500000 0.000000 0.500000
O O9 0.372034 0.000000 0.036970
O O10 0.250000 0.250000 0.500000
O O11 0.175875 0.149399 0.359143
O O12 0.284012 0.178454 0.233772
O O13 0.287891 0.063897 0.145700
O O14 0.184860 0.000000 0.754841
O O15 0.500000 0.500000 0.500000
O O16 0.580727 0.433803 0.382310
O O17 0.196972 0.136810 0.770392
#
# Coordination Sequence:
#
# PCOD9206800 Si02
#       8
#     8   8   4   8   4   4   8   8
#     4  10  21  36  64  89 119 162 207 262 328 385
#     4  10  24  40  57  90 130 165 210 268 315 391
#     4   8  16  36  58  89 118 149 208 267 315 390
#     4  11  25  41  60  91 130 163 218 270 314 388
#     4   8  18  37  61  94 122 157 210 264 319 388
#     4  10  22  39  67  97 131 176 225 273 317 404
#     4  10  22  40  67  92 123 167 212 263 328 388
#     4  10  24  44  64  93 133 171 217 270 329 384
#
# _framework density 23.635316
#
# number of rings (size 3 to 8) (size 9 to 14) (size 15 to 20)
#    0.000    2.154    0.000    0.923   10.769    1.846 
#    0.000    3.846    0.000    0.923    0.000    0.000 
#    0.000    0.000    0.000    0.000    0.000    0.000 
#
# Total GULP energy -144814.373008 kJ/mol
# GULP energy per Si atom -5569.783577 kJ/mol
# Density = 2.358152 g / cm^3
# Si number density = 23.635316 Si / 1000 Ang^3
#
#
#
# Elastic Constant Matrix: (Units=GPa)
#
#
# Indices 1 2 3 4 5 6 
#
# 1 19.1952 10.8903 1.3263 0.0000 -8.3738 0.0000
# 2 10.8903 172.8487 31.5745 0.0000 11.5380 0.0000
# 3 1.3263 31.5745 93.0920 0.0000 10.0138 0.0000
# 4 0.0000 0.0000 0.0000 15.8560 0.0000 -1.8729
# 5 -8.3738 11.5380 10.0138 0.0000 38.1956 0.0000
# 6 0.0000 0.0000 0.0000 -1.8729 0.0000 39.0093
#
#
#
# Elastic Compliance Matrix: (Units=1/GPa)
#
#
# Indices 1 2 3 4 5 6 
#
# 1 0.061435 -0.004716 -0.000903 0.000000 0.015130 0.000000
# 2 -0.004716 0.006598 -0.001899 0.000000 -0.002529 0.000000
# 3 -0.000903 -0.001899 0.011688 0.000000 -0.002689 0.000000
# 4 0.000000 0.000000 0.000000 0.063427 0.000000 0.003045
# 5 0.015130 -0.002529 -0.002689 0.000000 0.030967 0.000000
# 6 0.000000 0.000000 0.000000 0.003045 0.000000 0.025781
#
#
# Mechanical properties :
#
#
# Convention : Reuss Voigt Hill
#
# Bulk Modulus (GPa) = 15.45938 41.41313 28.43626
# Shear Modulus (GPa) = 21.14221 34.70182 27.92201
#
# Velocity S-wave (km/s) = 2.99409 3.83589 3.44083
# Velocity P-wave (km/s) = 4.30207 6.09742 5.27666
#
# Compressibility (1/GPa) = 0.06468563
#
# Stress axis : x y z
#
# Youngs Moduli (GPa) = 16.27747 151.55687 85.55674
#
# Poissons Ratio (x) = 0.71469 0.07729
# Poissons Ratio (y) = 0.07676 0.16245
# Poissons Ratio (z) = 0.01470 0.28776
#
# Static dielectric constant tensor:
#      x y z
#    x 1.554670 0.000000 -0.028600 
#    y 0.000000 1.984130 0.000000 
#    z -0.028600 0.000000 1.966220 
# 
# From -- ./inp_files/99185.got.cif
#   From: 2010.05.17/outbox.cif.g08.bks.cpg/sg12_50_cif.got.tgz:99185.got - 2010.06.03 13:09:07.
