data_PCOD9206209
_publ_section_title
;
Structure prediction by ZEFSAII (Michael W. Deem and Ramdas Pophale) SiO2 
 PCOD9206209
Probable space group: C 2/M
;
_chemical_formula_sum "Si O2"
_cell_formula_units_Z 56
_cell_length_a 28.134257
_cell_length_b 8.957483
_cell_length_c 11.982398
_cell_angle_alpha 90.000000
_cell_angle_beta 70.966552
_cell_angle_gamma 90.000000
_cell_volume 2854.617135
_symmetry_space_group_name_H-M "C 2/M"
_symmetry_group_IT_number 12
_symmetry_cell_setting 'monoclinic'
loop_
_space_group_symop_operation_xyz
x,y,z
-x,y,-z
-x,-y,-z
x,-y,z
1/2+x,1/2+y,z
1/2-x,1/2+y,-z
1/2-x,1/2-y,-z
1/2+x,1/2-y,z
loop_
_atom_site_type_symbol
_atom_site_label
_atom_site_fract_x
_atom_site_fract_y
_atom_site_fract_z
Si Si1 0.893785 0.828114 0.248775
Si Si2 0.411186 0.323581 0.801233
Si Si3 0.158445 0.168279 0.936204
Si Si4 0.003024 0.678786 0.865466
Si Si5 0.754195 0.825486 0.876155
Si Si6 0.806080 0.677943 0.456004
Si Si7 0.154951 0.676025 0.323792
O O1 0.884707 0.829802 0.122659
O O2 0.944432 0.735434 0.226272
O O3 0.844095 0.757024 0.341207
O O4 0.899240 0.000000 0.281951
O O5 0.419878 0.500000 0.782489
O O6 0.458257 0.247538 0.825942
O O7 0.392837 0.253466 0.698624
O O8 0.365206 0.304498 0.924743
O O9 0.199324 0.289375 0.870409
O O10 0.180833 0.000000 0.916780
O O11 0.000121 0.500000 0.863774
O O12 0.000000 0.722348 0.000000
O O13 0.796389 0.745327 0.772790
O O14 0.764230 0.000000 0.875256
O O15 0.750000 0.750000 0.000000
O O16 0.801242 0.500000 0.438373
O O17 0.750000 0.750000 0.500000
O O18 0.834088 0.697497 0.553939
O O19 0.151972 0.500000 0.303618
#
# Coordination Sequence:
#
# PCOD9206209 Si02
#       7
#     8   8   8   8   8   8   8
#     4  11  23  41  66  93 126 166 212 263 315 374
#     4  11  22  38  62  91 126 163 205 255 312 375
#     4  10  21  36  56  87 124 160 201 253 312 369
#     4  11  23  39  63  95 132 170 211 259 316 379
#     4  12  23  34  54  84 120 159 202 251 307 375
#     4  11  25  45  68  95 128 167 214 265 315 375
#     4  11  24  42  62  87 125 166 208 261 318 374
#
# _framework density 19.617342000000001
#
# number of rings (size 3 to 8) (size 9 to 14) (size 15 to 20)
#    0.000    1.000    2.857    4.286    0.000    8.000 
#    0.000    0.714    0.000    4.286    0.000    0.000 
#    0.000    0.000    0.000    0.000    0.000    0.000 
#
# Total GULP energy -156417.832758 kJ/mol
# GULP energy per Si atom -5586.351170 kJ/mol
# Density = 1.957269 g / cm^3
# Si number density = 19.617342 Si / 1000 Ang^3
#
#
#
# Elastic Constant Matrix: (Units=GPa)
#
#
# Indices 1 2 3 4 5 6 
#
# 1 123.9553 64.5990 22.0301 0.0000 2.9315 0.0000
# 2 64.5990 106.7518 45.5704 0.0000 10.0882 0.0000
# 3 22.0301 45.5704 53.7448 0.0000 -1.1390 0.0000
# 4 0.0000 0.0000 0.0000 24.2097 0.0000 -0.2791
# 5 2.9315 10.0882 -1.1390 0.0000 30.9439 0.0000
# 6 0.0000 0.0000 0.0000 -0.2791 0.0000 40.3028
#
#
#
# Elastic Compliance Matrix: (Units=1/GPa)
#
#
# Indices 1 2 3 4 5 6 
#
# 1 0.011990 -0.008354 0.002204 0.000000 0.001669 0.000000
# 2 -0.008354 0.021407 -0.014869 0.000000 -0.006735 0.000000
# 3 0.002204 -0.014869 0.030433 0.000000 0.005759 0.000000
# 4 0.000000 0.000000 0.000000 0.041309 0.000000 0.000286
# 5 0.001669 -0.006735 0.005759 0.000000 0.034566 0.000000
# 6 0.000000 0.000000 0.000000 0.000286 0.000000 0.024814
#
#
# Mechanical properties :
#
#
# Convention : Reuss Voigt Hill
#
# Bulk Modulus (GPa) = 45.89052 60.98343 53.43697
# Shear Modulus (GPa) = 23.38409 29.24143 26.31276
#
# Velocity S-wave (km/s) = 3.45630 3.86501 3.66635
# Velocity P-wave (km/s) = 6.27468 7.14644 6.72470
#
# Compressibility (1/GPa) = 0.02179099
#
# Stress axis : x y z
#
# Youngs Moduli (GPa) = 83.40312 46.71431 32.85948
#
# Poissons Ratio (x) = 0.39026 -0.07243
# Poissons Ratio (y) = 0.69676 0.48859
# Poissons Ratio (z) = -0.18383 0.69460
#
# Static dielectric constant tensor:
#      x y z
#    x 1.991860 0.000000 0.226880 
#    y 0.000000 1.677180 0.000000 
#    z 0.226880 0.000000 1.815870 
# 
# From -- ./inp_files/180830.got.cif
#   From: 2010.05.17/outbox.cif.g08.bks.cpg/sg12_91_cif.got.tgz:180830.got - 2010.06.03 13:09:07.
