data_PCOD9206897
_publ_section_title
;
Structure prediction by ZEFSAII (Michael W. Deem and Ramdas Pophale) SiO2 
 PCOD9206897
Probable space group: C 2/M
;
_chemical_formula_sum "Si O2"
_cell_formula_units_Z 56
_cell_length_a 8.294462
_cell_length_b 13.393033
_cell_length_c 30.597825
_cell_angle_alpha 90.000000
_cell_angle_beta 132.787996
_cell_angle_gamma 90.000000
_cell_volume 2494.469236
_symmetry_space_group_name_H-M "C 2/M"
_symmetry_group_IT_number 12
_symmetry_cell_setting 'monoclinic'
loop_
_space_group_symop_operation_xyz
x,y,z
-x,y,-z
-x,-y,-z
x,-y,z
1/2+x,1/2+y,z
1/2-x,1/2+y,-z
1/2-x,1/2-y,-z
1/2+x,1/2-y,z
loop_
_atom_site_type_symbol
_atom_site_label
_atom_site_fract_x
_atom_site_fract_y
_atom_site_fract_z
Si Si1 0.469402 0.318197 0.041290
Si Si2 0.941411 0.884272 0.408800
Si Si3 0.957575 0.385755 0.356739
Si Si4 0.410481 0.315602 0.124119
Si Si5 0.108810 0.380319 0.473257
Si Si6 0.285583 0.305225 0.287444
Si Si7 0.137716 0.801285 0.791330
O O1 0.446441 0.371702 0.084442
O O2 0.681521 0.245297 0.081061
O O3 0.500000 0.372715 0.000000
O O4 0.250000 0.250000 0.000000
O O5 0.716458 0.879341 0.393973
O O6 0.890582 0.849010 0.350370
O O7 0.142680 0.842248 0.474333
O O8 0.001412 0.000000 0.414215
O O9 0.884781 0.500000 0.339249
O O10 0.949170 0.345091 0.404906
O O11 0.842574 0.312415 0.302017
O O12 0.612781 0.237809 0.161804
O O13 0.409126 0.361641 0.172744
O O14 0.121146 0.500000 0.465486
O O15 0.000000 0.367588 0.500000
O O16 0.382807 0.349017 0.260655
O O17 0.021867 0.296797 0.238396
#
# Coordination Sequence:
#
# PCOD9206897 Si02
#       7
#     8   8   8   8   8   8   8
#     4   8  12  19  36  62  92 128 178 212 241 295
#     4  10  21  37  55  73  97 127 161 205 262 318
#     4  10  21  37  55  73  97 127 161 205 263 317
#     4   8  14  25  38  59  92 135 172 208 249 295
#     4   9  19  34  53  76  98 120 152 204 267 323
#     4  11  20  34  50  74  96 129 174 215 239 306
#     4   9  18  29  44  62  94 131 176 206 247 299
#
# _framework density 22.449663999999999
#
# number of rings (size 3 to 8) (size 9 to 14) (size 15 to 20)
#    0.000    2.714    1.429    0.429    2.000    2.286 
#    0.000    0.000    0.000    0.000    0.000    0.000 
#    0.000    0.000    0.000    0.000    0.000 4902.857 
#
# Total GULP energy -155887.240655 kJ/mol
# GULP energy per Si atom -5567.401452 kJ/mol
# Density = 2.239857 g / cm^3
# Si number density = 22.449664 Si / 1000 Ang^3
#
#
#
# Elastic Constant Matrix: (Units=GPa)
#
#
# Indices 1 2 3 4 5 6 
#
# 1 106.1016 6.1219 51.3390 0.0000 -29.8993 0.0000
# 2 6.1219 37.5678 16.1279 0.0000 0.3411 0.0000
# 3 51.3390 16.1279 114.4800 0.0000 -29.1250 0.0000
# 4 0.0000 0.0000 0.0000 -7.3006 0.0000 0.6215
# 5 -29.8993 0.3411 -29.1250 0.0000 71.7288 0.0000
# 6 0.0000 0.0000 0.0000 0.6215 0.0000 9.0267
#
#
#
# Elastic Compliance Matrix: (Units=1/GPa)
#
#
# Indices 1 2 3 4 5 6 
#
# 1 0.012711 -0.000019 -0.004851 0.000000 0.003329 0.000000
# 2 -0.000019 0.028581 -0.004522 0.000000 -0.001980 0.000000
# 3 -0.004851 -0.004522 0.012310 0.000000 0.002998 0.000000
# 4 0.000000 0.000000 0.000000 -0.136177 0.000000 0.009376
# 5 0.003329 -0.001980 0.002998 0.000000 0.016556 0.000000
# 6 0.000000 0.000000 0.000000 0.009376 0.000000 0.110137
#
#
# Mechanical properties :
#
#
# Convention : Reuss Voigt Hill
#
# Bulk Modulus (GPa) = 28.71975 45.03632 36.87804
# Shear Modulus (GPa) = 67.10716 26.99502 47.05109
#
# Velocity S-wave (km/s) = 5.47331 3.47143 4.58301
# Velocity P-wave (km/s) = 7.26386 6.01434 6.66843
#
# Compressibility (1/GPa) = 0.03481925
#
# Stress axis : x y z
#
# Youngs Moduli (GPa) = 78.67027 34.98863 81.23330
#
# Poissons Ratio (x) = 0.00067 0.39405
# Poissons Ratio (y) = 0.00151 0.36730
# Poissons Ratio (z) = 0.38161 0.15820
#
# Static dielectric constant tensor:
#      x y z
#    x 1.889110 0.000000 -0.026390 
#    y 0.000000 1.895720 0.000000 
#    z -0.026390 0.000000 1.925060 
# 
# From -- ./inp_files/332690.got.cif
#   From: 2010.05.17/outbox.cif.g08.bks.cpg/sg12_167_cif.got.tgz:332690.got - 2010.06.03 13:09:07.
