data_PCOD9206613
_publ_section_title
;
Structure prediction by ZEFSAII (Michael W. Deem and Ramdas Pophale) SiO2 
 PCOD9206613
Probable space group: C 2/M
;
_chemical_formula_sum "Si O2"
_cell_formula_units_Z 28
_cell_length_a 5.617841
_cell_length_b 30.474045
_cell_length_c 6.993673
_cell_angle_alpha 90.000000
_cell_angle_beta 76.293932
_cell_angle_gamma 90.000000
_cell_volume 1163.210779
_symmetry_space_group_name_H-M "C 2/M"
_symmetry_group_IT_number 12
_symmetry_cell_setting 'monoclinic'
loop_
_space_group_symop_operation_xyz
x,y,z
-x,y,-z
-x,-y,-z
x,-y,z
1/2+x,1/2+y,z
1/2-x,1/2+y,-z
1/2-x,1/2-y,-z
1/2+x,1/2-y,z
loop_
_atom_site_type_symbol
_atom_site_label
_atom_site_fract_x
_atom_site_fract_y
_atom_site_fract_z
Si Si1 0.500000 0.585794 0.500000
Si Si2 0.947407 0.370117 0.282913
Si Si3 0.764392 0.047943 0.181858
Si Si4 0.556556 0.228037 0.260142
O O1 0.346908 0.555562 0.385796
O O2 0.661780 0.617463 0.333656
O O3 0.096536 0.410552 0.170447
O O4 0.030672 0.322489 0.202564
O O5 0.000000 0.370080 0.500000
O O6 0.644328 0.000000 0.185910
O O7 0.000000 0.048453 0.000000
O O8 0.500000 0.229842 0.500000
O O9 0.333745 0.253841 0.199145
#
# Coordination Sequence:
#
# PCOD9206613 Si02
#       4
#     4   8   8   8
#     4  10  21  36  60  86 120 158 196 248 307 362
#     4   9  20  34  55  85 120 154 201 249 303 364
#     4  10  22  39  59  86 119 156 201 250 305 368
#     4   9  18  29  53  85 122 159 204 254 307 368
#
# _framework density 24.071304000000001
#
# number of rings (size 3 to 8) (size 9 to 14) (size 15 to 20)
#    0.000    2.571    0.000    0.429   14.000    7.429 
#    0.000    2.857    0.000    1.714    0.000    0.000 
#    0.000    0.000    0.000    0.000    0.000    0.000 
#
# Total GULP energy -78249.004643 kJ/mol
# GULP energy per Si atom -5589.214617 kJ/mol
# Density = 2.401652 g / cm^3
# Si number density = 24.071304 Si / 1000 Ang^3
#
#
#
# Elastic Constant Matrix: (Units=GPa)
#
#
# Indices 1 2 3 4 5 6 
#
# 1 117.6753 92.2715 41.9628 0.0000 -8.4245 0.0000
# 2 92.2715 264.7938 48.5141 0.0000 -38.7780 0.0000
# 3 41.9628 48.5141 86.4038 0.0000 5.5488 0.0000
# 4 0.0000 0.0000 0.0000-6775.5411 0.0000-6422.9356
# 5 -8.4245 -38.7780 5.5488 0.0000 51.8820 0.0000
# 6 0.0000 0.0000 0.0000-6422.9356 0.0000-6070.4334
#
#
#
# Elastic Compliance Matrix: (Units=1/GPa)
#
#
# Indices 1 2 3 4 5 6 
#
# 1 0.012920 -0.003789 -0.004129 0.000000 -0.000292 0.000000
# 2 -0.003789 0.006025 -0.001805 0.000000 0.004081 0.000000
# 3 -0.004129 -0.001805 0.014824 0.000000 -0.003605 0.000000
# 4 0.000000 0.000000 0.000000 0.049101 0.000000 -0.051953
# 5 -0.000292 0.004081 -0.003605 0.000000 0.022663 0.000000
# 6 0.000000 0.000000 0.000000 -0.051953 0.000000 0.054805
#
#
# Mechanical properties :
#
#
# Convention : Reuss Voigt Hill
#
# Bulk Modulus (GPa) = 69.81266 92.70774 81.26020
# Shear Modulus (GPa) = 27.09182 -2539.74352 -1256.32585
#
# Velocity S-wave (km/s) = 3.35846 -32.51742 -22.87032
# Velocity P-wave (km/s) = 6.64111 37.03033 25.75986
#
# Compressibility (1/GPa) = 0.01432405
#
# Stress axis : x y z
#
# Youngs Moduli (GPa) = 77.39937 165.97262 67.45897
#
# Poissons Ratio (x) = 0.62879 0.27852
# Poissons Ratio (y) = 0.29323 0.12177
# Poissons Ratio (z) = 0.31956 0.29961
#
# Static dielectric constant tensor:
#      x y z
#    x 1.948910 0.000000 -0.040330 
#    y 0.000000 1.878350 0.000000 
#    z -0.040330 0.000000 2.018370 
# 
# From -- ./inp_files/33996.got.cif
#   From: 2010.05.17/outbox.cif.g08.bks.cpg/sg12_17_cif.got.tgz:33996.got - 2010.06.03 13:09:07.
