data_PCOD9206778
_publ_section_title
;
Structure prediction by ZEFSAII (Michael W. Deem and Ramdas Pophale) SiO2 
 PCOD9206778
Probable space group: C 2/M
;
_chemical_formula_sum "Si O2"
_cell_formula_units_Z 34
_cell_length_a 7.662275
_cell_length_b 26.472157
_cell_length_c 11.242483
_cell_angle_alpha 90.000000
_cell_angle_beta 138.953434
_cell_angle_gamma 90.000000
_cell_volume 1497.469297
_symmetry_space_group_name_H-M "C 2/M"
_symmetry_group_IT_number 12
_symmetry_cell_setting 'monoclinic'
loop_
_space_group_symop_operation_xyz
x,y,z
-x,y,-z
-x,-y,-z
x,-y,z
1/2+x,1/2+y,z
1/2-x,1/2+y,-z
1/2-x,1/2-y,-z
1/2+x,1/2-y,z
loop_
_atom_site_type_symbol
_atom_site_label
_atom_site_fract_x
_atom_site_fract_y
_atom_site_fract_z
Si Si1 0.125530 0.637213 0.934718
Si Si2 0.626451 0.670327 0.308571
Si Si3 0.500000 0.000000 0.500000
Si Si4 0.688889 0.770806 0.808241
Si Si5 0.729810 0.915988 0.433765
O O1 0.070932 0.691967 0.847838
O O2 0.997784 0.597110 0.779946
O O3 0.439477 0.636962 0.123325
O O4 0.000000 0.632210 0.000000
O O5 0.455015 0.717482 0.269560
O O6 0.824398 0.697863 0.319606
O O7 0.706924 0.634014 0.456069
O O8 0.624430 0.956369 0.473709
O O9 0.000000 0.765660 0.000000
O O10 0.000000 0.929526 0.500000
#
# Coordination Sequence:
#
# PCOD9206778 Si02
#       5
#     8   8   2   8   8
#     4  11  21  42  67 103 145 180 228 269 329 415
#     4  11  22  42  66 105 146 189 230 267 332 408
#     4  12  30  60  72 104 132 162 238 322 370 402
#     4  10  21  36  63 101 154 198 218 271 316 397
#     4  12  27  48  80  98 133 184 230 297 357 411
#
# _framework density 22.704972000000001
#
# number of rings (size 3 to 8) (size 9 to 14) (size 15 to 20)
#    0.000    0.941    2.353    6.706    0.000    0.941 
#    0.000    2.941    0.000    0.000    0.000    0.000 
#    0.000    0.000    0.000    0.000    0.000    0.000 
#
# Total GULP energy -94864.394920 kJ/mol
# GULP energy per Si atom -5580.258525 kJ/mol
# Density = 2.265329 g / cm^3
# Si number density = 22.704972 Si / 1000 Ang^3
#
#
#
# Elastic Constant Matrix: (Units=GPa)
#
#
# Indices 1 2 3 4 5 6 
#
# 1 182.0658 91.9320 54.1954 0.0000 -37.7192 0.0000
# 2 91.9320 117.3763 43.9389 0.0000 -10.9310 0.0000
# 3 54.1954 43.9389 127.2405 0.0000 -28.0630 0.0000
# 4 0.0000 0.0000 0.0000 -6.3345 0.0000 -7.1624
# 5 -37.7192 -10.9310 -28.0630 0.0000 27.8412 0.0000
# 6 0.0000 0.0000 0.0000 -7.1624 0.0000 2.6789
#
#
#
# Elastic Compliance Matrix: (Units=1/GPa)
#
#
# Indices 1 2 3 4 5 6 
#
# 1 0.012833 -0.009014 0.000901 0.000000 0.014755 0.000000
# 2 -0.009014 0.016123 -0.003890 0.000000 -0.009804 0.000000
# 3 0.000901 -0.003890 0.011253 0.000000 0.011036 0.000000
# 4 0.000000 0.000000 0.000000 -0.039240 0.000000 -0.104914
# 5 0.014755 -0.009804 0.011036 0.000000 0.063183 0.000000
# 6 0.000000 0.000000 0.000000 -0.104914 0.000000 0.092787
#
#
# Mechanical properties :
#
#
# Convention : Reuss Voigt Hill
#
# Bulk Modulus (GPa) = 61.72199 89.64612 75.68406
# Shear Modulus (GPa) = 26.83184 20.61153 23.72168
#
# Velocity S-wave (km/s) = 3.44140 3.01624 3.23581
# Velocity P-wave (km/s) = 6.56006 7.19020 6.88235
#
# Compressibility (1/GPa) = 0.01620168
#
# Stress axis : x y z
#
# Youngs Moduli (GPa) = 77.92607 62.02296 88.86740
#
# Poissons Ratio (x) = 0.55908 -0.08009
# Poissons Ratio (y) = 0.70244 0.34573
# Poissons Ratio (z) = -0.07023 0.24130
#
# Static dielectric constant tensor:
#      x y z
#    x 1.931700 0.000000 0.059770 
#    y 0.000000 1.777170 0.000000 
#    z 0.059770 0.000000 1.962470 
# 
# From -- ./inp_files/123991.got.cif
#   From: 2010.05.17/outbox.cif.g08.bks.cpg/sg12_62_cif.got.tgz:123991.got - 2010.06.03 13:09:07.
