data_PCOD9206762
_publ_section_title
;
Structure prediction by ZEFSAII (Michael W. Deem and Ramdas Pophale) SiO2 
 PCOD9206762
Probable space group: C 2/M
;
_chemical_formula_sum "Si O2"
_cell_formula_units_Z 34
_cell_length_a 25.372755
_cell_length_b 7.387261
_cell_length_c 8.312942
_cell_angle_alpha 90.000000
_cell_angle_beta 114.495712
_cell_angle_gamma 90.000000
_cell_volume 1417.893263
_symmetry_space_group_name_H-M "C 2/M"
_symmetry_group_IT_number 12
_symmetry_cell_setting 'monoclinic'
loop_
_space_group_symop_operation_xyz
x,y,z
-x,y,-z
-x,-y,-z
x,-y,z
1/2+x,1/2+y,z
1/2-x,1/2+y,-z
1/2-x,1/2-y,-z
1/2+x,1/2-y,z
loop_
_atom_site_type_symbol
_atom_site_label
_atom_site_fract_x
_atom_site_fract_y
_atom_site_fract_z
Si Si1 0.587078 0.781463 0.655676
Si Si2 0.170741 0.209038 0.248092
Si Si3 0.000000 0.000000 0.500000
Si Si4 0.205988 0.717942 0.658171
Si Si5 0.949230 0.705312 0.040539
O O1 0.545476 0.660916 0.494131
O O2 0.654394 0.735846 0.713255
O O3 0.580698 0.000000 0.627917
O O4 0.567333 0.716024 0.807636
O O5 0.185651 0.221573 0.455504
O O6 0.228357 0.283300 0.232209
O O7 0.110471 0.300987 0.132674
O O8 0.163022 0.000000 0.193565
O O9 0.209743 0.500000 0.657677
O O10 0.968659 0.500000 0.101746
O O11 0.000000 0.791650 0.000000
#
# Coordination Sequence:
#
# PCOD9206762 Si02
#       5
#     8   8   2   8   8
#     4  10  24  43  63  90 127 164 205 254 307 366
#     4  10  21  36  62  92 121 156 206 259 300 367
#     4  12  26  40  66  98 120 164 210 256 300 378
#     4   9  20  40  61  88 122 162 203 250 313 360
#     4  10  23  41  59  85 122 164 202 249 316 367
#
# _framework density 23.979240000000001
#
# number of rings (size 3 to 8) (size 9 to 14) (size 15 to 20)
#    0.000    2.118    0.000    1.059    6.588    2.353 
#    0.000    0.000    0.000    0.000    0.000    0.000 
#    0.000    0.000    0.000    0.000    0.000    0.000 
#
# Total GULP energy -94702.638985 kJ/mol
# GULP energy per Si atom -5570.743470 kJ/mol
# Density = 2.392466 g / cm^3
# Si number density = 23.979240 Si / 1000 Ang^3
#
#
#
# Elastic Constant Matrix: (Units=GPa)
#
#
# Indices 1 2 3 4 5 6 
#
# 1 244.4091 38.7988 47.8277 0.0000 10.5031 0.0000
# 2 38.7988 113.2779 -5.4616 0.0000 1.6040 0.0000
# 3 47.8277 -5.4616 48.1806 0.0000 11.6253 0.0000
# 4 0.0000 0.0000 0.0000 21.8701 0.0000 43.4034
# 5 10.5031 1.6040 11.6253 0.0000 35.6645 0.0000
# 6 0.0000 0.0000 0.0000 43.4034 0.0000 78.0830
#
#
#
# Elastic Compliance Matrix: (Units=1/GPa)
#
#
# Indices 1 2 3 4 5 6 
#
# 1 0.005573 -0.002197 -0.005871 0.000000 0.000371 0.000000
# 2 -0.002197 0.009763 0.003514 0.000000 -0.000937 0.000000
# 3 -0.005871 0.003514 0.028874 0.000000 -0.007841 0.000000
# 4 0.000000 0.000000 0.000000 -0.443213 0.000000 0.246365
# 5 0.000371 -0.000937 -0.007841 0.000000 0.030528 0.000000
# 6 0.000000 0.000000 0.000000 0.246365 0.000000 -0.124138
#
#
# Mechanical properties :
#
#
# Convention : Reuss Voigt Hill
#
# Bulk Modulus (GPa) = 28.48890 63.13303 45.81097
# Shear Modulus (GPa) = -10.59761 48.77037 19.08638
#
# Velocity S-wave (km/s) = -2.10454 4.51472 2.82433
# Velocity P-wave (km/s) = 2.44969 7.31863 5.45726
#
# Compressibility (1/GPa) = 0.03510139
#
# Stress axis : x y z
#
# Youngs Moduli (GPa) = 179.42910 102.42632 34.63382
#
# Poissons Ratio (x) = 0.22505 0.20334
# Poissons Ratio (y) = 0.39424 -0.12170
# Poissons Ratio (z) = 1.05344 -0.35993
#
# Static dielectric constant tensor:
#      x y z
#    x 1.960450 0.000000 0.004080 
#    y 0.000000 1.816130 0.000000 
#    z 0.004080 0.000000 2.028260 
# 
# From -- ./inp_files/101313.got.cif
#   From: 2010.05.17/outbox.cif.g08.bks.cpg/sg12_51_cif.got.tgz:101313.got - 2010.06.03 13:09:07.
