data_PCOD9206486
_publ_section_title
;
Structure prediction by ZEFSAII (Michael W. Deem and Ramdas Pophale) SiO2 
 PCOD9206486
Probable space group: C 2/M
;
_chemical_formula_sum "Si O2"
_cell_formula_units_Z 56
_cell_length_a 18.874764
_cell_length_b 21.877580
_cell_length_c 8.511264
_cell_angle_alpha 90.000000
_cell_angle_beta 132.097177
_cell_angle_gamma 90.000000
_cell_volume 2607.858184
_symmetry_space_group_name_H-M "C 2/M"
_symmetry_group_IT_number 12
_symmetry_cell_setting 'monoclinic'
loop_
_space_group_symop_operation_xyz
x,y,z
-x,y,-z
-x,-y,-z
x,-y,z
1/2+x,1/2+y,z
1/2-x,1/2+y,-z
1/2-x,1/2-y,-z
1/2+x,1/2-y,z
loop_
_atom_site_type_symbol
_atom_site_label
_atom_site_fract_x
_atom_site_fract_y
_atom_site_fract_z
Si Si1 0.329244 0.565261 0.491202
Si Si2 0.409297 0.684427 0.989574
Si Si3 0.458984 0.568842 0.262220
Si Si4 0.784283 0.339523 0.473940
Si Si5 0.902735 0.682959 0.934347
Si Si6 0.603273 0.070027 0.572193
Si Si7 0.190835 0.431382 0.028960
O O1 0.292459 0.500000 0.492301
O O2 0.440588 0.566851 0.682297
O O3 0.275676 0.615343 0.506155
O O4 0.296655 0.570558 0.260554
O O5 0.411924 0.629555 0.120603
O O6 0.500000 0.676538 0.000000
O O7 0.300090 0.683659 0.763070
O O8 0.420788 0.755241 0.060033
O O9 0.500000 0.575502 0.500000
O O10 0.415276 0.500000 0.179920
O O11 0.837895 0.299436 0.685038
O O12 0.864136 0.378718 0.500787
O O13 0.861620 0.626263 0.971060
O O14 0.000000 0.661685 0.000000
O O15 0.500000 0.080955 0.500000
O O16 0.601478 0.000000 0.507181
O O17 0.680090 0.072634 0.827637
O O18 0.152199 0.500000 0.012372
#
# Coordination Sequence:
#
# PCOD9206486 Si02
#       7
#     8   8   8   8   8   8   8
#     4   9  18  34  57  88 121 159 203 251 307 378
#     4  11  23  41  61  92 129 168 213 263 312 378
#     4  10  22  39  62  92 129 166 206 258 316 376
#     4  11  21  37  62  88 122 168 211 259 316 379
#     4  10  22  40  62  87 122 167 215 263 318 378
#     4  10  21  36  58  91 127 158 204 269 326 373
#     4   9  19  36  59  85 120 158 203 262 320 377
#
# _framework density 21.473561
#
# number of rings (size 3 to 8) (size 9 to 14) (size 15 to 20)
#    0.000    2.000    1.429    1.714    2.000    2.286 
#    0.000    4.286    0.000    0.000    0.000    0.000 
#    0.000    0.000    0.000    0.000    0.000    0.000 
#
# Total GULP energy -155868.272949 kJ/mol
# GULP energy per Si atom -5566.724034 kJ/mol
# Density = 2.142469 g / cm^3
# Si number density = 21.473561 Si / 1000 Ang^3
#
#
#
# Elastic Constant Matrix: (Units=GPa)
#
#
# Indices 1 2 3 4 5 6 
#
# 1 53.2579 33.9374 1.0710 0.0000 8.2105 0.0000
# 2 33.9374 150.6141 39.8351 0.0000 -12.8721 0.0000
# 3 1.0710 39.8351 47.6880 0.0000 1.8851 0.0000
# 4 0.0000 0.0000 0.0000 31.6798 0.0000 -8.2573
# 5 8.2105 -12.8721 1.8851 0.0000 24.8825 0.0000
# 6 0.0000 0.0000 0.0000 -8.2573 0.0000 27.2299
#
#
#
# Elastic Compliance Matrix: (Units=1/GPa)
#
#
# Indices 1 2 3 4 5 6 
#
# 1 0.026718 -0.009272 0.007706 0.000000 -0.014197 0.000000
# 2 -0.009272 0.012398 -0.010554 0.000000 0.010273 0.000000
# 3 0.007706 -0.010554 0.030019 0.000000 -0.010277 0.000000
# 4 0.000000 0.000000 0.000000 0.034275 0.000000 0.010394
# 5 -0.014197 0.010273 -0.010277 0.000000 0.050966 0.000000
# 6 0.000000 0.000000 0.000000 0.010394 0.000000 0.039876
#
#
# Mechanical properties :
#
#
# Convention : Reuss Voigt Hill
#
# Bulk Modulus (GPa) = 22.27386 44.58300 33.42843
# Shear Modulus (GPa) = 21.41710 28.53954 24.97832
#
# Velocity S-wave (km/s) = 3.16154 3.64958 3.41429
# Velocity P-wave (km/s) = 4.87056 6.21016 5.58070
#
# Compressibility (1/GPa) = 0.04489567
#
# Stress axis : x y z
#
# Youngs Moduli (GPa) = 37.42733 80.65765 33.31211
#
# Poissons Ratio (x) = 0.74784 -0.25671
# Poissons Ratio (y) = 0.34702 0.35159
# Poissons Ratio (z) = -0.28842 0.85129
#
# Static dielectric constant tensor:
#      x y z
#    x 1.796410 0.000000 0.014780 
#    y 0.000000 1.775880 0.000000 
#    z 0.014780 0.000000 1.938270 
# 
# From -- ./inp_files/89655.got.cif
#   From: 2010.05.17/outbox.cif.g08.bks.cpg/sg12_45_cif.got.tgz:89655.got - 2010.06.03 13:09:07.
