data_PCOD9206327
_publ_section_title
;
Structure prediction by ZEFSAII (Michael W. Deem and Ramdas Pophale) SiO2 
 PCOD9206327
Probable space group: C 2/M
;
_chemical_formula_sum "Si O2"
_cell_formula_units_Z 36
_cell_length_a 14.682125
_cell_length_b 9.585039
_cell_length_c 13.084509
_cell_angle_alpha 90.000000
_cell_angle_beta 116.804032
_cell_angle_gamma 90.000000
_cell_volume 1643.519173
_symmetry_space_group_name_H-M "C 2/M"
_symmetry_group_IT_number 12
_symmetry_cell_setting 'monoclinic'
loop_
_space_group_symop_operation_xyz
x,y,z
-x,y,-z
-x,-y,-z
x,-y,z
1/2+x,1/2+y,z
1/2-x,1/2+y,-z
1/2-x,1/2-y,-z
1/2+x,1/2-y,z
loop_
_atom_site_type_symbol
_atom_site_label
_atom_site_fract_x
_atom_site_fract_y
_atom_site_fract_z
Si Si1 0.787070 0.658490 0.307146
Si Si2 0.735836 0.158753 0.094496
Si Si3 0.951760 0.153914 0.767699
Si Si4 0.000000 0.288817 0.000000
Si Si5 0.596113 0.339005 0.474511
O O1 0.828550 0.500000 0.315816
O O2 0.797588 0.760172 0.214840
O O3 0.665788 0.644477 0.257654
O O4 0.827351 0.737109 0.428008
O O5 0.614704 0.148378 0.062808
O O6 0.770755 0.000000 0.097985
O O7 0.750000 0.250000 0.000000
O O8 0.007584 0.212230 0.894556
O O9 0.943461 0.223854 0.652739
O O10 0.992839 0.000000 0.767585
O O11 0.500000 0.349521 0.500000
O O12 0.635659 0.500000 0.478908
#
# Coordination Sequence:
#
# PCOD9206327 Si02
#       5
#     8   8   8   4   8
#     4  10  21  39  60  86 118 158 207 256 309 369
#     4  11  24  42  65  94 129 168 210 260 315 376
#     4   9  19  36  59  87 121 162 205 252 309 372
#     4  10  22  40  64  94 127 168 213 260 311 374
#     4  10  21  36  57  87 121 159 203 254 311 370
#
# _framework density 21.904216000000002
#
# number of rings (size 3 to 8) (size 9 to 14) (size 15 to 20)
#    0.000    2.000    0.000    2.667    3.111    3.111 
#    0.000    5.556    0.000    0.000    0.000    0.000 
#    0.000    0.000    0.000    0.000    0.000    0.000 
#
# Total GULP energy -100289.711560 kJ/mol
# GULP energy per Si atom -5571.650642 kJ/mol
# Density = 2.185436 g / cm^3
# Si number density = 21.904216 Si / 1000 Ang^3
#
#
#
# Elastic Constant Matrix: (Units=GPa)
#
#
# Indices 1 2 3 4 5 6 
#
# 1 41.8595 13.5770 -3.0088 0.0000 11.8055 0.0000
# 2 13.5770 146.2394 87.9049 0.0000 5.2265 0.0000
# 3 -3.0088 87.9049 215.9113 0.0000 -6.4081 0.0000
# 4 0.0000 0.0000 0.0000 8.7231 0.0000 -23.7027
# 5 11.8055 5.2265 -6.4081 0.0000 43.4418 0.0000
# 6 0.0000 0.0000 0.0000 -23.7027 0.0000 -4.3572
#
#
#
# Elastic Compliance Matrix: (Units=1/GPa)
#
#
# Indices 1 2 3 4 5 6 
#
# 1 0.026904 -0.003129 0.001449 0.000000 -0.006721 0.000000
# 2 -0.003129 0.009536 -0.003952 0.000000 -0.000880 0.000000
# 3 0.001449 -0.003952 0.006291 0.000000 0.001010 0.000000
# 4 0.000000 0.000000 0.000000 0.007264 0.000000 -0.039516
# 5 -0.006721 -0.000880 0.001010 0.000000 0.025101 0.000000
# 6 0.000000 0.000000 0.000000 -0.039516 0.000000 -0.014543
#
#
# Mechanical properties :
#
#
# Convention : Reuss Voigt Hill
#
# Bulk Modulus (GPa) = 31.77904 66.77293 49.27599
# Shear Modulus (GPa) = 60.75022 29.93066 45.34044
#
# Velocity S-wave (km/s) = 5.27207 3.70054 4.55460
# Velocity P-wave (km/s) = 7.18326 6.98634 7.08548
#
# Compressibility (1/GPa) = 0.03146728
#
# Stress axis : x y z
#
# Youngs Moduli (GPa) = 37.16927 104.87045 158.96541
#
# Poissons Ratio (x) = 0.32811 -0.23038
# Poissons Ratio (y) = 0.11629 0.62823
# Poissons Ratio (z) = -0.05387 0.41445
#
# Static dielectric constant tensor:
#      x y z
#    x 1.839030 0.000000 0.015300 
#    y 0.000000 1.838340 0.000000 
#    z 0.015300 0.000000 1.836220 
# 
# From -- ./inp_files/152084.got.cif
#   From: 2010.05.17/outbox.cif.g08.bks.cpg/sg12_77_cif.got.tgz:152084.got - 2010.06.03 13:09:07.
