data_PCOD9206945
_publ_section_title
;
Structure prediction by ZEFSAII (Michael W. Deem and Ramdas Pophale) SiO2 
 PCOD9206945
Probable space group: C 2/M
;
_chemical_formula_sum "Si O2"
_cell_formula_units_Z 48
_cell_length_a 14.826532
_cell_length_b 8.415280
_cell_length_c 25.011703
_cell_angle_alpha 90.000000
_cell_angle_beta 40.787498
_cell_angle_gamma 90.000000
_cell_volume 2038.611308
_symmetry_space_group_name_H-M "C 2/M"
_symmetry_group_IT_number 12
_symmetry_cell_setting 'monoclinic'
loop_
_space_group_symop_operation_xyz
x,y,z
-x,y,-z
-x,-y,-z
x,-y,z
1/2+x,1/2+y,z
1/2-x,1/2+y,-z
1/2-x,1/2-y,-z
1/2+x,1/2-y,z
loop_
_atom_site_type_symbol
_atom_site_label
_atom_site_fract_x
_atom_site_fract_y
_atom_site_fract_z
Si Si1 0.294396 0.684247 0.119244
Si Si2 0.054278 0.314584 0.051876
Si Si3 0.450401 0.313406 0.830531
Si Si4 0.969791 0.191396 0.381983
Si Si5 0.219599 0.188473 0.435324
Si Si6 0.242829 0.189472 0.304918
O O1 0.301100 0.500000 0.130606
O O2 0.390202 0.783496 0.116711
O O3 0.139021 0.739180 0.177207
O O4 0.369511 0.714853 0.028163
O O5 0.083053 0.500000 0.030393
O O6 0.095221 0.261467 0.092417
O O7 0.424927 0.500000 0.842231
O O8 0.612502 0.277290 0.756927
O O9 0.885739 0.249406 0.472428
O O10 0.870434 0.239325 0.378519
O O11 0.127517 0.247717 0.314969
O O12 0.977834 0.000000 0.380421
O O13 0.176332 0.210238 0.393758
O O14 0.231673 0.000000 0.438398
O O15 0.269993 0.000000 0.285303
#
# Coordination Sequence:
#
# PCOD9206945 Si02
#       6
#     8   8   8   8   8   8
#     4  11  22  40  64  90 117 149 190 236 285 337
#     4  11  22  40  64  90 117 149 190 236 285 337
#     4  12  25  40  57  83 118 156 195 236 285 339
#     4   9  18  34  57  82 108 141 183 230 280 335
#     4   9  18  34  57  82 108 141 183 230 280 335
#     4  10  21  37  55  78 111 150 188 228 281 341
#
# _framework density 23.545438999999998
#
# number of rings (size 3 to 8) (size 9 to 14) (size 15 to 20)
#    0.000    1.667    0.000    6.500    0.000    4.667 
#    0.000    3.333    0.000    5.000    0.000    0.000 
#    0.000    0.000    0.000    0.000    0.000    0.000 
#
# Total GULP energy -134282.069968 kJ/mol
# GULP energy per Si atom -5595.086249 kJ/mol
# Density = 2.349185 g / cm^3
# Si number density = 23.545439 Si / 1000 Ang^3
#
#
#
# Elastic Constant Matrix: (Units=GPa)
#
#
# Indices 1 2 3 4 5 6 
#
# 1 115.6755 19.1070 16.2216 0.0000 -29.8239 0.0000
# 2 19.1070 52.1862 -5.6758 0.0000 -2.2492 0.0000
# 3 16.2216 -5.6758 58.2903 0.0000 -22.0000 0.0000
# 4 0.0000 0.0000 0.0000 19.7313 0.0000 -3.6402
# 5 -29.8239 -2.2492 -22.0000 0.0000 42.3787 0.0000
# 6 0.0000 0.0000 0.0000 -3.6402 0.0000 30.8358
#
#
#
# Elastic Compliance Matrix: (Units=1/GPa)
#
#
# Indices 1 2 3 4 5 6 
#
# 1 0.011288 -0.003897 -0.000747 0.000000 0.007349 0.000000
# 2 -0.003897 0.020928 0.003117 0.000000 -0.000014 0.000000
# 3 -0.000747 0.003117 0.021803 0.000000 0.010958 0.000000
# 4 0.000000 0.000000 0.000000 0.051809 0.000000 0.006116
# 5 0.007349 -0.000014 0.010958 0.000000 0.034457 0.000000
# 6 0.000000 0.000000 0.000000 0.006116 0.000000 0.033152
#
#
# Mechanical properties :
#
#
# Convention : Reuss Voigt Hill
#
# Bulk Modulus (GPa) = 19.62185 31.71752 25.66968
# Shear Modulus (GPa) = 25.84254 31.68910 28.76582
#
# Velocity S-wave (km/s) = 3.31654 3.67259 3.49910
# Velocity P-wave (km/s) = 4.79767 5.61105 5.22023
#
# Compressibility (1/GPa) = 0.05096361
#
# Stress axis : x y z
#
# Youngs Moduli (GPa) = 88.58747 47.78387 45.86581
#
# Poissons Ratio (x) = 0.18624 0.03427
# Poissons Ratio (y) = 0.34527 -0.14297
# Poissons Ratio (z) = 0.06618 -0.14895
#
# Static dielectric constant tensor:
#      x y z
#    x 1.876120 0.000000 -0.020170 
#    y 0.000000 1.789790 0.000000 
#    z -0.020170 0.000000 1.980140 
# 
# From -- ./inp_files/360221.got.cif
#   From: 2010.05.17/outbox.cif.g08.bks.cpg/sg12_181_cif.got.tgz:360221.got - 2010.06.03 13:09:07.
