data_PCOD9206448
_publ_section_title
;
Structure prediction by ZEFSAII (Michael W. Deem and Ramdas Pophale) SiO2 
 PCOD9206448
Probable space group: C 2/M
;
_chemical_formula_sum "Si O2"
_cell_formula_units_Z 50
_cell_length_a 14.623477
_cell_length_b 7.707902
_cell_length_c 17.990806
_cell_angle_alpha 90.000000
_cell_angle_beta 71.809862
_cell_angle_gamma 90.000000
_cell_volume 1926.517018
_symmetry_space_group_name_H-M "C 2/M"
_symmetry_group_IT_number 12
_symmetry_cell_setting 'monoclinic'
loop_
_space_group_symop_operation_xyz
x,y,z
-x,y,-z
-x,-y,-z
x,-y,z
1/2+x,1/2+y,z
1/2-x,1/2+y,-z
1/2-x,1/2-y,-z
1/2+x,1/2-y,z
loop_
_atom_site_type_symbol
_atom_site_label
_atom_site_fract_x
_atom_site_fract_y
_atom_site_fract_z
Si Si1 0.000000 0.500000 0.000000
Si Si2 0.060376 0.301511 0.551963
Si Si3 0.850921 0.297367 0.840100
Si Si4 0.702990 0.204506 0.627881
Si Si5 0.381154 0.701517 0.669100
Si Si6 0.652853 0.295198 0.945066
Si Si7 0.570244 0.701282 0.799028
O O1 0.081355 0.653687 0.997359
O O2 0.082181 0.500000 0.525652
O O3 0.980611 0.301664 0.637492
O O4 0.000000 0.219177 0.500000
O O5 0.152421 0.217907 0.567766
O O6 0.832484 0.500000 0.834358
O O7 0.839819 0.213004 0.761969
O O8 0.765521 0.239266 0.916308
O O9 0.962148 0.272532 0.832752
O O10 0.805197 0.274645 0.628875
O O11 0.633579 0.218965 0.717180
O O12 0.715738 0.000000 0.610868
O O13 0.399958 0.500000 0.648982
O O14 0.639331 0.500000 0.970453
O O15 0.622613 0.283974 0.864842
O O16 0.560234 0.500000 0.782062
#
# Coordination Sequence:
#
# PCOD9206448 Si02
#       7
#     2   8   8   8   8   8   8
#     4  12  26  44  80  90 140 178 210 256 328 374
#     4  10  22  40  58  81 121 173 215 258 324 387
#     4  11  22  38  64  94 128 161 210 267 318 371
#     4  10  21  36  58  88 123 162 210 263 319 382
#     4  11  22  35  58  91 122 158 213 268 317 376
#     4  10  25  45  68  99 132 174 217 259 317 392
#     4  11  22  37  64  97 128 158 212 270 315 368
#
# _framework density 25.953572000000001
#
# number of rings (size 3 to 8) (size 9 to 14) (size 15 to 20)
#    0.000    1.440    3.200    1.680    4.480    1.600 
#    0.000    0.800    0.000    0.000    0.000    0.000 
#    0.000    0.000    0.000    0.000    0.000    0.000 
#
# Total GULP energy -139666.246794 kJ/mol
# GULP energy per Si atom -5586.649872 kJ/mol
# Density = 2.589450 g / cm^3
# Si number density = 25.953572 Si / 1000 Ang^3
#
#
#
# Elastic Constant Matrix: (Units=GPa)
#
#
# Indices 1 2 3 4 5 6 
#
# 1 121.0593 26.1530 26.3620 0.0000 -23.6035 0.0000
# 2 26.1530 88.1510 13.2060 0.0000 -7.4386 0.0000
# 3 26.3620 13.2060 68.8760 0.0000 4.8905 0.0000
# 4 0.0000 0.0000 0.0000 16.8595 0.0000 -11.9873
# 5 -23.6035 -7.4386 4.8905 0.0000 40.6991 0.0000
# 6 0.0000 0.0000 0.0000 -11.9873 0.0000 24.9821
#
#
#
# Elastic Compliance Matrix: (Units=1/GPa)
#
#
# Indices 1 2 3 4 5 6 
#
# 1 0.010881 -0.002051 -0.004229 0.000000 0.006444 0.000000
# 2 -0.002051 0.012308 -0.001664 0.000000 0.001260 0.000000
# 3 -0.004229 -0.001664 0.016796 0.000000 -0.004775 0.000000
# 4 0.000000 0.000000 0.000000 0.090028 0.000000 0.043199
# 5 0.006444 0.001260 -0.004775 0.000000 0.029112 0.000000
# 6 0.000000 0.000000 0.000000 0.043199 0.000000 0.060757
#
#
# Mechanical properties :
#
#
# Convention : Reuss Voigt Hill
#
# Bulk Modulus (GPa) = 41.50018 45.50314 43.50166
# Shear Modulus (GPa) = 20.50845 30.66583 25.58714
#
# Velocity S-wave (km/s) = 2.81409 3.44112 3.14328
# Velocity P-wave (km/s) = 5.15594 5.77572 5.47461
#
# Compressibility (1/GPa) = 0.02409628
#
# Stress axis : x y z
#
# Youngs Moduli (GPa) = 91.90597 81.24579 59.53946
#
# Poissons Ratio (x) = 0.16662 0.25178
# Poissons Ratio (y) = 0.18849 0.09910
# Poissons Ratio (z) = 0.38866 0.13523
#
# Static dielectric constant tensor:
#      x y z
#    x 2.097460 0.000000 -0.006590 
#    y 0.000000 1.959910 0.000000 
#    z -0.006590 0.000000 2.200100 
# 
# From -- ./inp_files/308425.got.cif
#   From: 2010.05.17/outbox.cif.g08.bks.cpg/sg12_155_cif.got.tgz:308425.got - 2010.06.03 13:09:07.
