data_PCOD9206850
_publ_section_title
;
Structure prediction by ZEFSAII (Michael W. Deem and Ramdas Pophale) SiO2 
 PCOD9206850
Probable space group: C 2/M
;
_chemical_formula_sum "Si O2"
_cell_formula_units_Z 48
_cell_length_a 11.964515
_cell_length_b 14.325277
_cell_length_c 16.834926
_cell_angle_alpha 90.000000
_cell_angle_beta 123.087668
_cell_angle_gamma 90.000000
_cell_volume 2417.511110
_symmetry_space_group_name_H-M "C 2/M"
_symmetry_group_IT_number 12
_symmetry_cell_setting 'monoclinic'
loop_
_space_group_symop_operation_xyz
x,y,z
-x,y,-z
-x,-y,-z
x,-y,z
1/2+x,1/2+y,z
1/2-x,1/2+y,-z
1/2-x,1/2-y,-z
1/2+x,1/2-y,z
loop_
_atom_site_type_symbol
_atom_site_label
_atom_site_fract_x
_atom_site_fract_y
_atom_site_fract_z
Si Si1 0.108957 0.888668 0.106754
Si Si2 0.289889 0.681531 0.425318
Si Si3 0.020495 0.109656 0.625392
Si Si4 0.541007 0.891746 0.430753
Si Si5 0.412381 0.892050 0.219042
Si Si6 0.922175 0.210609 0.737713
O O1 0.260437 0.873085 0.136555
O O2 0.089557 0.839077 0.183185
O O3 0.094817 0.000000 0.113034
O O4 0.000000 0.858359 0.000000
O O5 0.413994 0.670360 0.533460
O O6 0.341234 0.623391 0.368564
O O7 0.169516 0.644601 0.433532
O O8 0.221866 0.772668 0.359947
O O9 0.011450 0.151632 0.709916
O O10 0.984591 0.000000 0.609998
O O11 0.500000 0.850789 0.500000
O O12 0.424884 0.884517 0.320024
O O13 0.570384 0.000000 0.456689
O O14 0.511032 0.812710 0.225664
O O15 0.447994 0.000000 0.213329
#
# Coordination Sequence:
#
# PCOD9206850 Si02
#       6
#     8   8   8   8   8   8
#     4  10  22  41  64  89 117 149 192 253 314 359
#     4  10  21  37  53  79 121 160 200 243 291 345
#     4  11  22  37  58  84 123 168 204 245 296 352
#     4   9  17  30  53  80 110 154 200 237 280 340
#     4   9  20  38  57  82 116 154 195 245 301 350
#     4  11  22  38  60  88 116 155 205 247 295 363
#
# _framework density 19.855129000000002
#
# number of rings (size 3 to 8) (size 9 to 14) (size 15 to 20)
#    0.000    2.000    0.000    4.000    2.333    2.000 
#   12.000    0.000    0.000    0.500    0.000    0.000 
#    0.000    0.000    0.000    0.000    0.000    0.000 
#
# Total GULP energy -133877.501783 kJ/mol
# GULP energy per Si atom -5578.229241 kJ/mol
# Density = 1.980994 g / cm^3
# Si number density = 19.855129 Si / 1000 Ang^3
#
#
#
# Elastic Constant Matrix: (Units=GPa)
#
#
# Indices 1 2 3 4 5 6 
#
# 1 96.6111 42.4612 39.5302 0.0000 3.9841 0.0000
# 2 42.4612 82.7301 26.8105 0.0000 -2.0072 0.0000
# 3 39.5302 26.8105 82.1320 0.0000 6.6431 0.0000
# 4 0.0000 0.0000 0.0000 25.0693 0.0000 -4.6073
# 5 3.9841 -2.0072 6.6431 0.0000 26.3504 0.0000
# 6 0.0000 0.0000 0.0000 -4.6073 0.0000 26.9172
#
#
#
# Elastic Compliance Matrix: (Units=1/GPa)
#
#
# Indices 1 2 3 4 5 6 
#
# 1 0.015258 -0.006179 -0.005208 0.000000 -0.001465 0.000000
# 2 -0.006179 0.016144 -0.002523 0.000000 0.002800 0.000000
# 3 -0.005208 -0.002523 0.015779 0.000000 -0.003383 0.000000
# 4 0.000000 0.000000 0.000000 0.041185 0.000000 0.007049
# 5 -0.001465 0.002800 -0.003383 0.000000 0.039238 0.000000
# 6 0.000000 0.000000 0.000000 0.007049 0.000000 0.038358
#
#
# Mechanical properties :
#
#
# Convention : Reuss Voigt Hill
#
# Bulk Modulus (GPa) = 51.64710 53.23079 52.43894
# Shear Modulus (GPa) = 24.97071 25.84547 25.40809
#
# Velocity S-wave (km/s) = 3.55018 3.61183 3.58113
# Velocity P-wave (km/s) = 6.54778 6.65293 6.60057
#
# Compressibility (1/GPa) = 0.01936217
#
# Stress axis : x y z
#
# Youngs Moduli (GPa) = 65.54031 61.94186 63.37423
#
# Poissons Ratio (x) = 0.38272 0.33006
# Poissons Ratio (y) = 0.40496 0.15987
# Poissons Ratio (z) = 0.34135 0.15625
#
# Static dielectric constant tensor:
#      x y z
#    x 1.717430 0.000000 0.033810 
#    y 0.000000 1.748090 0.000000 
#    z 0.033810 0.000000 1.699310 
# 
# From -- ./inp_files/205117.got.cif
#   From: 2010.05.17/outbox.cif.g08.bks.cpg/sg12_103_cif.got.tgz:205117.got - 2010.06.03 13:09:07.
