data_PCOD9206020
_publ_section_title
;
Structure prediction by ZEFSAII (Michael W. Deem and Ramdas Pophale) SiO2 
 PCOD9206020
Probable space group: C 2/M
;
_chemical_formula_sum "Si O2"
_cell_formula_units_Z 40
_cell_length_a 33.633899
_cell_length_b 13.490009
_cell_length_c 5.025411
_cell_angle_alpha 90.000000
_cell_angle_beta 118.819494
_cell_angle_gamma 90.000000
_cell_volume 1997.725890
_symmetry_space_group_name_H-M "C 2/M"
_symmetry_group_IT_number 12
_symmetry_cell_setting 'monoclinic'
loop_
_space_group_symop_operation_xyz
x,y,z
-x,y,-z
-x,-y,-z
x,-y,z
1/2+x,1/2+y,z
1/2-x,1/2+y,-z
1/2-x,1/2-y,-z
1/2+x,1/2-y,z
loop_
_atom_site_type_symbol
_atom_site_label
_atom_site_fract_x
_atom_site_fract_y
_atom_site_fract_z
Si Si1 0.807764 0.234305 0.963412
Si Si2 0.593052 0.786186 0.910535
Si Si3 0.448650 0.114641 0.731451
Si Si4 0.725164 0.619467 0.657949
Si Si5 0.031455 0.112266 0.861028
O O1 0.773394 0.327491 0.878519
O O2 0.788531 0.159467 0.676880
O O3 0.856055 0.274657 0.025977
O O4 0.808497 0.171356 0.237824
O O5 0.562711 0.821658 0.564199
O O6 0.573894 0.681497 0.948926
O O7 0.584678 0.858264 0.132965
O O8 0.443402 0.000000 0.640038
O O9 0.500000 0.128687 0.000000
O O10 0.726038 0.500000 0.676518
O O11 0.000000 0.111600 0.500000
O O12 0.045585 0.000000 0.968650
O O13 0.000000 0.148162 0.000000
#
# Coordination Sequence:
#
# PCOD9206020 Si02
#       5
#     8   8   8   8   8
#     4  10  23  39  60  94 117 149 206 240 289 369
#     4  12  22  39  62  87 121 153 195 252 293 336
#     4  11  24  40  60  87 120 160 200 238 291 351
#     4  10  21  41  63  84 122 159 187 242 305 354
#     4  10  21  36  55  81 113 153 195 232 282 340
#
# _framework density 20.022767999999999
#
# number of rings (size 3 to 8) (size 9 to 14) (size 15 to 20)
#    0.000    1.400    0.000    6.000    0.000    4.800 
#    0.000    2.000    0.000    0.000    0.000    0.000 
#    0.000    0.000    0.000    0.000    0.000    0.000 
#
# Total GULP energy -111816.378961 kJ/mol
# GULP energy per Si atom -5590.818948 kJ/mol
# Density = 1.997720 g / cm^3
# Si number density = 20.022768 Si / 1000 Ang^3
#
#
#
# Elastic Constant Matrix: (Units=GPa)
#
#
# Indices 1 2 3 4 5 6 
#
# 1 110.2406 31.1012 -4.4819 0.0000 -11.1020 0.0000
# 2 31.1012 119.5677 4.6134 0.0000 -0.4441 0.0000
# 3 -4.4819 4.6134 38.4784 0.0000 -24.2199 0.0000
# 4 0.0000 0.0000 0.0000 -70.4864 0.0000 -49.1302
# 5 -11.1020 -0.4441 -24.2199 0.0000 34.2883 0.0000
# 6 0.0000 0.0000 0.0000 -49.1302 0.0000 -0.5545
#
#
#
# Elastic Compliance Matrix: (Units=1/GPa)
#
#
# Indices 1 2 3 4 5 6 
#
# 1 0.011096 -0.003126 0.007028 0.000000 0.008517 0.000000
# 2 -0.003126 0.009305 -0.003675 0.000000 -0.003487 0.000000
# 3 0.007028 -0.003675 0.051586 0.000000 0.038666 0.000000
# 4 0.000000 0.000000 0.000000 0.000234 0.000000 -0.020689
# 5 0.008517 -0.003487 0.038666 0.000000 0.059189 0.000000
# 6 0.000000 0.000000 0.000000 -0.020689 0.000000 0.029682
#
#
# Mechanical properties :
#
#
# Convention : Reuss Voigt Hill
#
# Bulk Modulus (GPa) = 13.80411 36.75022 25.27717
# Shear Modulus (GPa) = 27.05841 8.45309 17.75575
#
# Velocity S-wave (km/s) = 3.68010 2.05692 2.98111
# Velocity P-wave (km/s) = 4.99667 4.90258 4.94985
#
# Compressibility (1/GPa) = 0.07244218
#
# Stress axis : x y z
#
# Youngs Moduli (GPa) = 90.11972 107.46475 19.38514
#
# Poissons Ratio (x) = 0.33592 -0.13624
# Poissons Ratio (y) = 0.28170 0.07124
# Poissons Ratio (z) = -0.63336 0.39492
#
# Static dielectric constant tensor:
#      x y z
#    x 1.679650 0.000000 -0.007540 
#    y 0.000000 1.699060 0.000000 
#    z -0.007540 0.000000 1.690870 
# 
# From -- ./inp_files/30932.got.cif
#   From: 2010.05.17/outbox.cif.g08.bks.cpg/sg12_16_cif.got.tgz:30932.got - 2010.06.03 13:09:07.
