data_PCOD9206532
_publ_section_title
;
Structure prediction by ZEFSAII (Michael W. Deem and Ramdas Pophale) SiO2 
 PCOD9206532
Probable space group: C 2/M
;
_chemical_formula_sum "Si O2"
_cell_formula_units_Z 48
_cell_length_a 11.829026
_cell_length_b 19.639959
_cell_length_c 15.427134
_cell_angle_alpha 90.000000
_cell_angle_beta 35.786329
_cell_angle_gamma 90.000000
_cell_volume 2095.827544
_symmetry_space_group_name_H-M "C 2/M"
_symmetry_group_IT_number 12
_symmetry_cell_setting 'monoclinic'
loop_
_space_group_symop_operation_xyz
x,y,z
-x,y,-z
-x,-y,-z
x,-y,z
1/2+x,1/2+y,z
1/2-x,1/2+y,-z
1/2-x,1/2-y,-z
1/2+x,1/2-y,z
loop_
_atom_site_type_symbol
_atom_site_label
_atom_site_fract_x
_atom_site_fract_y
_atom_site_fract_z
Si Si1 0.766817 0.073975 0.645238
Si Si2 0.781878 0.128265 0.449235
Si Si3 0.281879 0.323835 0.789442
Si Si4 0.386878 0.173170 0.726517
Si Si5 0.103591 0.077793 0.803831
Si Si6 0.276360 0.168934 0.982540
O O1 0.727807 0.086504 0.568514
O O2 0.722072 0.131974 0.743800
O O3 0.000000 0.070940 0.500000
O O4 0.688122 0.000000 0.721564
O O5 0.597609 0.177255 0.551481
O O6 0.814141 0.083012 0.344885
O O7 0.986867 0.164753 0.338793
O O8 0.266110 0.242743 0.786042
O O9 0.184105 0.346705 0.940868
O O10 0.265184 0.111188 0.763718
O O11 0.409128 0.161265 0.815679
O O12 0.914583 0.125641 0.922368
O O13 0.058737 0.000000 0.853761
O O14 0.250000 0.250000 0.000000
#
# Coordination Sequence:
#
# PCOD9206532 Si02
#       6
#     8   8   8   8   8   8
#     4   9  18  34  57  83 112 151 198 245 293 344
#     4  10  21  36  59  87 121 159 202 247 293 349
#     4   9  20  37  59  86 116 156 203 251 300 351
#     4  11  22  37  59  88 121 158 201 247 294 350
#     4  11  24  41  61  87 121 159 196 240 301 365
#     4   9  21  41  61  84 116 157 200 242 294 359
#
# _framework density 22.902647999999999
#
# number of rings (size 3 to 8) (size 9 to 14) (size 15 to 20)
#    0.000    2.167    0.000    2.000    0.000   15.333 
#    0.000    2.500    0.000    1.000    0.000    0.000 
#    0.000    0.000    0.000    0.000    0.000    0.000 
#
# Total GULP energy -133997.355208 kJ/mol
# GULP energy per Si atom -5583.223134 kJ/mol
# Density = 2.285052 g / cm^3
# Si number density = 22.902648 Si / 1000 Ang^3
#
#
#
# Elastic Constant Matrix: (Units=GPa)
#
#
# Indices 1 2 3 4 5 6 
#
# 1 85.5747 48.5327 13.7003 -0.0033 19.9868 -0.0124
# 2 48.5327 129.3058 44.2221 -0.0059 9.1104 -0.0017
# 3 13.7003 44.2221 103.6766 -0.0287 10.0383 -0.0358
# 4 -0.0033 -0.0059 -0.0287 -4.8747 0.0015 -8.2883
# 5 19.9868 9.1104 10.0383 0.0015 34.6032 0.0018
# 6 -0.0124 -0.0017 -0.0358 -8.2883 0.0018 6.2982
#
#
#
# Elastic Compliance Matrix: (Units=1/GPa)
#
#
# Indices 1 2 3 4 5 6 
#
# 1 0.017000 -0.006197 0.001224 -0.000026 -0.008542 0.000007
# 2 -0.006197 0.011371 -0.004206 0.000022 0.001806 -0.000004
# 3 0.001224 -0.004206 0.011564 -0.000056 -0.002954 -0.000005
# 4 -0.000026 0.000022 -0.000056 -0.063363 0.000032 -0.083385
# 5 -0.008542 0.001806 -0.002954 0.000032 0.034215 0.000000
# 6 0.000007 -0.000004 -0.000005 -0.083385 0.000000 0.049043
#
#
# Mechanical properties :
#
#
# Convention : Reuss Voigt Hill
#
# Bulk Modulus (GPa) = 46.34850 59.05192 52.70021
# Shear Modulus (GPa) = 58.56258 21.34547 39.95402
#
# Velocity S-wave (km/s) = 5.06219 3.05619 4.18127
# Velocity P-wave (km/s) = 7.37894 6.18818 6.80964
#
# Compressibility (1/GPa) = 0.02157567
#
# Stress axis : x y z
#
# Youngs Moduli (GPa) = 58.82494 87.94419 86.47772
#
# Poissons Ratio (x) = 0.54501 -0.10585
# Poissons Ratio (y) = 0.36455 0.36373
# Poissons Ratio (z) = -0.07201 0.36990
#
# Static dielectric constant tensor:
#      x y z
#    x 1.885380 0.000000 -0.039980 
#    y 0.000000 1.841080 0.000000 
#    z -0.039980 0.000000 1.881350 
# 
# From -- ./inp_files/207935.got.cif
#   From: 2010.05.17/outbox.cif.g08.bks.cpg/sg12_104_cif.got.tgz:207935.got - 2010.06.03 13:09:07.
