data_PCOD9206606
_publ_section_title
;
Structure prediction by ZEFSAII (Michael W. Deem and Ramdas Pophale) SiO2 
 PCOD9206606
Probable space group: C 2/M
;
_chemical_formula_sum "Si O2"
_cell_formula_units_Z 48
_cell_length_a 29.258341
_cell_length_b 15.681289
_cell_length_c 11.428078
_cell_angle_alpha 90.000000
_cell_angle_beta 28.793672
_cell_angle_gamma 90.000000
_cell_volume 2525.471240
_symmetry_space_group_name_H-M "C 2/M"
_symmetry_group_IT_number 12
_symmetry_cell_setting 'monoclinic'
loop_
_space_group_symop_operation_xyz
x,y,z
-x,y,-z
-x,-y,-z
x,-y,z
1/2+x,1/2+y,z
1/2-x,1/2+y,-z
1/2-x,1/2-y,-z
1/2+x,1/2-y,z
loop_
_atom_site_type_symbol
_atom_site_label
_atom_site_fract_x
_atom_site_fract_y
_atom_site_fract_z
Si Si1 0.882744 0.677913 0.178232
Si Si2 0.796509 0.698133 0.736231
Si Si3 0.435153 0.500000 0.261744
Si Si4 0.177761 0.828458 0.535667
Si Si5 0.111032 0.179948 0.284085
Si Si6 0.934271 0.000000 0.529948
Si Si7 0.059224 0.403713 0.710955
O O1 0.877547 0.774121 0.240172
O O2 0.782529 0.654645 0.349017
O O3 0.901041 0.617443 0.249010
O O4 0.970942 0.660968 0.895193
O O5 0.808796 0.763145 0.601199
O O6 0.849414 0.743722 0.725146
O O7 0.856517 0.615493 0.566902
O O8 0.686550 0.678722 0.008498
O O9 0.373623 0.414009 0.387377
O O10 0.476874 0.500000 0.301852
O O11 0.500000 0.500000 0.000000
O O12 0.120092 0.089613 0.332081
O O13 0.000000 0.190793 0.500000
O O14 0.000000 0.000000 0.500000
O O15 0.025540 0.500000 0.778677
#
# Coordination Sequence:
#
# PCOD9206606 Si02
#       7
#     8   8   4   8   8   4   8
#     4   9  20  38  59  83 124 165 200 251 322 376
#     4  10  22  39  62  88 116 158 210 259 309 376
#     4  12  26  40  66  96 134 164 214 268 323 379
#     4  10  22  39  58  90 124 166 208 258 317 383
#     4  10  22  41  64  86 119 160 208 257 315 371
#     4  10  22  46  64  91 126 169 213 262 315 379
#     4  10  21  36  60  85 119 155 206 256 307 375
#
# _framework density 19.006354000000002
#
# number of rings (size 3 to 8) (size 9 to 14) (size 15 to 20)
#    0.000    2.000    1.667    1.000   10.500    0.000 
#   15.000    0.000    0.000    0.500    0.000    0.000 
#    0.000    0.000    0.000    0.000    0.000    0.000 
#
# Total GULP energy -133738.445790 kJ/mol
# GULP energy per Si atom -5572.435241 kJ/mol
# Density = 1.896309 g / cm^3
# Si number density = 19.006354 Si / 1000 Ang^3
#
#
#
# Elastic Constant Matrix: (Units=GPa)
#
#
# Indices 1 2 3 4 5 6 
#
# 1 64.6000 19.8953 35.1062 0.0000 -7.6110 0.0000
# 2 19.8953 63.5699 36.6658 0.0000 -1.4581 0.0000
# 3 35.1062 36.6658 135.3745 0.0000 -7.6603 0.0000
# 4 0.0000 0.0000 0.0000 18.0282 0.0000 6.0312
# 5 -7.6110 -1.4581 -7.6603 0.0000 28.1869 0.0000
# 6 0.0000 0.0000 0.0000 6.0312 0.0000 14.2296
#
#
#
# Elastic Compliance Matrix: (Units=1/GPa)
#
#
# Indices 1 2 3 4 5 6 
#
# 1 0.019122 -0.003748 -0.003720 0.000000 0.003959 0.000000
# 2 -0.003748 0.019383 -0.004345 0.000000 -0.001190 0.000000
# 3 -0.003720 -0.004345 0.009607 0.000000 0.001382 0.000000
# 4 0.000000 0.000000 0.000000 0.064634 0.000000 -0.027395
# 5 0.003959 -0.001190 0.001382 0.000000 0.036860 0.000000
# 6 0.000000 0.000000 0.000000 -0.027395 0.000000 0.081888
#
#
# Mechanical properties :
#
#
# Convention : Reuss Voigt Hill
#
# Bulk Modulus (GPa) = 40.84102 49.65322 45.24712
# Shear Modulus (GPa) = 18.99115 23.54740 21.26927
#
# Velocity S-wave (km/s) = 3.16444 3.52365 3.34887
# Velocity P-wave (km/s) = 5.90646 6.53728 6.22986
#
# Compressibility (1/GPa) = 0.02448519
#
# Stress axis : x y z
#
# Youngs Moduli (GPa) = 52.29556 51.59245 104.09572
#
# Poissons Ratio (x) = 0.19339 0.38720
# Poissons Ratio (y) = 0.19602 0.45230
# Poissons Ratio (z) = 0.19452 0.22417
#
# Static dielectric constant tensor:
#      x y z
#    x 1.674510 0.000000 0.028380 
#    y 0.000000 1.651620 0.000000 
#    z 0.028380 0.000000 1.712800 
# 
# From -- ./inp_files/189384.got.cif
#   From: 2010.05.17/outbox.cif.g08.bks.cpg/sg12_95_cif.got.tgz:189384.got - 2010.06.03 13:09:07.
