data_PCOD9206994
_publ_section_title
;
Structure prediction by ZEFSAII (Michael W. Deem and Ramdas Pophale) SiO2 
 PCOD9206994
Probable space group: C 2/M
;
_chemical_formula_sum "Si O2"
_cell_formula_units_Z 48
_cell_length_a 24.786931
_cell_length_b 7.635049
_cell_length_c 27.546757
_cell_angle_alpha 90.000000
_cell_angle_beta 153.562199
_cell_angle_gamma 90.000000
_cell_volume 2321.055962
_symmetry_space_group_name_H-M "C 2/M"
_symmetry_group_IT_number 12
_symmetry_cell_setting 'monoclinic'
loop_
_space_group_symop_operation_xyz
x,y,z
-x,y,-z
-x,-y,-z
x,-y,z
1/2+x,1/2+y,z
1/2-x,1/2+y,-z
1/2-x,1/2-y,-z
1/2+x,1/2-y,z
loop_
_atom_site_type_symbol
_atom_site_label
_atom_site_fract_x
_atom_site_fract_y
_atom_site_fract_z
Si Si1 0.885400 0.291617 0.591825
Si Si2 0.956834 0.215077 0.912276
Si Si3 0.948801 0.286071 0.535331
Si Si4 0.609225 0.293947 0.840090
Si Si5 0.873908 0.204408 0.037474
Si Si6 0.814195 0.286562 0.330080
O O1 0.896353 0.500000 0.598499
O O2 0.750000 0.250000 0.500000
O O3 0.912475 0.223195 0.559334
O O4 0.987671 0.230026 0.711770
O O5 0.819951 0.271271 0.791007
O O6 0.957997 0.000000 0.913477
O O7 0.000000 0.271522 0.000000
O O8 0.047094 0.277374 0.942721
O O9 0.947305 0.500000 0.534909
O O10 0.857932 0.232249 0.418973
O O11 0.082635 0.232779 0.625227
O O12 0.634011 0.500000 0.864070
O O13 0.729864 0.216513 0.912876
O O14 0.600872 0.221011 0.888367
O O15 0.907427 0.000000 0.067320
O O16 0.814178 0.500000 0.330042
#
# Coordination Sequence:
#
# PCOD9206994 Si02
#       6
#     8   8   8   8   8   8
#     4  11  23  36  55  82 110 141 179 222 265 316
#     4   9  17  26  46  79 109 132 167 222 271 309
#     4   8  16  29  48  73 103 135 170 216 267 312
#     4  10  21  37  56  78 108 145 180 219 266 319
#     4   9  19  35  56  81 108 141 179 222 270 318
#     4   8  14  27  46  73 104 134 168 214 270 313
#
# _framework density 20.680242
#
# number of rings (size 3 to 8) (size 9 to 14) (size 15 to 20)
#    0.000    2.833    0.000    2.000    4.667    0.667 
#    0.000    0.000    0.000    0.500    0.000    9.333 
#    0.000    0.000    0.000    0.000    0.000    0.000 
#
# Total GULP energy -133942.209398 kJ/mol
# GULP energy per Si atom -5580.925392 kJ/mol
# Density = 2.063317 g / cm^3
# Si number density = 20.680242 Si / 1000 Ang^3
#
#
#
# Elastic Constant Matrix: (Units=GPa)
#
#
# Indices 1 2 3 4 5 6 
#
# 1 194.4536 2.1228 119.2178 0.0000 8.7748 0.0000
# 2 2.1228 39.6763 -11.6244 0.0000 -4.2964 -0.0001
# 3 119.2178 -11.6244 183.7098 0.0000 10.7161 0.0000
# 4 0.0000 0.0000 0.0000 14.2997 0.0000 4.0556
# 5 8.7748 -4.2964 10.7161 0.0000 17.8157 0.0000
# 6 0.0000 -0.0001 0.0000 4.0556 0.0000 11.2632
#
#
#
# Elastic Compliance Matrix: (Units=1/GPa)
#
#
# Indices 1 2 3 4 5 6 
#
# 1 0.008753 -0.002304 -0.005743 0.000000 -0.001412 0.000000
# 2 -0.002304 0.026799 0.002848 0.000000 0.005885 0.000000
# 3 -0.005743 0.002848 0.009478 0.000000 -0.002186 0.000000
# 4 0.000000 0.000000 0.000000 0.077885 0.000000 -0.028045
# 5 -0.001412 0.005885 -0.002186 0.000000 0.059559 0.000000
# 6 0.000000 0.000000 0.000000 -0.028045 0.000000 0.098883
#
#
# Mechanical properties :
#
#
# Convention : Reuss Voigt Hill
#
# Bulk Modulus (GPa) = 28.87667 70.80801 49.84234
# Shear Modulus (GPa) = 16.48531 29.21730 22.85130
#
# Velocity S-wave (km/s) = 2.82645 3.76282 3.32773
# Velocity P-wave (km/s) = 4.96442 7.29330 6.23850
#
# Compressibility (1/GPa) = 0.03463003
#
# Stress axis : x y z
#
# Youngs Moduli (GPa) = 114.24965 37.31525 105.50466
#
# Poissons Ratio (x) = 0.08597 0.60597
# Poissons Ratio (y) = 0.26322 -0.30043
# Poissons Ratio (z) = 0.65619 -0.10626
#
# Static dielectric constant tensor:
#      x y z
#    x 1.731800 0.000000 -0.020770 
#    y 0.000000 1.806480 0.000000 
#    z -0.020770 0.000000 1.655920 
# 
# From -- ./inp_files/367216.got.cif
#   From: 2010.05.17/outbox.cif.g08.bks.cpg/sg12_184_cif.got.tgz:367216.got - 2010.06.03 13:09:07.
