data_PCOD9206905
_publ_section_title
;
Structure prediction by ZEFSAII (Michael W. Deem and Ramdas Pophale) SiO2 
 PCOD9206905
Probable space group: C 2/M
;
_chemical_formula_sum "Si O2"
_cell_formula_units_Z 56
_cell_length_a 15.253897
_cell_length_b 8.635313
_cell_length_c 22.493049
_cell_angle_alpha 90.000000
_cell_angle_beta 91.268640
_cell_angle_gamma 90.000000
_cell_volume 2962.107080
_symmetry_space_group_name_H-M "C 2/M"
_symmetry_group_IT_number 12
_symmetry_cell_setting 'monoclinic'
loop_
_space_group_symop_operation_xyz
x,y,z
-x,y,-z
-x,-y,-z
x,-y,z
1/2+x,1/2+y,z
1/2-x,1/2+y,-z
1/2-x,1/2-y,-z
1/2+x,1/2-y,z
loop_
_atom_site_type_symbol
_atom_site_label
_atom_site_fract_x
_atom_site_fract_y
_atom_site_fract_z
Si Si1 0.511050 0.312601 0.152393
Si Si2 0.860169 0.813465 0.059902
Si Si3 0.136562 0.813024 0.372274
Si Si4 0.158605 0.313536 0.628163
Si Si5 0.010685 0.685211 0.716323
Si Si6 0.331258 0.687007 0.925540
Si Si7 0.151189 0.814474 0.503675
O O1 0.509953 0.500000 0.153787
O O2 0.436467 0.260097 0.104860
O O3 0.494565 0.251520 0.217754
O O4 0.604166 0.263985 0.125975
O O5 0.765763 0.754592 0.079715
O O6 0.860729 0.000000 0.060564
O O7 0.869703 0.766637 0.990883
O O8 0.238945 0.766324 0.365307
O O9 0.072337 0.739620 0.323607
O O10 0.109119 0.771001 0.439685
O O11 0.132815 0.000000 0.367303
O O12 0.158366 0.500000 0.624891
O O13 0.118745 0.250712 0.565740
O O14 0.098145 0.263753 0.682052
O O15 0.011678 0.500000 0.719163
O O16 0.325910 0.500000 0.925000
O O17 0.250000 0.750000 0.500000
O O18 0.152404 0.000000 0.506684
#
# Coordination Sequence:
#
# PCOD9206905 Si02
#       7
#     8   8   8   8   8   8   8
#     4  10  21  37  55  75 106 146 180 212 257 315
#     4   9  18  34  57  84 109 135 173 217 260 310
#     4   9  19  37  57  77 105 139 174 214 265 322
#     4   9  20  38  56  76 106 141 175 217 268 318
#     4  11  24  38  53  77 107 141 183 224 261 306
#     4   9  18  34  57  83 109 138 172 213 263 314
#     4   9  17  31  55  83 107 134 171 217 268 319
#
# _framework density 18.905462
#
# number of rings (size 3 to 8) (size 9 to 14) (size 15 to 20)
#    0.000    2.571    0.000    2.143    0.000    8.571 
#    0.000    7.143    0.000    4.286    0.000    0.000 
#    0.000    0.000    0.000    0.000    0.000    0.000 
#
# Total GULP energy -156198.578471 kJ/mol
# GULP energy per Si atom -5578.520660 kJ/mol
# Density = 1.886243 g / cm^3
# Si number density = 18.905462 Si / 1000 Ang^3
#
#
#
# Elastic Constant Matrix: (Units=GPa)
#
#
# Indices 1 2 3 4 5 6 
#
# 1 108.8666 21.5193 86.1820 0.0000 -23.2270 0.0000
# 2 21.5193 7.6226 26.1157 0.0000 -7.2427 0.0000
# 3 86.1820 26.1157 140.7468 0.0000 -39.0479 0.0000
# 4 0.0000 0.0000 0.0000 30.8144 0.0000 -1.9705
# 5 -23.2270 -7.2427 -39.0479 0.0000 31.1632 0.0000
# 6 0.0000 0.0000 0.0000 -1.9705 0.0000 23.3379
#
#
#
# Elastic Compliance Matrix: (Units=1/GPa)
#
#
# Indices 1 2 3 4 5 6 
#
# 1 0.022189 -0.044173 -0.005595 0.000000 -0.000739 0.000000
# 2 -0.044173 0.448060 -0.055695 0.000000 0.001424 0.000000
# 3 -0.005595 -0.055695 0.024706 0.000000 0.013842 0.000000
# 4 0.000000 0.000000 0.000000 0.032629 0.000000 0.002755
# 5 -0.000739 0.001424 0.013842 0.000000 0.049213 0.000000
# 6 0.000000 0.000000 0.000000 0.002755 0.000000 0.043081
#
#
# Mechanical properties :
#
#
# Convention : Reuss Voigt Hill
#
# Bulk Modulus (GPa) = 3.52079 58.31890 30.91984
# Shear Modulus (GPa) = 5.40260 25.29103 15.34681
#
# Velocity S-wave (km/s) = 1.69230 3.66151 2.85224
# Velocity P-wave (km/s) = 2.38430 6.98500 5.21896
#
# Compressibility (1/GPa) = 0.28402747
#
# Stress axis : x y z
#
# Youngs Moduli (GPa) = 45.06759 2.23184 40.47658
#
# Poissons Ratio (x) = 0.09859 0.22648
# Poissons Ratio (y) = 1.99078 2.25434
# Poissons Ratio (z) = 0.25217 0.12430
#
# Static dielectric constant tensor:
#      x y z
#    x 1.651660 0.000000 -0.009750 
#    y 0.000000 1.640200 0.000000 
#    z -0.009750 0.000000 1.651530 
# 
# From -- ./inp_files/309035.got.cif
#   From: 2010.05.17/outbox.cif.g08.bks.cpg/sg12_155_cif.got.tgz:309035.got - 2010.06.03 13:09:07.
