data_PCOD9206960
_publ_section_title
;
Structure prediction by ZEFSAII (Michael W. Deem and Ramdas Pophale) SiO2 
 PCOD9206960
Probable space group: C 2/M
;
_chemical_formula_sum "Si O2"
_cell_formula_units_Z 48
_cell_length_a 19.663917
_cell_length_b 8.917249
_cell_length_c 30.299374
_cell_angle_alpha 90.000000
_cell_angle_beta 30.783946
_cell_angle_gamma 90.000000
_cell_volume 2719.172151
_symmetry_space_group_name_H-M "C 2/M"
_symmetry_group_IT_number 12
_symmetry_cell_setting 'monoclinic'
loop_
_space_group_symop_operation_xyz
x,y,z
-x,y,-z
-x,-y,-z
x,-y,z
1/2+x,1/2+y,z
1/2-x,1/2+y,-z
1/2-x,1/2-y,-z
1/2+x,1/2-y,z
loop_
_atom_site_type_symbol
_atom_site_label
_atom_site_fract_x
_atom_site_fract_y
_atom_site_fract_z
Si Si1 0.273544 0.677492 0.872589
Si Si2 0.132351 0.321265 0.594006
Si Si3 0.357550 0.678820 0.973092
Si Si4 0.085970 0.178387 0.711876
Si Si5 0.152572 0.179575 0.266306
Si Si6 0.850336 0.819582 0.224319
O O1 0.247194 0.500000 0.892035
O O2 0.426584 0.703688 0.802204
O O3 0.271387 0.717021 0.822058
O O4 0.177608 0.767301 0.958187
O O5 0.133921 0.500000 0.589803
O O6 0.250000 0.250000 0.500000
O O7 0.142909 0.269461 0.639070
O O8 0.991052 0.256536 0.656385
O O9 0.347496 0.500000 0.975396
O O10 0.505693 0.722218 0.875781
O O11 0.250000 0.750000 0.000000
O O12 0.146998 0.216266 0.725189
O O13 0.103428 0.000000 0.693934
O O14 0.236785 0.237525 0.260348
O O15 0.135522 0.000000 0.276488
O O16 0.835675 0.000000 0.228238
#
# Coordination Sequence:
#
# PCOD9206960 Si02
#       6
#     8   8   8   8   8   8
#     4   9  18  35  54  76 109 150 192 234 279 326
#     4  11  22  39  64  90 113 142 182 225 274 337
#     4  11  21  33  52  79 111 149 195 239 277 325
#     4   9  18  36  58  81 114 150 185 229 280 332
#     4  10  22  39  58  82 115 149 185 232 284 333
#     4  10  21  37  55  80 116 153 188 232 284 330
#
# _framework density 17.652432000000001
#
# number of rings (size 3 to 8) (size 9 to 14) (size 15 to 20)
#    0.000    2.000    1.667    3.500    0.000    6.000 
#    0.000    4.167    0.000    5.000    0.000    0.000 
#    0.000    0.000    0.000    0.000    0.000    0.000 
#
# Total GULP energy -134025.834617 kJ/mol
# GULP energy per Si atom -5584.409776 kJ/mol
# Density = 1.761225 g / cm^3
# Si number density = 17.652432 Si / 1000 Ang^3
#
#
#
# Elastic Constant Matrix: (Units=GPa)
#
#
# Indices 1 2 3 4 5 6 
#
# 1 141.9045 64.6001 61.0736 0.0000 5.0152 -0.0001
# 2 64.6001 80.4798 67.1558 0.0000 9.2769 -0.0002
# 3 61.0736 67.1558 118.1436 0.0000 17.2137 0.0000
# 4 0.0000 0.0000 0.0000 31.0678 0.0000 3.2641
# 5 5.0152 9.2769 17.2137 0.0000 16.3154 0.0000
# 6 -0.0001 -0.0002 0.0000 3.2641 0.0000 33.4501
#
#
#
# Elastic Compliance Matrix: (Units=1/GPa)
#
#
# Indices 1 2 3 4 5 6 
#
# 1 0.011322 -0.007963 -0.001748 0.000000 0.002891 0.000000
# 2 -0.007963 0.029248 -0.012339 0.000000 -0.001164 0.000000
# 3 -0.001748 -0.012339 0.018057 0.000000 -0.011498 0.000000
# 4 0.000000 0.000000 0.000000 0.032521 0.000000 -0.003173
# 5 0.002891 -0.001164 -0.011498 0.000000 0.073196 0.000000
# 6 0.000000 0.000000 0.000000 -0.003173 0.000000 0.030205
#
#
# Mechanical properties :
#
#
# Convention : Reuss Voigt Hill
#
# Bulk Modulus (GPa) = 68.83790 80.68744 74.76267
# Shear Modulus (GPa) = 20.53469 26.01321 23.27395
#
# Velocity S-wave (km/s) = 3.41439 3.84296 3.63499
# Velocity P-wave (km/s) = 7.39087 8.09316 7.74998
#
# Compressibility (1/GPa) = 0.01452688
#
# Stress axis : x y z
#
# Youngs Moduli (GPa) = 88.32321 34.19079 55.38029
#
# Poissons Ratio (x) = 0.27226 0.09680
# Poissons Ratio (y) = 0.70331 0.68335
# Poissons Ratio (z) = 0.15438 0.42189
#
# Static dielectric constant tensor:
#      x y z
#    x 1.597910 0.000000 0.011100 
#    y 0.000000 1.587510 0.000000 
#    z 0.011100 0.000000 1.579260 
# 
# From -- ./inp_files/295358.got.cif
#   From: 2010.05.17/outbox.cif.g08.bks.cpg/sg12_148_cif.got.tgz:295358.got - 2010.06.03 13:09:07.
