data_PCOD9206997
_publ_section_title
;
Structure prediction by ZEFSAII (Michael W. Deem and Ramdas Pophale) SiO2 
 PCOD9206997
Probable space group: C 2/M
;
_chemical_formula_sum "Si O2"
_cell_formula_units_Z 58
_cell_length_a 13.926026
_cell_length_b 9.756737
_cell_length_c 21.360960
_cell_angle_alpha 90.000000
_cell_angle_beta 76.771904
_cell_angle_gamma 90.000000
_cell_volume 2825.359502
_symmetry_space_group_name_H-M "C 2/M"
_symmetry_group_IT_number 12
_symmetry_cell_setting 'monoclinic'
loop_
_space_group_symop_operation_xyz
x,y,z
-x,y,-z
-x,-y,-z
x,-y,z
1/2+x,1/2+y,z
1/2-x,1/2+y,-z
1/2-x,1/2-y,-z
1/2+x,1/2-y,z
loop_
_atom_site_type_symbol
_atom_site_label
_atom_site_fract_x
_atom_site_fract_y
_atom_site_fract_z
Si Si1 0.731377 0.843041 0.405314
Si Si2 0.959561 0.341568 0.939717
Si Si3 0.896899 0.731112 0.457316
Si Si4 0.000000 0.000000 0.500000
Si Si5 0.527190 0.342610 0.748721
Si Si6 0.647877 0.841359 0.818683
Si Si7 0.160380 0.156702 0.129770
Si Si8 0.938870 0.345152 0.654760
O O1 0.822959 0.750681 0.410076
O O2 0.662931 0.836949 0.477570
O O3 0.666304 0.796948 0.356211
O O4 0.760034 0.000000 0.390469
O O5 0.928404 0.500000 0.952721
O O6 0.871977 0.253842 0.922261
O O7 0.053554 0.340703 0.879166
O O8 0.000000 0.288784 0.000000
O O9 0.990375 0.653165 0.416311
O O10 0.933360 0.878799 0.476127
O O11 0.552458 0.500000 0.730422
O O12 0.616744 0.260397 0.767726
O O13 0.435178 0.344881 0.810836
O O14 0.485369 0.259743 0.696179
O O15 0.744767 0.799502 0.843531
O O16 0.662148 0.000000 0.795413
O O17 0.179336 0.000000 0.106089
O O18 0.931163 0.500000 0.681343
#
# Coordination Sequence:
#
# PCOD9206997 Si02
#       8
#     8   8   8   2   8   8   8   8
#     4  10  21  37  56  79 107 138 176 215 263 325
#     4   9  18  32  52  82 115 147 182 222 268 320
#     4  11  22  36  57  82 108 141 175 217 268 324
#     4  12  20  36  58  84 110 144 174 224 266 324
#     4  10  22  37  56  78 104 136 180 230 269 315
#     4   9  18  36  58  77 108 147 182 221 269 324
#     4   9  19  36  55  78 106 144 185 224 271 317
#     4  11  23  39  56  78 108 142 175 218 269 324
#
# _framework density 20.528361
#
# number of rings (size 3 to 8) (size 9 to 14) (size 15 to 20)
#    0.000    2.069    2.069    0.828    0.966    4.138 
#    0.000    2.759    0.000    0.000    0.000    0.000 
#    0.000    0.000    0.000    0.000    0.000    0.000 
#
# Total GULP energy -161627.405145 kJ/mol
# GULP energy per Si atom -5573.358798 kJ/mol
# Density = 2.048164 g / cm^3
# Si number density = 20.528361 Si / 1000 Ang^3
#
#
#
# Elastic Constant Matrix: (Units=GPa)
#
#
# Indices 1 2 3 4 5 6 
#
# 1 145.8805 58.4484 25.8235 0.0000 54.9667 0.0000
# 2 58.4484 98.5705 31.3123 0.0000 32.7055 0.0000
# 3 25.8235 31.3123 40.8003 0.0000 27.2364 0.0000
# 4 0.0000 0.0000 0.0000 -17.6026 0.0000 -8.0749
# 5 54.9667 32.7055 27.2364 0.0000 36.5873 0.0000
# 6 0.0000 0.0000 0.0000 -8.0749 0.0000 13.7440
#
#
#
# Elastic Compliance Matrix: (Units=1/GPa)
#
#
# Indices 1 2 3 4 5 6 
#
# 1 0.020372 -0.004391 0.016473 0.000000 -0.038942 0.000000
# 2 -0.004391 0.015878 -0.008618 0.000000 -0.001181 0.000000
# 3 0.016473 -0.008618 0.063761 0.000000 -0.064509 0.000000
# 4 0.000000 0.000000 0.000000 -0.044749 0.000000 -0.026291
# 5 -0.038942 -0.001181 -0.064509 0.000000 0.134914 0.000000
# 6 0.000000 0.000000 0.000000 -0.026291 0.000000 0.057312
#
#
# Mechanical properties :
#
#
# Convention : Reuss Voigt Hill
#
# Bulk Modulus (GPa) = 9.35132 57.37995 33.36563
# Shear Modulus (GPa) = 18.10233 17.85689 17.97961
#
# Velocity S-wave (km/s) = 2.97277 2.95255 2.96267
# Velocity P-wave (km/s) = 4.04331 6.29568 5.29074
#
# Compressibility (1/GPa) = 0.10693682
#
# Stress axis : x y z
#
# Youngs Moduli (GPa) = 49.08802 62.97856 15.68359
#
# Poissons Ratio (x) = 0.27656 -0.25835
# Poissons Ratio (y) = 0.21556 0.13517
# Poissons Ratio (z) = -0.80861 0.54277
#
# Static dielectric constant tensor:
#      x y z
#    x 1.736240 0.000000 -0.007750 
#    y 0.000000 1.709620 0.000000 
#    z -0.007750 0.000000 1.747750 
# 
# From -- ./inp_files/337989.got.cif
#   From: 2010.05.17/outbox.cif.g08.bks.cpg/sg12_169_cif.got.tgz:337989.got - 2010.06.03 13:09:07.
