data_PCOD9206146
_publ_section_title
;
Structure prediction by ZEFSAII (Michael W. Deem and Ramdas Pophale) SiO2 
 PCOD9206146
Probable space group: C 2/M
;
_chemical_formula_sum "Si O2"
_cell_formula_units_Z 44
_cell_length_a 15.057808
_cell_length_b 7.736043
_cell_length_c 21.476603
_cell_angle_alpha 90.000000
_cell_angle_beta 44.020059
_cell_angle_gamma 90.000000
_cell_volume 1738.500758
_symmetry_space_group_name_H-M "C 2/M"
_symmetry_group_IT_number 12
_symmetry_cell_setting 'monoclinic'
loop_
_space_group_symop_operation_xyz
x,y,z
-x,y,-z
-x,-y,-z
x,-y,z
1/2+x,1/2+y,z
1/2-x,1/2+y,-z
1/2-x,1/2-y,-z
1/2+x,1/2-y,z
loop_
_atom_site_type_symbol
_atom_site_label
_atom_site_fract_x
_atom_site_fract_y
_atom_site_fract_z
Si Si1 0.811720 0.789516 0.195419
Si Si2 0.894100 0.197974 0.284029
Si Si3 0.018269 0.697984 0.343821
Si Si4 0.627559 0.300444 0.469660
Si Si5 0.859351 0.500000 0.921607
Si Si6 0.282523 0.810678 0.074613
O O1 0.886285 0.723020 0.218811
O O2 0.662295 0.736689 0.280000
O O3 0.845411 0.727849 0.109457
O O4 0.816746 0.000000 0.194106
O O5 0.979511 0.291596 0.291649
O O6 0.751290 0.202807 0.384334
O O7 0.933144 0.000000 0.259649
O O8 0.015701 0.500000 0.365478
O O9 0.910664 0.791502 0.438826
O O10 0.500000 0.236300 0.500000
O O11 0.648393 0.500000 0.441773
O O12 0.806751 0.652599 0.900232
O O13 0.874406 0.349587 0.969910
O O14 0.215558 0.000000 0.113481
#
# Coordination Sequence:
#
# PCOD9206146 Si02
#       6
#     8   8   8   8   4   8
#     4  10  21  36  56  83 115 150 188 235 288 340
#     4  11  23  39  57  80 113 150 190 237 286 337
#     4  11  23  39  57  80 113 150 190 237 286 337
#     4  11  22  37  58  80 106 146 196 241 283 341
#     4   8  16  30  50  88 116 144 192 226 276 342
#     4   9  16  29  54  83 118 149 186 233 276 340
#
# _framework density 25.309162000000001
#
# number of rings (size 3 to 8) (size 9 to 14) (size 15 to 20)
#    0.545    1.273    2.727    2.182    0.000    3.636 
#    0.000    0.000    0.000    0.000    0.000    7.636 
#    0.000    0.000    0.000    0.000    0.000    0.000 
#
# Total GULP energy -122529.928015 kJ/mol
# GULP energy per Si atom -5569.542182 kJ/mol
# Density = 2.525156 g / cm^3
# Si number density = 25.309162 Si / 1000 Ang^3
#
#
#
# Elastic Constant Matrix: (Units=GPa)
#
#
# Indices 1 2 3 4 5 6 
#
# 1 106.9951 -2.0144 64.9191 0.0000 36.5559 0.0000
# 2 -2.0144 91.4692 21.6388 0.0000 12.3900 0.0000
# 3 64.9191 21.6388 123.5604 0.0000 21.5815 0.0000
# 4 0.0000 0.0000 0.0000 15.3828 0.0000 26.0864
# 5 36.5559 12.3900 21.5815 0.0000 54.0014 0.0000
# 6 0.0000 0.0000 0.0000 26.0864 0.0000 9.8849
#
#
#
# Elastic Compliance Matrix: (Units=1/GPa)
#
#
# Indices 1 2 3 4 5 6 
#
# 1 0.017671 0.003630 -0.008262 0.000000 -0.009493 0.000000
# 2 0.003630 0.012346 -0.003381 0.000000 -0.003938 0.000000
# 3 -0.008262 -0.003381 0.012808 0.000000 0.001250 0.000000
# 4 0.000000 0.000000 0.000000 -0.018706 0.000000 0.049365
# 5 -0.009493 -0.003938 0.001250 0.000000 0.025348 0.000000
# 6 0.000000 0.000000 0.000000 0.049365 0.000000 -0.029110
#
#
# Mechanical properties :
#
#
# Convention : Reuss Voigt Hill
#
# Bulk Modulus (GPa) = 37.31679 54.56795 45.94237
# Shear Modulus (GPa) = 110.33333 31.68588 71.00960
#
# Velocity S-wave (km/s) = 6.60976 3.54213 5.30262
# Velocity P-wave (km/s) = 8.54565 6.19163 7.46205
#
# Compressibility (1/GPa) = 0.02679759
#
# Stress axis : x y z
#
# Youngs Moduli (GPa) = 56.59050 80.99832 78.07729
#
# Poissons Ratio (x) = -0.29399 0.64506
# Poissons Ratio (y) = -0.20540 0.26399
# Poissons Ratio (z) = 0.46754 0.27387
#
# Static dielectric constant tensor:
#      x y z
#    x 2.006520 0.000000 -0.013510 
#    y 0.000000 1.929960 0.000000 
#    z -0.013510 0.000000 2.067300 
# 
# From -- ./inp_files/308226.got.cif
#   From: 2010.05.17/outbox.cif.g08.bks.cpg/sg12_155_cif.got.tgz:308226.got - 2010.06.03 13:09:07.
