data_PCOD9206963
_publ_section_title
;
Structure prediction by ZEFSAII (Michael W. Deem and Ramdas Pophale) SiO2 
 PCOD9206963
Probable space group: C 2/M
;
_chemical_formula_sum "Si O2"
_cell_formula_units_Z 64
_cell_length_a 31.318905
_cell_length_b 9.033509
_cell_length_c 16.257412
_cell_angle_alpha 90.000000
_cell_angle_beta 133.696689
_cell_angle_gamma 90.000000
_cell_volume 3325.500417
_symmetry_space_group_name_H-M "C 2/M"
_symmetry_group_IT_number 12
_symmetry_cell_setting 'monoclinic'
loop_
_space_group_symop_operation_xyz
x,y,z
-x,y,-z
-x,-y,-z
x,-y,z
1/2+x,1/2+y,z
1/2-x,1/2+y,-z
1/2-x,1/2-y,-z
1/2+x,1/2-y,z
loop_
_atom_site_type_symbol
_atom_site_label
_atom_site_fract_x
_atom_site_fract_y
_atom_site_fract_z
Si Si1 0.004715 0.824336 0.701099
Si Si2 0.114056 0.175051 0.540232
Si Si3 0.568836 0.322533 0.081015
Si Si4 0.311102 0.172718 0.061533
Si Si5 0.916668 0.673423 0.330147
Si Si6 0.406443 0.178099 0.057261
Si Si7 0.665786 0.325219 0.340530
Si Si8 0.207354 0.326745 0.561402
O O1 0.035865 0.764334 0.659669
O O2 0.036635 0.741491 0.818344
O O3 0.935185 0.798300 0.596110
O O4 0.014368 0.000000 0.722413
O O5 0.093424 0.260442 0.593824
O O6 0.176566 0.233980 0.591887
O O7 0.115403 0.000000 0.558187
O O8 0.573737 0.500000 0.074826
O O9 0.606977 0.286788 0.212547
O O10 0.500000 0.286110 0.000000
O O11 0.593514 0.239538 0.034308
O O12 0.356001 0.185772 0.197783
O O13 0.349021 0.227537 0.033546
O O14 0.299135 0.000000 0.031722
O O15 0.250000 0.250000 0.000000
O O16 0.933141 0.500000 0.354917
O O17 0.408535 0.000000 0.062068
O O18 0.663719 0.500000 0.361209
O O19 0.722468 0.306327 0.356143
O O20 0.678961 0.228725 0.437992
O O21 0.195543 0.500000 0.558242
#
# Coordination Sequence:
#
# PCOD9206963 Si02
#       8
#     8   8   8   8   8   8   8   8
#     4  10  21  37  57  80 112 151 189 228 278 339
#     4  11  23  36  55  83 113 147 189 232 277 336
#     4  10  22  39  61  87 116 153 195 239 290 346
#     4   9  20  37  57  82 112 149 188 231 280 335
#     4  10  21  37  55  81 115 146 184 233 282 331
#     4  10  22  39  57  84 118 149 189 238 290 342
#     4   9  20  40  60  81 115 151 188 236 287 344
#     4  10  21  37  59  85 112 149 191 234 289 340
#
# _framework density 19.245222999999999
#
# number of rings (size 3 to 8) (size 9 to 14) (size 15 to 20)
#    0.000    2.125    0.000    3.000    1.750    8.750 
#    0.000    3.750    0.000    0.000    0.000    0.000 
#    0.000    0.000    0.000    0.000    0.000    0.000 
#
# Total GULP energy -178738.985206 kJ/mol
# GULP energy per Si atom -5585.593288 kJ/mol
# Density = 1.920142 g / cm^3
# Si number density = 19.245223 Si / 1000 Ang^3
#
#
#
# Elastic Constant Matrix: (Units=GPa)
#
#
# Indices 1 2 3 4 5 6 
#
# 1 26.1297 12.2076 15.7130 0.0000 15.3361 0.0000
# 2 12.2076 37.2056 15.7930 0.0000 12.0658 0.0000
# 3 15.7130 15.7930 50.2027 0.0000 11.7276 0.0000
# 4 0.0000 0.0000 0.0000 31.1189 0.0000 -5.6870
# 5 15.3361 12.0658 11.7276 0.0000 24.8665 0.0000
# 6 0.0000 0.0000 0.0000 -5.6870 0.0000 26.6199
#
#
#
# Elastic Compliance Matrix: (Units=1/GPa)
#
#
# Indices 1 2 3 4 5 6 
#
# 1 0.067648 -0.006629 -0.011343 0.000000 -0.033155 0.000000
# 2 -0.006629 0.035054 -0.006669 0.000000 -0.009775 0.000000
# 3 -0.011343 -0.006669 0.026047 0.000000 -0.002053 0.000000
# 4 0.000000 0.000000 0.000000 0.033440 0.000000 0.007144
# 5 -0.033155 -0.009775 -0.002053 0.000000 0.066374 0.000000
# 6 0.000000 0.000000 0.000000 0.007144 0.000000 0.039092
#
#
# Mechanical properties :
#
#
# Convention : Reuss Voigt Hill
#
# Bulk Modulus (GPa) = 12.58388 22.32947 17.45668
# Shear Modulus (GPa) = 14.55919 21.17603 17.86761
#
# Velocity S-wave (km/s) = 2.75346 3.32072 3.05030
# Velocity P-wave (km/s) = 4.08186 5.13134 4.63639
#
# Compressibility (1/GPa) = 0.07946676
#
# Stress axis : x y z
#
# Youngs Moduli (GPa) = 14.78242 28.52758 38.39221
#
# Poissons Ratio (x) = 0.18912 0.43547
# Poissons Ratio (y) = 0.09800 0.25604
# Poissons Ratio (z) = 0.16767 0.19025
#
# Static dielectric constant tensor:
#      x y z
#    x 1.668280 0.000000 0.010200 
#    y 0.000000 1.645810 0.000000 
#    z 0.010200 0.000000 1.665660 
# 
# From -- ./inp_files/250104.got.cif
#   From: 2010.05.17/outbox.cif.g08.bks.cpg/sg12_126_cif.got.tgz:250104.got - 2010.06.03 13:09:07.
