data_PCOD9206283
_publ_section_title
;
Structure prediction by ZEFSAII (Michael W. Deem and Ramdas Pophale) SiO2 
 PCOD9206283
Probable space group: C 2/M
;
_chemical_formula_sum "Si O2"
_cell_formula_units_Z 40
_cell_length_a 26.298664
_cell_length_b 7.349034
_cell_length_c 22.045012
_cell_angle_alpha 90.000000
_cell_angle_beta 157.980611
_cell_angle_gamma 90.000000
_cell_volume 1597.398515
_symmetry_space_group_name_H-M "C 2/M"
_symmetry_group_IT_number 12
_symmetry_cell_setting 'monoclinic'
loop_
_space_group_symop_operation_xyz
x,y,z
-x,y,-z
-x,-y,-z
x,-y,z
1/2+x,1/2+y,z
1/2-x,1/2+y,-z
1/2-x,1/2-y,-z
1/2+x,1/2-y,z
loop_
_atom_site_type_symbol
_atom_site_label
_atom_site_fract_x
_atom_site_fract_y
_atom_site_fract_z
Si Si1 0.443340 0.722073 0.726049
Si Si2 0.800117 0.206992 0.452703
Si Si3 0.239547 0.783172 0.059283
Si Si4 0.342112 0.220845 0.826019
Si Si5 0.884672 0.710258 0.330038
O O1 0.436418 0.500000 0.717974
O O2 0.329558 0.791116 0.645773
O O3 0.413432 0.785082 0.623732
O O4 0.589515 0.782301 0.910260
O O5 0.744961 0.286554 0.328830
O O6 0.840280 0.000000 0.483586
O O7 0.354945 0.709074 0.231143
O O8 0.239183 0.000000 0.067653
O O9 0.250000 0.750000 0.000000
O O10 0.256932 0.280837 0.790218
O O11 0.343488 0.000000 0.825893
O O12 0.500000 0.279387 0.000000
O O13 0.925835 0.500000 0.366313
O O14 0.000000 0.794463 0.500000
#
# Coordination Sequence:
#
# PCOD9206283 Si02
#       5
#     8   8   8   8   8
#     4   9  18  33  52  77 107 139 180 225 273 325
#     4   9  18  32  52  79 109 138 175 226 274 326
#     4  10  22  38  57  80 109 146 188 232 276 329
#     4  10  21  36  57  85 115 148 190 236 286 341
#     4  10  23  41  58  83 119 154 192 236 283 342
#
# _framework density 25.040714000000001
#
# number of rings (size 3 to 8) (size 9 to 14) (size 15 to 20)
#    0.000    2.400    0.000    1.200    2.800    3.200 
#    0.000    0.000    0.000    0.000    0.000    0.000 
#    0.000    0.000    0.000    0.000    0.000    0.000 
#
# Total GULP energy -111766.185369 kJ/mol
# GULP energy per Si atom -5588.309268 kJ/mol
# Density = 2.498372 g / cm^3
# Si number density = 25.040714 Si / 1000 Ang^3
#
#
#
# Elastic Constant Matrix: (Units=GPa)
#
#
# Indices 1 2 3 4 5 6 
#
# 1 93.1846 -15.5781 46.1366 0.0000 -32.3744 0.0000
# 2 -15.5781 105.2393 12.3369 0.0000 -7.0523 0.0000
# 3 46.1366 12.3369 173.2658 0.0000 -41.4098 0.0000
# 4 0.0000 0.0000 0.0000 -14.3603 0.0000 -18.5011
# 5 -32.3744 -7.0523 -41.4098 0.0000 56.6646 0.0000
# 6 0.0000 0.0000 0.0000 -18.5011 0.0000 -43.3404
#
#
#
# Elastic Compliance Matrix: (Units=1/GPa)
#
#
# Indices 1 2 3 4 5 6 
#
# 1 0.014921 0.002975 -0.002495 0.000000 0.007072 0.000000
# 2 0.002975 0.010208 -0.000980 0.000000 0.002254 0.000000
# 3 -0.002495 -0.000980 0.007434 0.000000 0.003885 0.000000
# 4 0.000000 0.000000 0.000000 -0.154737 0.000000 0.066054
# 5 0.007072 0.002254 0.003885 0.000000 0.024808 0.000000
# 6 0.000000 0.000000 0.000000 0.066054 0.000000 -0.051270
#
#
# Mechanical properties :
#
#
# Convention : Reuss Voigt Hill
#
# Bulk Modulus (GPa) = 31.68240 50.83118 41.25679
# Shear Modulus (GPa) = -36.46595 21.71240 -7.37677
#
# Velocity S-wave (km/s) = -3.82025 2.94782 -1.71823
# Velocity P-wave (km/s) = 2.60369 5.65064 3.54616
#
# Compressibility (1/GPa) = 0.03156326
#
# Stress axis : x y z
#
# Youngs Moduli (GPa) = 67.02032 97.95773 134.51375
#
# Poissons Ratio (x) = -0.29143 0.33558
# Poissons Ratio (y) = -0.19939 0.13188
# Poissons Ratio (z) = 0.16720 0.09604
#
# Static dielectric constant tensor:
#      x y z
#    x 1.834660 0.000000 0.057420 
#    y 0.000000 1.984910 0.000000 
#    z 0.057420 0.000000 1.949500 
# 
# From -- ./inp_files/162508.got.cif
#   From: 2010.05.17/outbox.cif.g08.bks.cpg/sg12_82_cif.got.tgz:162508.got - 2010.06.03 13:09:07.
