data_PCOD9206695
_publ_section_title
;
Structure prediction by ZEFSAII (Michael W. Deem and Ramdas Pophale) SiO2 
 PCOD9206695
Probable space group: C 2/M
;
_chemical_formula_sum "Si O2"
_cell_formula_units_Z 56
_cell_length_a 13.228711
_cell_length_b 18.199835
_cell_length_c 15.259128
_cell_angle_alpha 90.000000
_cell_angle_beta 118.876737
_cell_angle_gamma 90.000000
_cell_volume 3216.996157
_symmetry_space_group_name_H-M "C 2/M"
_symmetry_group_IT_number 12
_symmetry_cell_setting 'monoclinic'
loop_
_space_group_symop_operation_xyz
x,y,z
-x,y,-z
-x,-y,-z
x,-y,z
1/2+x,1/2+y,z
1/2-x,1/2+y,-z
1/2-x,1/2-y,-z
1/2+x,1/2-y,z
loop_
_atom_site_type_symbol
_atom_site_label
_atom_site_fract_x
_atom_site_fract_y
_atom_site_fract_z
Si Si1 0.878061 0.500000 0.066377
Si Si2 0.240696 0.659312 0.237225
Si Si3 0.175616 0.705565 0.399953
Si Si4 0.090689 0.204759 0.115668
Si Si5 0.958062 0.782210 0.228053
Si Si6 0.652753 0.000000 0.151416
Si Si7 0.832156 0.633174 0.177134
Si Si8 0.011663 0.412856 0.401902
O O1 0.842193 0.570732 0.108227
O O2 0.016536 0.500000 0.115030
O O3 0.830828 0.500000 0.947362
O O4 0.242308 0.687275 0.338082
O O5 0.145227 0.713930 0.154166
O O6 0.361980 0.672933 0.239926
O O7 0.203932 0.575024 0.212291
O O8 0.250000 0.750000 0.500000
O O9 0.123247 0.629939 0.414084
O O10 0.063207 0.754731 0.331738
O O11 0.200704 0.153104 0.144446
O O12 0.019208 0.180755 0.171285
O O13 0.000000 0.206127 0.000000
O O14 0.893341 0.707803 0.169323
O O15 0.903819 0.610702 0.294830
O O16 0.024152 0.500000 0.398560
O O17 0.000000 0.394605 0.500000
#
# Coordination Sequence:
#
# PCOD9206695 Si02
#       8
#     4   8   8   8   8   4   8   8
#     4  11  22  36  59  89 116 159 202 247 298 351
#     4  10  23  39  59  88 119 157 200 251 301 357
#     4  10  22  36  65  89 115 151 198 250 298 365
#     4  10  22  36  60  85 118 161 204 250 299 348
#     4   9  21  38  58  85 119 156 198 249 297 357
#     4  11  24  36  63  85 123 156 204 241 306 362
#     4  10  21  38  59  86 122 150 203 256 293 356
#     4  10  21  36  61  86 117 152 194 252 309 352
#
# _framework density 17.407543
#
# number of rings (size 3 to 8) (size 9 to 14) (size 15 to 20)
#    0.000    2.000    0.714    2.571   15.000    1.143 
#    0.000    1.071    1.571    0.857    0.000    0.000 
#    0.000    0.000    0.000    0.000    0.000    0.000 
#
# Total GULP energy -156235.419679 kJ/mol
# GULP energy per Si atom -5579.836417 kJ/mol
# Density = 1.736792 g / cm^3
# Si number density = 17.407543 Si / 1000 Ang^3
#
#
#
# Elastic Constant Matrix: (Units=GPa)
#
#
# Indices 1 2 3 4 5 6 
#
# 1 148.3671 50.2608 62.3034 0.0000 -2.5012 0.0000
# 2 50.2608 85.7697 43.1794 0.0000 -6.3050 0.0000
# 3 62.3034 43.1794 101.3642 0.0000 -7.3373 0.0000
# 4 0.0000 0.0000 0.0000 15.2867 0.0000 -5.0784
# 5 -2.5012 -6.3050 -7.3373 0.0000 14.9443 0.0000
# 6 0.0000 0.0000 0.0000 -5.0784 0.0000 19.5909
#
#
#
# Elastic Compliance Matrix: (Units=1/GPa)
#
#
# Indices 1 2 3 4 5 6 
#
# 1 0.009898 -0.003587 -0.004713 0.000000 -0.002171 0.000000
# 2 -0.003587 0.016298 -0.004442 0.000000 0.004095 0.000000
# 3 -0.004713 -0.004442 0.014994 0.000000 0.004699 0.000000
# 4 0.000000 0.000000 0.000000 0.071581 0.000000 0.018555
# 5 -0.002171 0.004095 0.004699 0.000000 0.070587 0.000000
# 6 0.000000 0.000000 0.000000 0.018555 0.000000 0.055854
#
#
# Mechanical properties :
#
#
# Convention : Reuss Voigt Hill
#
# Bulk Modulus (GPa) = 63.66377 71.88758 67.77568
# Shear Modulus (GPa) = 18.52332 21.94819 20.23575
#
# Velocity S-wave (km/s) = 3.26559 3.55469 3.41320
# Velocity P-wave (km/s) = 7.13237 7.63113 7.38596
#
# Compressibility (1/GPa) = 0.01570752
#
# Stress axis : x y z
#
# Youngs Moduli (GPa) = 101.03521 61.35653 66.69238
#
# Poissons Ratio (x) = 0.22009 0.31430
# Poissons Ratio (y) = 0.36241 0.29622
# Poissons Ratio (z) = 0.47614 0.27252
#
# Static dielectric constant tensor:
#      x y z
#    x 1.587460 0.000000 -0.023760 
#    y 0.000000 1.581690 0.000000 
#    z -0.023760 0.000000 1.616160 
# 
# From -- ./inp_files/206618.got.cif
#   From: 2010.05.17/outbox.cif.g08.bks.cpg/sg12_104_cif.got.tgz:206618.got - 2010.06.03 13:09:07.
