data_PCOD9206562
_publ_section_title
;
Structure prediction by ZEFSAII (Michael W. Deem and Ramdas Pophale) SiO2 
 PCOD9206562
Probable space group: C 2/M
;
_chemical_formula_sum "Si O2"
_cell_formula_units_Z 56
_cell_length_a 31.643029
_cell_length_b 8.978548
_cell_length_c 11.733895
_cell_angle_alpha 90.000000
_cell_angle_beta 55.856570
_cell_angle_gamma 90.000000
_cell_volume 2759.086235
_symmetry_space_group_name_H-M "C 2/M"
_symmetry_group_IT_number 12
_symmetry_cell_setting 'monoclinic'
loop_
_space_group_symop_operation_xyz
x,y,z
-x,y,-z
-x,-y,-z
x,-y,z
1/2+x,1/2+y,z
1/2-x,1/2+y,-z
1/2-x,1/2-y,-z
1/2+x,1/2-y,z
loop_
_atom_site_type_symbol
_atom_site_label
_atom_site_fract_x
_atom_site_fract_y
_atom_site_fract_z
Si Si1 0.611780 0.678591 0.090029
Si Si2 0.831223 0.328191 0.363687
Si Si3 0.277219 0.175840 0.065745
Si Si4 0.757728 0.831112 0.312366
Si Si5 0.440572 0.321161 0.589384
Si Si6 0.923742 0.678517 0.379974
Si Si7 0.023451 0.321432 0.087466
O O1 0.615951 0.500000 0.077414
O O2 0.586211 0.718456 0.251140
O O3 0.574664 0.738965 0.047392
O O4 0.666804 0.754217 0.003310
O O5 0.837527 0.500000 0.313832
O O6 0.808427 0.225403 0.300049
O O7 0.788042 0.329320 0.527523
O O8 0.882889 0.276166 0.345734
O O9 0.246852 0.221229 0.225421
O O10 0.280153 0.000000 0.047712
O O11 0.250000 0.250000 0.000000
O O12 0.763966 0.000000 0.261239
O O13 0.500000 0.273444 0.500000
O O14 0.439340 0.500000 0.581067
O O15 0.415401 0.251386 0.515155
O O16 0.918922 0.500000 0.398258
O O17 0.979922 0.712832 0.247022
O O18 0.032254 0.500000 0.073142
O O19 0.000000 0.281259 0.000000
#
# Coordination Sequence:
#
# PCOD9206562 Si02
#       7
#     8   8   8   8   8   8   8
#     4  11  24  43  65  92 124 163 210 258 313 373
#     4   9  20  38  61  91 125 163 205 255 308 363
#     4  12  27  46  67  91 124 163 208 260 318 378
#     4  10  21  40  63  91 124 161 209 256 308 370
#     4  10  21  39  60  86 122 158 197 249 302 357
#     4  10  21  36  59  90 122 160 207 252 302 365
#     4  10  22  39  60  91 129 169 211 253 306 370
#
# _framework density 20.296575000000001
#
# number of rings (size 3 to 8) (size 9 to 14) (size 15 to 20)
#    0.000    1.714    1.429    2.143    4.000    2.857 
#    0.000    0.000    0.000    0.000    0.000    0.000 
#    0.000    0.000    0.000    0.000    0.000    0.000 
#
# Total GULP energy -156541.467064 kJ/mol
# GULP energy per Si atom -5590.766681 kJ/mol
# Density = 2.025038 g / cm^3
# Si number density = 20.296575 Si / 1000 Ang^3
#
#
#
# Elastic Constant Matrix: (Units=GPa)
#
#
# Indices 1 2 3 4 5 6 
#
# 1 118.0961 47.7985 11.5184 0.0000 9.2829 0.0000
# 2 47.7985 74.8552 26.2505 0.0000 3.4972 0.0000
# 3 11.5184 26.2505 52.6813 0.0000 14.8528 0.0000
# 4 0.0000 0.0000 0.0000 27.8665 0.0000 5.5415
# 5 9.2829 3.4972 14.8528 0.0000 30.6003 0.0000
# 6 0.0000 0.0000 0.0000 5.5415 0.0000 38.7583
#
#
#
# Elastic Compliance Matrix: (Units=1/GPa)
#
#
# Indices 1 2 3 4 5 6 
#
# 1 0.011897 -0.008350 0.002674 0.000000 -0.003953 0.000000
# 2 -0.008350 0.022201 -0.010700 0.000000 0.005189 0.000000
# 3 0.002674 -0.010700 0.027357 0.000000 -0.012867 0.000000
# 4 0.000000 0.000000 0.000000 0.036935 0.000000 -0.005281
# 5 -0.003953 0.005189 -0.012867 0.000000 0.039531 0.000000
# 6 0.000000 0.000000 0.000000 -0.005281 0.000000 0.026556
#
#
# Mechanical properties :
#
#
# Convention : Reuss Voigt Hill
#
# Bulk Modulus (GPa) = 34.83976 46.30749 40.57362
# Shear Modulus (GPa) = 24.17843 30.11603 27.14723
#
# Velocity S-wave (km/s) = 3.45520 3.85619 3.66119
# Velocity P-wave (km/s) = 5.75504 6.53390 6.15680
#
# Compressibility (1/GPa) = 0.02870284
#
# Stress axis : x y z
#
# Youngs Moduli (GPa) = 84.05380 45.04365 36.55424
#
# Poissons Ratio (x) = 0.37611 -0.09774
# Poissons Ratio (y) = 0.70184 0.39112
# Poissons Ratio (z) = -0.22475 0.48196
#
# Static dielectric constant tensor:
#      x y z
#    x 1.704330 0.000000 -0.009630 
#    y 0.000000 1.682290 0.000000 
#    z -0.009630 0.000000 1.742800 
# 
# From -- ./inp_files/187217.got.cif
#   From: 2010.05.17/outbox.cif.g08.bks.cpg/sg12_94_cif.got.tgz:187217.got - 2010.06.03 13:09:07.
