data_PCOD9206989
_publ_section_title
;
Structure prediction by ZEFSAII (Michael W. Deem and Ramdas Pophale) SiO2 
 PCOD9206989
Probable space group: C 2/M
;
_chemical_formula_sum "Si O2"
_cell_formula_units_Z 64
_cell_length_a 29.888799
_cell_length_b 8.868512
_cell_length_c 16.009920
_cell_angle_alpha 90.000000
_cell_angle_beta 117.733792
_cell_angle_gamma 90.000000
_cell_volume 3756.212927
_symmetry_space_group_name_H-M "C 2/M"
_symmetry_group_IT_number 12
_symmetry_cell_setting 'monoclinic'
loop_
_space_group_symop_operation_xyz
x,y,z
-x,y,-z
-x,-y,-z
x,-y,z
1/2+x,1/2+y,z
1/2-x,1/2+y,-z
1/2-x,1/2-y,-z
1/2+x,1/2-y,z
loop_
_atom_site_type_symbol
_atom_site_label
_atom_site_fract_x
_atom_site_fract_y
_atom_site_fract_z
Si Si1 0.186474 0.180524 0.063074
Si Si2 0.276182 0.680372 0.397373
Si Si3 0.794852 0.320485 0.233857
Si Si4 0.362074 0.320054 0.155836
Si Si5 0.172801 0.680445 0.396520
Si Si6 0.589984 0.179393 0.062130
Si Si7 0.539129 0.680763 0.857126
Si Si8 0.074412 0.179948 0.229277
O O1 0.243204 0.217093 0.138877
O O2 0.146265 0.268534 0.084727
O O3 0.178366 0.000000 0.066851
O O4 0.173029 0.215818 0.955295
O O5 0.280810 0.500000 0.402498
O O6 0.291174 0.744360 0.320842
O O7 0.217976 0.719009 0.370568
O O8 0.310001 0.750419 0.500411
O O9 0.796990 0.500000 0.245517
O O10 0.841139 0.263062 0.218272
O O11 0.359763 0.500000 0.167256
O O12 0.418746 0.280236 0.175333
O O13 0.170427 0.500000 0.400588
O O14 0.119986 0.745313 0.319207
O O15 0.575849 0.258253 0.136233
O O16 0.587308 0.000000 0.068233
O O17 0.554597 0.236219 0.955904
O O18 0.543566 0.500000 0.875887
O O19 0.481477 0.714044 0.784046
O O20 0.081133 0.000000 0.234272
#
# Coordination Sequence:
#
# PCOD9206989 Si02
#       8
#     8   8   8   8   8   8   8   8
#     4   9  19  34  50  71 104 142 175 208 251 308
#     4  10  21  37  56  78 106 139 168 199 249 309
#     4  11  21  32  51  78 104 134 173 214 256 301
#     4   9  18  34  52  71 100 137 176 215 253 297
#     4  10  21  37  57  82 108 131 163 209 255 300
#     4  11  21  31  48  76 107 137 173 216 257 297
#     4   9  20  37  53  71 100 140 179 212 251 303
#     4  11  21  34  54  76 102 138 175 208 251 309
#
# _framework density 17.038439
#
# number of rings (size 3 to 8) (size 9 to 14) (size 15 to 20)
#    0.000    2.000    0.000    4.875    0.000    9.000 
#    0.000    0.000    0.000    0.750    0.000    5.250 
#    0.000    0.000    0.000    0.000    0.000    0.000 
#
# Total GULP energy -178714.743865 kJ/mol
# GULP energy per Si atom -5584.835746 kJ/mol
# Density = 1.699966 g / cm^3
# Si number density = 17.038439 Si / 1000 Ang^3
#
#
#
# Elastic Constant Matrix: (Units=GPa)
#
#
# Indices 1 2 3 4 5 6 
#
# 1 132.9586 60.2068 92.3184 0.0000 0.1664 0.0000
# 2 60.2068 56.6513 49.1734 0.0000 -0.7372 0.0000
# 3 92.3184 49.1734 90.3867 0.0000 -0.1736 0.0000
# 4 0.0000 0.0000 0.0000 28.9123 0.0000 0.0334
# 5 0.1664 -0.7372 -0.1736 0.0000 29.0349 0.0000
# 6 0.0000 0.0000 0.0000 0.0334 0.0000 24.1509
#
#
#
# Elastic Compliance Matrix: (Units=1/GPa)
#
#
# Indices 1 2 3 4 5 6 
#
# 1 0.028310 -0.009464 -0.023767 0.000000 -0.000545 0.000000
# 2 -0.009464 0.036625 -0.010258 0.000000 0.000923 0.000000
# 3 -0.023767 -0.010258 0.040920 0.000000 0.000121 0.000000
# 4 0.000000 0.000000 0.000000 0.034587 0.000000 -0.000048
# 5 -0.000545 0.000923 0.000121 0.000000 0.034469 0.000000
# 6 0.000000 0.000000 0.000000 -0.000048 0.000000 0.041406
#
#
# Mechanical properties :
#
#
# Convention : Reuss Voigt Hill
#
# Bulk Modulus (GPa) = 52.97373 75.93265 64.45319
# Shear Modulus (GPa) = 16.15061 21.63951 18.89506
#
# Velocity S-wave (km/s) = 3.08213 3.56763 3.33373
# Velocity P-wave (km/s) = 6.61999 7.85066 7.26144
#
# Compressibility (1/GPa) = 0.01887728
#
# Stress axis : x y z
#
# Youngs Moduli (GPa) = 35.32361 27.30377 24.43821
#
# Poissons Ratio (x) = 0.25839 0.58083
# Poissons Ratio (y) = 0.33429 0.25068
# Poissons Ratio (z) = 0.83955 0.28007
#
# Static dielectric constant tensor:
#      x y z
#    x 1.580490 0.000000 0.011920 
#    y 0.000000 1.565820 0.000000 
#    z 0.011920 0.000000 1.545810 
# 
# From -- ./inp_files/243873.got.cif
#   From: 2010.05.17/outbox.cif.g08.bks.cpg/sg12_122_cif.got.tgz:243873.got - 2010.06.03 13:09:07.
