data_PCOD9206477
_publ_section_title
;
Structure prediction by ZEFSAII (Michael W. Deem and Ramdas Pophale) SiO2 
 PCOD9206477
Probable space group: C 2/M
;
_chemical_formula_sum "Si O2"
_cell_formula_units_Z 56
_cell_length_a 16.708790
_cell_length_b 25.936715
_cell_length_c 8.884507
_cell_angle_alpha 90.000000
_cell_angle_beta 134.183904
_cell_angle_gamma 90.000000
_cell_volume 2761.066857
_symmetry_space_group_name_H-M "C 2/M"
_symmetry_group_IT_number 12
_symmetry_cell_setting 'monoclinic'
loop_
_space_group_symop_operation_xyz
x,y,z
-x,y,-z
-x,-y,-z
x,-y,z
1/2+x,1/2+y,z
1/2-x,1/2+y,-z
1/2-x,1/2-y,-z
1/2+x,1/2-y,z
loop_
_atom_site_type_symbol
_atom_site_label
_atom_site_fract_x
_atom_site_fract_y
_atom_site_fract_z
Si Si1 0.261276 0.058285 0.198905
Si Si2 0.000000 0.404696 0.500000
Si Si3 0.772286 0.440291 0.574371
Si Si4 0.219757 0.835859 0.985298
Si Si5 0.500000 0.104084 0.000000
Si Si6 0.988097 0.786451 0.162190
Si Si7 0.104958 0.132692 0.537430
Si Si8 0.035249 0.674300 0.777767
O O1 0.391822 0.062056 0.321717
O O2 0.255770 0.066231 0.372385
O O3 0.207127 0.106696 0.041294
O O4 0.220236 0.000000 0.111533
O O5 0.965221 0.365564 0.586633
O O6 0.753288 0.500000 0.583290
O O7 0.683771 0.407069 0.553201
O O8 0.899695 0.427106 0.790418
O O9 0.348139 0.819734 0.155842
O O10 0.178255 0.838397 0.759324
O O11 0.141202 0.796835 0.969885
O O12 0.557998 0.142146 0.957546
O O13 0.055310 0.827812 0.349388
O O14 0.017793 0.728791 0.254041
O O15 0.000000 0.792212 0.000000
O O16 0.000000 0.111661 0.500000
#
# Coordination Sequence:
#
# PCOD9206477 Si02
#       8
#     8   4   8   8   4   8   8   8
#     4  10  21  38  60  87 121 160 202 249 308 365
#     4  10  21  36  58  90 124 162 195 248 298 374
#     4  11  23  41  64  92 127 167 202 255 315 365
#     4  10  22  41  61  90 123 162 206 260 301 368
#     4  12  21  42  60  98 132 156 205 250 312 382
#     4  11  23  41  63  90 122 165 208 253 305 362
#     4  10  23  42  64  90 125 161 213 258 298 365
#     4  11  22  39  63  90 128 163 201 249 314 369
#
# _framework density 20.282015000000001
#
# number of rings (size 3 to 8) (size 9 to 14) (size 15 to 20)
#    0.000    1.429    3.571    1.714    3.000    0.857 
#    0.000    3.571    0.000    7.714    0.000    0.000 
#    0.000    0.000    0.000    0.000    0.000    0.000 
#
# Total GULP energy -156236.067710 kJ/mol
# GULP energy per Si atom -5579.859561 kJ/mol
# Density = 2.023585 g / cm^3
# Si number density = 20.282015 Si / 1000 Ang^3
#
#
#
# Elastic Constant Matrix: (Units=GPa)
#
#
# Indices 1 2 3 4 5 6 
#
# 1 73.8057 33.8511 26.4395 0.0000 -15.0717 0.0000
# 2 33.8511 98.9595 29.3122 0.0000 -18.4484 0.0000
# 3 26.4395 29.3122 64.8181 0.0000 -13.5545 0.0000
# 4 0.0000 0.0000 0.0000 4.8092 0.0000 -2.8997
# 5 -15.0717 -18.4484 -13.5545 0.0000 32.8871 0.0000
# 6 0.0000 0.0000 0.0000 -2.8997 0.0000 20.8389
#
#
#
# Elastic Compliance Matrix: (Units=1/GPa)
#
#
# Indices 1 2 3 4 5 6 
#
# 1 0.017863 -0.003983 -0.004641 0.000000 0.004040 0.000000
# 2 -0.003983 0.013287 -0.003509 0.000000 0.004182 0.000000
# 3 -0.004641 -0.003509 0.019754 0.000000 0.004046 0.000000
# 4 0.000000 0.000000 0.000000 0.226979 0.000000 0.031584
# 5 0.004040 0.004182 0.004046 0.000000 0.036272 0.000000
# 6 0.000000 0.000000 0.000000 0.031584 0.000000 0.052382
#
#
# Mechanical properties :
#
#
# Convention : Reuss Voigt Hill
#
# Bulk Modulus (GPa) = 37.54044 46.30985 41.92515
# Shear Modulus (GPa) = 12.50998 21.57242 17.04120
#
# Velocity S-wave (km/s) = 2.48624 3.26486 2.90179
# Velocity P-wave (km/s) = 5.17603 6.09056 5.65182
#
# Compressibility (1/GPa) = 0.02663794
#
# Stress axis : x y z
#
# Youngs Moduli (GPa) = 55.98127 75.26382 50.62294
#
# Poissons Ratio (x) = 0.29976 0.23492
# Poissons Ratio (y) = 0.22296 0.17766
# Poissons Ratio (z) = 0.25978 0.26414
#
# Static dielectric constant tensor:
#      x y z
#    x 1.768290 0.000000 -0.018460 
#    y 0.000000 1.701050 0.000000 
#    z -0.018460 0.000000 1.736930 
# 
# From -- ./inp_files/66027.got.cif
#   From: 2010.05.17/outbox.cif.g08.bks.cpg/sg12_34_cif.got.tgz:66027.got - 2010.06.03 13:09:07.
