data_PCOD9206332
_publ_section_title
;
Structure prediction by ZEFSAII (Michael W. Deem and Ramdas Pophale) SiO2 
 PCOD9206332
Probable space group: C 2/M
;
_chemical_formula_sum "Si O2"
_cell_formula_units_Z 56
_cell_length_a 21.836821
_cell_length_b 18.990800
_cell_length_c 9.125173
_cell_angle_alpha 90.000000
_cell_angle_beta 131.419304
_cell_angle_gamma 90.000000
_cell_volume 2837.725035
_symmetry_space_group_name_H-M "C 2/M"
_symmetry_group_IT_number 12
_symmetry_cell_setting 'monoclinic'
loop_
_space_group_symop_operation_xyz
x,y,z
-x,y,-z
-x,-y,-z
x,-y,z
1/2+x,1/2+y,z
1/2-x,1/2+y,-z
1/2-x,1/2-y,-z
1/2+x,1/2-y,z
loop_
_atom_site_type_symbol
_atom_site_label
_atom_site_fract_x
_atom_site_fract_y
_atom_site_fract_z
Si Si1 0.526136 0.778401 0.370327
Si Si2 0.128996 0.683994 0.048241
Si Si3 0.252433 0.414501 0.083155
Si Si4 0.510808 0.633155 0.847932
Si Si5 0.311420 0.189340 0.537824
Si Si6 0.923633 0.920782 0.470311
Si Si7 0.307416 0.652506 0.876442
O O1 0.500000 0.784990 0.500000
O O2 0.512422 0.700306 0.286002
O O3 0.620510 0.794269 0.479265
O O4 0.460643 0.819166 0.164979
O O5 0.180587 0.622646 0.056052
O O6 0.136634 0.672462 0.234727
O O7 0.167827 0.763231 0.077264
O O8 0.245726 0.500000 0.066872
O O9 0.336104 0.389511 0.297187
O O10 0.257805 0.377836 0.933735
O O11 0.448824 0.578320 0.679545
O O12 0.500000 0.649919 0.000000
O O13 0.605144 0.614149 0.979239
O O14 0.250000 0.250000 0.500000
O O15 0.245592 0.139542 0.353320
O O16 0.000000 0.891008 0.500000
O O17 0.915527 0.000000 0.401099
#
# Coordination Sequence:
#
# PCOD9206332 Si02
#       7
#     8   8   8   8   8   8   8
#     4  11  22  37  61  93 123 158 199 250 313 376
#     4  10  22  38  62  89 121 156 204 255 311 369
#     4  11  23  39  60  87 122 163 212 258 306 369
#     4  11  22  33  54  84 123 159 201 245 305 368
#     4  10  21  37  61  92 129 155 199 261 315 363
#     4  10  21  37  55  79 117 167 207 248 304 368
#     4  10  21  36  57  88 118 161 201 252 310 368
#
# _framework density 19.734117999999999
#
# number of rings (size 3 to 8) (size 9 to 14) (size 15 to 20)
#    0.000    1.571    1.429    4.714    8.000    0.286 
#    0.000    0.714    0.000    5.571    0.000    0.000 
#    0.000    0.000    0.000    0.000    0.000    0.000 
#
# Total GULP energy -155879.990843 kJ/mol
# GULP energy per Si atom -5567.142530 kJ/mol
# Density = 1.968920 g / cm^3
# Si number density = 19.734118 Si / 1000 Ang^3
#
#
#
# Elastic Constant Matrix: (Units=GPa)
#
#
# Indices 1 2 3 4 5 6 
#
# 1 79.1973 9.6581 18.7504 0.0000 -3.7250 0.0000
# 2 9.6581 39.9503 17.0055 0.0000 0.2440 0.0000
# 3 18.7504 17.0055 117.4550 0.0000 -5.3272 0.0000
# 4 0.0000 0.0000 0.0000 13.0419 0.0000 4.2864
# 5 -3.7250 0.2440 -5.3272 0.0000 41.8756 0.0000
# 6 0.0000 0.0000 0.0000 4.2864 0.0000 -4.5745
#
#
#
# Elastic Compliance Matrix: (Units=1/GPa)
#
#
# Indices 1 2 3 4 5 6 
#
# 1 0.013388 -0.002506 -0.001730 0.000000 0.000985 0.000000
# 2 -0.002506 0.027162 -0.003570 0.000000 -0.000835 0.000000
# 3 -0.001730 -0.003570 0.009355 0.000000 0.001057 0.000000
# 4 0.000000 0.000000 0.000000 0.058622 0.000000 0.054931
# 5 0.000985 -0.000835 0.001057 0.000000 0.024107 0.000000
# 6 0.000000 0.000000 0.000000 0.054931 0.000000 -0.167134
#
#
# Mechanical properties :
#
#
# Convention : Reuss Voigt Hill
#
# Bulk Modulus (GPa) = 29.16121 36.38118 32.77119
# Shear Modulus (GPa) = -670.63865 22.81453 -323.91206
#
# Velocity S-wave (km/s) = -18.45467 3.40383 -12.82554
# Velocity P-wave (km/s) = 20.95926 5.82441 14.23670
#
# Compressibility (1/GPa) = 0.03429213
#
# Stress axis : x y z
#
# Youngs Moduli (GPa) = 74.69261 36.81628 106.89587
#
# Poissons Ratio (x) = 0.09227 0.18490
# Poissons Ratio (y) = 0.18721 0.38166
# Poissons Ratio (z) = 0.12920 0.13145
#
# Static dielectric constant tensor:
#      x y z
#    x 1.821940 0.000000 -0.043410 
#    y 0.000000 1.733080 0.000000 
#    z -0.043410 0.000000 1.775180 
# 
# From -- ./inp_files/89674.got.cif
#   From: 2010.05.17/outbox.cif.g08.bks.cpg/sg12_45_cif.got.tgz:89674.got - 2010.06.03 13:09:07.
