data_PCOD9206785
_publ_section_title
;
Structure prediction by ZEFSAII (Michael W. Deem and Ramdas Pophale) SiO2 
 PCOD9206785
Probable space group: C 2/M
;
_chemical_formula_sum "Si O2"
_cell_formula_units_Z 46
_cell_length_a 13.666495
_cell_length_b 10.080553
_cell_length_c 16.915339
_cell_angle_alpha 90.000000
_cell_angle_beta 86.961867
_cell_angle_gamma 90.000000
_cell_volume 2327.080311
_symmetry_space_group_name_H-M "C 2/M"
_symmetry_group_IT_number 12
_symmetry_cell_setting 'monoclinic'
loop_
_space_group_symop_operation_xyz
x,y,z
-x,y,-z
-x,-y,-z
x,-y,z
1/2+x,1/2+y,z
1/2-x,1/2+y,-z
1/2-x,1/2-y,-z
1/2+x,1/2-y,z
loop_
_atom_site_type_symbol
_atom_site_label
_atom_site_fract_x
_atom_site_fract_y
_atom_site_fract_z
Si Si1 0.620950 0.289342 0.194252
Si Si2 0.769316 0.756224 0.314922
Si Si3 0.808979 0.500000 0.610123
Si Si4 0.210519 0.347531 0.933914
Si Si5 0.598775 0.352344 0.835680
Si Si6 0.918001 0.500000 0.776807
Si Si7 0.602326 0.000000 0.664659
Si Si8 0.500000 0.000000 0.500000
O O1 0.667159 0.293583 0.280217
O O2 0.701002 0.351858 0.133589
O O3 0.513019 0.346440 0.188810
O O4 0.610033 0.132669 0.176860
O O5 0.829453 0.827723 0.241618
O O6 0.832007 0.630482 0.336785
O O7 0.751865 0.863795 0.383697
O O8 0.859089 0.500000 0.695951
O O9 0.885130 0.500000 0.536281
O O10 0.186886 0.500000 0.957167
O O11 0.122763 0.265974 0.895500
O O12 0.250000 0.250000 0.000000
O O13 0.618269 0.500000 0.868084
O O14 0.031435 0.500000 0.744922
O O15 0.535575 0.000000 0.590621
#
# Coordination Sequence:
#
# PCOD9206785 Si02
#       8
#     8   8   4   8   8   4   4   2
#     4  10  22  35  62  89 122 151 208 256 317 360
#     4  10  21  36  63  92 121 159 203 259 303 364
#     4   9  19  40  57  89 120 164 205 244 308 360
#     4  11  26  43  60  86 124 169 210 256 316 384
#     4  11  22  38  63  93 122 157 201 265 317 366
#     4   9  18  35  60  88 117 155 199 259 302 367
#     4  11  21  38  63  92 125 160 209 251 312 371
#     4  10  24  40  64  86 128 178 206 248 302 388
#
# _framework density 19.76726
#
# number of rings (size 3 to 8) (size 9 to 14) (size 15 to 20)
#    0.000    1.739    2.609    1.043   12.174    1.391 
#    0.000    2.609    0.000    1.043    0.000    0.000 
#    0.000    0.000    0.000    0.000    0.000    0.000 
#
# Total GULP energy -128094.071048 kJ/mol
# GULP energy per Si atom -5569.307437 kJ/mol
# Density = 1.972227 g / cm^3
# Si number density = 19.767260 Si / 1000 Ang^3
#
#
#
# Elastic Constant Matrix: (Units=GPa)
#
#
# Indices 1 2 3 4 5 6 
#
# 1 95.2786 30.3486 0.9817 0.0000 19.9879 0.0000
# 2 30.3486 165.0534 17.9026 0.0000 7.4508 0.0000
# 3 0.9817 17.9026 27.7803 0.0000 9.8219 0.0000
# 4 0.0000 0.0000 0.0000 2.0003 0.0000 -0.6998
# 5 19.9879 7.4508 9.8219 0.0000 20.7957 0.0000
# 6 0.0000 0.0000 0.0000 -0.6998 0.0000 19.9365
#
#
#
# Elastic Compliance Matrix: (Units=1/GPa)
#
#
# Indices 1 2 3 4 5 6 
#
# 1 0.014771 -0.002738 0.007101 0.000000 -0.016569 0.000000
# 2 -0.002738 0.007025 -0.005367 0.000000 0.002650 0.000000
# 3 0.007101 -0.005367 0.049144 0.000000 -0.028113 0.000000
# 4 0.000000 0.000000 0.000000 0.506153 0.000000 0.017768
# 5 -0.016569 0.002650 -0.028113 0.000000 0.076341 0.000000
# 6 0.000000 0.000000 0.000000 0.017768 0.000000 0.050783
#
#
# Mechanical properties :
#
#
# Convention : Reuss Voigt Hill
#
# Bulk Modulus (GPa) = 14.50739 42.95313 28.73026
# Shear Modulus (GPa) = 6.85682 24.47178 15.66430
#
# Velocity S-wave (km/s) = 1.86449 3.52233 2.81808
# Velocity P-wave (km/s) = 3.46267 6.19024 5.01543
#
# Compressibility (1/GPa) = 0.06893038
#
# Stress axis : x y z
#
# Youngs Moduli (GPa) = 67.70243 142.35638 20.34841
#
# Poissons Ratio (x) = 0.38978 -0.14449
# Poissons Ratio (y) = 0.18538 0.10921
# Poissons Ratio (z) = -0.48074 0.76403
#
# Static dielectric constant tensor:
#      x y z
#    x 1.707940 0.000000 0.021410 
#    y 0.000000 1.743650 0.000000 
#    z 0.021410 0.000000 1.671740 
# 
# From -- ./inp_files/308003.got.cif
#   From: 2010.05.17/outbox.cif.g08.bks.cpg/sg12_155_cif.got.tgz:308003.got - 2010.06.03 13:09:07.
