data_PCOD9206506
_publ_section_title
;
Structure prediction by ZEFSAII (Michael W. Deem and Ramdas Pophale) SiO2 
 PCOD9206506
Probable space group: C 2/M
;
_chemical_formula_sum "Si O2"
_cell_formula_units_Z 44
_cell_length_a 18.648519
_cell_length_b 14.884892
_cell_length_c 23.738041
_cell_angle_alpha 90.000000
_cell_angle_beta 20.991586
_cell_angle_gamma 90.000000
_cell_volume 2360.466773
_symmetry_space_group_name_H-M "C 2/M"
_symmetry_group_IT_number 12
_symmetry_cell_setting 'monoclinic'
loop_
_space_group_symop_operation_xyz
x,y,z
-x,y,-z
-x,-y,-z
x,-y,z
1/2+x,1/2+y,z
1/2-x,1/2+y,-z
1/2-x,1/2-y,-z
1/2+x,1/2-y,z
loop_
_atom_site_type_symbol
_atom_site_label
_atom_site_fract_x
_atom_site_fract_y
_atom_site_fract_z
Si Si1 0.528454 0.235930 0.601134
Si Si2 0.942798 0.103832 0.163604
Si Si3 0.500000 0.171230 0.500000
Si Si4 0.808450 0.898621 0.455508
Si Si5 0.305863 0.600771 0.908057
Si Si6 0.383124 0.763349 0.032786
O O1 0.483702 0.229565 0.568403
O O2 0.647837 0.147130 0.532323
O O3 0.656767 0.325021 0.521311
O O4 0.332190 0.238698 0.783675
O O5 0.708276 0.116475 0.350429
O O6 0.085603 0.124120 0.112735
O O7 0.975774 0.000000 0.123559
O O8 0.003094 0.174544 0.071523
O O9 0.014127 0.902941 0.269414
O O10 0.755819 0.000000 0.511532
O O11 0.221196 0.500000 0.975475
O O12 0.150663 0.671112 0.995616
O O13 0.500000 0.806188 0.000000
#
# Coordination Sequence:
#
# PCOD9206506 Si02
#       6
#     8   8   4   8   8   8
#     4  10  21  36  59  84 111 148 186 228 280 327
#     4  11  23  38  57  84 114 148 184 227 279 334
#     4  12  21  38  59  82 112 148 187 230 273 334
#     4   9  18  36  60  84 110 146 190 229 271 331
#     4   9  19  37  61  83 108 148 193 227 267 330
#     4  11  22  38  56  84 117 146 180 234 284 321
#
# _framework density 18.640381000000001
#
# number of rings (size 3 to 8) (size 9 to 14) (size 15 to 20)
#    0.000    1.818    3.636    0.818    0.000    2.182 
#    0.000    0.455    0.000    0.000    0.000    0.000 
#    0.000    0.000    0.000    0.000    0.000    0.000 
#
# Total GULP energy -122646.592666 kJ/mol
# GULP energy per Si atom -5574.845121 kJ/mol
# Density = 1.859796 g / cm^3
# Si number density = 18.640381 Si / 1000 Ang^3
#
#
#
# Elastic Constant Matrix: (Units=GPa)
#
#
# Indices 1 2 3 4 5 6 
#
# 1 99.9504 44.7530 11.3207 0.0232 -10.1652 -0.0151
# 2 44.7530 99.8507 30.0148 -0.0256 -8.3231 0.0108
# 3 11.3207 30.0148 46.3158 -0.0111 -5.4286 -0.0310
# 4 0.0232 -0.0256 -0.0111 14.5055 -0.0155 5.7286
# 5 -10.1652 -8.3231 -5.4286 -0.0155 23.2857 0.0180
# 6 -0.0151 0.0108 -0.0310 5.7286 0.0180 12.4444
#
#
#
# Elastic Compliance Matrix: (Units=1/GPa)
#
#
# Indices 1 2 3 4 5 6 
#
# 1 0.012850 -0.005753 0.001032 -0.000040 0.003794 0.000036
# 2 -0.005753 0.015174 -0.008313 0.000058 0.000974 -0.000069
# 3 0.001032 -0.008313 0.027173 -0.000024 0.003814 0.000081
# 4 -0.000040 0.000058 -0.000024 0.084258 0.000084 -0.038788
# 5 0.003794 0.000974 0.003814 0.000084 0.045838 -0.000091
# 6 0.000036 -0.000069 0.000081 -0.038788 -0.000091 0.098213
#
#
# Mechanical properties :
#
#
# Convention : Reuss Voigt Hill
#
# Bulk Modulus (GPa) = 34.33061 46.47710 40.40386
# Shear Modulus (GPa) = 15.66005 20.71567 18.18786
#
# Velocity S-wave (km/s) = 2.90162 3.33728 3.12705
# Velocity P-wave (km/s) = 5.44823 6.31171 5.89579
#
# Compressibility (1/GPa) = 0.02912852
#
# Stress axis : x y z
#
# Youngs Moduli (GPa) = 77.82093 65.90356 36.80154
#
# Poissons Ratio (x) = 0.37917 -0.03799
# Poissons Ratio (y) = 0.44774 0.30593
# Poissons Ratio (z) = -0.08034 0.54785
#
# Static dielectric constant tensor:
#      x y z
#    x 1.658140 0.000000 -0.025270 
#    y 0.000000 1.646520 0.000020 
#    z -0.025270 0.000020 1.643900 
# 
# From -- ./inp_files/73729.got.cif
#   From: 2010.05.17/outbox.cif.g08.bks.cpg/sg12_37_cif.got.tgz:73729.got - 2010.06.03 13:09:07.
