data_PCOD9206768
_publ_section_title
;
Structure prediction by ZEFSAII (Michael W. Deem and Ramdas Pophale) SiO2 
 PCOD9206768
Probable space group: C 2/M
;
_chemical_formula_sum "Si O2"
_cell_formula_units_Z 28
_cell_length_a 27.584147
_cell_length_b 11.114200
_cell_length_c 5.179589
_cell_angle_alpha 90.000000
_cell_angle_beta 116.122576
_cell_angle_gamma 90.000000
_cell_volume 1425.735176
_symmetry_space_group_name_H-M "C 2/M"
_symmetry_group_IT_number 12
_symmetry_cell_setting 'monoclinic'
loop_
_space_group_symop_operation_xyz
x,y,z
-x,y,-z
-x,-y,-z
x,-y,z
1/2+x,1/2+y,z
1/2-x,1/2+y,-z
1/2-x,1/2-y,-z
1/2+x,1/2-y,z
loop_
_atom_site_type_symbol
_atom_site_label
_atom_site_fract_x
_atom_site_fract_y
_atom_site_fract_z
Si Si1 0.537535 0.500000 0.338098
Si Si2 0.876824 0.787458 0.485207
Si Si3 0.258958 0.366303 0.198667
Si Si4 0.856579 0.361737 0.915381
O O1 0.500000 0.500000 0.500000
O O2 0.576045 0.383708 0.426708
O O3 0.500000 0.500000 0.000000
O O4 0.820709 0.854735 0.429768
O O5 0.885213 0.692549 0.733598
O O6 0.868617 0.718361 0.195369
O O7 0.253090 0.500000 0.059513
O O8 0.208916 0.360258 0.279776
O O9 0.250000 0.250000 0.000000
O O10 0.871564 0.500000 0.996751
#
# Coordination Sequence:
#
# PCOD9206768 Si02
#       4
#     4   8   8   8
#     4  12  26  44  66  90 118 164 222 276 308 346
#     4  11  21  40  61  88 123 164 204 259 309 361
#     4   9  18  34  56  92 128 167 201 243 308 389
#     4  10  21  36  62  94 128 160 195 241 313 395
#
# _framework density 19.638991000000001
#
# number of rings (size 3 to 8) (size 9 to 14) (size 15 to 20)
#    0.000    1.714    1.429    3.429    0.000    1.143 
#    2.571    2.857    0.000   17.143    0.000    0.000 
#    0.000    0.000    0.000    0.000    0.000    0.000 
#
# Total GULP energy -78110.837909 kJ/mol
# GULP energy per Si atom -5579.345565 kJ/mol
# Density = 1.959429 g / cm^3
# Si number density = 19.638991 Si / 1000 Ang^3
#
#
#
# Elastic Constant Matrix: (Units=GPa)
#
#
# Indices 1 2 3 4 5 6 
#
# 1 118.6500 62.4628 58.0959 0.0000 4.7977 0.0000
# 2 62.4628 139.8062 41.7790 0.0000 16.6856 0.0000
# 3 58.0959 41.7790 99.0961 0.0000 -0.8038 0.0000
# 4 0.0000 0.0000 0.0000 29.0324 0.0000 0.6022
# 5 4.7977 16.6856 -0.8038 0.0000 23.8721 0.0000
# 6 0.0000 0.0000 0.0000 0.6022 0.0000 33.6064
#
#
#
# Elastic Compliance Matrix: (Units=1/GPa)
#
#
# Indices 1 2 3 4 5 6 
#
# 1 0.013738 -0.004271 -0.006253 0.000000 0.000014 0.000000
# 2 -0.004271 0.010415 -0.001940 0.000000 -0.006486 0.000000
# 3 -0.006253 -0.001940 0.014600 0.000000 0.003104 0.000000
# 4 0.000000 0.000000 0.000000 0.034457 0.000000 -0.000617
# 5 0.000014 -0.006486 0.003104 0.000000 0.046525 0.000000
# 6 0.000000 0.000000 0.000000 -0.000617 0.000000 0.029767
#
#
# Mechanical properties :
#
#
# Convention : Reuss Voigt Hill
#
# Bulk Modulus (GPa) = 72.33116 75.80307 74.06712
# Shear Modulus (GPa) = 27.92707 30.31650 29.12179
#
# Velocity S-wave (km/s) = 3.77506 3.93324 3.85496
# Velocity P-wave (km/s) = 7.47742 7.70125 7.59016
#
# Compressibility (1/GPa) = 0.01382530
#
# Stress axis : x y z
#
# Youngs Moduli (GPa) = 72.79228 96.01904 68.49238
#
# Poissons Ratio (x) = 0.41007 0.42830
# Poissons Ratio (y) = 0.31087 0.13285
# Poissons Ratio (z) = 0.45519 0.18625
#
# Static dielectric constant tensor:
#      x y z
#    x 1.681530 0.000000 0.016550 
#    y 0.000000 1.721810 0.000000 
#    z 0.016550 0.000000 1.689400 
# 
# From -- ./inp_files/18964.got.cif
#   From: 2010.05.17/outbox.cif.g08.bks.cpg/sg12_10_cif.got.tgz:18964.got - 2010.06.03 13:09:07.
