data_PCOD9206739
_publ_section_title
;
Structure prediction by ZEFSAII (Michael W. Deem and Ramdas Pophale) SiO2 
 PCOD9206739
Probable space group: C 2/M
;
_chemical_formula_sum "Si O2"
_cell_formula_units_Z 36
_cell_length_a 8.050438
_cell_length_b 18.876614
_cell_length_c 18.189504
_cell_angle_alpha 90.000000
_cell_angle_beta 142.082374
_cell_angle_gamma 90.000000
_cell_volume 1698.658511
_symmetry_space_group_name_H-M "C 2/M"
_symmetry_group_IT_number 12
_symmetry_cell_setting 'monoclinic'
loop_
_space_group_symop_operation_xyz
x,y,z
-x,y,-z
-x,-y,-z
x,-y,z
1/2+x,1/2+y,z
1/2-x,1/2+y,-z
1/2-x,1/2-y,-z
1/2+x,1/2-y,z
loop_
_atom_site_type_symbol
_atom_site_label
_atom_site_fract_x
_atom_site_fract_y
_atom_site_fract_z
Si Si1 0.326807 0.790705 0.726503
Si Si2 0.234240 0.162844 0.858829
Si Si3 0.324596 0.921650 0.624776
Si Si4 0.000000 0.297316 0.500000
Si Si5 0.774800 0.922279 0.656221
O O1 0.295917 0.825009 0.794856
O O2 0.550762 0.730353 0.815041
O O3 0.409961 0.853707 0.701203
O O4 0.071689 0.751658 0.595585
O O5 0.040134 0.094704 0.795638
O O6 0.500000 0.158121 0.000000
O O7 0.515648 0.920757 0.619609
O O8 0.000000 0.915470 0.500000
O O9 0.366321 0.000000 0.673498
O O10 0.759033 0.355637 0.410823
O O11 0.793199 0.000000 0.627776
#
# Coordination Sequence:
#
# PCOD9206739 Si02
#       5
#     8   8   8   4   8
#     4  11  22  38  65  92 127 160 209 260 317 371
#     4  11  25  43  65  90 123 171 219 260 305 363
#     4  10  22  39  61  93 132 165 198 248 316 386
#     4  10  21  36  61  96 126 160 196 256 321 376
#     4  10  23  40  61  92 132 168 203 255 315 379
#
# _framework density 21.193193999999998
#
# number of rings (size 3 to 8) (size 9 to 14) (size 15 to 20)
#    0.000    1.556    1.111    3.667    6.222    5.778 
#    0.000    0.000    0.000    3.333    0.000    0.000 
#    0.000    0.000    0.000    0.000    0.000    0.000 
#
# Total GULP energy -100362.197257 kJ/mol
# GULP energy per Si atom -5575.677625 kJ/mol
# Density = 2.114496 g / cm^3
# Si number density = 21.193194 Si / 1000 Ang^3
#
#
#
# Elastic Constant Matrix: (Units=GPa)
#
#
# Indices 1 2 3 4 5 6 
#
# 1 62.2005 20.1704 37.6520 0.0002 -6.9270 0.0002
# 2 20.1704 136.2172 46.9584 0.0002 -6.2338 0.0002
# 3 37.6520 46.9584 183.0671 0.0003 1.5697 0.0004
# 4 0.0002 0.0002 0.0003 51.2513 0.0000 -0.7507
# 5 -6.9270 -6.2338 1.5697 0.0000 23.3048 0.0001
# 6 0.0002 0.0002 0.0004 -0.7507 0.0001 20.7994
#
#
#
# Elastic Compliance Matrix: (Units=1/GPa)
#
#
# Indices 1 2 3 4 5 6 
#
# 1 0.019374 -0.001338 -0.003690 0.000000 0.005649 0.000000
# 2 -0.001338 0.008270 -0.001863 0.000000 0.001940 0.000000
# 3 -0.003690 -0.001863 0.006717 0.000000 -0.002047 0.000000
# 4 0.000000 0.000000 0.000000 0.019522 0.000000 0.000705
# 5 0.005649 0.001940 -0.002047 0.000000 0.045245 0.000000
# 6 0.000000 0.000000 0.000000 0.000705 0.000000 0.048104
#
#
# Mechanical properties :
#
#
# Convention : Reuss Voigt Hill
#
# Bulk Modulus (GPa) = 48.59314 65.67183 57.13248
# Shear Modulus (GPa) = 29.78434 37.51803 33.65118
#
# Velocity S-wave (km/s) = 3.75290 4.21204 3.98908
# Velocity P-wave (km/s) = 6.46200 7.39659 6.94503
#
# Compressibility (1/GPa) = 0.02057904
#
# Stress axis : x y z
#
# Youngs Moduli (GPa) = 51.61637 120.91427 148.88142
#
# Poissons Ratio (x) = 0.16181 0.54934
# Poissons Ratio (y) = 0.06908 0.27734
# Poissons Ratio (z) = 0.19045 0.22524
#
# Static dielectric constant tensor:
#      x y z
#    x 1.800450 0.000000 0.030900 
#    y 0.000000 1.759660 0.000000 
#    z 0.030900 0.000000 1.790940 
# 
# From -- ./inp_files/301233.got.cif
#   From: 2010.05.17/outbox.cif.g08.bks.cpg/sg12_151_cif.got.tgz:301233.got - 2010.06.03 13:09:07.
