data_PCOD9206712
_publ_section_title
;
Structure prediction by ZEFSAII (Michael W. Deem and Ramdas Pophale) SiO2 
 PCOD9206712
Probable space group: C 2/M
;
_chemical_formula_sum "Si O2"
_cell_formula_units_Z 52
_cell_length_a 17.749774
_cell_length_b 14.400635
_cell_length_c 14.460883
_cell_angle_alpha 90.000000
_cell_angle_beta 42.182141
_cell_angle_gamma 90.000000
_cell_volume 2482.039024
_symmetry_space_group_name_H-M "C 2/M"
_symmetry_group_IT_number 12
_symmetry_cell_setting 'monoclinic'
loop_
_space_group_symop_operation_xyz
x,y,z
-x,y,-z
-x,-y,-z
x,-y,z
1/2+x,1/2+y,z
1/2-x,1/2+y,-z
1/2-x,1/2-y,-z
1/2+x,1/2-y,z
loop_
_atom_site_type_symbol
_atom_site_label
_atom_site_fract_x
_atom_site_fract_y
_atom_site_fract_z
Si Si1 0.963455 0.108645 0.866617
Si Si2 0.282322 0.290223 0.144091
Si Si3 0.228754 0.891377 0.658656
Si Si4 0.753112 0.107622 0.731907
Si Si5 0.627344 0.110207 0.652968
Si Si6 0.500000 0.689035 0.500000
Si Si7 0.061391 0.265075 0.250850
O O1 0.933315 0.164673 0.801736
O O2 0.096032 0.118209 0.762331
O O3 0.936374 0.000000 0.886159
O O4 0.893005 0.157383 0.011548
O O5 0.241329 0.331491 0.279227
O O6 0.295065 0.180625 0.150292
O O7 0.185209 0.303731 0.156784
O O8 0.293026 0.865785 0.506502
O O9 0.252189 0.000000 0.656618
O O10 0.692334 0.127308 0.689350
O O11 0.885908 0.129002 0.601949
O O12 0.735752 0.000000 0.771059
O O13 0.515581 0.169951 0.742072
O O14 0.603593 0.000000 0.669740
O O15 0.507220 0.750426 0.400978
#
# Coordination Sequence:
#
# PCOD9206712 Si02
#       7
#     8   8   8   8   8   4   8
#     4  11  24  42  63  85 113 153 201 247 289 338
#     4  11  23  39  59  86 119 156 197 240 286 342
#     4  10  21  38  63  90 115 150 198 249 292 335
#     4  10  21  37  59  88 120 155 195 240 291 347
#     4  10  21  38  60  89 123 156 190 233 294 357
#     4  10  21  36  61  90 118 150 193 248 297 338
#     4  11  23  39  59  89 122 155 191 236 294 352
#
# _framework density 20.950516
#
# number of rings (size 3 to 8) (size 9 to 14) (size 15 to 20)
#    0.000    1.538    0.000    5.308    0.000    8.615 
#    0.000    2.692    0.000    3.692    0.000    0.000 
#    0.000    0.000    0.000    0.000    0.000    0.000 
#
# Total GULP energy -145433.838638 kJ/mol
# GULP energy per Si atom -5593.609178 kJ/mol
# Density = 2.090283 g / cm^3
# Si number density = 20.950516 Si / 1000 Ang^3
#
#
#
# Elastic Constant Matrix: (Units=GPa)
#
#
# Indices 1 2 3 4 5 6 
#
# 1 99.3236 50.2833 9.4269 0.0000 -12.8147 0.0000
# 2 50.2833 84.0639 31.1994 0.0000 -17.8087 0.0000
# 3 9.4269 31.1994 52.6996 0.0000 -2.1248 0.0000
# 4 0.0000 0.0000 0.0000 26.8699 0.0000 1.3033
# 5 -12.8147 -17.8087 -2.1248 0.0000 20.5282 0.0000
# 6 0.0000 0.0000 0.0000 1.3033 0.0000 11.2065
#
#
#
# Elastic Compliance Matrix: (Units=1/GPa)
#
#
# Indices 1 2 3 4 5 6 
#
# 1 0.014905 -0.009891 0.003232 0.000000 0.001058 0.000000
# 2 -0.009891 0.025723 -0.012862 0.000000 0.014810 0.000000
# 3 0.003232 -0.012862 0.025751 0.000000 -0.006475 0.000000
# 4 0.000000 0.000000 0.000000 0.037428 0.000000 -0.004353
# 5 0.001058 0.014810 -0.006475 0.000000 0.061552 0.000000
# 6 0.000000 0.000000 0.000000 -0.004353 0.000000 0.089740
#
#
# Mechanical properties :
#
#
# Convention : Reuss Voigt Hill
#
# Bulk Modulus (GPa) = 36.58035 46.43403 41.50719
# Shear Modulus (GPa) = 16.48786 21.39941 18.94364
#
# Velocity S-wave (km/s) = 2.80838 3.19944 3.01027
# Velocity P-wave (km/s) = 5.29285 5.98835 5.65131
#
# Compressibility (1/GPa) = 0.02733708
#
# Stress axis : x y z
#
# Youngs Moduli (GPa) = 67.09028 38.87547 38.83343
#
# Poissons Ratio (x) = 0.38452 -0.12551
# Poissons Ratio (y) = 0.66359 0.49949
# Poissons Ratio (z) = -0.21684 0.50003
#
# Static dielectric constant tensor:
#      x y z
#    x 1.737830 0.000000 0.005180 
#    y 0.000000 1.740560 0.000000 
#    z 0.005180 0.000000 1.758640 
# 
# From -- ./inp_files/225623.got.cif
#   From: 2010.05.17/outbox.cif.g08.bks.cpg/sg12_113_cif.got.tgz:225623.got - 2010.06.03 13:09:07.
