data_PCOD9206865
_publ_section_title
;
Structure prediction by ZEFSAII (Michael W. Deem and Ramdas Pophale) SiO2 
 PCOD9206865
Probable space group: C 2/M
;
_chemical_formula_sum "Si O2"
_cell_formula_units_Z 36
_cell_length_a 29.033889
_cell_length_b 7.927285
_cell_length_c 7.063885
_cell_angle_alpha 90.000000
_cell_angle_beta 121.569370
_cell_angle_gamma 90.000000
_cell_volume 1385.212599
_symmetry_space_group_name_H-M "C 2/M"
_symmetry_group_IT_number 12
_symmetry_cell_setting 'monoclinic'
loop_
_space_group_symop_operation_xyz
x,y,z
-x,y,-z
-x,-y,-z
x,-y,z
1/2+x,1/2+y,z
1/2-x,1/2+y,-z
1/2-x,1/2-y,-z
1/2+x,1/2-y,z
loop_
_atom_site_type_symbol
_atom_site_label
_atom_site_fract_x
_atom_site_fract_y
_atom_site_fract_z
Si Si1 0.571267 0.804660 0.499370
Si Si2 0.297508 0.500000 0.134823
Si Si3 0.293145 0.181443 0.862156
Si Si4 0.856798 0.798979 0.675605
Si Si5 0.956715 0.194602 0.147830
O O1 0.621146 0.736184 0.486463
O O2 0.514821 0.782191 0.264900
O O3 0.562545 0.708098 0.676386
O O4 0.577708 0.000000 0.553540
O O5 0.311203 0.349013 0.010038
O O6 0.269016 0.645076 0.216428
O O7 0.307983 0.205460 0.674740
O O8 0.318078 0.000000 0.980900
O O9 0.850481 0.000000 0.678439
O O10 0.908409 0.740991 0.914513
O O11 0.965666 0.000000 0.118252
#
# Coordination Sequence:
#
# PCOD9206865 Si02
#       5
#     8   4   8   8   8
#     4  11  22  35  52  75 108 145 180 221 268 318
#     4   8  16  30  48  76 108 136 172 216 270 330
#     4   9  16  29  50  77 108 137 174 220 265 320
#     4  11  21  33  54  83 106 137 185 225 262 318
#     4  10  21  37  54  73 106 146 180 221 268 314
#
# _framework density 25.988790999999999
#
# number of rings (size 3 to 8) (size 9 to 14) (size 15 to 20)
#    0.667    1.333    1.111    5.333    0.000    6.222 
#    0.000    0.000    0.000    0.000    0.000    9.333 
#    0.000    0.000    0.000    0.000    0.000    0.000 
#
# Total GULP energy -100230.263001 kJ/mol
# GULP energy per Si atom -5568.347945 kJ/mol
# Density = 2.592964 g / cm^3
# Si number density = 25.988791 Si / 1000 Ang^3
#
#
#
# Elastic Constant Matrix: (Units=GPa)
#
#
# Indices 1 2 3 4 5 6 
#
# 1 164.1765 51.3820 48.9058 0.0000 -19.7079 0.0000
# 2 51.3820 135.6363 4.3873 0.0000 -14.4464 0.0000
# 3 48.9058 4.3873 67.5090 0.0000 -9.5816 0.0000
# 4 0.0000 0.0000 0.0000 -1.0012 0.0000 -26.0035
# 5 -19.7079 -14.4464 -9.5816 0.0000 60.2379 0.0000
# 6 0.0000 0.0000 0.0000 -26.0035 0.0000 36.6206
#
#
#
# Elastic Compliance Matrix: (Units=1/GPa)
#
#
# Indices 1 2 3 4 5 6 
#
# 1 0.009049 -0.003097 -0.006179 0.000000 0.001235 0.000000
# 2 -0.003097 0.008629 0.001875 0.000000 0.001355 0.000000
# 3 -0.006179 0.001875 0.019382 0.000000 0.001511 0.000000
# 4 0.000000 0.000000 0.000000 -0.051372 0.000000 -0.036478
# 5 0.001235 0.001355 0.001511 0.000000 0.017570 0.000000
# 6 0.000000 0.000000 0.000000 -0.036478 0.000000 0.001404
#
#
# Mechanical properties :
#
#
# Convention : Reuss Voigt Hill
#
# Bulk Modulus (GPa) = 44.92659 64.07467 54.50063
# Shear Modulus (GPa) = 185.98995 36.68124 111.33560
#
# Velocity S-wave (km/s) = 8.46881 3.76097 6.55232
# Velocity P-wave (km/s) = 10.62790 6.60061 8.84648
#
# Compressibility (1/GPa) = 0.02225853
#
# Stress axis : x y z
#
# Youngs Moduli (GPa) = 110.50974 115.88387 51.59529
#
# Poissons Ratio (x) = 0.35884 0.31880
# Poissons Ratio (y) = 0.34220 -0.09673
# Poissons Ratio (z) = 0.68282 -0.21725
#
# Static dielectric constant tensor:
#      x y z
#    x 2.184360 0.000000 0.086530 
#    y 0.000000 2.002960 0.000000 
#    z 0.086530 0.000000 2.220530 
# 
# From -- ./inp_files/107276.got.cif
#   From: 2010.05.17/outbox.cif.g08.bks.cpg/sg12_54_cif.got.tgz:107276.got - 2010.06.03 13:09:07.
