data_PCOD9206873
_publ_section_title
;
Structure prediction by ZEFSAII (Michael W. Deem and Ramdas Pophale) SiO2 
 PCOD9206873
Probable space group: C 2/M
;
_chemical_formula_sum "Si O2"
_cell_formula_units_Z 48
_cell_length_a 15.111906
_cell_length_b 8.028324
_cell_length_c 20.043098
_cell_angle_alpha 90.000000
_cell_angle_beta 107.181917
_cell_angle_gamma 90.000000
_cell_volume 2323.171818
_symmetry_space_group_name_H-M "C 2/M"
_symmetry_group_IT_number 12
_symmetry_cell_setting 'monoclinic'
loop_
_space_group_symop_operation_xyz
x,y,z
-x,y,-z
-x,-y,-z
x,-y,z
1/2+x,1/2+y,z
1/2-x,1/2+y,-z
1/2-x,1/2-y,-z
1/2+x,1/2-y,z
loop_
_atom_site_type_symbol
_atom_site_label
_atom_site_fract_x
_atom_site_fract_y
_atom_site_fract_z
Si Si1 0.642158 0.202186 0.665007
Si Si2 0.354215 0.700420 0.003902
Si Si3 0.657859 0.805614 0.517630
Si Si4 0.444187 0.305336 0.628647
Si Si5 0.344575 0.703518 0.737740
Si Si6 0.955855 0.796420 0.890857
O O1 0.647512 0.265781 0.589369
O O2 0.549038 0.276195 0.673970
O O3 0.737380 0.248865 0.722198
O O4 0.634528 0.000000 0.664180
O O5 0.355762 0.500000 0.004311
O O6 0.390215 0.753792 0.938439
O O7 0.250000 0.750000 0.000000
O O8 0.438203 0.756784 0.071420
O O9 0.750000 0.750000 0.500000
O O10 0.575156 0.774741 0.447396
O O11 0.667309 0.000000 0.530667
O O12 0.424645 0.500000 0.615880
O O13 0.378533 0.238942 0.672598
O O14 0.348620 0.500000 0.737236
O O15 0.410794 0.760827 0.811796
O O16 0.956303 0.000000 0.890336
#
# Coordination Sequence:
#
# PCOD9206873 Si02
#       6
#     8   8   8   8   8   8
#     4  10  21  37  54  75 102 137 176 216 266 318
#     4   9  17  31  54  82 105 134 176 213 254 304
#     4  11  21  36  57  78 103 136 177 222 269 315
#     4  11  22  36  54  79 104 136 179 220 266 315
#     4   9  18  35  54  73 105 142 175 212 259 315
#     4   8  16  32  53  75 104 143 177 205 249 318
#
# _framework density 20.661408999999999
#
# number of rings (size 3 to 8) (size 9 to 14) (size 15 to 20)
#    0.000    2.333    1.667    2.500    0.000    4.667 
#    0.000    1.667    0.000    4.000    0.000    0.000 
#    0.000    0.000    0.000    0.000    0.000    0.000 
#
# Total GULP energy -133913.982326 kJ/mol
# GULP energy per Si atom -5579.749264 kJ/mol
# Density = 2.061438 g / cm^3
# Si number density = 20.661409 Si / 1000 Ang^3
#
#
#
# Elastic Constant Matrix: (Units=GPa)
#
#
# Indices 1 2 3 4 5 6 
#
# 1 108.3180 -6.1693 12.1134 0.0000 23.1195 0.0000
# 2 -6.1693 10.6556 -3.5426 0.0000 -2.1610 0.0000
# 3 12.1134 -3.5426 79.5881 0.0000 22.7163 0.0000
# 4 0.0000 0.0000 0.0000 11.0394 0.0000 5.5780
# 5 23.1195 -2.1610 22.7163 0.0000 21.9896 0.0000
# 6 0.0000 0.0000 0.0000 5.5780 0.0000 30.6775
#
#
#
# Elastic Compliance Matrix: (Units=1/GPa)
#
#
# Indices 1 2 3 4 5 6 
#
# 1 0.012520 0.005016 0.002743 0.000000 -0.015504 0.000000
# 2 0.005016 0.098047 0.003341 0.000000 0.000910 0.000000
# 3 0.002743 0.003341 0.018472 0.000000 -0.021638 0.000000
# 4 0.000000 0.000000 0.000000 0.099749 0.000000 -0.018137
# 5 -0.015504 0.000910 -0.021638 0.000000 0.084220 0.000000
# 6 0.000000 0.000000 0.000000 -0.018137 0.000000 0.035895
#
#
# Mechanical properties :
#
#
# Convention : Reuss Voigt Hill
#
# Bulk Modulus (GPa) = 6.61201 22.59610 14.60405
# Shear Modulus (GPa) = 13.25853 25.81862 19.53858
#
# Velocity S-wave (km/s) = 2.53594 3.53881 3.07849
# Velocity P-wave (km/s) = 3.43246 5.25906 4.44069
#
# Compressibility (1/GPa) = 0.15123991
#
# Stress axis : x y z
#
# Youngs Moduli (GPa) = 79.87029 10.19923 54.13614
#
# Poissons Ratio (x) = -0.05116 -0.14850
# Poissons Ratio (y) = -0.40067 -0.18087
# Poissons Ratio (z) = -0.21908 -0.03408
#
# Static dielectric constant tensor:
#      x y z
#    x 1.747850 0.000000 0.002620 
#    y 0.000000 1.742030 0.000000 
#    z 0.002620 0.000000 1.787870 
# 
# From -- ./inp_files/308272.got.cif
#   From: 2010.05.17/outbox.cif.g08.bks.cpg/sg12_155_cif.got.tgz:308272.got - 2010.06.03 13:09:07.
