data_PCOD9206345
_publ_section_title
;
Structure prediction by ZEFSAII (Michael W. Deem and Ramdas Pophale) SiO2 
 PCOD9206345
Probable space group: C 2/M
;
_chemical_formula_sum "Si O2"
_cell_formula_units_Z 34
_cell_length_a 14.995813
_cell_length_b 7.282674
_cell_length_c 19.503232
_cell_angle_alpha 90.000000
_cell_angle_beta 42.461648
_cell_angle_gamma 90.000000
_cell_volume 1437.915478
_symmetry_space_group_name_H-M "C 2/M"
_symmetry_group_IT_number 12
_symmetry_cell_setting 'monoclinic'
loop_
_space_group_symop_operation_xyz
x,y,z
-x,y,-z
-x,-y,-z
x,-y,z
1/2+x,1/2+y,z
1/2-x,1/2+y,-z
1/2-x,1/2-y,-z
1/2+x,1/2-y,z
loop_
_atom_site_type_symbol
_atom_site_label
_atom_site_fract_x
_atom_site_fract_y
_atom_site_fract_z
Si Si1 0.604335 0.282682 0.552255
Si Si2 0.296083 0.278625 0.086390
Si Si3 0.498845 0.291260 0.752299
Si Si4 0.564586 0.275921 0.858038
Si Si5 0.000000 0.500000 0.500000
O O1 0.585246 0.500000 0.549399
O O2 0.750000 0.250000 0.500000
O O3 0.512863 0.216339 0.668145
O O4 0.573788 0.159916 0.504501
O O5 0.291513 0.500000 0.087182
O O6 0.155703 0.209044 0.141408
O O7 0.327490 0.221490 0.146972
O O8 0.422329 0.221871 0.970020
O O9 0.546909 0.500000 0.718957
O O10 0.575204 0.209840 0.774122
O O11 0.565604 0.500000 0.855861
#
# Coordination Sequence:
#
# PCOD9206345 Si02
#       5
#     8   8   8   8   2
#     4  11  25  47  72 104 139 182 236 292 359 430
#     4   9  17  31  56  84 119 165 216 247 310 393
#     4  10  21  36  57  88 126 159 213 270 327 396
#     4   8  16  33  53  81 121 167 204 258 311 377
#     4  12  26  48  80  96 140 184 226 298 368 412
#
# _framework density 23.645340000000001
#
# number of rings (size 3 to 8) (size 9 to 14) (size 15 to 20)
#    0.000    2.353    1.176    2.471    1.647    1.882 
#    4.235    3.529    0.000    0.000    0.000    0.000 
#    0.000    0.000    0.000    0.000    0.000    0.000 
#
# Total GULP energy -94710.727973 kJ/mol
# GULP energy per Si atom -5571.219293 kJ/mol
# Density = 2.359152 g / cm^3
# Si number density = 23.645340 Si / 1000 Ang^3
#
#
#
# Elastic Constant Matrix: (Units=GPa)
#
#
# Indices 1 2 3 4 5 6 
#
# 1 150.0576 32.3925 23.3247 0.0000 35.2189 0.0000
# 2 32.3925 155.5817 12.7669 0.0000 21.9060 0.0000
# 3 23.3247 12.7669 7.8777 0.0000 -10.5936 0.0000
# 4 0.0000 0.0000 0.0000 -0.1739 0.0000 -7.7866
# 5 35.2189 21.9060 -10.5936 0.0000 -0.7736 0.0000
# 6 0.0000 0.0000 0.0000 -7.7866 0.0000 21.0658
#
#
#
# Elastic Compliance Matrix: (Units=1/GPa)
#
#
# Indices 1 2 3 4 5 6 
#
# 1 0.003889 -0.002759 0.006489 0.000000 0.010063 0.000000
# 2 -0.002759 0.006185 0.003335 0.000000 0.003859 0.000000
# 3 0.006489 0.003335 0.032274 0.000000 -0.052090 0.000000
# 4 0.000000 0.000000 0.000000 -0.327644 0.000000 -0.121107
# 5 0.010063 0.003859 -0.052090 0.000000 -0.011928 0.000000
# 6 0.000000 0.000000 0.000000 -0.121107 0.000000 0.002705
#
#
# Mechanical properties :
#
#
# Convention : Reuss Voigt Hill
#
# Bulk Modulus (GPa) = 17.70605 50.05392 33.87999
# Shear Modulus (GPa) = -17.25192 20.35916 1.55362
#
# Velocity S-wave (km/s) = -2.70406 2.93750 0.81147
# Velocity P-wave (km/s) = 1.49828 5.72012 3.90352
#
# Compressibility (1/GPa) = 0.05647786
#
# Stress axis : x y z
#
# Youngs Moduli (GPa) = 257.12588 161.68181 30.98484
#
# Poissons Ratio (x) = 0.44611 -0.20107
# Poissons Ratio (y) = 0.70945 -0.10333
# Poissons Ratio (z) = -1.66855 -0.53919
#
# Static dielectric constant tensor:
#      x y z
#    x 1.830300 0.000000 0.032540 
#    y 0.000000 1.915720 0.000000 
#    z 0.032540 0.000000 1.978100 
# 
# From -- ./inp_files/210647.got.cif
#   From: 2010.05.17/outbox.cif.g08.bks.cpg/sg12_106_cif.got.tgz:210647.got - 2010.06.03 13:09:07.
