data_PCOD9206876
_publ_section_title
;
Structure prediction by ZEFSAII (Michael W. Deem and Ramdas Pophale) SiO2 
 PCOD9206876
Probable space group: C 2/M
;
_chemical_formula_sum "Si O2"
_cell_formula_units_Z 64
_cell_length_a 19.482501
_cell_length_b 8.638488
_cell_length_c 32.128559
_cell_angle_alpha 90.000000
_cell_angle_beta 40.768898
_cell_angle_gamma 90.000000
_cell_volume 3530.963643
_symmetry_space_group_name_H-M "C 2/M"
_symmetry_group_IT_number 12
_symmetry_cell_setting 'monoclinic'
loop_
_space_group_symop_operation_xyz
x,y,z
-x,y,-z
-x,-y,-z
x,-y,z
1/2+x,1/2+y,z
1/2-x,1/2+y,-z
1/2-x,1/2-y,-z
1/2+x,1/2-y,z
loop_
_atom_site_type_symbol
_atom_site_label
_atom_site_fract_x
_atom_site_fract_y
_atom_site_fract_z
Si Si1 0.096463 0.685486 0.187060
Si Si2 0.671580 0.812621 0.926966
Si Si3 0.513957 0.812057 0.927144
Si Si4 0.434230 0.812342 0.189624
Si Si5 0.799751 0.684245 0.698045
Si Si6 0.549175 0.686192 0.299846
Si Si7 0.970289 0.813156 0.560244
Si Si8 0.866190 0.814529 0.443420
O O1 0.095342 0.500000 0.189528
O O2 0.213686 0.742000 0.122876
O O3 0.014408 0.735250 0.189082
O O4 0.065189 0.751829 0.246348
O O5 0.611844 0.766516 0.911634
O O6 0.679376 0.000000 0.923476
O O7 0.592993 0.765133 0.000326
O O8 0.526441 0.760428 0.874108
O O9 0.513485 0.000000 0.927381
O O10 0.317859 0.748145 0.249930
O O11 0.429470 0.000000 0.191565
O O12 0.799441 0.500000 0.701173
O O13 0.866517 0.737789 0.627234
O O14 0.860947 0.753260 0.710014
O O15 0.554177 0.500000 0.297569
O O16 0.437294 0.734939 0.371364
O O17 0.000000 0.767397 0.500000
O O18 0.065108 0.771504 0.547778
O O19 0.957429 0.000000 0.567422
O O20 0.750000 0.750000 0.500000
O O21 0.859902 0.000000 0.445017
#
# Coordination Sequence:
#
# PCOD9206876 Si02
#       8
#     8   8   8   8   8   8   8   8
#     4  11  23  35  51  80 112 143 182 226 272 319
#     4   9  17  33  58  81 102 136 184 229 269 322
#     4   8  16  33  57  80 100 136 187 225 263 323
#     4  10  21  37  54  75 111 152 183 218 270 328
#     4  11  22  36  57  84 110 138 181 231 273 319
#     4  10  21  39  59  77 104 145 186 222 269 327
#     4   9  19  37  58  79 106 144 185 219 262 321
#     4   9  19  34  54  79 104 134 172 215 264 316
#
# _framework density 18.125364000000001
#
# number of rings (size 3 to 8) (size 9 to 14) (size 15 to 20)
#    0.000    2.375    0.000    4.125    0.000    6.250 
#    0.000    5.625    0.000    0.000    0.000    0.000 
#    0.000    0.000    0.000    0.000    0.000    0.000 
#
# Total GULP energy -178608.793737 kJ/mol
# GULP energy per Si atom -5581.524804 kJ/mol
# Density = 1.808411 g / cm^3
# Si number density = 18.125364 Si / 1000 Ang^3
#
#
#
# Elastic Constant Matrix: (Units=GPa)
#
#
# Indices 1 2 3 4 5 6 
#
# 1 141.0676 41.6400 133.3656 -0.0001 -2.9221 0.0003
# 2 41.6400 35.2085 43.3663 0.0003 -0.1151 -0.0006
# 3 133.3656 43.3663 179.3078 -0.0001 -4.6370 0.0001
# 4 -0.0001 0.0003 -0.0001 25.0044 -0.0001 -8.0215
# 5 -2.9221 -0.1151 -4.6370 -0.0001 35.3082 0.0001
# 6 0.0003 -0.0006 0.0001 -8.0215 0.0001 23.9307
#
#
#
# Elastic Compliance Matrix: (Units=1/GPa)
#
#
# Indices 1 2 3 4 5 6 
#
# 1 0.026103 -0.009906 -0.017022 0.000000 -0.000108 0.000000
# 2 -0.009906 0.044259 -0.003365 0.000000 -0.001117 0.000001
# 3 -0.017022 -0.003365 0.019080 0.000000 0.001086 0.000000
# 4 0.000000 0.000000 0.000000 0.044812 0.000000 0.015021
# 5 -0.000108 -0.001117 0.001086 0.000000 0.028452 0.000000
# 6 0.000000 0.000001 0.000000 0.015021 0.000000 0.046822
#
#
# Mechanical properties :
#
#
# Convention : Reuss Voigt Hill
#
# Bulk Modulus (GPa) = 34.65549 88.03640 61.34595
# Shear Modulus (GPa) = 17.87419 25.99614 21.93516
#
# Velocity S-wave (km/s) = 3.14370 3.79125 3.48255
# Velocity P-wave (km/s) = 5.68670 8.23656 7.07741
#
# Compressibility (1/GPa) = 0.02885546
#
# Stress axis : x y z
#
# Youngs Moduli (GPa) = 38.30939 22.59425 52.41157
#
# Poissons Ratio (x) = 0.22381 0.89216
# Poissons Ratio (y) = 0.37948 0.17639
# Poissons Ratio (z) = 0.65211 0.07604
#
# Static dielectric constant tensor:
#      x y z
#    x 1.599750 0.000000 0.012070 
#    y 0.000000 1.615840 0.000000 
#    z 0.012070 0.000000 1.612170 
# 
# From -- ./inp_files/378030.got.cif
#   From: 2010.05.17/outbox.cif.g08.bks.cpg/sg12_190_cif.got.tgz:378030.got - 2010.06.03 13:09:07.
