data_PCOD9206310
_publ_section_title
;
Structure prediction by ZEFSAII (Michael W. Deem and Ramdas Pophale) SiO2 
 PCOD9206310
Probable space group: C 2/M
;
_chemical_formula_sum "Si O2"
_cell_formula_units_Z 64
_cell_length_a 19.371201
_cell_length_b 20.510930
_cell_length_c 11.598066
_cell_angle_alpha 90.000000
_cell_angle_beta 129.726625
_cell_angle_gamma 90.000000
_cell_volume 3544.147419
_symmetry_space_group_name_H-M "C 2/M"
_symmetry_group_IT_number 12
_symmetry_cell_setting 'monoclinic'
loop_
_space_group_symop_operation_xyz
x,y,z
-x,y,-z
-x,-y,-z
x,-y,z
1/2+x,1/2+y,z
1/2-x,1/2+y,-z
1/2-x,1/2-y,-z
1/2+x,1/2-y,z
loop_
_atom_site_type_symbol
_atom_site_label
_atom_site_fract_x
_atom_site_fract_y
_atom_site_fract_z
Si Si1 0.863697 0.927829 0.009330
Si Si2 0.717127 0.672893 0.230719
Si Si3 0.298701 0.426885 0.187569
Si Si4 0.953387 0.132081 0.794836
Si Si5 0.699242 0.208544 0.045660
Si Si6 0.692416 0.817695 0.446116
Si Si7 0.820737 0.075073 0.474357
Si Si8 0.498424 0.777222 0.857790
O O1 0.790779 0.877233 0.883160
O O2 0.838583 0.000000 0.944078
O O3 0.864576 0.925004 0.148787
O O4 0.963896 0.911414 0.076495
O O5 0.628489 0.652536 0.208866
O O6 0.709114 0.745122 0.169687
O O7 0.798188 0.666091 0.407406
O O8 0.255319 0.500000 0.135933
O O9 0.239002 0.362767 0.108316
O O10 0.338995 0.421637 0.357926
O O11 0.906508 0.097378 0.638118
O O12 0.997748 0.201776 0.818751
O O13 0.750000 0.250000 0.000000
O O14 0.593407 0.198032 0.912479
O O15 0.750000 0.750000 0.500000
O O16 0.742825 0.874361 0.428639
O O17 0.592557 0.807535 0.291223
O O18 0.797334 0.000000 0.478146
O O19 0.500000 0.781331 0.000000
#
# Coordination Sequence:
#
# PCOD9206310 Si02
#       8
#     8   8   8   8   8   8   8   8
#     4  11  22  37  58  87 123 164 202 247 310 379
#     4  11  21  36  58  87 121 154 196 245 305 360
#     4  10  22  40  59  82 120 169 209 248 307 363
#     4  11  20  34  56  91 123 153 200 247 309 372
#     4  12  22  39  63  89 121 160 208 260 301 366
#     4  11  21  37  60  86 120 158 200 247 308 358
#     4  10  21  36  57  86 125 165 203 251 306 362
#     4  12  20  36  61  91 114 157 200 251 306 356
#
# _framework density 18.057939000000001
#
# number of rings (size 3 to 8) (size 9 to 14) (size 15 to 20)
#    0.000    1.000    6.250    2.250    0.000    3.500 
#    0.000    3.125    0.000    2.250    0.000    1.750 
#    0.000    0.000    0.000    0.000    0.000    0.000 
#
# Total GULP energy -178349.495945 kJ/mol
# GULP energy per Si atom -5573.421748 kJ/mol
# Density = 1.801684 g / cm^3
# Si number density = 18.057939 Si / 1000 Ang^3
#
#
#
# Elastic Constant Matrix: (Units=GPa)
#
#
# Indices 1 2 3 4 5 6 
#
# 1 68.3400 36.8293 52.7594 0.0000 -4.1073 0.0000
# 2 36.8293 123.4806 49.4954 0.0000 -3.9936 0.0000
# 3 52.7594 49.4954 127.9014 0.0000 -0.8899 0.0000
# 4 0.0000 0.0000 0.0000 24.7873 0.0000 -7.1252
# 5 -4.1073 -3.9936 -0.8899 0.0000 29.4067 0.0000
# 6 0.0000 0.0000 0.0000 -7.1252 0.0000 21.2228
#
#
#
# Elastic Compliance Matrix: (Units=1/GPa)
#
#
# Indices 1 2 3 4 5 6 
#
# 1 0.022908 -0.003517 -0.008071 0.000000 0.002478 0.000000
# 2 -0.003517 0.010167 -0.002478 0.000000 0.000814 0.000000
# 3 -0.008071 -0.002478 0.012099 0.000000 -0.001098 0.000000
# 4 0.000000 0.000000 0.000000 0.044652 0.000000 0.014991
# 5 0.002478 0.000814 -0.001098 0.000000 0.034429 0.000000
# 6 0.000000 0.000000 0.000000 0.014991 0.000000 0.052152
#
#
# Mechanical properties :
#
#
# Convention : Reuss Voigt Hill
#
# Bulk Modulus (GPa) = 58.67995 66.43224 62.55610
# Shear Modulus (GPa) = 23.78438 27.12590 25.45514
#
# Velocity S-wave (km/s) = 3.63314 3.87997 3.75859
# Velocity P-wave (km/s) = 7.08277 7.54589 7.31799
#
# Compressibility (1/GPa) = 0.01704159
#
# Stress axis : x y z
#
# Youngs Moduli (GPa) = 43.65232 98.35681 82.64984
#
# Poissons Ratio (x) = 0.34594 0.66710
# Poissons Ratio (y) = 0.15353 0.20480
# Poissons Ratio (z) = 0.35233 0.24372
#
# Static dielectric constant tensor:
#      x y z
#    x 1.667830 0.000000 -0.041850 
#    y 0.000000 1.639210 0.000000 
#    z -0.041850 0.000000 1.643600 
# 
# From -- ./inp_files/159575.got.cif
#   From: 2010.05.17/outbox.cif.g08.bks.cpg/sg12_80_cif.got.tgz:159575.got - 2010.06.03 13:09:07.
