data_PCOD9206894
_publ_section_title
;
Structure prediction by ZEFSAII (Michael W. Deem and Ramdas Pophale) SiO2 
 PCOD9206894
Probable space group: C 2/M
;
_chemical_formula_sum "Si O2"
_cell_formula_units_Z 36
_cell_length_a 12.082476
_cell_length_b 27.575736
_cell_length_c 5.303397
_cell_angle_alpha 90.000000
_cell_angle_beta 104.926411
_cell_angle_gamma 90.000000
_cell_volume 1707.379440
_symmetry_space_group_name_H-M "C 2/M"
_symmetry_group_IT_number 12
_symmetry_cell_setting 'monoclinic'
loop_
_space_group_symop_operation_xyz
x,y,z
-x,y,-z
-x,-y,-z
x,-y,z
1/2+x,1/2+y,z
1/2-x,1/2+y,-z
1/2-x,1/2-y,-z
1/2+x,1/2-y,z
loop_
_atom_site_type_symbol
_atom_site_label
_atom_site_fract_x
_atom_site_fract_y
_atom_site_fract_z
Si Si1 0.076601 0.000000 0.795293
Si Si2 0.629676 0.888116 0.579821
Si Si3 0.774030 0.904314 0.176353
Si Si4 0.607510 0.690537 0.882260
Si Si5 0.323137 0.780390 0.344963
O O1 0.153410 0.951962 0.835436
O O2 0.000000 0.000000 0.500000
O O3 0.000000 0.000000 0.000000
O O4 0.500000 0.906817 0.500000
O O5 0.704516 0.909138 0.395359
O O6 0.624920 0.829989 0.521833
O O7 0.689469 0.896533 0.886363
O O8 0.859776 0.857754 0.252676
O O9 0.591882 0.741573 0.730382
O O10 0.500000 0.681372 0.000000
O O11 0.725548 0.701140 0.097065
O O12 0.250000 0.750000 0.500000
#
# Coordination Sequence:
#
# PCOD9206894 Si02
#       5
#     4   8   8   8   8
#     4  12  26  48  77 102 133 174 212 284 358 392
#     4  11  24  42  69  94 138 181 220 272 337 385
#     4  11  24  46  65 101 132 167 231 277 327 418
#     4  10  22  36  59  87 129 172 216 271 330 387
#     4  10  21  37  54  90 128 171 224 262 313 397
#
# _framework density 21.084942999999999
#
# number of rings (size 3 to 8) (size 9 to 14) (size 15 to 20)
#    0.000    1.333    2.222    2.667    3.111    1.778 
#    0.000    3.333    0.000    0.000    0.000    0.000 
#    0.000    0.000    0.000    0.000    0.000    0.000 
#
# Total GULP energy -100549.759055 kJ/mol
# GULP energy per Si atom -5586.097725 kJ/mol
# Density = 2.103695 g / cm^3
# Si number density = 21.084943 Si / 1000 Ang^3
#
#
#
# Elastic Constant Matrix: (Units=GPa)
#
#
# Indices 1 2 3 4 5 6 
#
# 1 116.1268 12.6263 13.8539 0.0000 -10.6015 0.0000
# 2 12.6263 81.1034 -10.0119 0.0000 10.0551 0.0000
# 3 13.8539 -10.0119 74.5308 0.0000 3.1001 0.0000
# 4 0.0000 0.0000 0.0000 21.8457 0.0000 -14.8041
# 5 -10.6015 10.0551 3.1001 0.0000 37.9533 0.0000
# 6 0.0000 0.0000 0.0000 -14.8041 0.0000 8.0212
#
#
#
# Elastic Compliance Matrix: (Units=1/GPa)
#
#
# Indices 1 2 3 4 5 6 
#
# 1 0.009414 -0.002153 -0.002180 0.000000 0.003378 0.000000
# 2 -0.002153 0.013503 0.002396 0.000000 -0.004375 0.000000
# 3 -0.002180 0.002396 0.014244 0.000000 -0.002407 0.000000
# 4 0.000000 0.000000 0.000000 -0.182580 0.000000 -0.336974
# 5 0.003378 -0.004375 -0.002407 0.000000 0.028647 0.000000
# 6 0.000000 0.000000 0.000000 -0.336974 0.000000 -0.497257
#
#
# Mechanical properties :
#
#
# Convention : Reuss Voigt Hill
#
# Bulk Modulus (GPa) = 30.04098 33.85529 31.94814
# Shear Modulus (GPa) = -8.34643 30.58356 11.11856
#
# Velocity S-wave (km/s) = -1.99175 3.81267 2.29884
# Velocity P-wave (km/s) = 2.99818 5.95595 4.71500
#
# Compressibility (1/GPa) = 0.03328786
#
# Stress axis : x y z
#
# Youngs Moduli (GPa) = 106.22654 74.05559 70.20281
#
# Poissons Ratio (x) = 0.15947 0.15302
# Poissons Ratio (y) = 0.22875 -0.16822
# Poissons Ratio (z) = 0.23154 -0.17745
#
# Static dielectric constant tensor:
#      x y z
#    x 1.730170 0.000000 -0.015610 
#    y 0.000000 1.820090 0.000000 
#    z -0.015610 0.000000 1.744770 
# 
# From -- ./inp_files/7787.got.cif
#   From: 2010.05.17/outbox.cif.g08.bks.cpg/sg12_4_cif.got.tgz:7787.got - 2010.06.03 13:09:07.
