data_PCOD9206578
_publ_section_title
;
Structure prediction by ZEFSAII (Michael W. Deem and Ramdas Pophale) SiO2 
 PCOD9206578
Probable space group: C 2/M
;
_chemical_formula_sum "Si O2"
_cell_formula_units_Z 48
_cell_length_a 19.365284
_cell_length_b 16.454213
_cell_length_c 23.488662
_cell_angle_alpha 90.000000
_cell_angle_beta 162.559935
_cell_angle_gamma 90.000000
_cell_volume 2243.146203
_symmetry_space_group_name_H-M "C 2/M"
_symmetry_group_IT_number 12
_symmetry_cell_setting 'monoclinic'
loop_
_space_group_symop_operation_xyz
x,y,z
-x,y,-z
-x,-y,-z
x,-y,z
1/2+x,1/2+y,z
1/2-x,1/2+y,-z
1/2-x,1/2-y,-z
1/2+x,1/2-y,z
loop_
_atom_site_type_symbol
_atom_site_label
_atom_site_fract_x
_atom_site_fract_y
_atom_site_fract_z
Si Si1 0.634226 0.671885 0.443268
Si Si2 0.947108 0.167326 0.021565
Si Si3 0.474277 0.092856 0.638482
Si Si4 0.787566 0.590849 0.375740
Si Si5 0.417714 0.146107 0.996078
Si Si6 0.785253 0.905253 0.374197
O O1 0.750000 0.750000 0.500000
O O2 0.764307 0.597122 0.515863
O O3 0.359382 0.658029 0.219405
O O4 0.692879 0.658660 0.556357
O O5 0.682421 0.147281 0.823711
O O6 0.008780 0.261381 0.067921
O O7 0.000000 0.132035 0.000000
O O8 0.086738 0.130696 0.182984
O O9 0.384332 0.130262 0.508618
O O10 0.555134 0.000000 0.693163
O O11 0.714390 0.500000 0.334810
O O12 0.000000 0.586425 0.500000
O O13 0.500000 0.109472 0.000000
O O14 0.548792 0.104774 0.151952
O O15 0.000000 0.891073 0.500000
O O16 0.801980 0.000000 0.406547
#
# Coordination Sequence:
#
# PCOD9206578 Si02
#       6
#     8   8   8   8   8   8
#     4  12  26  47  72 106 144 182 229 301 367 428
#     4  11  22  37  64  96 134 181 228 284 341 421
#     4  11  24  41  62  96 139 180 224 287 357 419
#     4  10  21  36  59  91 130 181 233 276 328 410
#     4  11  25  45  74 106 134 182 243 293 357 429
#     4  11  26  48  78 108 140 189 249 306 357 425
#
# _framework density 21.398516000000001
#
# number of rings (size 3 to 8) (size 9 to 14) (size 15 to 20)
#    0.000    1.000    5.000    1.000    2.333    5.000 
#    0.000    1.667    0.000    0.000    0.000    0.000 
#    0.000    0.000    0.000    0.000    0.000    0.000 
#
# Total GULP energy -133878.573030 kJ/mol
# GULP energy per Si atom -5578.273876 kJ/mol
# Density = 2.134981 g / cm^3
# Si number density = 21.398516 Si / 1000 Ang^3
#
#
#
# Elastic Constant Matrix: (Units=GPa)
#
#
# Indices 1 2 3 4 5 6 
#
# 1 94.4884 22.6916 42.5116 -0.0231 -3.4430 -0.0038
# 2 22.6916 69.8060 19.9476 0.1213 -9.6719 0.0334
# 3 42.5116 19.9476 144.7306 0.2398 -10.2848 0.0216
# 4 -0.0231 0.1213 0.2398 47.2210 0.0780 -8.6716
# 5 -3.4430 -9.6719 -10.2848 0.0780 37.8049 -0.0069
# 6 -0.0038 0.0334 0.0216 -8.6716 -0.0069 31.0340
#
#
#
# Elastic Compliance Matrix: (Units=1/GPa)
#
#
# Indices 1 2 3 4 5 6 
#
# 1 0.012870 -0.003303 -0.003367 0.000036 -0.000589 0.000017
# 2 -0.003303 0.016181 -0.001006 -0.000049 0.003565 -0.000030
# 3 -0.003367 -0.001006 0.008155 -0.000046 0.001654 -0.000018
# 4 0.000036 -0.000049 -0.000046 0.022323 -0.000067 0.006238
# 5 -0.000589 0.003565 0.001654 -0.000067 0.027760 -0.000018
# 6 0.000017 -0.000030 -0.000018 0.006238 -0.000018 0.033966
#
#
# Mechanical properties :
#
#
# Convention : Reuss Voigt Hill
#
# Bulk Modulus (GPa) = 45.76163 53.25854 49.51008
# Shear Modulus (GPa) = 34.74838 38.13693 36.44265
#
# Velocity S-wave (km/s) = 4.03410 4.22622 4.13127
# Velocity P-wave (km/s) = 6.56738 6.98266 6.77820
#
# Compressibility (1/GPa) = 0.02185237
#
# Stress axis : x y z
#
# Youngs Moduli (GPa) = 77.70042 61.80155 122.62835
#
# Poissons Ratio (x) = 0.20414 0.41288
# Poissons Ratio (y) = 0.25666 0.12342
# Poissons Ratio (z) = 0.26161 0.06220
#
# Static dielectric constant tensor:
#      x y z
#    x 1.814570 -0.000010 0.011090 
#    y -0.000010 1.819190 0.000320 
#    z 0.011090 0.000320 1.902090 
# 
# From -- ./inp_files/25735.got.cif
#   From: 2010.05.17/outbox.cif.g08.bks.cpg/sg12_13_cif.got.tgz:25735.got - 2010.06.03 13:09:07.
