data_PCOD9206658
_publ_section_title
;
Structure prediction by ZEFSAII (Michael W. Deem and Ramdas Pophale) SiO2 
 PCOD9206658
Probable space group: C 2/M
;
_chemical_formula_sum "Si O2"
_cell_formula_units_Z 26
_cell_length_a 7.527729
_cell_length_b 36.713272
_cell_length_c 5.326008
_cell_angle_alpha 90.000000
_cell_angle_beta 45.662710
_cell_angle_gamma 90.000000
_cell_volume 1052.784496
_symmetry_space_group_name_H-M "C 2/M"
_symmetry_group_IT_number 12
_symmetry_cell_setting 'monoclinic'
loop_
_space_group_symop_operation_xyz
x,y,z
-x,y,-z
-x,-y,-z
x,-y,z
1/2+x,1/2+y,z
1/2-x,1/2+y,-z
1/2-x,1/2-y,-z
1/2+x,1/2-y,z
loop_
_atom_site_type_symbol
_atom_site_label
_atom_site_fract_x
_atom_site_fract_y
_atom_site_fract_z
Si Si1 0.329279 0.131166 0.418848
Si Si2 0.840514 0.291419 0.407795
Si Si3 0.500000 0.000000 0.500000
Si Si4 0.646268 0.448463 0.604139
O O1 0.500000 0.129480 0.500000
O O2 0.188522 0.170498 0.557688
O O3 0.166509 0.095104 0.581533
O O4 0.500000 0.129241 0.000000
O O5 0.750000 0.250000 0.500000
O O6 0.000000 0.294074 0.500000
O O7 0.000000 0.293704 0.000000
O O8 0.407554 0.968033 0.390877
O O9 0.500000 0.459587 0.500000
O O10 0.500000 0.460126 0.000000
#
# Coordination Sequence:
#
# PCOD9206658 Si02
#       4
#     8   8   2   8
#     4  10  21  42  65  90 132 179 214 272 338 383
#     4  10  21  36  60  91 129 172 215 264 325 379
#     4  12  28  50  72  96 150 164 218 294 338 374
#     4  12  27  45  72 103 129 179 229 266 340 409
#
# _framework density 24.696413
#
# number of rings (size 3 to 8) (size 9 to 14) (size 15 to 20)
#    0.000    1.231    1.538    3.692    0.000    3.692 
#    0.000    0.000    0.000    0.000    0.000    0.000 
#    0.000    0.000    0.000    0.000    0.000    0.000 
#
# Total GULP energy -72389.912974 kJ/mol
# GULP energy per Si atom -5568.454844 kJ/mol
# Density = 2.464020 g / cm^3
# Si number density = 24.696413 Si / 1000 Ang^3
#
#
#
# Elastic Constant Matrix: (Units=GPa)
#
#
# Indices 1 2 3 4 5 6 
#
# 1 166.7624 43.9006 34.9824 0.0000 68.6324 0.0000
# 2 43.9006 289.3656 10.2174 0.0000 9.8764 0.0000
# 3 34.9824 10.2174 131.6567 0.0000 51.3767 0.0000
# 4 0.0000 0.0000 0.0000 156.4567 0.0000 17.6950
# 5 68.6324 9.8764 51.3767 0.0000 46.4507 0.0000
# 6 0.0000 0.0000 0.0000 17.6950 0.0000 79.4253
#
#
#
# Elastic Compliance Matrix: (Units=1/GPa)
#
#
# Indices 1 2 3 4 5 6 
#
# 1 0.024963 -0.002513 0.013630 0.000000 -0.051425 0.000000
# 2 -0.002513 0.003734 -0.001339 0.000000 0.004401 0.000000
# 3 0.013630 -0.001339 0.020805 0.000000 -0.042865 0.000000
# 4 0.000000 0.000000 0.000000 0.006557 0.000000 -0.001461
# 5 -0.051425 0.004401 -0.042865 0.000000 0.143986 0.000000
# 6 0.000000 0.000000 0.000000 -0.001461 0.000000 0.012916
#
#
# Mechanical properties :
#
#
# Convention : Reuss Voigt Hill
#
# Bulk Modulus (GPa) = 14.48075 85.10950 49.79512
# Shear Modulus (GPa) = 23.10250 89.71215 56.40733
#
# Velocity S-wave (km/s) = 3.06185 6.03364 4.78434
# Velocity P-wave (km/s) = 4.28674 9.11465 7.12225
#
# Compressibility (1/GPa) = 0.06905721
#
# Stress axis : x y z
#
# Youngs Moduli (GPa) = 40.05856 267.79307 48.06441
#
# Poissons Ratio (x) = 0.67306 -0.65511
# Poissons Ratio (y) = 0.10068 0.06438
# Poissons Ratio (z) = -0.54599 0.35868
#
# Static dielectric constant tensor:
#      x y z
#    x 2.073840 0.000000 -0.190870 
#    y 0.000000 2.058490 0.000000 
#    z -0.190870 0.000000 2.107390 
# 
# From -- ./inp_files/3432.got.cif
#   From: 2010.05.17/outbox.cif.g08.bks.cpg/sg12_2_cif.got.tgz:3432.got - 2010.06.03 13:09:07.
