data_PCOD9206452
_publ_section_title
;
Structure prediction by ZEFSAII (Michael W. Deem and Ramdas Pophale) SiO2 
 PCOD9206452
Probable space group: C 2/M
;
_chemical_formula_sum "Si O2"
_cell_formula_units_Z 56
_cell_length_a 14.387816
_cell_length_b 13.981458
_cell_length_c 23.008473
_cell_angle_alpha 90.000000
_cell_angle_beta 34.930744
_cell_angle_gamma 90.000000
_cell_volume 2650.182379
_symmetry_space_group_name_H-M "C 2/M"
_symmetry_group_IT_number 12
_symmetry_cell_setting 'monoclinic'
loop_
_space_group_symop_operation_xyz
x,y,z
-x,y,-z
-x,-y,-z
x,-y,z
1/2+x,1/2+y,z
1/2-x,1/2+y,-z
1/2-x,1/2-y,-z
1/2+x,1/2-y,z
loop_
_atom_site_type_symbol
_atom_site_label
_atom_site_fract_x
_atom_site_fract_y
_atom_site_fract_z
Si Si1 0.433932 0.610909 0.973979
Si Si2 0.321953 0.608333 0.246765
Si Si3 0.945659 0.787653 0.743787
Si Si4 0.608578 0.886199 0.885305
Si Si5 0.525000 0.108884 0.629950
Si Si6 0.243788 0.610554 0.410995
Si Si7 0.885172 0.307463 0.895769
O O1 0.481817 0.500000 0.949792
O O2 0.536223 0.650160 0.866459
O O3 0.500000 0.654903 0.000000
O O4 0.239950 0.616397 0.069771
O O5 0.377208 0.500000 0.235557
O O6 0.249084 0.653453 0.343307
O O7 0.164603 0.601127 0.287569
O O8 0.769879 0.821407 0.811170
O O9 0.937838 0.760529 0.815688
O O10 0.027324 0.692887 0.675111
O O11 0.070560 0.873064 0.666088
O O12 0.509441 0.855534 0.877721
O O13 0.648190 0.000000 0.861003
O O14 0.500000 0.875762 0.000000
O O15 0.624136 0.144566 0.522536
O O16 0.580894 0.000000 0.616506
O O17 0.196014 0.500000 0.429025
O O18 0.750000 0.250000 0.000000
#
# Coordination Sequence:
#
# PCOD9206452 Si02
#       7
#     8   8   8   8   8   8   8
#     4  10  21  36  58  88 127 167 204 250 316 391
#     4   9  18  33  58  88 119 156 202 257 319 377
#     4  12  25  40  69  94 131 171 226 269 330 396
#     4  11  26  47  67  94 136 185 225 269 326 397
#     4  10  22  39  63  93 128 161 208 275 339 392
#     4  10  21  40  63  92 123 164 218 274 328 389
#     4  12  25  39  61  93 133 169 216 266 322 382
#
# _framework density 21.130621999999999
#
# number of rings (size 3 to 8) (size 9 to 14) (size 15 to 20)
#    0.000    1.429    1.429    3.429    6.000    4.000 
#    0.000    0.000    0.000    0.429    0.000    4.000 
#    0.000    0.000    0.000    0.000    0.000    0.000 
#
# Total GULP energy -155965.382951 kJ/mol
# GULP energy per Si atom -5570.192248 kJ/mol
# Density = 2.108253 g / cm^3
# Si number density = 21.130622 Si / 1000 Ang^3
#
#
#
# Elastic Constant Matrix: (Units=GPa)
#
#
# Indices 1 2 3 4 5 6 
#
# 1 117.4965 19.1035 35.6610 0.0000 2.3216 0.0000
# 2 19.1035 73.0250 21.8323 -0.0002 14.5133 0.0000
# 3 35.6610 21.8323 110.0742 -0.0012 5.5812 0.0002
# 4 0.0000 -0.0002 -0.0012 34.1853 0.0002 1.0385
# 5 2.3216 14.5133 5.5812 0.0002 30.9114 0.0000
# 6 0.0000 0.0000 0.0002 1.0385 0.0000 26.1302
#
#
#
# Elastic Compliance Matrix: (Units=1/GPa)
#
#
# Indices 1 2 3 4 5 6 
#
# 1 0.009642 -0.001812 -0.002796 0.000000 0.000631 0.000000
# 2 -0.001812 0.016257 -0.002278 0.000000 -0.007086 0.000000
# 3 -0.002796 -0.002278 0.010474 0.000000 -0.000611 0.000000
# 4 0.000000 0.000000 0.000000 0.029288 0.000000 -0.001164
# 5 0.000631 -0.007086 -0.000611 0.000000 0.035740 0.000000
# 6 0.000000 0.000000 0.000000 -0.001164 0.000000 0.038316
#
#
# Mechanical properties :
#
#
# Convention : Reuss Voigt Hill
#
# Bulk Modulus (GPa) = 44.24806 50.42103 47.33454
# Shear Modulus (GPa) = 31.05156 33.17865 32.11510
#
# Velocity S-wave (km/s) = 3.83757 3.96683 3.90274
# Velocity P-wave (km/s) = 6.37351 6.70033 6.53896
#
# Compressibility (1/GPa) = 0.02259986
#
# Stress axis : x y z
#
# Youngs Moduli (GPa) = 103.71630 61.51098 95.47829
#
# Poissons Ratio (x) = 0.11144 0.26699
# Poissons Ratio (y) = 0.18791 0.21753
# Poissons Ratio (z) = 0.29002 0.14014
#
# Static dielectric constant tensor:
#      x y z
#    x 1.923350 0.000000 0.036630 
#    y 0.000000 1.885740 0.000000 
#    z 0.036630 0.000000 1.776170 
# 
# From -- ./inp_files/340331.got.cif
#   From: 2010.05.17/outbox.cif.g08.bks.cpg/sg12_171_cif.got.tgz:340331.got - 2010.06.03 13:09:07.
