data_PCOD9206178
_publ_section_title
;
Structure prediction by ZEFSAII (Michael W. Deem and Ramdas Pophale) SiO2 
 PCOD9206178
Probable space group: C 2/M
;
_chemical_formula_sum "Si O2"
_cell_formula_units_Z 56
_cell_length_a 28.932965
_cell_length_b 8.989463
_cell_length_c 19.707692
_cell_angle_alpha 90.000000
_cell_angle_beta 145.755376
_cell_angle_gamma 90.000000
_cell_volume 2884.433255
_symmetry_space_group_name_H-M "C 2/M"
_symmetry_group_IT_number 12
_symmetry_cell_setting 'monoclinic'
loop_
_space_group_symop_operation_xyz
x,y,z
-x,y,-z
-x,-y,-z
x,-y,z
1/2+x,1/2+y,z
1/2-x,1/2+y,-z
1/2-x,1/2-y,-z
1/2+x,1/2-y,z
loop_
_atom_site_type_symbol
_atom_site_label
_atom_site_fract_x
_atom_site_fract_y
_atom_site_fract_z
Si Si1 0.503501 0.172274 0.802695
Si Si2 0.275806 0.677151 0.102256
Si Si3 0.361650 0.678331 0.445603
Si Si4 0.458285 0.323420 0.290832
Si Si5 0.314825 0.825954 0.529069
Si Si6 0.237370 0.177828 0.193935
Si Si7 0.443429 0.678751 0.993307
O O1 0.543007 0.241437 0.782985
O O2 0.405500 0.182433 0.671880
O O3 0.527423 0.255992 0.899926
O O4 0.526911 0.000000 0.836468
O O5 0.261032 0.500000 0.083428
O O6 0.373973 0.703185 0.227903
O O7 0.231825 0.753733 0.112165
O O8 0.250000 0.750000 0.000000
O O9 0.354955 0.500000 0.434101
O O10 0.458318 0.718614 0.568659
O O11 0.320949 0.740416 0.465184
O O12 0.314255 0.751565 0.325887
O O13 0.463598 0.500000 0.283503
O O14 0.250000 0.750000 0.500000
O O15 0.295088 0.000000 0.493872
O O16 0.245133 0.000000 0.199384
O O17 0.153003 0.214289 0.131223
O O18 0.450454 0.500000 0.004983
O O19 0.500000 0.732414 0.000000
#
# Coordination Sequence:
#
# PCOD9206178 Si02
#       7
#     8   8   8   8   8   8   8
#     4  10  21  36  57  87 116 145 190 246 294 339
#     4  11  23  40  63  91 121 157 200 245 295 353
#     4  10  21  39  61  86 118 157 198 244 296 349
#     4   9  20  39  62  86 117 158 197 235 288 358
#     4  10  21  36  56  85 117 153 195 242 293 349
#     4  11  24  41  60  88 122 156 198 247 299 357
#     4  10  23  41  59  80 111 157 199 236 293 360
#
# _framework density 19.414559000000001
#
# number of rings (size 3 to 8) (size 9 to 14) (size 15 to 20)
#    0.000    1.857    0.000    3.000    2.000    8.857 
#    0.000    2.857    0.000    0.000    0.000    0.000 
#    0.000    0.000    0.000    0.000    0.000    0.000 
#
# Total GULP energy -156481.129192 kJ/mol
# GULP energy per Si atom -5588.611757 kJ/mol
# Density = 1.937037 g / cm^3
# Si number density = 19.414559 Si / 1000 Ang^3
#
#
#
# Elastic Constant Matrix: (Units=GPa)
#
#
# Indices 1 2 3 4 5 6 
#
# 1 95.7813 40.4148 37.3954 0.0000 12.3089 0.0000
# 2 40.4148 58.8551 38.5914 0.0000 7.2980 0.0000
# 3 37.3954 38.5914 88.3553 0.0000 -14.1539 0.0000
# 4 0.0000 0.0000 0.0000 36.8638 0.0000 -4.9918
# 5 12.3089 7.2980 -14.1539 0.0000 22.3808 0.0000
# 6 0.0000 0.0000 0.0000 -4.9918 0.0000 29.6282
#
#
#
# Elastic Compliance Matrix: (Units=1/GPa)
#
#
# Indices 1 2 3 4 5 6 
#
# 1 0.016929 -0.006069 -0.006330 0.000000 -0.011335 0.000000
# 2 -0.006069 0.032511 -0.014237 0.000000 -0.016267 0.000000
# 3 -0.006330 -0.014237 0.023943 0.000000 0.023266 0.000000
# 4 0.000000 0.000000 0.000000 0.027760 0.000000 0.004677
# 5 -0.011335 -0.016267 0.023266 0.000000 0.070933 0.000000
# 6 0.000000 0.000000 0.000000 0.004677 0.000000 0.034540
#
#
# Mechanical properties :
#
#
# Convention : Reuss Voigt Hill
#
# Bulk Modulus (GPa) = 49.72624 52.86611 51.29617
# Shear Modulus (GPa) = 18.75527 26.21389 22.48458
#
# Velocity S-wave (km/s) = 3.11149 3.67852 3.40682
# Velocity P-wave (km/s) = 6.21104 6.73285 6.47720
#
# Compressibility (1/GPa) = 0.02011011
#
# Stress axis : x y z
#
# Youngs Moduli (GPa) = 59.06903 30.75909 41.76647
#
# Poissons Ratio (x) = 0.18667 0.26439
# Poissons Ratio (y) = 0.35847 0.59464
# Poissons Ratio (z) = 0.37393 0.43793
#
# Static dielectric constant tensor:
#      x y z
#    x 1.665150 0.000000 0.035410 
#    y 0.000000 1.648890 0.000000 
#    z 0.035410 0.000000 1.682300 
# 
# From -- ./inp_files/292498.got.cif
#   From: 2010.05.17/outbox.cif.g08.bks.cpg/sg12_147_cif.got.tgz:292498.got - 2010.06.03 13:09:07.
