data_PCOD9206992
_publ_section_title
;
Structure prediction by ZEFSAII (Michael W. Deem and Ramdas Pophale) SiO2 
 PCOD9206992
Probable space group: C 2/M
;
_chemical_formula_sum "Si O2"
_cell_formula_units_Z 48
_cell_length_a 12.098827
_cell_length_b 13.089756
_cell_length_c 13.601467
_cell_angle_alpha 90.000000
_cell_angle_beta 94.760128
_cell_angle_gamma 90.000000
_cell_volume 2146.644034
_symmetry_space_group_name_H-M "C 2/M"
_symmetry_group_IT_number 12
_symmetry_cell_setting 'monoclinic'
loop_
_space_group_symop_operation_xyz
x,y,z
-x,y,-z
-x,-y,-z
x,-y,z
1/2+x,1/2+y,z
1/2-x,1/2+y,-z
1/2-x,1/2-y,-z
1/2+x,1/2-y,z
loop_
_atom_site_type_symbol
_atom_site_label
_atom_site_fract_x
_atom_site_fract_y
_atom_site_fract_z
Si Si1 0.506775 0.386929 0.386691
Si Si2 0.167531 0.115900 0.043790
Si Si3 0.725807 0.314930 0.648205
Si Si4 0.409465 0.257094 0.777703
Si Si5 0.632244 0.881900 0.531035
Si Si6 0.411328 0.189999 0.076402
O O1 0.554927 0.500000 0.384663
O O2 0.381239 0.383346 0.340943
O O3 0.574080 0.310403 0.325378
O O4 0.797686 0.360472 0.563436
O O5 0.114040 0.160049 0.139891
O O6 0.300125 0.124983 0.066866
O O7 0.135672 0.000000 0.021850
O O8 0.128537 0.196001 0.958108
O O9 0.500000 0.357839 0.500000
O O10 0.800338 0.308862 0.750996
O O11 0.676319 0.204251 0.610176
O O12 0.518322 0.196138 0.818746
O O13 0.500000 0.871617 0.500000
O O14 0.651040 0.000000 0.563555
O O15 0.500000 0.156657 0.000000
#
# Coordination Sequence:
#
# PCOD9206992 Si02
#       6
#     8   8   8   8   8   8
#     4  11  23  38  57  83 116 157 203 245 286 334
#     4  10  21  39  64  90 116 150 190 232 285 348
#     4  11  21  36  56  79 111 150 191 238 289 340
#     4  11  22  37  58  85 120 155 190 239 289 340
#     4  10  21  37  56  78 107 148 197 245 291 337
#     4   9  21  41  62  88 119 148 184 234 290 349
#
# _framework density 22.360484
#
# number of rings (size 3 to 8) (size 9 to 14) (size 15 to 20)
#    0.000    1.667    0.000    5.500    0.000    6.667 
#    0.000    3.333    0.000    1.500    0.000    0.000 
#    0.000    0.000    0.000    0.000    0.000    0.000 
#
# Total GULP energy -134223.399264 kJ/mol
# GULP energy per Si atom -5592.641636 kJ/mol
# Density = 2.230959 g / cm^3
# Si number density = 22.360484 Si / 1000 Ang^3
#
#
#
# Elastic Constant Matrix: (Units=GPa)
#
#
# Indices 1 2 3 4 5 6 
#
# 1 110.9741 -0.9978 1.1406 0.0000 23.0230 0.0000
# 2 -0.9978 69.3353 1.7820 0.0000 12.2979 0.0000
# 3 1.1406 1.7820 61.0449 0.0000 26.4790 0.0000
# 4 0.0000 0.0000 0.0000 6.3968 0.0000 -8.3946
# 5 23.0230 12.2979 26.4790 0.0000 41.9344 0.0000
# 6 0.0000 0.0000 0.0000 -8.3946 0.0000 12.1248
#
#
#
# Elastic Compliance Matrix: (Units=1/GPa)
#
#
# Indices 1 2 3 4 5 6 
#
# 1 0.010767 0.001585 0.003468 0.000000 -0.008566 0.000000
# 2 0.001585 0.015637 0.002590 0.000000 -0.007091 0.000000
# 3 0.003468 0.002590 0.023959 0.000000 -0.017792 0.000000
# 4 0.000000 0.000000 0.000000 1.709863 0.000000 1.183823
# 5 -0.008566 -0.007091 -0.017792 0.000000 0.041864 0.000000
# 6 0.000000 0.000000 0.000000 1.183823 0.000000 0.902095
#
#
# Mechanical properties :
#
#
# Convention : Reuss Voigt Hill
#
# Bulk Modulus (GPa) = 15.23260 27.24488 21.23874
# Shear Modulus (GPa) = 1.84449 28.05317 14.94883
#
# Velocity S-wave (km/s) = 0.90922 3.54586 2.58841
# Velocity P-wave (km/s) = 2.81590 5.38284 4.29560
#
# Compressibility (1/GPa) = 0.06564866
#
# Stress axis : x y z
#
# Youngs Moduli (GPa) = 92.87748 63.95213 41.73881
#
# Poissons Ratio (x) = -0.10137 -0.14476
# Poissons Ratio (y) = -0.14723 -0.10810
# Poissons Ratio (z) = -0.32212 -0.16563
#
# Static dielectric constant tensor:
#      x y z
#    x 1.822180 0.000000 0.065610 
#    y 0.000000 1.810020 0.000000 
#    z 0.065610 0.000000 1.745960 
# 
# From -- ./inp_files/204571.got.cif
#   From: 2010.05.17/outbox.cif.g08.bks.cpg/sg12_103_cif.got.tgz:204571.got - 2010.06.03 13:09:07.
