data_PCOD9206128
_publ_section_title
;
Structure prediction by ZEFSAII (Michael W. Deem and Ramdas Pophale) SiO2 
 PCOD9206128
Probable space group: C 2/M
;
_chemical_formula_sum "Si O2"
_cell_formula_units_Z 48
_cell_length_a 23.417698
_cell_length_b 7.701472
_cell_length_c 16.764944
_cell_angle_alpha 90.000000
_cell_angle_beta 142.480767
_cell_angle_gamma 90.000000
_cell_volume 1841.437994
_symmetry_space_group_name_H-M "C 2/M"
_symmetry_group_IT_number 12
_symmetry_cell_setting 'monoclinic'
loop_
_space_group_symop_operation_xyz
x,y,z
-x,y,-z
-x,-y,-z
x,-y,z
1/2+x,1/2+y,z
1/2-x,1/2+y,-z
1/2-x,1/2-y,-z
1/2+x,1/2-y,z
loop_
_atom_site_type_symbol
_atom_site_label
_atom_site_fract_x
_atom_site_fract_y
_atom_site_fract_z
Si Si1 0.636771 0.291142 0.537963
Si Si2 0.115993 0.799850 0.685587
Si Si3 0.859360 0.698799 0.112402
Si Si4 0.640979 0.290272 0.371763
Si Si5 0.197615 0.792339 0.183810
Si Si6 0.523080 0.698692 0.907378
O O1 0.631107 0.500000 0.533028
O O2 0.589082 0.228103 0.567308
O O3 0.602668 0.227930 0.415496
O O4 0.746484 0.243244 0.672869
O O5 0.098281 0.718462 0.751412
O O6 0.229454 0.790411 0.798272
O O7 0.086488 0.000000 0.658162
O O8 0.865342 0.500000 0.094373
O O9 0.914318 0.803016 0.104850
O O10 0.750000 0.750000 0.000000
O O11 0.632720 0.500000 0.359867
O O12 0.750000 0.250000 0.500000
O O13 0.074677 0.719627 0.228642
O O14 0.197414 0.000000 0.171739
O O15 0.093500 0.727209 0.051755
O O16 0.502622 0.500000 0.909009
#
# Coordination Sequence:
#
# PCOD9206128 Si02
#       6
#     8   8   8   8   8   8
#     4   8  17  34  56  78 107 146 183 222 275 335
#     4   9  17  30  51  77 109 146 181 217 268 322
#     4  12  21  30  50  82 118 152 186 224 273 328
#     4  10  22  42  62  82 107 143 188 234 286 338
#     4   9  16  29  53  81 108 141 182 224 271 321
#     4  10  21  36  56  82 114 147 186 233 278 329
#
# _framework density 26.066585
#
# number of rings (size 3 to 8) (size 9 to 14) (size 15 to 20)
#    1.000    1.333    1.667    2.000    0.000    2.000 
#    0.000    1.667    0.000   10.000    0.000    0.000 
#    0.000    0.000    0.000    0.000    0.000    0.000 
#
# Total GULP energy -133960.720533 kJ/mol
# GULP energy per Si atom -5581.696689 kJ/mol
# Density = 2.600726 g / cm^3
# Si number density = 26.066585 Si / 1000 Ang^3
#
#
#
# Elastic Constant Matrix: (Units=GPa)
#
#
# Indices 1 2 3 4 5 6 
#
# 1 105.3067 3.5829 44.1310 0.0000 26.9343 0.0000
# 2 3.5829 75.8209 7.6523 0.0000 -3.1724 0.0000
# 3 44.1310 7.6523 156.2455 0.0000 9.9084 0.0000
# 4 0.0000 0.0000 0.0000 -8.0101 0.0000 -1.5177
# 5 26.9343 -3.1724 9.9084 0.0000 48.0101 0.0000
# 6 0.0000 0.0000 0.0000 -1.5177 0.0000 11.2985
#
#
#
# Elastic Compliance Matrix: (Units=1/GPa)
#
#
# Indices 1 2 3 4 5 6 
#
# 1 0.012437 -0.000544 -0.003082 0.000000 -0.006377 0.000000
# 2 -0.000544 0.013328 -0.000582 0.000000 0.001306 0.000000
# 3 -0.003082 -0.000582 0.007287 0.000000 0.000187 0.000000
# 4 0.000000 0.000000 0.000000 -0.121744 0.000000 -0.016353
# 5 -0.006377 0.001306 0.000187 0.000000 0.024455 0.000000
# 6 0.000000 0.000000 0.000000 -0.016353 0.000000 0.086311
#
#
# Mechanical properties :
#
#
# Convention : Reuss Voigt Hill
#
# Bulk Modulus (GPa) = 40.58802 49.78948 45.18875
# Shear Modulus (GPa) = 129.19571 29.06016 79.12793
#
# Velocity S-wave (km/s) = 7.04779 3.34255 5.51561
# Velocity P-wave (km/s) = 9.04617 5.83431 7.61158
#
# Compressibility (1/GPa) = 0.02463781
#
# Stress axis : x y z
#
# Youngs Moduli (GPa) = 80.40405 75.02984 137.22487
#
# Poissons Ratio (x) = 0.04078 0.42290
# Poissons Ratio (y) = 0.04370 0.07987
# Poissons Ratio (z) = 0.24779 0.04367
#
# Static dielectric constant tensor:
#      x y z
#    x 2.127370 0.000000 0.043580 
#    y 0.000000 1.761040 0.000000 
#    z 0.043580 0.000000 2.160180 
# 
# From -- ./inp_files/230390.got.cif
#   From: 2010.05.17/outbox.cif.g08.bks.cpg/sg12_116_cif.got.tgz:230390.got - 2010.06.03 13:09:07.
