data_PCOD9206246
_publ_section_title
;
Structure prediction by ZEFSAII (Michael W. Deem and Ramdas Pophale) SiO2 
 PCOD9206246
Probable space group: C 2/M
;
_chemical_formula_sum "Si O2"
_cell_formula_units_Z 56
_cell_length_a 17.370932
_cell_length_b 13.682025
_cell_length_c 15.103601
_cell_angle_alpha 90.000000
_cell_angle_beta 130.240709
_cell_angle_gamma 90.000000
_cell_volume 2740.125479
_symmetry_space_group_name_H-M "C 2/M"
_symmetry_group_IT_number 12
_symmetry_cell_setting 'monoclinic'
loop_
_space_group_symop_operation_xyz
x,y,z
-x,y,-z
-x,-y,-z
x,-y,z
1/2+x,1/2+y,z
1/2-x,1/2+y,-z
1/2-x,1/2-y,-z
1/2+x,1/2-y,z
loop_
_atom_site_type_symbol
_atom_site_label
_atom_site_fract_x
_atom_site_fract_y
_atom_site_fract_z
Si Si1 0.433244 0.887005 0.366221
Si Si2 0.498461 0.109558 0.217660
Si Si3 0.383768 0.692103 0.095954
Si Si4 0.741354 0.244475 0.840856
Si Si5 0.089947 0.888713 0.293708
Si Si6 0.090982 0.883530 0.501259
Si Si7 0.305670 0.203316 0.709116
O O1 0.500000 0.858438 0.500000
O O2 0.497641 0.882272 0.323626
O O3 0.337149 0.820868 0.272925
O O4 0.402322 0.000000 0.356548
O O5 0.426321 0.195946 0.128825
O O6 0.609941 0.130979 0.265925
O O7 0.464476 0.000000 0.169533
O O8 0.321785 0.684057 0.141630
O O9 0.481810 0.625206 0.166591
O O10 0.308839 0.681468 0.958356
O O11 0.809930 0.294845 0.818517
O O12 0.068717 0.865174 0.381316
O O13 0.165418 0.809299 0.309185
O O14 0.126077 0.000000 0.313609
O O15 0.194235 0.829312 0.600091
O O16 0.000000 0.857764 0.500000
O O17 0.107067 0.000000 0.523281
#
# Coordination Sequence:
#
# PCOD9206246 Si02
#       7
#     8   8   8   8   8   8   8
#     4   9  19  36  58  83 111 147 192 238 281 330
#     4   9  19  37  59  83 113 147 185 233 286 337
#     4   9  20  40  59  80 110 149 193 238 278 331
#     4  10  21  36  57  83 112 146 192 236 282 337
#     4  10  22  38  57  83 116 153 190 231 283 342
#     4  10  21  38  60  86 115 149 191 235 282 339
#     4  11  22  36  57  84 116 150 184 233 289 340
#
# _framework density 20.437018999999999
#
# number of rings (size 3 to 8) (size 9 to 14) (size 15 to 20)
#    0.000    2.286    0.000    1.714    0.000    8.571 
#    0.000    8.571    0.000    0.429    0.000    0.000 
#    0.000    0.000    0.000    0.000    0.000    0.000 
#
# Total GULP energy -156388.396477 kJ/mol
# GULP energy per Si atom -5585.299874 kJ/mol
# Density = 2.039050 g / cm^3
# Si number density = 20.437019 Si / 1000 Ang^3
#
#
#
# Elastic Constant Matrix: (Units=GPa)
#
#
# Indices 1 2 3 4 5 6 
#
# 1 112.2282 16.4362 20.1709 0.0000 7.1784 0.0000
# 2 16.4362 67.9484 7.3287 0.0000 -3.4110 0.0000
# 3 20.1709 7.3287 103.8036 0.0000 0.2053 0.0000
# 4 0.0000 0.0000 0.0000 7.5056 0.0000 -2.1921
# 5 7.1784 -3.4110 0.2053 0.0000 17.5480 0.0000
# 6 0.0000 0.0000 0.0000 -2.1921 0.0000 12.6836
#
#
#
# Elastic Compliance Matrix: (Units=1/GPa)
#
#
# Indices 1 2 3 4 5 6 
#
# 1 0.009865 -0.002424 -0.001737 0.000000 -0.004486 0.000000
# 2 -0.002424 0.015574 -0.000636 0.000000 0.004026 0.000000
# 3 -0.001737 -0.000636 0.010015 0.000000 0.000470 0.000000
# 4 0.000000 0.000000 0.000000 0.140318 0.000000 0.024251
# 5 -0.004486 0.004026 0.000470 0.000000 0.059599 0.000000
# 6 0.000000 0.000000 0.000000 0.024251 0.000000 0.083033
#
#
# Mechanical properties :
#
#
# Convention : Reuss Voigt Hill
#
# Bulk Modulus (GPa) = 38.67114 41.31686 39.99400
# Shear Modulus (GPa) = 14.85363 23.55040 19.20201
#
# Velocity S-wave (km/s) = 2.69885 3.39830 3.06857
# Velocity P-wave (km/s) = 5.35489 5.97147 5.67157
#
# Compressibility (1/GPa) = 0.02585908
#
# Stress axis : x y z
#
# Youngs Moduli (GPa) = 101.37321 64.20879 99.84940
#
# Poissons Ratio (x) = 0.15564 0.17342
# Poissons Ratio (y) = 0.24573 0.06355
# Poissons Ratio (z) = 0.17607 0.04087
#
# Static dielectric constant tensor:
#      x y z
#    x 1.731550 0.000000 -0.011510 
#    y 0.000000 1.739420 0.000000 
#    z -0.011510 0.000000 1.720230 
# 
# From -- ./inp_files/225409.got.cif
#   From: 2010.05.17/outbox.cif.g08.bks.cpg/sg12_113_cif.got.tgz:225409.got - 2010.06.03 13:09:07.
