data_PCOD9206407
_publ_section_title
;
Structure prediction by ZEFSAII (Michael W. Deem and Ramdas Pophale) SiO2 
 PCOD9206407
Probable space group: C 2/M
;
_chemical_formula_sum "Si O2"
_cell_formula_units_Z 64
_cell_length_a 17.297403
_cell_length_b 19.436834
_cell_length_c 21.408569
_cell_angle_alpha 90.000000
_cell_angle_beta 152.187335
_cell_angle_gamma 90.000000
_cell_volume 3358.320957
_symmetry_space_group_name_H-M "C 2/M"
_symmetry_group_IT_number 12
_symmetry_cell_setting 'monoclinic'
loop_
_space_group_symop_operation_xyz
x,y,z
-x,y,-z
-x,-y,-z
x,-y,z
1/2+x,1/2+y,z
1/2-x,1/2+y,-z
1/2-x,1/2-y,-z
1/2+x,1/2-y,z
loop_
_atom_site_type_symbol
_atom_site_label
_atom_site_fract_x
_atom_site_fract_y
_atom_site_fract_z
Si Si1 0.931476 0.421930 0.068182
Si Si2 0.147247 0.791498 0.053945
Si Si3 0.621103 0.421464 0.320466
Si Si4 0.911755 0.284095 0.796801
Si Si5 0.346501 0.578203 0.022381
Si Si6 0.159204 0.078439 0.771657
Si Si7 0.624580 0.278584 0.686735
Si Si8 0.733859 0.223536 0.558836
O O1 0.993588 0.500000 0.110273
O O2 0.796171 0.417095 0.026990
O O3 0.067446 0.365406 0.179833
O O4 0.831191 0.408735 0.932111
O O5 0.076255 0.747720 0.945220
O O6 0.180772 0.866590 0.050714
O O7 0.302436 0.755991 0.198022
O O8 0.000000 0.793322 0.000000
O O9 0.687359 0.500000 0.366719
O O10 0.485107 0.418858 0.278949
O O11 0.745136 0.358628 0.420121
O O12 0.518006 0.409653 0.182733
O O13 0.754929 0.261248 0.725934
O O14 0.877646 0.258090 0.703293
O O15 0.348254 0.500000 0.000140
O O16 0.126057 0.139554 0.700107
O O17 0.163519 0.000000 0.750412
O O18 0.443497 0.250057 0.544514
O O19 0.750000 0.250000 0.500000
#
# Coordination Sequence:
#
# PCOD9206407 Si02
#       8
#     8   8   8   8   8   8   8   8
#     4   9  19  34  58  90 118 151 194 240 291 341
#     4  10  21  36  58  86 115 153 192 239 296 347
#     4   9  18  36  60  85 114 151 193 239 290 349
#     4  11  23  39  58  82 123 155 191 245 289 344
#     4   9  18  34  59  88 116 148 192 244 295 343
#     4   9  17  33  58  89 119 148 191 236 284 355
#     4  11  23  38  56  89 121 153 195 239 292 346
#     4  12  24  39  61  88 111 158 201 239 292 346
#
# _framework density 19.057144000000001
#
# number of rings (size 3 to 8) (size 9 to 14) (size 15 to 20)
#    0.000    2.000    3.750    1.875    1.750    1.250 
#    0.000    3.125    0.000    3.750    0.000    0.000 
#    0.000    0.000    0.000    0.000    0.000    0.000 
#
# Total GULP energy -178655.119552 kJ/mol
# GULP energy per Si atom -5582.972486 kJ/mol
# Density = 1.901377 g / cm^3
# Si number density = 19.057144 Si / 1000 Ang^3
#
#
#
# Elastic Constant Matrix: (Units=GPa)
#
#
# Indices 1 2 3 4 5 6 
#
# 1 19.4503 13.5385 16.0097 -0.0033 -9.5065 0.0055
# 2 13.5385 127.2926 46.3019 -0.0182 -5.7758 -0.0062
# 3 16.0097 46.3019 72.5054 -0.0426 -14.1177 0.0215
# 4 -0.0033 -0.0182 -0.0426 32.7640 -0.0050 4.3786
# 5 -9.5065 -5.7758 -14.1177 -0.0050 17.9583 0.0070
# 6 0.0055 -0.0062 0.0215 4.3786 0.0070 10.2045
#
#
#
# Elastic Compliance Matrix: (Units=1/GPa)
#
#
# Indices 1 2 3 4 5 6 
#
# 1 0.076888 -0.003705 -0.008169 0.000007 0.033088 -0.000053
# 2 -0.003705 0.010484 -0.006615 -0.000007 -0.003790 0.000028
# 3 -0.008169 -0.006615 0.021919 0.000035 0.010780 -0.000068
# 4 0.000007 -0.000007 0.000035 0.032378 0.000043 -0.013893
# 5 0.033088 -0.003790 0.010780 0.000043 0.080456 -0.000116
# 6 -0.000053 0.000028 -0.000068 -0.013893 -0.000116 0.103957
#
#
# Mechanical properties :
#
#
# Convention : Reuss Voigt Hill
#
# Bulk Modulus (GPa) = 13.82864 41.21651 27.52258
# Shear Modulus (GPa) = 12.91443 21.74525 17.32984
#
# Velocity S-wave (km/s) = 2.60603 3.38162 3.01883
# Velocity P-wave (km/s) = 4.04071 6.07634 5.15991
#
# Compressibility (1/GPa) = 0.07231367
#
# Stress axis : x y z
#
# Youngs Moduli (GPa) = 13.00600 95.38180 45.62230
#
# Poissons Ratio (x) = 0.35338 0.37267
# Poissons Ratio (y) = 0.04819 0.30179
# Poissons Ratio (z) = 0.10624 0.63095
#
# Static dielectric constant tensor:
#      x y z
#    x 1.670880 0.000000 -0.002150 
#    y 0.000000 1.672550 0.000000 
#    z -0.002150 0.000000 1.642290 
# 
# From -- ./inp_files/290971.got.cif
#   From: 2010.05.17/outbox.cif.g08.bks.cpg/sg12_146_cif.got.tgz:290971.got - 2010.06.03 13:09:07.
