data_PCOD9206808
_publ_section_title
;
Structure prediction by ZEFSAII (Michael W. Deem and Ramdas Pophale) SiO2 
 PCOD9206808
Probable space group: C 2/M
;
_chemical_formula_sum "Si O2"
_cell_formula_units_Z 48
_cell_length_a 8.752105
_cell_length_b 28.048293
_cell_length_c 9.540333
_cell_angle_alpha 90.000000
_cell_angle_beta 72.372930
_cell_angle_gamma 90.000000
_cell_volume 2232.015097
_symmetry_space_group_name_H-M "C 2/M"
_symmetry_group_IT_number 12
_symmetry_cell_setting 'monoclinic'
loop_
_space_group_symop_operation_xyz
x,y,z
-x,y,-z
-x,-y,-z
x,-y,z
1/2+x,1/2+y,z
1/2-x,1/2+y,-z
1/2-x,1/2-y,-z
1/2+x,1/2-y,z
loop_
_atom_site_type_symbol
_atom_site_label
_atom_site_fract_x
_atom_site_fract_y
_atom_site_fract_z
Si Si1 0.707911 0.262733 0.303579
Si Si2 0.058340 0.319711 0.618172
Si Si3 0.516269 0.312184 0.831062
Si Si4 0.886382 0.915074 0.168756
Si Si5 0.994818 0.000000 0.673784
Si Si6 0.882435 0.500000 0.173066
Si Si7 0.025712 0.596975 0.159316
O O1 0.765524 0.296270 0.416186
O O2 0.567893 0.223983 0.355280
O O3 0.647264 0.297730 0.199129
O O4 0.859426 0.230564 0.224934
O O5 0.000000 0.349340 0.500000
O O6 0.031632 0.353920 0.756006
O O7 0.577919 0.363878 0.769343
O O8 0.500000 0.316857 0.000000
O O9 0.708241 0.912476 0.154451
O O10 0.919449 0.954785 0.276570
O O11 0.000000 0.922944 0.000000
O O12 0.810185 0.000000 0.782983
O O13 0.000000 0.000000 0.500000
O O14 0.928194 0.549883 0.232609
O O15 0.000000 0.500000 0.000000
O O16 0.000000 0.601495 0.000000
#
# Coordination Sequence:
#
# PCOD9206808 Si02
#       7
#     8   8   8   8   4   4   8
#     4  10  22  40  59  91 132 177 225 276 331 402
#     4  11  24  41  63  91 131 178 227 270 339 404
#     4  10  21  36  64  97 132 172 223 276 340 388
#     4  11  23  44  70 100 139 181 227 278 346 419
#     4  12  28  48  73 109 143 181 229 289 350 408
#     4  10  23  46  74 103 132 181 223 275 347 416
#     4  11  24  43  71 101 132 170 226 282 342 405
#
# _framework density 21.505231999999999
#
# number of rings (size 3 to 8) (size 9 to 14) (size 15 to 20)
#    0.000    1.333    1.667    3.750    7.000    4.000 
#    0.000    2.083    0.000    0.000    0.000    0.000 
#    0.000    0.000    0.000    0.000    0.000    0.000 
#
# Total GULP energy -133871.000872 kJ/mol
# GULP energy per Si atom -5577.958370 kJ/mol
# Density = 2.145628 g / cm^3
# Si number density = 21.505232 Si / 1000 Ang^3
#
#
#
# Elastic Constant Matrix: (Units=GPa)
#
#
# Indices 1 2 3 4 5 6 
#
# 1 116.8249 76.0171 34.1994 0.0000 20.7958 0.0000
# 2 76.0171 130.3664 55.7987 0.0000 38.6254 0.0000
# 3 34.1994 55.7987 86.8952 0.0000 32.9741 0.0000
# 4 0.0000 0.0000 0.0000 -7.5449 0.0000 4.7811
# 5 20.7958 38.6254 32.9741 0.0000 28.6536 0.0000
# 6 0.0000 0.0000 0.0000 4.7811 0.0000 30.2253
#
#
#
# Elastic Compliance Matrix: (Units=1/GPa)
#
#
# Indices 1 2 3 4 5 6 
#
# 1 0.013871 -0.008360 -0.000971 0.000000 0.002320 0.000000
# 2 -0.008360 0.018254 -0.002479 0.000000 -0.015687 0.000000
# 3 -0.000971 -0.002479 0.021208 0.000000 -0.020359 0.000000
# 4 0.000000 0.000000 0.000000 -0.120465 0.000000 0.019055
# 5 0.002320 -0.015687 -0.020359 0.000000 0.077791 0.000000
# 6 0.000000 0.000000 0.000000 0.019055 0.000000 0.030071
#
#
# Mechanical properties :
#
#
# Convention : Reuss Voigt Hill
#
# Bulk Modulus (GPa) = 33.65534 74.01300 53.83417
# Shear Modulus (GPa) = 67.33684 21.47157 44.40420
#
# Velocity S-wave (km/s) = 5.60177 3.16323 4.54895
# Velocity P-wave (km/s) = 7.58443 6.91609 7.25796
#
# Compressibility (1/GPa) = 0.02971297
#
# Stress axis : x y z
#
# Youngs Moduli (GPa) = 72.09388 54.78271 47.15242
#
# Poissons Ratio (x) = 0.45797 0.04580
# Poissons Ratio (y) = 0.60268 0.11688
# Poissons Ratio (z) = 0.07003 0.13579
#
# Static dielectric constant tensor:
#      x y z
#    x 1.810090 0.000000 0.026500 
#    y 0.000000 1.805860 0.000000 
#    z 0.026500 0.000000 1.897650 
# 
# From -- ./inp_files/42284.got.cif
#   From: 2010.05.17/outbox.cif.g08.bks.cpg/sg12_22_cif.got.tgz:42284.got - 2010.06.03 13:09:07.
