data_PCOD9206599
_publ_section_title
;
Structure prediction by ZEFSAII (Michael W. Deem and Ramdas Pophale) SiO2 
 PCOD9206599
Probable space group: C 2/M
;
_chemical_formula_sum "Si O2"
_cell_formula_units_Z 64
_cell_length_a 9.712180
_cell_length_b 15.827849
_cell_length_c 31.560395
_cell_angle_alpha 90.000000
_cell_angle_beta 136.868358
_cell_angle_gamma 90.000000
_cell_volume 3316.896818
_symmetry_space_group_name_H-M "C 2/M"
_symmetry_group_IT_number 12
_symmetry_cell_setting 'monoclinic'
loop_
_space_group_symop_operation_xyz
x,y,z
-x,y,-z
-x,-y,-z
x,-y,z
1/2+x,1/2+y,z
1/2-x,1/2+y,-z
1/2-x,1/2-y,-z
1/2+x,1/2-y,z
loop_
_atom_site_type_symbol
_atom_site_label
_atom_site_fract_x
_atom_site_fract_y
_atom_site_fract_z
Si Si1 0.824650 0.876052 0.865454
Si Si2 0.509410 0.090608 0.865270
Si Si3 0.681800 0.593293 0.235105
Si Si4 0.464293 0.790043 0.671111
Si Si5 0.512374 0.275502 0.591286
Si Si6 0.335503 0.335451 0.999818
Si Si7 0.635195 0.896772 0.487527
Si Si8 0.148085 0.208108 0.795723
O O1 0.654434 0.913104 0.857399
O O2 0.819291 0.906334 0.816190
O O3 0.761652 0.777831 0.849116
O O4 0.040317 0.885070 0.936264
O O5 0.328565 0.153752 0.817294
O O6 0.418494 0.000000 0.853999
O O7 0.652711 0.116687 0.936321
O O8 0.642695 0.500000 0.242588
O O9 0.508437 0.655777 0.211774
O O10 0.897454 0.626825 0.299495
O O11 0.522244 0.732282 0.644248
O O12 0.527794 0.748809 0.729920
O O13 0.224827 0.800811 0.618385
O O14 0.461345 0.178015 0.564481
O O15 0.349027 0.348748 0.543929
O O16 0.500000 0.318078 0.000000
O O17 0.250000 0.250000 0.000000
O O18 0.500000 0.895719 0.500000
O O19 0.649285 0.000000 0.478887
#
# Coordination Sequence:
#
# PCOD9206599 Si02
#       8
#     8   8   8   8   8   8   8   8
#     4  10  21  38  62  81 115 157 199 245 309 376
#     4  11  23  38  58  87 117 149 197 256 307 361
#     4  11  24  39  59  89 123 156 203 262 309 357
#     4  11  23  41  64  89 124 171 210 243 302 359
#     4  11  22  43  67  96 132 169 206 256 298 355
#     4  10  21  36  60  83 110 152 200 241 303 378
#     4  10  22  41  69 101 133 169 206 249 304 358
#     4  11  22  40  61  84 119 162 203 243 305 369
#
# _framework density 19.295142999999999
#
# number of rings (size 3 to 8) (size 9 to 14) (size 15 to 20)
#    0.000    1.375    3.750    2.250    3.500    3.750 
#    0.000    1.875    0.000    1.875    0.000    0.000 
#    0.000    0.000    0.000    0.000    0.000    0.000 
#
# Total GULP energy -178382.860545 kJ/mol
# GULP energy per Si atom -5574.464392 kJ/mol
# Density = 1.925123 g / cm^3
# Si number density = 19.295143 Si / 1000 Ang^3
#
#
#
# Elastic Constant Matrix: (Units=GPa)
#
#
# Indices 1 2 3 4 5 6 
#
# 1 48.1095 13.6357 5.3694 0.0000 10.4497 0.0000
# 2 13.6357 99.4606 2.9964 0.0000 8.0230 0.0000
# 3 5.3694 2.9964 49.2634 -0.0002 6.1105 -0.0001
# 4 0.0000 0.0000 -0.0002 -185.7274 0.0000 -118.9566
# 5 10.4497 8.0230 6.1105 0.0000 31.7511 0.0000
# 6 0.0000 0.0000 -0.0001 -118.9566 0.0000 -18.0237
#
#
#
# Elastic Compliance Matrix: (Units=1/GPa)
#
#
# Indices 1 2 3 4 5 6 
#
# 1 0.023139 -0.002588 -0.001538 0.000000 -0.006665 0.000000
# 2 -0.002588 0.010558 -0.000138 0.000000 -0.001789 0.000000
# 3 -0.001538 -0.000138 0.020907 0.000000 -0.003483 0.000000
# 4 0.000000 0.000000 0.000000 0.001668 0.000000 -0.011011
# 5 -0.006665 -0.001789 -0.003483 0.000000 0.034811 0.000000
# 6 0.000000 0.000000 0.000000 -0.011011 0.000000 0.017192
#
#
# Mechanical properties :
#
#
# Convention : Reuss Voigt Hill
#
# Bulk Modulus (GPa) = 21.70369 26.75961 24.23165
# Shear Modulus (GPa) = 37.83251 -22.74453 7.54399
#
# Velocity S-wave (km/s) = 4.43281 -3.43705 1.97946
# Velocity P-wave (km/s) = 6.12148 1.36102 4.22020
#
# Compressibility (1/GPa) = 0.04607512
#
# Stress axis : x y z
#
# Youngs Moduli (GPa) = 43.21727 94.71877 47.83083
#
# Poissons Ratio (x) = 0.24516 0.07355
# Poissons Ratio (y) = 0.11186 0.00661
# Poissons Ratio (z) = 0.06646 0.01308
#
# Static dielectric constant tensor:
#      x y z
#    x 1.641700 0.000000 -0.004120 
#    y 0.000000 1.699470 0.000000 
#    z -0.004120 0.000000 1.681880 
# 
# From -- ./inp_files/372590.got.cif
#   From: 2010.05.17/outbox.cif.g08.bks.cpg/sg12_187_cif.got.tgz:372590.got - 2010.06.03 13:09:07.
