data_PCOD9206589
_publ_section_title
;
Structure prediction by ZEFSAII (Michael W. Deem and Ramdas Pophale) SiO2 
 PCOD9206589
Probable space group: C 2/M
;
_chemical_formula_sum "Si O2"
_cell_formula_units_Z 48
_cell_length_a 18.677689
_cell_length_b 13.403810
_cell_length_c 10.048745
_cell_angle_alpha 90.000000
_cell_angle_beta 94.607954
_cell_angle_gamma 90.000000
_cell_volume 2507.593874
_symmetry_space_group_name_H-M "C 2/M"
_symmetry_group_IT_number 12
_symmetry_cell_setting 'monoclinic'
loop_
_space_group_symop_operation_xyz
x,y,z
-x,y,-z
-x,-y,-z
x,-y,z
1/2+x,1/2+y,z
1/2-x,1/2+y,-z
1/2-x,1/2-y,-z
1/2+x,1/2-y,z
loop_
_atom_site_type_symbol
_atom_site_label
_atom_site_fract_x
_atom_site_fract_y
_atom_site_fract_z
Si Si1 0.380953 0.620007 0.218795
Si Si2 0.826583 0.777481 0.951009
Si Si3 0.252410 0.379654 0.398631
Si Si4 0.891908 0.618486 0.783975
Si Si5 0.666272 0.380624 0.330322
Si Si6 0.018397 0.232615 0.353306
O O1 0.386025 0.500000 0.222327
O O2 0.367634 0.658954 0.068082
O O3 0.313372 0.651551 0.301639
O O4 0.452388 0.670145 0.285881
O O5 0.750000 0.750000 0.000000
O O6 0.868563 0.677304 0.913241
O O7 0.818027 0.840170 0.814205
O O8 0.256304 0.500000 0.401149
O O9 0.173327 0.358799 0.330258
O O10 0.274979 0.348470 0.550607
O O11 0.898046 0.500000 0.801544
O O12 0.961353 0.672364 0.733874
O O13 0.663045 0.500000 0.327721
O O14 0.589114 0.337257 0.362389
O O15 0.000000 0.263607 0.500000
#
# Coordination Sequence:
#
# PCOD9206589 Si02
#       6
#     8   8   8   8   8   8
#     4  11  22  39  65  95 127 159 198 252 320 374
#     4  11  23  38  61  93 124 163 206 254 308 370
#     4   9  18  36  64  90 117 159 203 252 308 358
#     4  10  23  42  62  86 124 170 212 256 305 356
#     4  10  21  36  59  93 128 159 200 254 311 370
#     4  11  23  38  62  95 125 164 205 253 308 373
#
# _framework density 19.141856000000001
#
# number of rings (size 3 to 8) (size 9 to 14) (size 15 to 20)
#    0.000    1.667    3.333    1.000    0.000    8.333 
#    0.000    5.833    0.000    0.000    0.000    0.000 
#    0.000    0.000    0.000    0.000    0.000    0.000 
#
# Total GULP energy -134060.868050 kJ/mol
# GULP energy per Si atom -5585.869502 kJ/mol
# Density = 1.909829 g / cm^3
# Si number density = 19.141856 Si / 1000 Ang^3
#
#
#
# Elastic Constant Matrix: (Units=GPa)
#
#
# Indices 1 2 3 4 5 6 
#
# 1 66.7997 27.3388 24.3261 0.0000 -11.6137 0.0000
# 2 27.3388 119.7773 30.2521 0.0000 -12.8148 0.0000
# 3 24.3261 30.2521 111.0922 0.0000 -14.4954 0.0000
# 4 0.0000 0.0000 0.0000 20.5969 0.0000 6.7095
# 5 -11.6137 -12.8148 -14.4954 0.0000 36.4486 0.0000
# 6 0.0000 0.0000 0.0000 6.7095 0.0000 32.5528
#
#
#
# Elastic Compliance Matrix: (Units=1/GPa)
#
#
# Indices 1 2 3 4 5 6 
#
# 1 0.017774 -0.003017 -0.002605 0.000000 0.003567 0.000000
# 2 -0.003017 0.009664 -0.001744 0.000000 0.001743 0.000000
# 3 -0.002605 -0.001744 0.010398 0.000000 0.002692 0.000000
# 4 0.000000 0.000000 0.000000 0.052045 0.000000 -0.010727
# 5 0.003567 0.001743 0.002692 0.000000 0.030256 0.000000
# 6 0.000000 0.000000 0.000000 -0.010727 0.000000 0.032930
#
#
# Mechanical properties :
#
#
# Convention : Reuss Voigt Hill
#
# Bulk Modulus (GPa) = 43.28174 51.27812 47.27993
# Shear Modulus (GPa) = 28.48991 32.30313 30.39652
#
# Velocity S-wave (km/s) = 3.86211 4.11246 3.98925
# Velocity P-wave (km/s) = 6.52288 7.02825 6.78028
#
# Compressibility (1/GPa) = 0.02310443
#
# Stress axis : x y z
#
# Youngs Moduli (GPa) = 56.26288 103.47268 96.17206
#
# Poissons Ratio (x) = 0.31221 0.25052
# Poissons Ratio (y) = 0.16976 0.16769
# Poissons Ratio (z) = 0.14656 0.18042
#
# Static dielectric constant tensor:
#      x y z
#    x 1.656350 0.000000 0.018360 
#    y 0.000000 1.683150 0.000000 
#    z 0.018360 0.000000 1.669510 
# 
# From -- ./inp_files/73625.got.cif
#   From: 2010.05.17/outbox.cif.g08.bks.cpg/sg12_37_cif.got.tgz:73625.got - 2010.06.03 13:09:07.
