data_PCOD9206743
_publ_section_title
;
Structure prediction by ZEFSAII (Michael W. Deem and Ramdas Pophale) SiO2 
 PCOD9206743
Probable space group: C 2/M
;
_chemical_formula_sum "Si O2"
_cell_formula_units_Z 52
_cell_length_a 23.441686
_cell_length_b 22.176806
_cell_length_c 5.276704
_cell_angle_alpha 90.000000
_cell_angle_beta 58.711861
_cell_angle_gamma 90.000000
_cell_volume 2344.209205
_symmetry_space_group_name_H-M "C 2/M"
_symmetry_group_IT_number 12
_symmetry_cell_setting 'monoclinic'
loop_
_space_group_symop_operation_xyz
x,y,z
-x,y,-z
-x,-y,-z
x,-y,z
1/2+x,1/2+y,z
1/2-x,1/2+y,-z
1/2-x,1/2-y,-z
1/2+x,1/2-y,z
loop_
_atom_site_type_symbol
_atom_site_label
_atom_site_fract_x
_atom_site_fract_y
_atom_site_fract_z
Si Si1 0.574982 0.813254 0.213737
Si Si2 0.726802 0.115483 0.351298
Si Si3 0.961154 0.072759 0.339604
Si Si4 0.000000 0.364288 0.000000
Si Si5 0.401857 0.067467 0.580061
Si Si6 0.186859 0.122783 0.367092
Si Si7 0.317457 0.757340 0.686339
O O1 0.500000 0.806239 0.500000
O O2 0.605338 0.879827 0.197571
O O3 0.624076 0.769156 0.243924
O O4 0.557780 0.818703 0.959333
O O5 0.663604 0.072986 0.443327
O O6 0.769601 0.098633 0.498235
O O7 0.696592 0.183396 0.448720
O O8 0.772089 0.116521 0.991108
O O9 0.884436 0.091988 0.504547
O O10 0.000000 0.094732 0.500000
O O11 0.963332 0.000000 0.337490
O O12 0.000000 0.094043 0.000000
O O13 0.033641 0.408950 0.721552
O O14 0.409990 0.000000 0.656562
O O15 0.172756 0.193170 0.466260
O O16 0.250000 0.750000 0.000000
#
# Coordination Sequence:
#
# PCOD9206743 Si02
#       7
#     8   8   8   4   8   8   8
#     4   9  20  39  55  85 120 159 202 257 308 366
#     4  10  23  39  61  90 127 161 206 259 311 366
#     4  10  22  41  66  93 126 164 204 258 319 379
#     4  10  21  36  62  82 120 162 211 252 312 366
#     4  10  22  37  58  86 121 163 211 258 306 365
#     4  11  22  41  64  92 124 163 209 252 313 380
#     4   9  20  38  63  86 122 163 205 252 313 369
#
# _framework density 22.182321000000002
#
# number of rings (size 3 to 8) (size 9 to 14) (size 15 to 20)
#    0.000    2.154    0.000    1.615    6.462    5.231 
#    8.308    0.000    8.462    0.000    0.000    0.000 
#    0.000    0.000    0.000    0.000    0.000    0.000 
#
# Total GULP energy -145146.261083 kJ/mol
# GULP energy per Si atom -5582.548503 kJ/mol
# Density = 2.213183 g / cm^3
# Si number density = 22.182321 Si / 1000 Ang^3
#
#
#
# Elastic Constant Matrix: (Units=GPa)
#
#
# Indices 1 2 3 4 5 6 
#
# 1 194.5955 9.4490 42.8306 0.0000 -1.5989 0.0000
# 2 9.4490 14.2591 0.9879 0.0000 -5.0425 0.0000
# 3 42.8306 0.9879 83.1427 0.0000 -3.7011 0.0000
# 4 0.0000 0.0000 0.0000 12.2783 0.0000 -8.2141
# 5 -1.5989 -5.0425 -3.7011 0.0000 39.3813 0.0000
# 6 0.0000 0.0000 0.0000 -8.2141 0.0000 13.3480
#
#
#
# Elastic Compliance Matrix: (Units=1/GPa)
#
#
# Indices 1 2 3 4 5 6 
#
# 1 0.006002 -0.003960 -0.003070 0.000000 -0.000552 0.000000
# 2 -0.003960 0.076086 0.001569 0.000000 0.009729 0.000000
# 3 -0.003070 0.001569 0.013651 0.000000 0.001359 0.000000
# 4 0.000000 0.000000 0.000000 0.138436 0.000000 0.085191
# 5 -0.000552 0.009729 0.001359 0.000000 0.026744 0.000000
# 6 0.000000 0.000000 0.000000 0.085191 0.000000 0.127342
#
#
# Mechanical properties :
#
#
# Convention : Reuss Voigt Hill
#
# Bulk Modulus (GPa) = 11.78990 44.28137 28.03564
# Shear Modulus (GPa) = 11.69713 28.91684 20.30699
#
# Velocity S-wave (km/s) = 2.29883 3.61446 3.02894
# Velocity P-wave (km/s) = 3.51749 6.11759 4.98987
#
# Compressibility (1/GPa) = 0.08481833
#
# Stress axis : x y z
#
# Youngs Moduli (GPa) = 166.60502 13.14295 73.25666
#
# Poissons Ratio (x) = 0.05205 0.22486
# Poissons Ratio (y) = 0.65975 -0.11494
# Poissons Ratio (z) = 0.51140 -0.02062
#
# Static dielectric constant tensor:
#      x y z
#    x 1.858660 0.000000 0.058590 
#    y 0.000000 1.810510 0.000000 
#    z 0.058590 0.000000 1.935620 
# 
# From -- ./inp_files/21813.got.cif
#   From: 2010.05.17/outbox.cif.g08.bks.cpg/sg12_11_cif.got.tgz:21813.got - 2010.06.03 13:09:07.
