data_PCOD9206353
_publ_section_title
;
Structure prediction by ZEFSAII (Michael W. Deem and Ramdas Pophale) SiO2 
 PCOD9206353
Probable space group: C 2/M
;
_chemical_formula_sum "Si O2"
_cell_formula_units_Z 40
_cell_length_a 13.485682
_cell_length_b 25.444617
_cell_length_c 4.968543
_cell_angle_alpha 90.000000
_cell_angle_beta 73.305988
_cell_angle_gamma 90.000000
_cell_volume 1633.038909
_symmetry_space_group_name_H-M "C 2/M"
_symmetry_group_IT_number 12
_symmetry_cell_setting 'monoclinic'
loop_
_space_group_symop_operation_xyz
x,y,z
-x,y,-z
-x,-y,-z
x,-y,z
1/2+x,1/2+y,z
1/2-x,1/2+y,-z
1/2-x,1/2-y,-z
1/2+x,1/2-y,z
loop_
_atom_site_type_symbol
_atom_site_label
_atom_site_fract_x
_atom_site_fract_y
_atom_site_fract_z
Si Si1 0.069944 0.266422 0.705371
Si Si2 0.390494 0.444102 0.233879
Si Si3 0.877802 0.164525 0.554624
Si Si4 0.830131 0.371074 0.133723
Si Si5 0.336345 0.059466 0.661300
O O1 0.148705 0.219639 0.566586
O O2 0.115451 0.319750 0.789844
O O3 0.000000 0.279727 0.500000
O O4 0.000000 0.243235 0.000000
O O5 0.388351 0.500000 0.393931
O O6 0.381582 0.389986 0.393873
O O7 0.284162 0.445473 0.149281
O O8 0.500000 0.443102 0.000000
O O9 0.786584 0.151356 0.835971
O O10 0.000000 0.173084 0.500000
O O11 0.833009 0.415239 0.367205
O O12 0.881443 0.398390 0.835017
O O13 0.378428 0.000000 0.630628
#
# Coordination Sequence:
#
# PCOD9206353 Si02
#       5
#     8   8   8   8   8
#     4  11  24  42  63  87 119 157 203 255 301 349
#     4   9  17  30  50  81 121 160 196 233 281 348
#     4  10  21  36  57  89 124 159 198 241 290 351
#     4  11  22  39  64  89 120 159 199 244 299 358
#     4  10  21  37  60  89 120 156 196 244 300 356
#
# _framework density 24.494209000000001
#
# number of rings (size 3 to 8) (size 9 to 14) (size 15 to 20)
#    0.000    1.800    0.000    4.200    0.000    6.000 
#    0.000   10.000    0.000   12.000    0.000    0.000 
#    0.000    0.000    0.000    0.000    0.000    0.000 
#
# Total GULP energy -111488.106540 kJ/mol
# GULP energy per Si atom -5574.405327 kJ/mol
# Density = 2.443846 g / cm^3
# Si number density = 24.494209 Si / 1000 Ang^3
#
#
#
# Elastic Constant Matrix: (Units=GPa)
#
#
# Indices 1 2 3 4 5 6 
#
# 1 61.1879 26.0098 8.2224 0.0000 -1.4614 0.0000
# 2 26.0098 171.3172 -4.5352 0.0000 5.3447 0.0000
# 3 8.2224 -4.5352 47.6779 0.0000 12.9858 0.0000
# 4 0.0000 0.0000 0.0000 42.3540 0.0000 19.8814
# 5 -1.4614 5.3447 12.9858 0.0000 22.7720 0.0000
# 6 0.0000 0.0000 0.0000 19.8814 0.0000 38.7933
#
#
#
# Elastic Compliance Matrix: (Units=1/GPa)
#
#
# Indices 1 2 3 4 5 6 
#
# 1 0.018386 -0.003059 -0.004710 0.000000 0.004584 0.000000
# 2 -0.003059 0.006439 0.001900 0.000000 -0.002791 0.000000
# 3 -0.004710 0.001900 0.026248 0.000000 -0.015716 0.000000
# 4 0.000000 0.000000 0.000000 0.031090 0.000000 -0.015933
# 5 0.004584 -0.002791 -0.015716 0.000000 0.053825 0.000000
# 6 0.000000 0.000000 0.000000 -0.015933 0.000000 0.033943
#
#
# Mechanical properties :
#
#
# Convention : Reuss Voigt Hill
#
# Bulk Modulus (GPa) = 25.42307 37.73078 31.57693
# Shear Modulus (GPa) = 25.66991 37.48292 31.57641
#
# Velocity S-wave (km/s) = 3.24079 3.91612 3.59435
# Velocity P-wave (km/s) = 4.94018 5.99044 5.49048
#
# Compressibility (1/GPa) = 0.03933435
#
# Stress axis : x y z
#
# Youngs Moduli (GPa) = 54.38943 155.30478 38.09859
#
# Poissons Ratio (x) = 0.47509 0.17946
# Poissons Ratio (y) = 0.16638 -0.07240
# Poissons Ratio (z) = 0.25619 -0.29512
#
# Static dielectric constant tensor:
#      x y z
#    x 2.150260 0.000000 0.025470 
#    y 0.000000 2.023060 0.000000 
#    z 0.025470 0.000000 1.985920 
# 
# From -- ./inp_files/11512.got.cif
#   From: 2010.05.17/outbox.cif.g08.bks.cpg/sg12_6_cif.got.tgz:11512.got - 2010.06.03 13:09:07.
