data_PCOD9206791
_publ_section_title
;
Structure prediction by ZEFSAII (Michael W. Deem and Ramdas Pophale) SiO2 
 PCOD9206791
Probable space group: C 2/M
;
_chemical_formula_sum "Si O2"
_cell_formula_units_Z 56
_cell_length_a 11.847564
_cell_length_b 32.910953
_cell_length_c 14.908536
_cell_angle_alpha 90.000000
_cell_angle_beta 29.060256
_cell_angle_gamma 90.000000
_cell_volume 2823.570891
_symmetry_space_group_name_H-M "C 2/M"
_symmetry_group_IT_number 12
_symmetry_cell_setting 'monoclinic'
loop_
_space_group_symop_operation_xyz
x,y,z
-x,y,-z
-x,-y,-z
x,-y,z
1/2+x,1/2+y,z
1/2-x,1/2+y,-z
1/2-x,1/2-y,-z
1/2+x,1/2-y,z
loop_
_atom_site_type_symbol
_atom_site_label
_atom_site_fract_x
_atom_site_fract_y
_atom_site_fract_z
Si Si1 0.117684 0.596405 0.642757
Si Si2 0.449860 0.047517 0.931834
Si Si3 0.777388 0.731126 0.598753
Si Si4 0.783844 0.609108 0.711574
Si Si5 0.881472 0.687541 0.338371
Si Si6 0.395300 0.453143 0.302321
Si Si7 0.932897 0.816103 0.950078
O O1 0.212591 0.641888 0.593061
O O2 0.290588 0.570569 0.460273
O O3 0.063599 0.574263 0.773993
O O4 0.888842 0.601579 0.737327
O O5 0.523754 0.000000 0.871974
O O6 0.500000 0.060282 0.000000
O O7 0.172892 0.049287 0.110809
O O8 0.838343 0.711733 0.460673
O O9 0.735722 0.779197 0.643640
O O10 0.543547 0.710085 0.794767
O O11 0.000000 0.718806 0.500000
O O12 0.700014 0.568322 0.720997
O O13 0.576380 0.641506 0.851074
O O14 0.000000 0.624189 0.500000
O O15 0.157233 0.682126 0.131881
O O16 0.323664 0.500000 0.355782
O O17 0.000000 0.797137 0.000000
#
# Coordination Sequence:
#
# PCOD9206791 Si02
#       7
#     8   8   8   8   8   8   8
#     4  11  21  39  61  91 120 156 196 246 300 356
#     4  10  23  42  61  83 116 162 209 246 285 345
#     4  11  22  41  58  85 122 153 193 247 291 353
#     4  10  21  36  63  94 125 153 192 245 307 366
#     4  11  24  38  62  88 115 157 197 240 300 349
#     4  10  22  38  61  92 123 154 193 245 303 357
#     4  12  20  36  64  86 115 156 197 233 290 362
#
# _framework density 19.833041999999999
#
# number of rings (size 3 to 8) (size 9 to 14) (size 15 to 20)
#    0.000    1.286    2.857    3.857    0.000    3.714 
#    2.571    4.286    0.000    0.000    0.000    0.000 
#    0.000    0.000    0.000    0.000    0.000    0.000 
#
# Total GULP energy -156242.875148 kJ/mol
# GULP energy per Si atom -5580.102684 kJ/mol
# Density = 1.978790 g / cm^3
# Si number density = 19.833042 Si / 1000 Ang^3
#
#
#
# Elastic Constant Matrix: (Units=GPa)
#
#
# Indices 1 2 3 4 5 6 
#
# 1 38.9235 13.5839 1.2916 0.0000 15.5473 0.0000
# 2 13.5839 142.2822 33.2497 0.0000 11.5163 0.0000
# 3 1.2916 33.2497 78.1988 0.0001 4.8221 0.0000
# 4 0.0000 0.0000 0.0001 34.4650 0.0000 -3.8889
# 5 15.5473 11.5163 4.8221 0.0000 18.1032 0.0000
# 6 0.0000 0.0000 0.0000 -3.8889 0.0000 22.7866
#
#
#
# Elastic Compliance Matrix: (Units=1/GPa)
#
#
# Indices 1 2 3 4 5 6 
#
# 1 0.039561 -0.001546 0.002072 0.000000 -0.033544 0.000000
# 2 -0.001546 0.008183 -0.003268 0.000000 -0.003007 0.000000
# 3 0.002072 -0.003268 0.014361 0.000000 -0.003526 0.000000
# 4 0.000000 0.000000 0.000000 0.029585 0.000000 0.005049
# 5 -0.033544 -0.003007 -0.003526 0.000000 0.086899 0.000000
# 6 0.000000 0.000000 0.000000 0.005049 0.000000 0.044747
#
#
# Mechanical properties :
#
#
# Convention : Reuss Voigt Hill
#
# Bulk Modulus (GPa) = 17.66145 39.51721 28.58933
# Shear Modulus (GPa) = 20.18621 29.15624 24.67122
#
# Velocity S-wave (km/s) = 3.19377 3.83833 3.53079
# Velocity P-wave (km/s) = 4.74601 6.29380 5.57389
#
# Compressibility (1/GPa) = 0.05662051
#
# Stress axis : x y z
#
# Youngs Moduli (GPa) = 25.27749 122.20313 69.63383
#
# Poissons Ratio (x) = 0.18895 -0.14431
# Poissons Ratio (y) = 0.03908 0.22759
# Poissons Ratio (z) = -0.05239 0.39941
#
# Static dielectric constant tensor:
#      x y z
#    x 1.731990 0.000000 0.028510 
#    y 0.000000 1.734010 0.000000 
#    z 0.028510 0.000000 1.692300 
# 
# From -- ./inp_files/210006.got.cif
#   From: 2010.05.17/outbox.cif.g08.bks.cpg/sg12_106_cif.got.tgz:210006.got - 2010.06.03 13:09:07.
