data_PCOD9206436
_publ_section_title
;
Structure prediction by ZEFSAII (Michael W. Deem and Ramdas Pophale) SiO2 
 PCOD9206436
Probable space group: C 2/M
;
_chemical_formula_sum "Si O2"
_cell_formula_units_Z 56
_cell_length_a 24.399201
_cell_length_b 8.461085
_cell_length_c 16.025780
_cell_angle_alpha 90.000000
_cell_angle_beta 60.176883
_cell_angle_gamma 90.000000
_cell_volume 2870.270299
_symmetry_space_group_name_H-M "C 2/M"
_symmetry_group_IT_number 12
_symmetry_cell_setting 'monoclinic'
loop_
_space_group_symop_operation_xyz
x,y,z
-x,y,-z
-x,-y,-z
x,-y,z
1/2+x,1/2+y,z
1/2-x,1/2+y,-z
1/2-x,1/2-y,-z
1/2+x,1/2-y,z
loop_
_atom_site_type_symbol
_atom_site_label
_atom_site_fract_x
_atom_site_fract_y
_atom_site_fract_z
Si Si1 0.449122 0.192932 0.469025
Si Si2 0.661451 0.690953 0.010228
Si Si3 0.566634 0.189313 0.706526
Si Si4 0.317856 0.189870 0.649027
Si Si5 0.019813 0.191214 0.077387
Si Si6 0.290219 0.690249 0.390829
Si Si7 0.788364 0.188327 0.847881
O O1 0.500000 0.245018 0.500000
O O2 0.458732 0.243400 0.365690
O O3 0.379072 0.243795 0.550921
O O4 0.450386 0.000000 0.468208
O O5 0.664002 0.500000 0.005437
O O6 0.591525 0.742721 0.039998
O O7 0.678818 0.742697 0.091072
O O8 0.715987 0.755538 0.909121
O O9 0.525551 0.251823 0.814446
O O10 0.639297 0.242917 0.660682
O O11 0.564889 0.000000 0.708299
O O12 0.252146 0.241080 0.656437
O O13 0.320863 0.244739 0.741452
O O14 0.318589 0.000000 0.646351
O O15 0.018438 0.000000 0.079010
O O16 0.000000 0.244491 0.000000
O O17 0.293500 0.500000 0.389767
O O18 0.250000 0.750000 0.500000
O O19 0.790495 0.000000 0.844093
#
# Coordination Sequence:
#
# PCOD9206436 Si02
#       7
#     8   8   8   8   8   8   8
#     4   9  19  37  59  86 120 157 195 233 282 350
#     4   9  20  40  60  81 116 155 195 240 294 356
#     4  11  23  40  62  90 120 153 197 247 294 346
#     4  10  21  37  59  85 116 154 194 231 287 356
#     4  10  23  42  62  84 115 158 201 240 292 356
#     4  11  22  39  61  85 117 154 194 238 287 344
#     4  10  21  36  58  88 117 147 192 247 295 341
#
# _framework density 19.510358
#
# number of rings (size 3 to 8) (size 9 to 14) (size 15 to 20)
#    0.000    2.000    1.429    1.286    4.000    2.571 
#    0.000    0.000    0.000    2.143    0.000    0.000 
#    0.000    0.000    0.000    0.000    0.000    0.000 
#
# Total GULP energy -156354.553894 kJ/mol
# GULP energy per Si atom -5584.091211 kJ/mol
# Density = 1.946595 g / cm^3
# Si number density = 19.510358 Si / 1000 Ang^3
#
#
#
# Elastic Constant Matrix: (Units=GPa)
#
#
# Indices 1 2 3 4 5 6 
#
# 1 141.4616 18.3562 65.4594 0.0000 -2.7250 0.0000
# 2 18.3562 7.8084 14.7204 0.0000 1.9643 -0.0003
# 3 65.4594 14.7204 147.7023 0.0000 9.4416 0.0000
# 4 0.0000 0.0000 0.0000 35.5066 0.0000 -1.4236
# 5 -2.7250 1.9643 9.4416 0.0000 24.6724 0.0000
# 6 0.0000 -0.0003 0.0000 -1.4236 0.0000 22.1795
#
#
#
# Elastic Compliance Matrix: (Units=1/GPa)
#
#
# Indices 1 2 3 4 5 6 
#
# 1 0.011478 -0.022101 -0.003155 0.000000 0.004235 0.000000
# 2 -0.022101 0.201339 -0.009318 0.000000 -0.014904 0.000002
# 3 -0.003155 -0.009318 0.009300 0.000000 -0.003165 0.000000
# 4 0.000000 0.000000 0.000000 0.028236 0.000000 0.001812
# 5 0.004235 -0.014904 -0.003165 0.000000 0.043397 0.000000
# 6 0.000000 0.000002 0.000000 0.001812 0.000000 0.045203
#
#
# Mechanical properties :
#
#
# Convention : Reuss Voigt Hill
#
# Bulk Modulus (GPa) = 6.53732 54.89382 30.71557
# Shear Modulus (GPa) = 10.89106 29.70078 20.29592
#
# Velocity S-wave (km/s) = 2.36523 3.90591 3.22881
# Velocity P-wave (km/s) = 3.28893 6.96695 5.44772
#
# Compressibility (1/GPa) = 0.15296799
#
# Stress axis : x y z
#
# Youngs Moduli (GPa) = 87.11950 4.96674 107.53011
#
# Poissons Ratio (x) = 0.10977 0.33927
# Poissons Ratio (y) = 1.92544 1.00201
# Poissons Ratio (z) = 0.27487 0.04628
#
# Static dielectric constant tensor:
#      x y z
#    x 1.696830 0.000000 0.018370 
#    y 0.000000 1.672520 0.000000 
#    z 0.018370 0.000000 1.653580 
# 
# From -- ./inp_files/238286.got.cif
#   From: 2010.05.17/outbox.cif.g08.bks.cpg/sg12_120_cif.got.tgz:238286.got - 2010.06.03 13:09:07.
