data_PCOD9206585
_publ_section_title
;
Structure prediction by ZEFSAII (Michael W. Deem and Ramdas Pophale) SiO2 
 PCOD9206585
Probable space group: C 2/M
;
_chemical_formula_sum "Si O2"
_cell_formula_units_Z 44
_cell_length_a 9.513238
_cell_length_b 23.506569
_cell_length_c 17.525665
_cell_angle_alpha 90.000000
_cell_angle_beta 148.334479
_cell_angle_gamma 90.000000
_cell_volume 2057.396339
_symmetry_space_group_name_H-M "C 2/M"
_symmetry_group_IT_number 12
_symmetry_cell_setting 'monoclinic'
loop_
_space_group_symop_operation_xyz
x,y,z
-x,y,-z
-x,-y,-z
x,-y,z
1/2+x,1/2+y,z
1/2-x,1/2+y,-z
1/2-x,1/2-y,-z
1/2+x,1/2-y,z
loop_
_atom_site_type_symbol
_atom_site_label
_atom_site_fract_x
_atom_site_fract_y
_atom_site_fract_z
Si Si1 0.591360 0.331802 0.254909
Si Si2 0.491050 0.500000 0.380568
Si Si3 0.422295 0.797612 0.794539
Si Si4 0.616899 0.123918 0.759212
Si Si5 0.102387 0.127219 0.417742
Si Si6 0.000000 0.681588 0.000000
Si Si7 0.014674 0.500000 0.269566
O O1 0.606608 0.263644 0.256383
O O2 0.722999 0.348008 0.395929
O O3 0.281348 0.350567 0.123860
O O4 0.700219 0.357792 0.227110
O O5 0.525884 0.562289 0.361603
O O6 0.190939 0.500000 0.274836
O O7 0.739946 0.500000 0.555725
O O8 0.623872 0.835176 0.836131
O O9 0.151055 0.834912 0.674525
O O10 0.495150 0.786355 0.916809
O O11 0.317011 0.128495 0.584809
O O12 0.648517 0.058028 0.796353
#
# Coordination Sequence:
#
# PCOD9206585 Si02
#       7
#     8   4   8   8   8   4   4
#     4  11  24  38  58  88 118 154 196 247 293 340
#     4   9  16  35  59  82 121 164 192 218 271 365
#     4  11  22  38  62  87 117 156 195 241 294 346
#     4  11  21  36  62  92 121 152 194 238 289 351
#     4  10  21  36  59  92 125 158 184 229 298 353
#     4  10  24  44  58  79 112 163 210 238 286 344
#     4   9  18  33  59  88 116 156 198 228 272 350
#
# _framework density 21.386254000000001
#
# number of rings (size 3 to 8) (size 9 to 14) (size 15 to 20)
#    0.000    1.636    1.818    3.818    0.000    5.818 
#    0.000    2.727    0.000   20.727    0.000    0.000 
#    0.000    0.000    0.000    0.000    0.000    0.000 
#
# Total GULP energy -122720.445417 kJ/mol
# GULP energy per Si atom -5578.202064 kJ/mol
# Density = 2.133758 g / cm^3
# Si number density = 21.386254 Si / 1000 Ang^3
#
#
#
# Elastic Constant Matrix: (Units=GPa)
#
#
# Indices 1 2 3 4 5 6 
#
# 1 156.0500 67.7721 7.4507 0.0125 -13.1740 0.0051
# 2 67.7721 161.7217 12.2075 0.0108 -17.1378 0.0009
# 3 7.4507 12.2075 31.1964 -0.0181 -8.1240 0.0321
# 4 0.0125 0.0108 -0.0181 2.5090 0.0081 -10.2325
# 5 -13.1740 -17.1378 -8.1240 0.0081 41.2009 0.0031
# 6 0.0051 0.0009 0.0321 -10.2325 0.0031 36.7959
#
#
#
# Elastic Compliance Matrix: (Units=1/GPa)
#
#
# Indices 1 2 3 4 5 6 
#
# 1 0.007894 -0.003161 -0.000352 0.000263 0.001140 0.000072
# 2 -0.003161 0.007846 -0.001822 0.000228 0.001894 0.000065
# 3 -0.000352 -0.001822 0.034391 -0.000853 0.005911 -0.000268
# 4 0.000263 0.000228 -0.000853 -2.971084 0.000659 -0.826225
# 5 0.001140 0.001894 0.005911 0.000659 0.026589 0.000176
# 6 0.000072 0.000065 -0.000268 -0.826225 0.000176 -0.202587
#
#
# Mechanical properties :
#
#
# Convention : Reuss Voigt Hill
#
# Bulk Modulus (GPa) = 25.34069 58.20319 41.77194
# Shear Modulus (GPa) = -1.62701 33.53701 15.95500
#
# Velocity S-wave (km/s) = -0.87317 3.96429 2.73434
# Velocity P-wave (km/s) = 3.29518 6.94467 5.43538
#
# Compressibility (1/GPa) = 0.03946223
#
# Stress axis : x y z
#
# Youngs Moduli (GPa) = 126.68006 127.44970 29.07728
#
# Poissons Ratio (x) = 0.40284 0.01022
# Poissons Ratio (y) = 0.40040 0.05299
# Poissons Ratio (z) = 0.04453 0.23224
#
# Static dielectric constant tensor:
#      x y z
#    x 1.781460 0.000000 0.000760 
#    y 0.000000 1.750560 0.000000 
#    z 0.000760 0.000000 1.870440 
# 
# From -- ./inp_files/122379.got.cif
#   From: 2010.05.17/outbox.cif.g08.bks.cpg/sg12_62_cif.got.tgz:122379.got - 2010.06.03 13:09:07.
