data_PCOD9206408
_publ_section_title
;
Structure prediction by ZEFSAII (Michael W. Deem and Ramdas Pophale) SiO2 
 PCOD9206408
Probable space group: C 2/M
;
_chemical_formula_sum "Si O2"
_cell_formula_units_Z 58
_cell_length_a 18.077494
_cell_length_b 17.657914
_cell_length_c 8.269661
_cell_angle_alpha 90.000000
_cell_angle_beta 113.108227
_cell_angle_gamma 90.000000
_cell_volume 2427.964215
_symmetry_space_group_name_H-M "C 2/M"
_symmetry_group_IT_number 12
_symmetry_cell_setting 'monoclinic'
loop_
_space_group_symop_operation_xyz
x,y,z
-x,y,-z
-x,-y,-z
x,-y,z
1/2+x,1/2+y,z
1/2-x,1/2+y,-z
1/2-x,1/2-y,-z
1/2+x,1/2-y,z
loop_
_atom_site_type_symbol
_atom_site_label
_atom_site_fract_x
_atom_site_fract_y
_atom_site_fract_z
Si Si1 0.536325 0.407748 0.702488
Si Si2 0.031768 0.350680 0.812634
Si Si3 0.266241 0.085308 0.581727
Si Si4 0.346451 0.909061 0.300822
Si Si5 0.621435 0.623662 0.260070
Si Si6 0.192176 0.914923 0.986045
Si Si7 0.000000 0.500000 0.000000
Si Si8 0.628110 0.793312 0.188857
O O1 0.500000 0.384718 0.500000
O O2 0.538456 0.500000 0.711433
O O3 0.472147 0.380268 0.779698
O O4 0.626598 0.378725 0.812008
O O5 0.074461 0.364039 0.679610
O O6 0.026603 0.432830 0.894598
O O7 0.942537 0.318078 0.747541
O O8 0.086615 0.299552 0.978375
O O9 0.311219 0.100621 0.449461
O O10 0.172930 0.090458 0.453468
O O11 0.299655 0.147134 0.732694
O O12 0.287911 0.000000 0.652315
O O13 0.357589 0.000000 0.294312
O O14 0.277989 0.883481 0.113244
O O15 0.650749 0.708870 0.253714
O O16 0.644526 0.580799 0.116255
O O17 0.208148 0.000000 0.939204
#
# Coordination Sequence:
#
# PCOD9206408 Si02
#       8
#     8   8   8   8   8   8   2   8
#     4  10  21  36  58  89 120 150 201 252 295 342
#     4  10  21  36  58  86 115 156 195 247 288 355
#     4  10  22  39  62  88 115 152 200 247 300 349
#     4   9  18  36  59  87 116 146 194 253 293 342
#     4  11  21  40  60  82 120 160 195 241 293 360
#     4   9  19  35  62  89 113 153 200 241 293 350
#     4   8  16  32  56  78 112 144 194 234 292 332
#     4  10  24  37  57  84 121 155 200 237 295 358
#
# _framework density 23.888324000000001
#
# number of rings (size 3 to 8) (size 9 to 14) (size 15 to 20)
#    0.000    2.345    0.690    2.897    7.724    2.759 
#    2.483    5.517    0.000    0.000    0.000    0.000 
#    0.000    0.000    0.000    0.000    0.000    0.000 
#
# Total GULP energy -161849.151321 kJ/mol
# GULP energy per Si atom -5581.005218 kJ/mol
# Density = 2.383395 g / cm^3
# Si number density = 23.888324 Si / 1000 Ang^3
#
#
#
# Elastic Constant Matrix: (Units=GPa)
#
#
# Indices 1 2 3 4 5 6 
#
# 1 76.2193 -5.7556 14.9018 0.0000 -1.9487 0.0000
# 2 -5.7556 86.4065 9.1802 0.0000 9.2293 0.0000
# 3 14.9018 9.1802 86.1053 0.0000 18.9858 0.0000
# 4 0.0000 0.0000 0.0000 9.4939 0.0000 6.7673
# 5 -1.9487 9.2293 18.9858 0.0000 37.0288 0.0000
# 6 0.0000 0.0000 0.0000 6.7673 0.0000 11.2230
#
#
#
# Elastic Compliance Matrix: (Units=1/GPa)
#
#
# Indices 1 2 3 4 5 6 
#
# 1 0.013822 0.001021 -0.002937 0.000000 0.001979 0.000000
# 2 0.001021 0.012002 -0.000912 0.000000 -0.002470 0.000000
# 3 -0.002937 -0.000912 0.013759 0.000000 -0.006982 0.000000
# 4 0.000000 0.000000 0.000000 0.184729 0.000000 -0.111389
# 5 0.001979 -0.002470 -0.006982 0.000000 0.031306 0.000000
# 6 0.000000 0.000000 0.000000 -0.111389 0.000000 0.156268
#
#
# Mechanical properties :
#
#
# Convention : Reuss Voigt Hill
#
# Bulk Modulus (GPa) = 29.47468 31.70933 30.59200
# Shear Modulus (GPa) = 11.65909 26.90945 19.28427
#
# Velocity S-wave (km/s) = 2.21162 3.35993 2.84433
# Velocity P-wave (km/s) = 4.34592 5.32494 4.86014
#
# Compressibility (1/GPa) = 0.03392743
#
# Stress axis : x y z
#
# Youngs Moduli (GPa) = 72.34817 83.31981 72.68127
#
# Poissons Ratio (x) = -0.08510 0.21349
# Poissons Ratio (y) = -0.07390 0.06626
# Poissons Ratio (z) = 0.21251 0.07596
#
# Static dielectric constant tensor:
#      x y z
#    x 1.909180 0.000000 0.017380 
#    y 0.000000 1.869190 0.000000 
#    z 0.017380 0.000000 1.942200 
# 
# From -- ./inp_files/88478.got.cif
#   From: 2010.05.17/outbox.cif.g08.bks.cpg/sg12_45_cif.got.tgz:88478.got - 2010.06.03 13:09:07.
