data_PCOD9206831
_publ_section_title
;
Structure prediction by ZEFSAII (Michael W. Deem and Ramdas Pophale) SiO2 
 PCOD9206831
Probable space group: C 2/M
;
_chemical_formula_sum "Si O2"
_cell_formula_units_Z 40
_cell_length_a 12.246062
_cell_length_b 33.293197
_cell_length_c 5.315448
_cell_angle_alpha 90.000000
_cell_angle_beta 75.238394
_cell_angle_gamma 90.000000
_cell_volume 2095.635579
_symmetry_space_group_name_H-M "C 2/M"
_symmetry_group_IT_number 12
_symmetry_cell_setting 'monoclinic'
loop_
_space_group_symop_operation_xyz
x,y,z
-x,y,-z
-x,-y,-z
x,-y,z
1/2+x,1/2+y,z
1/2-x,1/2+y,-z
1/2-x,1/2-y,-z
1/2+x,1/2-y,z
loop_
_atom_site_type_symbol
_atom_site_label
_atom_site_fract_x
_atom_site_fract_y
_atom_site_fract_z
Si Si1 0.872361 0.863051 0.078363
Si Si2 0.231274 0.621832 0.670477
Si Si3 0.891699 0.699796 0.387452
Si Si4 0.924153 0.454511 0.295267
Si Si5 0.322398 0.274282 0.157956
O O1 0.798628 0.879824 0.892136
O O2 0.813648 0.870704 0.382779
O O3 0.876666 0.814890 0.025150
O O4 0.000000 0.878593 0.000000
O O5 0.141089 0.659015 0.739675
O O6 0.166615 0.580572 0.660542
O O7 0.775006 0.709617 0.599063
O O8 0.905605 0.741577 0.230162
O O9 0.000000 0.693063 0.500000
O O10 0.876886 0.500000 0.329327
O O11 0.000000 0.449474 0.500000
O O12 0.000000 0.451248 0.000000
O O13 0.250000 0.250000 0.000000
#
# Coordination Sequence:
#
# PCOD9206831 Si02
#       5
#     8   8   8   8   8
#     4  11  24  39  62  81 118 164 206 250 298 347
#     4  11  22  41  59  90 121 150 203 249 293 361
#     4  10  22  34  54  78 112 152 194 248 299 347
#     4  10  21  39  66  97 127 158 187 232 308 375
#     4  10  21  37  49  77 110 151 204 243 290 349
#
# _framework density 19.087288000000001
#
# number of rings (size 3 to 8) (size 9 to 14) (size 15 to 20)
#    0.000    1.600    2.000    2.400    2.800    1.600 
#    0.000    0.000    0.000    3.600    0.000    0.000 
#    0.000    0.000    0.000    0.000    0.000    0.000 
#
# Total GULP energy -111609.650360 kJ/mol
# GULP energy per Si atom -5580.482518 kJ/mol
# Density = 1.904384 g / cm^3
# Si number density = 19.087288 Si / 1000 Ang^3
#
#
#
# Elastic Constant Matrix: (Units=GPa)
#
#
# Indices 1 2 3 4 5 6 
#
# 1 83.3871 19.6715 0.4379 0.0000 5.6541 0.0000
# 2 19.6715 86.8446 -7.5502 0.0000 -10.1817 0.0000
# 3 0.4379 -7.5502 58.0119 0.0000 2.5216 0.0000
# 4 0.0000 0.0000 0.0000 24.7004 0.0000 9.6284
# 5 5.6541 -10.1817 2.5216 0.0000 28.6621 0.0000
# 6 0.0000 0.0000 0.0000 9.6284 0.0000 23.7407
#
#
#
# Elastic Compliance Matrix: (Units=1/GPa)
#
#
# Indices 1 2 3 4 5 6 
#
# 1 0.013059 -0.003432 -0.000382 0.000000 -0.003762 0.000000
# 2 -0.003432 0.013029 0.001497 0.000000 0.005174 0.000000
# 3 -0.000382 0.001497 0.017476 0.000000 -0.000930 0.000000
# 4 0.000000 0.000000 0.000000 0.048087 0.000000 -0.019503
# 5 -0.003762 0.005174 -0.000930 0.000000 0.037551 0.000000
# 6 0.000000 0.000000 0.000000 -0.019503 0.000000 0.050031
#
#
# Mechanical properties :
#
#
# Convention : Reuss Voigt Hill
#
# Bulk Modulus (GPa) = 25.68758 28.15134 26.91946
# Shear Modulus (GPa) = 25.40069 29.79960 27.60014
#
# Velocity S-wave (km/s) = 3.65192 3.95552 3.80675
# Velocity P-wave (km/s) = 5.59189 5.97012 5.78410
#
# Compressibility (1/GPa) = 0.03892932
#
# Stress axis : x y z
#
# Youngs Moduli (GPa) = 76.57532 76.75202 57.22146
#
# Poissons Ratio (x) = 0.26343 0.02184
# Poissons Ratio (y) = 0.26283 -0.08564
# Poissons Ratio (z) = 0.02923 -0.11488
#
# Static dielectric constant tensor:
#      x y z
#    x 1.639350 0.000000 0.029700 
#    y 0.000000 1.714350 0.000000 
#    z 0.029700 0.000000 1.697030 
# 
# From -- ./inp_files/7683.got.cif
#   From: 2010.05.17/outbox.cif.g08.bks.cpg/sg12_4_cif.got.tgz:7683.got - 2010.06.03 13:09:07.
