data_PCOD9206119
_publ_section_title
;
Structure prediction by ZEFSAII (Michael W. Deem and Ramdas Pophale) SiO2 
 PCOD9206119
Probable space group: C 2/M
;
_chemical_formula_sum "Si O2"
_cell_formula_units_Z 64
_cell_length_a 16.679623
_cell_length_b 11.404336
_cell_length_c 20.368587
_cell_angle_alpha 90.000000
_cell_angle_beta 55.171955
_cell_angle_gamma 90.000000
_cell_volume 3180.470660
_symmetry_space_group_name_H-M "C 2/M"
_symmetry_group_IT_number 12
_symmetry_cell_setting 'monoclinic'
loop_
_space_group_symop_operation_xyz
x,y,z
-x,y,-z
-x,-y,-z
x,-y,z
1/2+x,1/2+y,z
1/2-x,1/2+y,-z
1/2-x,1/2-y,-z
1/2+x,1/2-y,z
loop_
_atom_site_type_symbol
_atom_site_label
_atom_site_fract_x
_atom_site_fract_y
_atom_site_fract_z
Si Si1 0.643025 0.196479 0.057523
Si Si2 0.168148 0.372551 0.903617
Si Si3 0.189432 0.134624 0.506719
Si Si4 0.852538 0.299932 0.801540
Si Si5 0.723042 0.375584 0.746585
Si Si6 0.032596 0.181808 0.912675
Si Si7 0.023291 0.130755 0.329687
Si Si8 0.706693 0.367681 0.342852
O O1 0.634553 0.142013 0.133477
O O2 0.562459 0.298332 0.086583
O O3 0.750000 0.250000 0.000000
O O4 0.635306 0.123160 0.994692
O O5 0.186853 0.500000 0.868415
O O6 0.266827 0.297445 0.851448
O O7 0.083008 0.306432 0.905457
O O8 0.250000 0.250000 0.500000
O O9 0.182881 0.139073 0.430872
O O10 0.082376 0.144400 0.588889
O O11 0.225915 0.000000 0.505792
O O12 0.807927 0.372824 0.762524
O O13 0.949194 0.231926 0.734212
O O14 0.732088 0.500000 0.704610
O O15 0.620037 0.378437 0.833077
O O16 0.733213 0.250208 0.704879
O O17 0.000000 0.134795 0.000000
O O18 0.107885 0.137420 0.345675
O O19 0.029140 0.000000 0.297191
O O20 0.749484 0.500000 0.311667
#
# Coordination Sequence:
#
# PCOD9206119 Si02
#       8
#     8   8   8   8   8   8   8   8
#     4   9  18  32  47  68 102 140 178 220 268 318
#     4   9  17  31  52  75  99 132 177 225 271 320
#     4  10  21  37  58  86 117 147 180 222 273 325
#     4   9  18  33  52  76 108 136 172 224 278 324
#     4  10  21  36  56  82 111 144 181 223 274 331
#     4   9  19  34  51  73 103 140 182 226 271 322
#     4   9  17  33  60  85 105 139 187 231 267 315
#     4   9  19  38  62  84 108 143 187 228 266 317
#
# _framework density 20.122809
#
# number of rings (size 3 to 8) (size 9 to 14) (size 15 to 20)
#    0.000    2.750    0.000    1.500    0.000    9.000 
#    0.000    6.875    0.000    4.500    0.000    0.000 
#    0.000    0.000    0.000    0.000    0.000    0.000 
#
# Total GULP energy -178148.503893 kJ/mol
# GULP energy per Si atom -5567.140747 kJ/mol
# Density = 2.007701 g / cm^3
# Si number density = 20.122809 Si / 1000 Ang^3
#
#
#
# Elastic Constant Matrix: (Units=GPa)
#
#
# Indices 1 2 3 4 5 6 
#
# 1 46.9790 18.9884 12.6038 0.0000 -7.5004 0.0000
# 2 18.9884 143.3806 38.4378 0.0000 -13.6373 0.0000
# 3 12.6038 38.4378 90.6515 0.0000 -7.0111 0.0000
# 4 0.0000 0.0000 0.0000 -10.5486 0.0000 8.5528
# 5 -7.5004 -13.6373 -7.0111 0.0000 31.2192 0.0000
# 6 0.0000 0.0000 0.0000 8.5528 0.0000 -1.8588
#
#
#
# Elastic Compliance Matrix: (Units=1/GPa)
#
#
# Indices 1 2 3 4 5 6 
#
# 1 0.023370 -0.002155 -0.002009 0.000000 0.004222 0.000000
# 2 -0.002155 0.008304 -0.003034 0.000000 0.002428 0.000000
# 3 -0.002009 -0.003034 0.012677 0.000000 0.001039 0.000000
# 4 0.000000 0.000000 0.000000 0.034716 0.000000 0.159738
# 5 0.004222 0.002428 0.001039 0.000000 0.034340 0.000000
# 6 0.000000 0.000000 0.000000 0.159738 0.000000 0.197012
#
#
# Mechanical properties :
#
#
# Convention : Reuss Voigt Hill
#
# Bulk Modulus (GPa) = 33.38180 46.78569 40.08375
# Shear Modulus (GPa) = 14.93428 17.82777 16.38102
#
# Velocity S-wave (km/s) = 2.72721 2.97972 2.85626
# Velocity P-wave (km/s) = 5.15189 5.92780 5.55341
#
# Compressibility (1/GPa) = 0.02995644
#
# Stress axis : x y z
#
# Youngs Moduli (GPa) = 42.78964 120.42315 78.88128
#
# Poissons Ratio (x) = 0.25949 0.15848
# Poissons Ratio (y) = 0.09220 0.23930
# Poissons Ratio (z) = 0.08597 0.36532
#
# Static dielectric constant tensor:
#      x y z
#    x 1.705740 0.000000 0.024550 
#    y 0.000000 1.771910 0.000000 
#    z 0.024550 0.000000 1.722210 
# 
# From -- ./inp_files/315668.got.cif
#   From: 2010.05.17/outbox.cif.g08.bks.cpg/sg12_158_cif.got.tgz:315668.got - 2010.06.03 13:09:07.
