data_PCOD9206969
_publ_section_title
;
Structure prediction by ZEFSAII (Michael W. Deem and Ramdas Pophale) SiO2 
 PCOD9206969
Probable space group: C 2/M
;
_chemical_formula_sum "Si O2"
_cell_formula_units_Z 40
_cell_length_a 13.325738
_cell_length_b 24.443694
_cell_length_c 10.118729
_cell_angle_alpha 90.000000
_cell_angle_beta 38.776116
_cell_angle_gamma 90.000000
_cell_volume 2064.200334
_symmetry_space_group_name_H-M "C 2/M"
_symmetry_group_IT_number 12
_symmetry_cell_setting 'monoclinic'
loop_
_space_group_symop_operation_xyz
x,y,z
-x,y,-z
-x,-y,-z
x,-y,z
1/2+x,1/2+y,z
1/2-x,1/2+y,-z
1/2-x,1/2-y,-z
1/2+x,1/2-y,z
loop_
_atom_site_type_symbol
_atom_site_label
_atom_site_fract_x
_atom_site_fract_y
_atom_site_fract_z
Si Si1 0.564724 0.657024 0.294720
Si Si2 0.133788 0.155057 0.753732
Si Si3 0.608387 0.061570 0.519168
Si Si4 0.441256 0.133787 0.908157
Si Si5 0.437527 0.218895 0.424001
O O1 0.500000 0.635879 0.500000
O O2 0.459143 0.637326 0.282152
O O3 0.522232 0.722104 0.334556
O O4 0.750118 0.641633 0.095805
O O5 0.253700 0.105129 0.655847
O O6 0.245756 0.209246 0.625914
O O7 0.000000 0.164517 0.000000
O O8 0.500000 0.059660 0.500000
O O9 0.509635 0.084422 0.747379
O O10 0.666952 0.000000 0.485804
O O11 0.509871 0.186210 0.759413
O O12 0.500000 0.131046 0.000000
O O13 0.500000 0.194181 0.500000
#
# Coordination Sequence:
#
# PCOD9206969 Si02
#       5
#     8   8   8   8   8
#     4  11  22  36  55  85 120 156 194 234 281 337
#     4  11  21  36  59  87 118 149 190 240 287 338
#     4  10  22  42  64  85 112 149 192 239 294 348
#     4  11  22  39  61  85 116 154 195 239 288 341
#     4  10  21  37  55  83 120 159 196 229 276 337
#
# _framework density 19.377965
#
# number of rings (size 3 to 8) (size 9 to 14) (size 15 to 20)
#    0.000    1.400    0.000    8.400    0.000    4.800 
#    0.000    1.000    0.000    2.400    0.000    0.000 
#    0.000    0.000    0.000    0.000    0.000    0.000 
#
# Total GULP energy -111564.231434 kJ/mol
# GULP energy per Si atom -5578.211572 kJ/mol
# Density = 1.933386 g / cm^3
# Si number density = 19.377965 Si / 1000 Ang^3
#
#
#
# Elastic Constant Matrix: (Units=GPa)
#
#
# Indices 1 2 3 4 5 6 
#
# 1 117.9629 -10.8564 16.7369 0.0000 2.2317 0.0000
# 2 -10.8564 63.9112 1.7203 0.0000 -13.6864 0.0000
# 3 16.7369 1.7203 112.8796 0.0000 -10.4932 0.0000
# 4 0.0000 0.0000 0.0000 3.3624 0.0000 4.9109
# 5 2.2317 -13.6864 -10.4932 0.0000 44.9398 0.0000
# 6 0.0000 0.0000 0.0000 4.9109 0.0000 18.4254
#
#
#
# Elastic Compliance Matrix: (Units=1/GPa)
#
#
# Indices 1 2 3 4 5 6 
#
# 1 0.008811 0.001467 -0.001357 0.000000 -0.000308 0.000000
# 2 0.001467 0.016988 -0.000002 0.000000 0.005100 0.000000
# 3 -0.001357 -0.000002 0.009268 0.000000 0.002231 0.000000
# 4 0.000000 0.000000 0.000000 0.486966 0.000000 -0.129790
# 5 -0.000308 0.005100 0.002231 0.000000 0.024341 0.000000
# 6 0.000000 0.000000 0.000000 -0.129790 0.000000 0.088866
#
#
# Mechanical properties :
#
#
# Convention : Reuss Voigt Hill
#
# Bulk Modulus (GPa) = 28.34318 34.43948 31.39133
# Shear Modulus (GPa) = 7.73054 32.48905 20.10979
#
# Velocity S-wave (km/s) = 1.99950 4.09907 3.22493
# Velocity P-wave (km/s) = 4.47090 6.34147 5.48649
#
# Compressibility (1/GPa) = 0.03528186
#
# Stress axis : x y z
#
# Youngs Moduli (GPa) = 113.49860 58.86418 107.90221
#
# Poissons Ratio (x) = -0.08637 0.14646
# Poissons Ratio (y) = -0.16654 0.00025
# Poissons Ratio (z) = 0.15406 0.00014
#
# Static dielectric constant tensor:
#      x y z
#    x 1.707440 0.000000 0.005250 
#    y 0.000000 1.698730 0.000000 
#    z 0.005250 0.000000 1.670470 
# 
# From -- ./inp_files/52872.got.cif
#   From: 2010.05.17/outbox.cif.g08.bks.cpg/sg12_27_cif.got.tgz:52872.got - 2010.06.03 13:09:07.
