data_PCOD9206256
_publ_section_title
;
Structure prediction by ZEFSAII (Michael W. Deem and Ramdas Pophale) SiO2 
 PCOD9206256
Probable space group: C 2/M
;
_chemical_formula_sum "Si O2"
_cell_formula_units_Z 56
_cell_length_a 22.507875
_cell_length_b 25.128047
_cell_length_c 11.221749
_cell_angle_alpha 90.000000
_cell_angle_beta 157.222354
_cell_angle_gamma 90.000000
_cell_volume 2457.195170
_symmetry_space_group_name_H-M "C 2/M"
_symmetry_group_IT_number 12
_symmetry_cell_setting 'monoclinic'
loop_
_space_group_symop_operation_xyz
x,y,z
-x,y,-z
-x,-y,-z
x,-y,z
1/2+x,1/2+y,z
1/2-x,1/2+y,-z
1/2-x,1/2-y,-z
1/2+x,1/2-y,z
loop_
_atom_site_type_symbol
_atom_site_label
_atom_site_fract_x
_atom_site_fract_y
_atom_site_fract_z
Si Si1 0.401582 0.727575 0.711778
Si Si2 0.650922 0.186677 0.082574
Si Si3 0.664227 0.938126 0.743886
Si Si4 0.923819 0.058543 0.583920
Si Si5 0.661824 0.643573 0.773129
Si Si6 0.786296 0.937490 0.720076
Si Si7 0.151824 0.414364 0.236944
O O1 0.250000 0.750000 0.500000
O O2 0.318655 0.696723 0.452696
O O3 0.500000 0.700963 0.000000
O O4 0.522257 0.769052 0.874166
O O5 0.699529 0.175290 0.035927
O O6 0.596647 0.135710 0.057485
O O7 0.500000 0.931441 0.500000
O O8 0.663051 0.933125 0.598721
O O9 0.711204 0.000000 0.856354
O O10 0.771080 0.891683 0.994545
O O11 0.893140 0.099320 0.423165
O O12 0.766406 0.055531 0.364283
O O13 0.965597 0.000000 0.616335
O O14 0.054671 0.075237 0.919626
O O15 0.500000 0.673549 0.500000
O O16 0.745890 0.902579 0.531703
O O17 0.794872 0.000000 0.698312
O O18 0.000000 0.442944 0.000000
#
# Coordination Sequence:
#
# PCOD9206256 Si02
#       7
#     8   8   8   8   8   8   8
#     4   9  18  40  65  92 120 148 187 241 315 399
#     4  10  23  40  66  94 120 153 199 252 318 385
#     4  10  22  39  59  86 126 178 222 253 291 345
#     4  10  21  36  57  83 123 173 212 254 299 354
#     4  11  22  40  61  92 125 161 215 259 297 357
#     4  10  21  37  56  83 126 174 215 248 295 354
#     4  11  23  36  55  93 127 152 201 265 316 362
#
# _framework density 22.790212
#
# number of rings (size 3 to 8) (size 9 to 14) (size 15 to 20)
#    0.000    1.857    1.429    2.571    4.000    5.143 
#    0.000    2.143    0.000    0.000    0.000    0.000 
#    0.000    0.000    0.000    0.000    0.000    0.000 
#
# Total GULP energy -156175.340862 kJ/mol
# GULP energy per Si atom -5577.690745 kJ/mol
# Density = 2.273834 g / cm^3
# Si number density = 22.790212 Si / 1000 Ang^3
#
#
#
# Elastic Constant Matrix: (Units=GPa)
#
#
# Indices 1 2 3 4 5 6 
#
# 1 86.7752 10.5596 7.0344 0.0000 26.8429 0.0000
# 2 10.5596 31.9908 9.8833 0.0000 4.5544 0.0000
# 3 7.0344 9.8833 63.5434 0.0000 21.3997 0.0000
# 4 0.0000 0.0000 0.0000 -357.1071 0.0000 684.3159
# 5 26.8429 4.5544 21.3997 0.0000 48.7923 0.0000
# 6 0.0000 0.0000 0.0000 684.3159 0.0000-1228.6803
#
#
#
# Elastic Compliance Matrix: (Units=1/GPa)
#
#
# Indices 1 2 3 4 5 6 
#
# 1 0.014476 -0.004161 0.001873 0.000000 -0.008397 0.000000
# 2 -0.004161 0.034072 -0.005325 0.000000 0.001445 0.000000
# 3 0.001873 -0.005325 0.019404 0.000000 -0.009043 0.000000
# 4 0.000000 0.000000 0.000000 0.041625 0.000000 0.023183
# 5 -0.008397 0.001445 -0.009043 0.000000 0.028946 0.000000
# 6 0.000000 0.000000 0.000000 0.023183 0.000000 0.012098
#
#
# Mechanical properties :
#
#
# Convention : Reuss Voigt Hill
#
# Bulk Modulus (GPa) = 18.96681 26.36267 22.66474
# Shear Modulus (GPa) = 27.25927 -297.07687 -134.90880
#
# Velocity S-wave (km/s) = 3.46221 -11.42960 -7.70224
# Velocity P-wave (km/s) = 4.93183 12.75102 8.31461
#
# Compressibility (1/GPa) = 0.05272369
#
# Stress axis : x y z
#
# Youngs Moduli (GPa) = 69.07958 29.34948 51.53625
#
# Poissons Ratio (x) = 0.12213 -0.09650
# Poissons Ratio (y) = 0.28747 0.27445
# Poissons Ratio (z) = -0.12935 0.15629
#
# Static dielectric constant tensor:
#      x y z
#    x 1.903740 0.000000 0.019850 
#    y 0.000000 1.874880 0.000000 
#    z 0.019850 0.000000 1.878200 
# 
# From -- ./inp_files/178710.got.cif
#   From: 2010.05.17/outbox.cif.g08.bks.cpg/sg12_90_cif.got.tgz:178710.got - 2010.06.03 13:09:07.
