data_PCOD9206326
_publ_section_title
;
Structure prediction by ZEFSAII (Michael W. Deem and Ramdas Pophale) SiO2 
 PCOD9206326
Probable space group: C 2/M
;
_chemical_formula_sum "Si O2"
_cell_formula_units_Z 40
_cell_length_a 5.283876
_cell_length_b 18.742972
_cell_length_c 17.196231
_cell_angle_alpha 90.000000
_cell_angle_beta 82.547163
_cell_angle_gamma 90.000000
_cell_volume 1688.650702
_symmetry_space_group_name_H-M "C 2/M"
_symmetry_group_IT_number 12
_symmetry_cell_setting 'monoclinic'
loop_
_space_group_symop_operation_xyz
x,y,z
-x,y,-z
-x,-y,-z
x,-y,z
1/2+x,1/2+y,z
1/2-x,1/2+y,-z
1/2-x,1/2-y,-z
1/2+x,1/2-y,z
loop_
_atom_site_type_symbol
_atom_site_label
_atom_site_fract_x
_atom_site_fract_y
_atom_site_fract_z
Si Si1 0.120429 0.416542 0.386950
Si Si2 0.608580 0.331430 0.419867
Si Si3 0.147991 0.083229 0.787906
Si Si4 0.270367 0.086614 0.956184
Si Si5 0.175856 0.210712 0.243841
O O1 0.081049 0.500000 0.404057
O O2 0.385642 0.389419 0.412382
O O3 0.162751 0.406634 0.292400
O O4 0.876399 0.371078 0.421324
O O5 0.500000 0.291522 0.500000
O O6 0.636076 0.287761 0.339250
O O7 0.275062 0.101847 0.864632
O O8 0.902824 0.132274 0.781331
O O9 0.072975 0.000000 0.792665
O O10 0.273239 0.000000 0.962404
O O11 0.500000 0.114113 0.000000
O O12 0.000000 0.111788 0.000000
O O13 0.956199 0.260913 0.217008
#
# Coordination Sequence:
#
# PCOD9206326 Si02
#       5
#     8   8   8   8   8
#     4  10  21  36  57  87 121 158 198 244 301 356
#     4  11  23  38  57  84 117 155 202 251 298 354
#     4   9  20  40  65  91 121 158 203 248 291 354
#     4   9  18  32  55  89 122 151 189 241 295 343
#     4  11  24  42  62  87 120 159 200 246 303 357
#
# _framework density 23.687552
#
# number of rings (size 3 to 8) (size 9 to 14) (size 15 to 20)
#    0.000    2.000    0.000    3.600    0.000    8.800 
#    0.000   13.000    0.000    3.600    0.000    0.000 
#    0.000    0.000    0.000    0.000    0.000    0.000 
#
# Total GULP energy -111981.374526 kJ/mol
# GULP energy per Si atom -5599.068726 kJ/mol
# Density = 2.363364 g / cm^3
# Si number density = 23.687552 Si / 1000 Ang^3
#
#
#
# Elastic Constant Matrix: (Units=GPa)
#
#
# Indices 1 2 3 4 5 6 
#
# 1 157.6933 53.7958 29.5775 0.0000 22.0690 0.0000
# 2 53.7958 86.9012 9.7198 0.0000 3.2534 0.0000
# 3 29.5775 9.7198 111.8227 0.0000 7.8190 0.0000
# 4 0.0000 0.0000 0.0000 13.7035 0.0000 0.3087
# 5 22.0690 3.2534 7.8190 0.0000 29.0520 0.0000
# 6 0.0000 0.0000 0.0000 0.3087 0.0000 18.6733
#
#
#
# Elastic Compliance Matrix: (Units=1/GPa)
#
#
# Indices 1 2 3 4 5 6 
#
# 1 0.009313 -0.005362 -0.001574 0.000000 -0.006050 0.000000
# 2 -0.005362 0.014740 -0.000033 0.000000 0.002432 0.000000
# 3 -0.001574 -0.000033 0.009456 0.000000 -0.001346 0.000000
# 4 0.000000 0.000000 0.000000 0.073001 0.000000 -0.001207
# 5 -0.006050 0.002432 -0.001346 0.000000 0.039107 0.000000
# 6 0.000000 0.000000 0.000000 -0.001207 0.000000 0.053572
#
#
# Mechanical properties :
#
#
# Convention : Reuss Voigt Hill
#
# Bulk Modulus (GPa) = 51.09978 60.28928 55.69453
# Shear Modulus (GPa) = 22.76340 29.84069 26.30205
#
# Velocity S-wave (km/s) = 3.10334 3.55316 3.33584
# Velocity P-wave (km/s) = 5.87028 6.50695 6.19680
#
# Compressibility (1/GPa) = 0.01956955
#
# Stress axis : x y z
#
# Youngs Moduli (GPa) = 107.38001 67.84467 105.75273
#
# Poissons Ratio (x) = 0.36381 0.16646
# Poissons Ratio (y) = 0.57582 0.00347
# Poissons Ratio (z) = 0.16903 0.00223
#
# Static dielectric constant tensor:
#      x y z
#    x 1.858620 0.000000 0.004940 
#    y 0.000000 1.882930 0.000000 
#    z 0.004940 0.000000 1.903530 
# 
# From -- ./inp_files/252600.got.cif
#   From: 2010.05.17/outbox.cif.g08.bks.cpg/sg12_127_cif.got.tgz:252600.got - 2010.06.03 13:09:07.
