data_PCOD9206687
_publ_section_title
;
Structure prediction by ZEFSAII (Michael W. Deem and Ramdas Pophale) SiO2 
 PCOD9206687
Probable space group: C 2/M
;
_chemical_formula_sum "Si O2"
_cell_formula_units_Z 58
_cell_length_a 11.538192
_cell_length_b 24.086163
_cell_length_c 10.826896
_cell_angle_alpha 90.000000
_cell_angle_beta 56.947066
_cell_angle_gamma 90.000000
_cell_volume 2521.970038
_symmetry_space_group_name_H-M "C 2/M"
_symmetry_group_IT_number 12
_symmetry_cell_setting 'monoclinic'
loop_
_space_group_symop_operation_xyz
x,y,z
-x,y,-z
-x,-y,-z
x,-y,z
1/2+x,1/2+y,z
1/2-x,1/2+y,-z
1/2-x,1/2-y,-z
1/2+x,1/2-y,z
loop_
_atom_site_type_symbol
_atom_site_label
_atom_site_fract_x
_atom_site_fract_y
_atom_site_fract_z
Si Si1 0.768012 0.652269 0.291505
Si Si2 0.481088 0.433702 0.868703
Si Si3 0.335119 0.101373 0.990472
Si Si4 0.000000 0.500000 0.000000
Si Si5 0.217275 0.870996 0.577491
Si Si6 0.348492 0.172214 0.733056
Si Si7 0.079108 0.241780 0.843262
Si Si8 0.012226 0.212247 0.330999
O O1 0.803703 0.799144 0.175775
O O2 0.769348 0.612649 0.410615
O O3 0.847916 0.709252 0.273131
O O4 0.613004 0.671430 0.344145
O O5 0.500261 0.500000 0.851988
O O6 0.323826 0.419056 0.929210
O O7 0.594147 0.406565 0.711070
O O8 0.500000 0.415365 0.000000
O O9 0.331876 0.129738 0.127729
O O10 0.370009 0.138677 0.848399
O O11 0.433380 0.048636 0.948382
O O12 0.332483 0.863562 0.616278
O O13 0.142559 0.811998 0.585835
O O14 0.449976 0.224910 0.655678
O O15 0.961353 0.211919 0.831234
O O16 0.000000 0.268836 0.000000
#
# Coordination Sequence:
#
# PCOD9206687 Si02
#       8
#     8   8   8   2   8   8   8   8
#     4  11  24  38  63  97 141 178 212 275 344 391
#     4  11  23  44  75 104 122 170 233 296 346 391
#     4  12  24  46  69  98 130 175 226 284 347 403
#     4  12  32  48  74 100 132 168 236 296 346 412
#     4  11  23  42  64 101 142 171 225 282 328 412
#     4  10  23  39  67  95 135 181 229 272 331 399
#     4  10  21  36  60  97 133 185 234 267 315 409
#     4  10  21  36  60  95 137 184 215 262 326 400
#
# _framework density 22.997893999999999
#
# number of rings (size 3 to 8) (size 9 to 14) (size 15 to 20)
#    0.000    1.241    3.448    2.069    4.828    8.276 
#    1.241    0.690    0.000    0.828    0.000    0.000 
#    0.000    0.000    0.000    0.000    0.000    0.000 
#
# Total GULP energy -161559.482531 kJ/mol
# GULP energy per Si atom -5571.016639 kJ/mol
# Density = 2.294555 g / cm^3
# Si number density = 22.997894 Si / 1000 Ang^3
#
#
#
# Elastic Constant Matrix: (Units=GPa)
#
#
# Indices 1 2 3 4 5 6 
#
# 1 99.1396 43.6486 45.9583 0.0000 24.7207 0.0000
# 2 43.6486 99.8316 50.7245 0.0000 12.9773 0.0000
# 3 45.9583 50.7245 158.2182 0.0000 34.3071 0.0000
# 4 0.0000 0.0000 0.0000 12.2071 0.0000 8.1117
# 5 24.7207 12.9773 34.3071 0.0000 35.4943 0.0000
# 6 0.0000 0.0000 0.0000 8.1117 0.0000 40.1682
#
#
#
# Elastic Compliance Matrix: (Units=1/GPa)
#
#
# Indices 1 2 3 4 5 6 
#
# 1 0.014552 -0.004862 -0.001083 0.000000 -0.007311 0.000000
# 2 -0.004862 0.013610 -0.003298 0.000000 0.001597 0.000000
# 3 -0.001083 -0.003298 0.009194 0.000000 -0.006927 0.000000
# 4 0.000000 0.000000 0.000000 0.094616 0.000000 -0.019107
# 5 -0.007311 0.001597 -0.006927 0.000000 0.039376 0.000000
# 6 0.000000 0.000000 0.000000 -0.019107 0.000000 0.028754
#
#
# Mechanical properties :
#
#
# Convention : Reuss Voigt Hill
#
# Bulk Modulus (GPa) = 52.98930 70.87247 61.93089
# Shear Modulus (GPa) = 22.23416 32.03112 27.13264
#
# Velocity S-wave (km/s) = 3.11270 3.73605 3.43853
# Velocity P-wave (km/s) = 6.00079 7.03524 6.53851
#
# Compressibility (1/GPa) = 0.01887173
#
# Stress axis : x y z
#
# Youngs Moduli (GPa) = 68.71693 73.47272 108.76507
#
# Poissons Ratio (x) = 0.35722 0.11781
# Poissons Ratio (y) = 0.33410 0.35866
# Poissons Ratio (z) = 0.07443 0.24228
#
# Static dielectric constant tensor:
#      x y z
#    x 1.905320 0.000000 0.041610 
#    y 0.000000 1.857420 0.000000 
#    z 0.041610 0.000000 2.017780 
# 
# From -- ./inp_files/135329.got.cif
#   From: 2010.05.17/outbox.cif.g08.bks.cpg/sg12_68_cif.got.tgz:135329.got - 2010.06.03 13:09:07.
