data_PCOD9206781
_publ_section_title
;
Structure prediction by ZEFSAII (Michael W. Deem and Ramdas Pophale) SiO2 
 PCOD9206781
Probable space group: C 2/M
;
_chemical_formula_sum "Si O2"
_cell_formula_units_Z 64
_cell_length_a 17.515913
_cell_length_b 26.029919
_cell_length_c 5.721368
_cell_angle_alpha 90.000000
_cell_angle_beta 87.791875
_cell_angle_gamma 90.000000
_cell_volume 2606.650946
_symmetry_space_group_name_H-M "C 2/M"
_symmetry_group_IT_number 12
_symmetry_cell_setting 'monoclinic'
loop_
_space_group_symop_operation_xyz
x,y,z
-x,y,-z
-x,-y,-z
x,-y,z
1/2+x,1/2+y,z
1/2-x,1/2+y,-z
1/2-x,1/2-y,-z
1/2+x,1/2-y,z
loop_
_atom_site_type_symbol
_atom_site_label
_atom_site_fract_x
_atom_site_fract_y
_atom_site_fract_z
Si Si1 0.459535 0.866475 0.254792
Si Si2 0.764646 0.691312 0.261654
Si Si3 0.202248 0.056063 0.851931
Si Si4 0.167192 0.111031 0.448107
Si Si5 0.054729 0.057807 0.190259
Si Si6 0.182613 0.441424 0.779006
Si Si7 0.985207 0.748011 0.752509
Si Si8 0.185644 0.296182 0.242217
O O1 0.500000 0.878319 0.500000
O O2 0.385273 0.902320 0.255946
O O3 0.460605 0.803517 0.252814
O O4 0.500000 0.878577 0.000000
O O5 0.683552 0.663242 0.311149
O O6 0.807194 0.678910 0.501530
O O7 0.750429 0.751942 0.247597
O O8 0.799823 0.675895 0.007432
O O9 0.180007 0.107876 0.721204
O O10 0.194706 0.000000 0.728098
O O11 0.136907 0.053116 0.054923
O O12 0.284963 0.058582 0.959318
O O13 0.083414 0.088853 0.409914
O O14 0.241850 0.076672 0.369250
O O15 0.026531 0.000000 0.245594
O O16 0.000000 0.080776 0.000000
O O17 0.162364 0.500000 0.721359
O O18 0.898560 0.727482 0.763438
O O19 0.000000 0.774479 0.500000
O O20 0.000000 0.775000 0.000000
#
# Coordination Sequence:
#
# PCOD9206781 Si02
#       8
#     8   8   8   8   8   8   8   8
#     4  10  24  38  56  87 118 165 212 257 302 358
#     4  10  24  38  69  90 123 157 201 261 316 365
#     4   9  19  36  59  88 119 160 209 258 311 365
#     4  11  22  34  63  91 115 163 205 259 306 384
#     4   9  19  37  58  86 123 159 201 254 311 378
#     4  10  23  39  56  84 126 164 207 263 306 356
#     4  10  21  36  63  89 119 158 206 250 302 367
#     4  10  22  44  61  95 122 157 203 261 312 375
#
# _framework density 24.552575999999998
#
# number of rings (size 3 to 8) (size 9 to 14) (size 15 to 20)
#    0.000    2.125    0.000    2.625   12.250    1.000 
#    0.000    2.500    2.750    0.000    0.000    0.000 
#    0.000    0.000    0.000    0.000    0.000    0.000 
#
# Total GULP energy -178377.292740 kJ/mol
# GULP energy per Si atom -5574.290398 kJ/mol
# Density = 2.449669 g / cm^3
# Si number density = 24.552576 Si / 1000 Ang^3
#
#
#
# Elastic Constant Matrix: (Units=GPa)
#
#
# Indices 1 2 3 4 5 6 
#
# 1 57.4600 -4.7665 31.3921 0.0000 10.7511 0.0000
# 2 -4.7665 61.6201 14.8240 0.0000 -1.0999 0.0000
# 3 31.3921 14.8240 174.6627 0.0000 15.3525 0.0000
# 4 0.0000 0.0000 0.0000 17.1733 0.0000 -4.6987
# 5 10.7511 -1.0999 15.3525 0.0000 40.1793 0.0000
# 6 0.0000 0.0000 0.0000 -4.6987 0.0000 13.4674
#
#
#
# Elastic Compliance Matrix: (Units=1/GPa)
#
#
# Indices 1 2 3 4 5 6 
#
# 1 0.020254 0.002333 -0.003484 0.000000 -0.004024 0.000000
# 2 0.002333 0.016876 -0.001901 0.000000 0.000564 0.000000
# 3 -0.003484 -0.001901 0.006659 0.000000 -0.001664 0.000000
# 4 0.000000 0.000000 0.000000 0.064375 0.000000 0.022460
# 5 -0.004024 0.000564 -0.001664 0.000000 0.026617 0.000000
# 6 0.000000 0.000000 0.000000 0.022460 0.000000 0.082089
#
#
# Mechanical properties :
#
#
# Convention : Reuss Voigt Hill
#
# Bulk Modulus (GPa) = 26.53647 41.84910 34.19278
# Shear Modulus (GPa) = 21.22809 30.98353 26.10581
#
# Velocity S-wave (km/s) = 2.94359 3.55621 3.26431
# Velocity P-wave (km/s) = 4.73122 5.82614 5.30699
#
# Compressibility (1/GPa) = 0.03768399
#
# Stress axis : x y z
#
# Youngs Moduli (GPa) = 49.37400 59.25429 150.16759
#
# Poissons Ratio (x) = -0.13825 0.52326
# Poissons Ratio (y) = -0.11520 0.28551
# Poissons Ratio (z) = 0.17204 0.11266
#
# Static dielectric constant tensor:
#      x y z
#    x 1.960280 0.000000 0.014760 
#    y 0.000000 2.015470 0.000000 
#    z 0.014760 0.000000 2.156550 
# 
# From -- ./inp_files/18302.got.cif
#   From: 2010.05.17/outbox.cif.g08.bks.cpg/sg12_10_cif.got.tgz:18302.got - 2010.06.03 13:09:07.
