data_PCOD9206370
_publ_section_title
;
Structure prediction by ZEFSAII (Michael W. Deem and Ramdas Pophale) SiO2 
 PCOD9206370
Probable space group: C 2/M
;
_chemical_formula_sum "Si O2"
_cell_formula_units_Z 58
_cell_length_a 23.441421
_cell_length_b 15.311091
_cell_length_c 13.377204
_cell_angle_alpha 90.000000
_cell_angle_beta 39.424402
_cell_angle_gamma 90.000000
_cell_volume 3049.087447
_symmetry_space_group_name_H-M "C 2/M"
_symmetry_group_IT_number 12
_symmetry_cell_setting 'monoclinic'
loop_
_space_group_symop_operation_xyz
x,y,z
-x,y,-z
-x,-y,-z
x,-y,z
1/2+x,1/2+y,z
1/2-x,1/2+y,-z
1/2-x,1/2-y,-z
1/2+x,1/2-y,z
loop_
_atom_site_type_symbol
_atom_site_label
_atom_site_fract_x
_atom_site_fract_y
_atom_site_fract_z
Si Si1 0.924292 0.793905 0.369809
Si Si2 0.420791 0.809947 0.175932
Si Si3 0.749090 0.400397 0.883284
Si Si4 0.586552 0.603383 0.255385
Si Si5 0.744905 0.599404 0.483226
Si Si6 0.840498 0.864458 0.205212
Si Si7 0.500000 0.500000 0.000000
Si Si8 0.099165 0.267272 0.381249
O O1 0.953767 0.734745 0.235426
O O2 0.836037 0.843945 0.451689
O O3 0.892472 0.742116 0.511220
O O4 0.004762 0.857799 0.298208
O O5 0.341593 0.874999 0.311763
O O6 0.373404 0.733777 0.175148
O O7 0.500000 0.846243 0.000000
O O8 0.784674 0.500000 0.837188
O O9 0.689176 0.388797 0.865006
O O10 0.826094 0.327618 0.770728
O O11 0.679567 0.390249 0.068298
O O12 0.571210 0.500000 0.298946
O O13 0.596624 0.670238 0.334655
O O14 0.725015 0.500000 0.487901
O O15 0.739167 0.616488 0.609424
O O16 0.923787 0.924739 0.122758
O O17 0.000000 0.305810 0.500000
#
# Coordination Sequence:
#
# PCOD9206370 Si02
#       8
#     8   8   8   8   8   8   2   8
#     4  10  21  36  58  81 108 145 182 232 297 335
#     4  11  22  36  55  80 116 152 186 231 280 338
#     4  11  21  35  58  85 112 149 184 225 282 336
#     4  10  22  36  59  86 110 140 183 236 288 339
#     4  11  22  35  54  81 115 155 190 226 272 343
#     4  11  21  35  56  90 121 142 181 237 291 337
#     4  12  20  32  60  92 122 142 176 240 292 332
#     4  10  22  40  56  78 112 147 190 236 276 329
#
# _framework density 19.022085000000001
#
# number of rings (size 3 to 8) (size 9 to 14) (size 15 to 20)
#    0.000    1.379    2.069    4.966    1.931    3.586 
#    0.000    0.000    0.000    0.828    0.000    0.000 
#    0.000    0.000    0.000    0.000    0.000    0.000 
#
# Total GULP energy -161638.514578 kJ/mol
# GULP energy per Si atom -5573.741882 kJ/mol
# Density = 1.897879 g / cm^3
# Si number density = 19.022085 Si / 1000 Ang^3
#
#
#
# Elastic Constant Matrix: (Units=GPa)
#
#
# Indices 1 2 3 4 5 6 
#
# 1 47.8806 21.8355 30.7138 0.0000 13.7489 0.0000
# 2 21.8355 40.3806 25.1355 0.0000 -2.7375 0.0000
# 3 30.7138 25.1355 135.7104 0.0000 -5.7858 0.0000
# 4 0.0000 0.0000 0.0000 47.6734 0.0000 -36.8142
# 5 13.7489 -2.7375 -5.7858 0.0000 23.1768 0.0000
# 6 0.0000 0.0000 0.0000 -36.8142 0.0000 91.2963
#
#
#
# Elastic Compliance Matrix: (Units=1/GPa)
#
#
# Indices 1 2 3 4 5 6 
#
# 1 0.044069 -0.021340 -0.007321 0.000000 -0.030490 0.000000
# 2 -0.021340 0.038420 -0.001570 0.000000 0.016805 0.000000
# 3 -0.007321 -0.001570 0.009596 0.000000 0.006553 0.000000
# 4 0.000000 0.000000 0.000000 0.030461 0.000000 0.012283
# 5 -0.030490 0.016805 0.006553 0.000000 0.064855 0.000000
# 6 0.000000 0.000000 0.000000 0.012283 0.000000 0.015906
#
#
# Mechanical properties :
#
#
# Convention : Reuss Voigt Hill
#
# Bulk Modulus (GPa) = 31.62251 42.14902 36.88577
# Shear Modulus (GPa) = 18.22760 42.18175 30.20467
#
# Velocity S-wave (km/s) = 3.09889 4.71416 3.98914
# Velocity P-wave (km/s) = 5.42811 7.19980 6.37579
#
# Compressibility (1/GPa) = 0.03162305
#
# Stress axis : x y z
#
# Youngs Moduli (GPa) = 22.69190 26.02796 104.21374
#
# Poissons Ratio (x) = 0.55543 0.76295
# Poissons Ratio (y) = 0.48424 0.16361
# Poissons Ratio (z) = 0.16613 0.04086
#
# Static dielectric constant tensor:
#      x y z
#    x 1.707820 0.000000 0.032250 
#    y 0.000000 1.669100 0.000000 
#    z 0.032250 0.000000 1.689610 
# 
# From -- ./inp_files/168953.got.cif
#   From: 2010.05.17/outbox.cif.g08.bks.cpg/sg12_85_cif.got.tgz:168953.got - 2010.06.03 13:09:07.
