data_PCOD9206573
_publ_section_title
;
Structure prediction by ZEFSAII (Michael W. Deem and Ramdas Pophale) SiO2 
 PCOD9206573
Probable space group: C 2/M
;
_chemical_formula_sum "Si O2"
_cell_formula_units_Z 56
_cell_length_a 24.186778
_cell_length_b 8.539368
_cell_length_c 16.098772
_cell_angle_alpha 90.000000
_cell_angle_beta 122.738134
_cell_angle_gamma 90.000000
_cell_volume 2796.858401
_symmetry_space_group_name_H-M "C 2/M"
_symmetry_group_IT_number 12
_symmetry_cell_setting 'monoclinic'
loop_
_space_group_symop_operation_xyz
x,y,z
-x,y,-z
-x,-y,-z
x,-y,z
1/2+x,1/2+y,z
1/2-x,1/2+y,-z
1/2-x,1/2-y,-z
1/2+x,1/2-y,z
loop_
_atom_site_type_symbol
_atom_site_label
_atom_site_fract_x
_atom_site_fract_y
_atom_site_fract_z
Si Si1 0.094525 0.188944 0.516832
Si Si2 0.456440 0.811173 0.885384
Si Si3 0.805717 0.687445 0.790327
Si Si4 0.564065 0.310669 0.854048
Si Si5 0.553578 0.311084 0.660193
Si Si6 0.727235 0.183441 0.569204
Si Si7 0.704145 0.312192 0.037342
O O1 0.094441 0.240552 0.613319
O O2 0.150575 0.278046 0.514567
O O3 0.022568 0.221488 0.421736
O O4 0.104612 0.000000 0.521205
O O5 0.381210 0.758501 0.835376
O O6 0.496513 0.748824 0.839013
O O7 0.456058 0.000000 0.881863
O O8 0.500000 0.761669 0.000000
O O9 0.805948 0.500000 0.796889
O O10 0.762832 0.737074 0.676613
O O11 0.779690 0.753231 0.856971
O O12 0.562207 0.500000 0.852363
O O13 0.572139 0.253415 0.765997
O O14 0.628633 0.261337 0.957551
O O15 0.559736 0.500000 0.666331
O O16 0.750000 0.250000 0.500000
O O17 0.740156 0.000000 0.583160
O O18 0.706703 0.500000 0.037904
O O19 0.750000 0.250000 0.000000
#
# Coordination Sequence:
#
# PCOD9206573 Si02
#       7
#     8   8   8   8   8   8   8
#     4   9  18  38  65  89 120 160 204 251 305 365
#     4  10  21  39  61  87 119 157 200 249 304 359
#     4  11  24  44  67  90 123 166 209 260 317 370
#     4  10  21  36  59  91 123 160 204 249 304 369
#     4   8  17  35  61  92 121 157 200 247 304 366
#     4  12  27  45  64  91 125 163 210 257 311 375
#     4  11  24  40  61  93 131 171 214 257 307 372
#
# _framework density 20.022465
#
# number of rings (size 3 to 8) (size 9 to 14) (size 15 to 20)
#    0.000    1.857    1.429    3.000    4.000    2.000 
#    0.000    2.143    0.000    0.000    0.000    0.000 
#    0.000    0.000    0.000    0.000    0.000    0.000 
#
# Total GULP energy -156405.328622 kJ/mol
# GULP energy per Si atom -5585.904594 kJ/mol
# Density = 1.997689 g / cm^3
# Si number density = 20.022465 Si / 1000 Ang^3
#
#
#
# Elastic Constant Matrix: (Units=GPa)
#
#
# Indices 1 2 3 4 5 6 
#
# 1 109.3883 25.5022 18.0740 0.0000 -27.7853 0.0000
# 2 25.5022 40.5612 20.4661 0.0000 -4.9532 0.0000
# 3 18.0740 20.4661 85.3827 0.0000 -33.7005 0.0000
# 4 0.0000 0.0000 0.0000 18.5259 0.0000 -4.3814
# 5 -27.7853 -4.9532 -33.7005 0.0000 29.9971 0.0000
# 6 0.0000 0.0000 0.0000 -4.3814 0.0000 35.0250
#
#
#
# Elastic Compliance Matrix: (Units=1/GPa)
#
#
# Indices 1 2 3 4 5 6 
#
# 1 0.016091 -0.011487 0.008052 0.000000 0.022054 0.000000
# 2 -0.011487 0.036713 -0.014689 0.000000 -0.021080 0.000000
# 3 0.008052 -0.014689 0.027876 0.000000 0.036350 0.000000
# 4 0.000000 0.000000 0.000000 0.055624 0.000000 0.006958
# 5 0.022054 -0.021080 0.036350 0.000000 0.091121 0.000000
# 6 0.000000 0.000000 0.000000 0.006958 0.000000 0.029421
#
#
# Mechanical properties :
#
#
# Convention : Reuss Voigt Hill
#
# Bulk Modulus (GPa) = 22.50586 40.37964 31.44275
# Shear Modulus (GPa) = 16.23881 28.12894 22.18387
#
# Velocity S-wave (km/s) = 2.85095 3.75222 3.33220
# Velocity P-wave (km/s) = 4.70127 6.24365 5.52653
#
# Compressibility (1/GPa) = 0.04443286
#
# Stress axis : x y z
#
# Youngs Moduli (GPa) = 62.14638 27.23801 35.87366
#
# Poissons Ratio (x) = 0.31287 -0.28884
# Poissons Ratio (y) = 0.71385 0.52694
# Poissons Ratio (z) = -0.50038 0.40009
#
# Static dielectric constant tensor:
#      x y z
#    x 1.695220 0.000000 -0.001240 
#    y 0.000000 1.684400 0.000000 
#    z -0.001240 0.000000 1.711890 
# 
# From -- ./inp_files/238932.got.cif
#   From: 2010.05.17/outbox.cif.g08.bks.cpg/sg12_120_cif.got.tgz:238932.got - 2010.06.03 13:09:07.
