data_PCOD9206391
_publ_section_title
;
Structure prediction by ZEFSAII (Michael W. Deem and Ramdas Pophale) SiO2 
 PCOD9206391
Probable space group: C 2/M
;
_chemical_formula_sum "Si O2"
_cell_formula_units_Z 40
_cell_length_a 12.398205
_cell_length_b 13.354091
_cell_length_c 22.695839
_cell_angle_alpha 90.000000
_cell_angle_beta 149.023245
_cell_angle_gamma 90.000000
_cell_volume 1934.039552
_symmetry_space_group_name_H-M "C 2/M"
_symmetry_group_IT_number 12
_symmetry_cell_setting 'monoclinic'
loop_
_space_group_symop_operation_xyz
x,y,z
-x,y,-z
-x,-y,-z
x,-y,z
1/2+x,1/2+y,z
1/2-x,1/2+y,-z
1/2-x,1/2-y,-z
1/2+x,1/2-y,z
loop_
_atom_site_type_symbol
_atom_site_label
_atom_site_fract_x
_atom_site_fract_y
_atom_site_fract_z
Si Si1 0.352505 0.884932 0.811242
Si Si2 0.153439 0.292959 0.775231
Si Si3 0.230064 0.189088 0.630242
Si Si4 0.655078 0.612493 0.248846
Si Si5 0.312544 0.180451 0.953249
O O1 0.173315 0.820974 0.760165
O O2 0.299312 0.877318 0.718019
O O3 0.371251 0.000000 0.837086
O O4 0.563612 0.822731 0.926916
O O5 0.277195 0.360147 0.786436
O O6 0.253541 0.279990 0.887615
O O7 0.912873 0.322488 0.668009
O O8 0.243253 0.302566 0.662108
O O9 0.000000 0.166391 0.500000
O O10 0.719430 0.500000 0.293053
O O11 0.404670 0.623525 0.140129
O O12 0.500000 0.134464 0.000000
#
# Coordination Sequence:
#
# PCOD9206391 Si02
#       5
#     8   8   8   8   8
#     4  10  21  36  58  85 111 145 188 228 273 334
#     4   9  21  37  58  83 114 146 181 231 284 329
#     4  10  23  41  57  78 112 151 190 233 280 327
#     4  10  21  37  59  88 116 145 186 230 275 332
#     4   9  19  35  58  84 116 146 177 221 277 335
#
# _framework density 20.682099999999998
#
# number of rings (size 3 to 8) (size 9 to 14) (size 15 to 20)
#    0.000    2.400    0.000    0.600    0.000   30.400 
#    0.000    2.000    0.000   17.400    0.000    0.000 
#    0.000    0.000    0.000    0.000    0.000    0.000 
#
# Total GULP energy -111423.339840 kJ/mol
# GULP energy per Si atom -5571.166992 kJ/mol
# Density = 2.063503 g / cm^3
# Si number density = 20.682100 Si / 1000 Ang^3
#
#
#
# Elastic Constant Matrix: (Units=GPa)
#
#
# Indices 1 2 3 4 5 6 
#
# 1 105.2705 -1.1600 35.4680 0.0001 24.1186 0.0000
# 2 -1.1600 45.6286 -3.2231 -0.0001 2.5845 0.0000
# 3 35.4680 -3.2231 95.4843 -0.0005 23.9100 0.0000
# 4 0.0001 -0.0001 -0.0005 9.8160 -0.0002 -2.6925
# 5 24.1186 2.5845 23.9100 -0.0002 29.3671 0.0001
# 6 0.0000 0.0000 0.0000 -2.6925 0.0001 8.4438
#
#
#
# Elastic Compliance Matrix: (Units=1/GPa)
#
#
# Indices 1 2 3 4 5 6 
#
# 1 0.012186 0.000588 -0.002497 0.000000 -0.008027 0.000000
# 2 0.000588 0.022237 0.001436 0.000000 -0.003609 0.000000
# 3 -0.002497 0.001436 0.013775 0.000001 -0.009292 0.000000
# 4 0.000000 0.000000 0.000001 0.111639 0.000000 0.035598
# 5 -0.008027 -0.003609 -0.009292 0.000000 0.048527 -0.000001
# 6 0.000000 0.000000 0.000000 0.035598 -0.000001 0.129781
#
#
# Mechanical properties :
#
#
# Convention : Reuss Voigt Hill
#
# Bulk Modulus (GPa) = 21.16260 34.28370 27.72315
# Shear Modulus (GPa) = 14.09076 23.87860 18.98468
#
# Velocity S-wave (km/s) = 2.61301 3.40156 3.03302
# Velocity P-wave (km/s) = 4.39981 5.66039 5.06943
#
# Compressibility (1/GPa) = 0.04725317
#
# Stress axis : x y z
#
# Youngs Moduli (GPa) = 82.06058 44.97034 72.59284
#
# Poissons Ratio (x) = -0.02645 0.18124
# Poissons Ratio (y) = -0.04826 -0.10423
# Poissons Ratio (z) = 0.20488 -0.06457
#
# Static dielectric constant tensor:
#      x y z
#    x 1.863700 0.000000 -0.054550 
#    y 0.000000 1.715470 0.000000 
#    z -0.054550 0.000000 1.764210 
# 
# From -- ./inp_files/336108.got.cif
#   From: 2010.05.17/outbox.cif.g08.bks.cpg/sg12_169_cif.got.tgz:336108.got - 2010.06.03 13:09:07.
