data_PCOD9206625
_publ_section_title
;
Structure prediction by ZEFSAII (Michael W. Deem and Ramdas Pophale) SiO2 
 PCOD9206625
Probable space group: C 2/M
;
_chemical_formula_sum "Si O2"
_cell_formula_units_Z 56
_cell_length_a 17.266414
_cell_length_b 9.881601
_cell_length_c 27.971743
_cell_angle_alpha 90.000000
_cell_angle_beta 149.888486
_cell_angle_gamma 90.000000
_cell_volume 2394.306532
_symmetry_space_group_name_H-M "C 2/M"
_symmetry_group_IT_number 12
_symmetry_cell_setting 'monoclinic'
loop_
_space_group_symop_operation_xyz
x,y,z
-x,y,-z
-x,-y,-z
x,-y,z
1/2+x,1/2+y,z
1/2-x,1/2+y,-z
1/2-x,1/2-y,-z
1/2+x,1/2-y,z
loop_
_atom_site_type_symbol
_atom_site_label
_atom_site_fract_x
_atom_site_fract_y
_atom_site_fract_z
Si Si1 0.373357 0.738212 0.254148
Si Si2 0.168445 0.351372 0.667141
Si Si3 0.031370 0.349691 0.072649
Si Si4 0.716052 0.345337 0.612780
Si Si5 0.038373 0.847228 0.882033
Si Si6 0.913560 0.648613 0.173653
Si Si7 0.716551 0.655039 0.437209
O O1 0.393832 0.828274 0.312641
O O2 0.216564 0.656202 0.178725
O O3 0.350834 0.820021 0.192940
O O4 0.530891 0.656251 0.331136
O O5 0.121620 0.500000 0.623649
O O6 0.135671 0.223297 0.615689
O O7 0.355033 0.354018 0.771414
O O8 0.976027 0.500000 0.056542
O O9 0.959610 0.235014 0.067570
O O10 0.000000 0.328552 0.000000
O O11 0.667654 0.500000 0.575827
O O12 0.708086 0.234563 0.566689
O O13 0.899868 0.354883 0.721445
O O14 0.117385 0.762988 0.881923
O O15 0.094299 0.000000 0.914894
O O16 0.863423 0.500000 0.131257
O O17 0.767161 0.500000 0.469584
O O18 0.750000 0.750000 0.500000
#
# Coordination Sequence:
#
# PCOD9206625 Si02
#       7
#     8   8   8   8   8   8   8
#     4  10  21  36  60  88 115 147 189 235 282 333
#     4   9  17  31  54  83 114 149 188 230 280 335
#     4  10  21  38  60  85 114 149 189 233 282 337
#     4   9  18  33  54  81 114 150 188 231 281 335
#     4   9  18  32  52  80 114 150 188 232 281 334
#     4   9  17  31  54  82 112 149 190 232 280 334
#     4  11  23  39  60  85 115 150 189 234 283 336
#
# _framework density 23.388817
#
# number of rings (size 3 to 8) (size 9 to 14) (size 15 to 20)
#    0.000    2.429    0.000    2.143    0.000   10.571 
#    0.000    1.429    0.000    3.429    0.000    0.000 
#    0.000    0.000    0.000    0.000    0.000    0.000 
#
# Total GULP energy -156548.714374 kJ/mol
# GULP energy per Si atom -5591.025513 kJ/mol
# Density = 2.333558 g / cm^3
# Si number density = 23.388817 Si / 1000 Ang^3
#
#
#
# Elastic Constant Matrix: (Units=GPa)
#
#
# Indices 1 2 3 4 5 6 
#
# 1 122.6040 84.2211 24.7722 0.0000 -22.6195 0.0000
# 2 84.2211 254.4258 38.7065 0.0000 -46.8566 0.0000
# 3 24.7722 38.7065 64.8724 0.0002 4.7047 0.0000
# 4 0.0000 0.0000 0.0002 14.9174 0.0000 -11.5777
# 5 -22.6195 -46.8566 4.7047 0.0000 53.6911 0.0000
# 6 0.0000 0.0000 0.0000 -11.5777 0.0000 11.9648
#
#
#
# Elastic Compliance Matrix: (Units=1/GPa)
#
#
# Indices 1 2 3 4 5 6 
#
# 1 0.011089 -0.002798 -0.002744 0.000000 0.002470 0.000000
# 2 -0.002798 0.006109 -0.002896 0.000000 0.004406 0.000000
# 3 -0.002744 -0.002896 0.018576 -0.000001 -0.005311 -0.000001
# 4 0.000000 0.000000 -0.000001 0.269232 0.000000 0.260522
# 5 0.002470 0.004406 -0.005311 0.000000 0.023976 0.000000
# 6 0.000000 0.000000 -0.000001 0.260522 0.000000 0.335673
#
#
# Mechanical properties :
#
#
# Convention : Reuss Voigt Hill
#
# Bulk Modulus (GPa) = 52.91806 81.92242 67.42024
# Shear Modulus (GPa) = 7.26925 35.72815 21.49870
#
# Velocity S-wave (km/s) = 1.76487 3.91266 3.03510
# Velocity P-wave (km/s) = 5.17953 7.45079 6.41645
#
# Compressibility (1/GPa) = 0.01889714
#
# Stress axis : x y z
#
# Youngs Moduli (GPa) = 90.18216 163.70106 53.83424
#
# Poissons Ratio (x) = 0.45809 0.14771
# Poissons Ratio (y) = 0.25236 0.15589
# Poissons Ratio (z) = 0.24744 0.47404
#
# Static dielectric constant tensor:
#      x y z
#    x 1.849860 0.000000 0.026380 
#    y 0.000000 1.833220 0.000000 
#    z 0.026380 0.000000 1.937240 
# 
# From -- ./inp_files/363127.got.cif
#   From: 2010.05.17/outbox.cif.g08.bks.cpg/sg12_182_cif.got.tgz:363127.got - 2010.06.03 13:09:07.
