data_PCOD9206394
_publ_section_title
;
Structure prediction by ZEFSAII (Michael W. Deem and Ramdas Pophale) SiO2 
 PCOD9206394
Probable space group: C 2/M
;
_chemical_formula_sum "Si O2"
_cell_formula_units_Z 42
_cell_length_a 30.466659
_cell_length_b 9.739133
_cell_length_c 8.286108
_cell_angle_alpha 90.000000
_cell_angle_beta 128.783067
_cell_angle_gamma 90.000000
_cell_volume 1916.570132
_symmetry_space_group_name_H-M "C 2/M"
_symmetry_group_IT_number 12
_symmetry_cell_setting 'monoclinic'
loop_
_space_group_symop_operation_xyz
x,y,z
-x,y,-z
-x,-y,-z
x,-y,z
1/2+x,1/2+y,z
1/2-x,1/2+y,-z
1/2-x,1/2-y,-z
1/2+x,1/2-y,z
loop_
_atom_site_type_symbol
_atom_site_label
_atom_site_fract_x
_atom_site_fract_y
_atom_site_fract_z
Si Si1 0.035020 0.774164 0.222489
Si Si2 0.362613 0.342033 0.331905
Si Si3 0.500000 0.000000 0.000000
Si Si4 0.933222 0.161454 0.186701
Si Si5 0.716731 0.160518 0.661789
Si Si6 0.326480 0.657862 0.729851
O O1 0.092675 0.837250 0.416891
O O2 0.041073 0.621832 0.166739
O O3 0.990985 0.767726 0.270224
O O4 0.000000 0.849897 0.000000
O O5 0.345874 0.500000 0.264042
O O6 0.399195 0.290468 0.264697
O O7 0.310178 0.247498 0.256196
O O8 0.945743 0.000000 0.240429
O O9 0.889252 0.174698 0.938777
O O10 0.690477 0.230465 0.440698
O O11 0.783522 0.171784 0.782356
O O12 0.702937 0.000000 0.643696
O O13 0.318647 0.500000 0.651662
#
# Coordination Sequence:
#
# PCOD9206394 Si02
#       6
#     8   8   2   8   8   8
#     4  10  21  38  60  82 112 145 186 227 282 332
#     4  11  23  37  57  85 117 150 187 232 281 337
#     4   8  24  40  56  84 120 148 176 244 276 334
#     4  10  21  38  58  82 113 147 190 237 277 331
#     4  10  21  36  58  85 114 148 192 237 281 333
#     4   9  19  38  61  83 109 150 195 236 280 330
#
# _framework density 21.914147
#
# number of rings (size 3 to 8) (size 9 to 14) (size 15 to 20)
#    0.571    1.524    0.000    2.857    1.333    6.095 
#    1.714    0.952    0.000    0.000    0.000    0.000 
#    0.000    0.000    0.000    0.000    0.000    0.000 
#
# Total GULP energy -117014.629923 kJ/mol
# GULP energy per Si atom -5572.125234 kJ/mol
# Density = 2.186427 g / cm^3
# Si number density = 21.914147 Si / 1000 Ang^3
#
#
#
# Elastic Constant Matrix: (Units=GPa)
#
#
# Indices 1 2 3 4 5 6 
#
# 1 122.4810 36.5159 0.1563 0.0000 2.6073 0.0000
# 2 36.5159 100.8956 -3.2371 0.0000 4.6699 0.0000
# 3 0.1563 -3.2371 41.2802 0.0000 7.2744 0.0000
# 4 0.0000 0.0000 0.0000 6.5674 0.0000 -9.0190
# 5 2.6073 4.6699 7.2744 0.0000 35.8649 0.0000
# 6 0.0000 0.0000 0.0000 -9.0190 0.0000 -1.8421
#
#
#
# Elastic Compliance Matrix: (Units=1/GPa)
#
#
# Indices 1 2 3 4 5 6 
#
# 1 0.009157 -0.003314 -0.000263 0.000000 -0.000181 0.000000
# 2 -0.003314 0.011215 0.001148 0.000000 -0.001452 0.000000
# 3 -0.000263 0.001148 0.025241 0.000000 -0.005250 0.000000
# 4 0.000000 0.000000 0.000000 0.019715 0.000000 -0.096521
# 5 -0.000181 -0.001452 -0.005250 0.000000 0.029149 0.000000
# 6 0.000000 0.000000 0.000000 -0.096521 0.000000 -0.070285
#
#
# Mechanical properties :
#
#
# Convention : Reuss Voigt Hill
#
# Bulk Modulus (GPa) = 24.53710 36.83630 30.68670
# Shear Modulus (GPa) = 117.27679 23.53282 70.40480
#
# Velocity S-wave (km/s) = 7.32343 3.28054 5.67427
# Velocity P-wave (km/s) = 9.09568 5.58526 7.54740
#
# Compressibility (1/GPa) = 0.04075461
#
# Stress axis : x y z
#
# Youngs Moduli (GPa) = 109.20902 89.16880 39.61833
#
# Poissons Ratio (x) = 0.29551 0.01041
# Poissons Ratio (y) = 0.36192 -0.04548
# Poissons Ratio (z) = 0.02869 -0.10235
#
# Static dielectric constant tensor:
#      x y z
#    x 1.869660 0.000000 -0.048770 
#    y 0.000000 1.690480 0.000000 
#    z -0.048770 0.000000 1.866540 
# 
# From -- ./inp_files/108887.got.cif
#   From: 2010.05.17/outbox.cif.g08.bks.cpg/sg12_55_cif.got.tgz:108887.got - 2010.06.03 13:09:07.
