data_PCOD9206597
_publ_section_title
;
Structure prediction by ZEFSAII (Michael W. Deem and Ramdas Pophale) SiO2 
 PCOD9206597
Probable space group: C 2/M
;
_chemical_formula_sum "Si O2"
_cell_formula_units_Z 40
_cell_length_a 26.245145
_cell_length_b 16.561176
_cell_length_c 4.975721
_cell_angle_alpha 90.000000
_cell_angle_beta 90.472472
_cell_angle_gamma 90.000000
_cell_volume 2162.625918
_symmetry_space_group_name_H-M "C 2/M"
_symmetry_group_IT_number 12
_symmetry_cell_setting 'monoclinic'
loop_
_space_group_symop_operation_xyz
x,y,z
-x,y,-z
-x,-y,-z
x,-y,z
1/2+x,1/2+y,z
1/2-x,1/2+y,-z
1/2-x,1/2-y,-z
1/2+x,1/2-y,z
loop_
_atom_site_type_symbol
_atom_site_label
_atom_site_fract_x
_atom_site_fract_y
_atom_site_fract_z
Si Si1 0.151103 0.307481 0.373854
Si Si2 0.110823 0.838093 0.105121
Si Si3 0.822072 0.594835 0.148533
Si Si4 0.777570 0.185029 0.811775
Si Si5 0.443421 0.406585 0.402520
O O1 0.142319 0.354007 0.647826
O O2 0.195653 0.239497 0.418791
O O3 0.108173 0.251957 0.234032
O O4 0.169735 0.370938 0.150361
O O5 0.077932 0.853222 0.840882
O O6 0.171069 0.849621 0.048066
O O7 0.092615 0.896503 0.341097
O O8 0.830603 0.500000 0.162517
O O9 0.764645 0.617849 0.243020
O O10 0.750000 0.250000 0.000000
O O11 0.500000 0.383611 0.500000
O O12 0.444809 0.500000 0.313498
#
# Coordination Sequence:
#
# PCOD9206597 Si02
#       5
#     8   8   8   8   8
#     4   9  20  34  51  70 106 144 185 217 265 320
#     4  10  21  36  60  75 107 157 189 214 281 340
#     4  11  19  31  49  77 109 144 182 222 266 309
#     4   8  19  34  54  74 111 153 182 226 269 320
#     4  11  23  39  57  84 116 142 183 243 286 315
#
# _framework density 18.496034000000002
#
# number of rings (size 3 to 8) (size 9 to 14) (size 15 to 20)
#    1.200    1.000    0.000    3.600    0.000    4.800 
#    0.000    0.000    0.000    0.000    0.000    0.000 
#    0.000   56.000    0.000    0.000    0.000    0.000 
#
# Total GULP energy -111342.725949 kJ/mol
# GULP energy per Si atom -5567.136297 kJ/mol
# Density = 1.845394 g / cm^3
# Si number density = 18.496034 Si / 1000 Ang^3
#
#
#
# Elastic Constant Matrix: (Units=GPa)
#
#
# Indices 1 2 3 4 5 6 
#
# 1 67.2454 27.5940 21.8201 0.0000 24.8028 0.0000
# 2 27.5940 64.2358 16.4011 0.0000 18.8738 0.0000
# 3 21.8201 16.4011 84.3157 0.0000 21.2781 0.0000
# 4 0.0000 0.0000 0.0000 29.6272 0.0000 0.1557
# 5 24.8028 18.8738 21.2781 0.0000 25.5443 0.0000
# 6 0.0000 0.0000 0.0000 0.1557 0.0000 13.6425
#
#
#
# Elastic Compliance Matrix: (Units=1/GPa)
#
#
# Indices 1 2 3 4 5 6 
#
# 1 0.024132 -0.004442 -0.000375 0.000000 -0.019837 0.000000
# 2 -0.004442 0.020705 -0.000134 0.000000 -0.010873 0.000000
# 3 -0.000375 -0.000134 0.015025 0.000000 -0.012053 0.000000
# 4 0.000000 0.000000 0.000000 0.033755 0.000000 -0.000385
# 5 -0.019837 -0.010873 -0.012053 0.000000 0.076482 0.000000
# 6 0.000000 0.000000 0.000000 -0.000385 0.000000 0.073305
#
#
# Mechanical properties :
#
#
# Convention : Reuss Voigt Hill
#
# Bulk Modulus (GPa) = 20.01614 38.60304 29.30959
# Shear Modulus (GPa) = 18.52133 23.76160 21.14147
#
# Velocity S-wave (km/s) = 3.16787 3.58814 3.38454
# Velocity P-wave (km/s) = 4.92198 6.17111 5.58160
#
# Compressibility (1/GPa) = 0.04995967
#
# Stress axis : x y z
#
# Youngs Moduli (GPa) = 41.43844 48.29781 66.55632
#
# Poissons Ratio (x) = 0.21455 0.02495
# Poissons Ratio (y) = 0.18408 0.00891
# Poissons Ratio (z) = 0.01554 0.00647
#
# Static dielectric constant tensor:
#      x y z
#    x 1.675650 0.000000 0.018110 
#    y 0.000000 1.648500 0.000000 
#    z 0.018110 0.000000 1.678520 
# 
# From -- ./inp_files/28265.got.cif
#   From: 2010.05.17/outbox.cif.g08.bks.cpg/sg12_15_cif.got.tgz:28265.got - 2010.06.03 13:09:07.
