data_PCOD9206008
_publ_section_title
;
Structure prediction by ZEFSAII (Michael W. Deem and Ramdas Pophale) SiO2 
 PCOD9206008
Probable space group: C 2/M
;
_chemical_formula_sum "Si O2"
_cell_formula_units_Z 56
_cell_length_a 10.079030
_cell_length_b 7.596967
_cell_length_c 31.263865
_cell_angle_alpha 90.000000
_cell_angle_beta 76.842622
_cell_angle_gamma 90.000000
_cell_volume 2331.033137
_symmetry_space_group_name_H-M "C 2/M"
_symmetry_group_IT_number 12
_symmetry_cell_setting 'monoclinic'
loop_
_space_group_symop_operation_xyz
x,y,z
-x,y,-z
-x,-y,-z
x,-y,z
1/2+x,1/2+y,z
1/2-x,1/2+y,-z
1/2-x,1/2-y,-z
1/2+x,1/2-y,z
loop_
_atom_site_type_symbol
_atom_site_label
_atom_site_fract_x
_atom_site_fract_y
_atom_site_fract_z
Si Si1 0.647921 0.210328 0.187453
Si Si2 0.101275 0.288932 0.528401
Si Si3 0.664721 0.713639 0.326473
Si Si4 0.876155 0.707105 0.378107
Si Si5 0.108668 0.704564 0.958957
Si Si6 0.105193 0.789764 0.091278
Si Si7 0.137415 0.295332 0.762133
O O1 0.627234 0.250354 0.139297
O O2 0.784477 0.283802 0.198459
O O3 0.513693 0.280782 0.222118
O O4 0.653936 0.000000 0.191654
O O5 0.078720 0.500000 0.532406
O O6 0.250000 0.250000 0.500000
O O7 0.091600 0.217691 0.577452
O O8 0.000000 0.216535 0.500000
O O9 0.662770 0.500000 0.325774
O O10 0.743263 0.776418 0.363511
O O11 0.509107 0.772595 0.338851
O O12 0.757436 0.778727 0.280405
O O13 0.850717 0.500000 0.385699
O O14 0.125805 0.500000 0.969529
O O15 0.260308 0.779278 0.943587
O O16 0.031771 0.714437 0.919140
O O17 0.000000 0.785605 0.000000
O O18 0.098365 0.000000 0.086978
O O19 0.119095 0.500000 0.752244
#
# Coordination Sequence:
#
# PCOD9206008 Si02
#       7
#     8   8   8   8   8   8   8
#     4  11  23  39  60  84 113 150 187 227 279 333
#     4  10  21  36  55  81 112 146 186 231 277 329
#     4  10  21  37  57  81 109 143 183 227 276 330
#     4  10  21  37  56  81 113 146 184 230 278 331
#     4  10  22  40  60  84 116 152 190 234 283 334
#     4  11  23  38  59  87 116 148 189 234 279 332
#     4  10  22  39  57  81 112 143 182 230 275 327
#
# _framework density 24.023682000000001
#
# number of rings (size 3 to 8) (size 9 to 14) (size 15 to 20)
#    0.000    1.714    0.000    3.857    0.000    9.143 
#    0.000    0.000    0.000    0.000    0.000    0.000 
#    0.000    0.000    0.000    0.000    0.000    0.000 
#
# Total GULP energy -156633.838505 kJ/mol
# GULP energy per Si atom -5594.065661 kJ/mol
# Density = 2.396900 g / cm^3
# Si number density = 24.023682 Si / 1000 Ang^3
#
#
#
# Elastic Constant Matrix: (Units=GPa)
#
#
# Indices 1 2 3 4 5 6 
#
# 1 97.4947 -14.5120 -17.8126 0.0000 -0.7248 0.0000
# 2 -14.5120 59.0371 -7.3093 0.0000 0.8631 0.0000
# 3 -17.8126 -7.3093 66.9899 0.0000 0.2330 0.0000
# 4 0.0000 0.0000 0.0000 12.1273 0.0000 -11.4690
# 5 -0.7248 0.8631 0.2330 0.0000 43.4654 0.0000
# 6 0.0000 0.0000 0.0000 -11.4690 0.0000 7.2161
#
#
#
# Elastic Compliance Matrix: (Units=1/GPa)
#
#
# Indices 1 2 3 4 5 6 
#
# 1 0.011350 0.003205 0.003367 0.000000 0.000108 0.000000
# 2 0.003205 0.018081 0.002826 0.000000 -0.000321 0.000000
# 3 0.003367 0.002826 0.016132 0.000000 -0.000086 0.000000
# 4 0.000000 0.000000 0.000000 -0.163902 0.000000 -0.260502
# 5 0.000108 -0.000321 -0.000086 0.000000 0.023015 0.000000
# 6 0.000000 0.000000 0.000000 -0.260502 0.000000 -0.275455
#
#
# Mechanical properties :
#
#
# Convention : Reuss Voigt Hill
#
# Bulk Modulus (GPa) = 15.53746 16.02822 15.78284
# Shear Modulus (GPa) = -13.58241 30.10547 8.26153
#
# Velocity S-wave (km/s) = -2.38034 3.54384 1.85644
# Velocity P-wave (km/s) = 1.03591 4.84060 3.34352
#
# Compressibility (1/GPa) = 0.06436058
#
# Stress axis : x y z
#
# Youngs Moduli (GPa) = 88.10497 55.30669 61.98984
#
# Poissons Ratio (x) = -0.17728 -0.20874
# Poissons Ratio (y) = -0.28240 -0.17520
# Poissons Ratio (z) = -0.29668 -0.15631
#
# Static dielectric constant tensor:
#      x y z
#    x 1.860410 0.000000 0.007890 
#    y 0.000000 1.907020 0.000000 
#    z 0.007890 0.000000 1.956660 
# 
# From -- ./inp_files/357495.got.cif
#   From: 2010.05.17/outbox.cif.g08.bks.cpg/sg12_179_cif.got.tgz:357495.got - 2010.06.03 13:09:07.
