data_PCOD9206518
_publ_section_title
;
Structure prediction by ZEFSAII (Michael W. Deem and Ramdas Pophale) SiO2 
 PCOD9206518
Probable space group: C 2/M
;
_chemical_formula_sum "Si O2"
_cell_formula_units_Z 40
_cell_length_a 21.754382
_cell_length_b 7.709876
_cell_length_c 22.623774
_cell_angle_alpha 90.000000
_cell_angle_beta 27.473659
_cell_angle_gamma 90.000000
_cell_volume 1750.576265
_symmetry_space_group_name_H-M "C 2/M"
_symmetry_group_IT_number 12
_symmetry_cell_setting 'monoclinic'
loop_
_space_group_symop_operation_xyz
x,y,z
-x,y,-z
-x,-y,-z
x,-y,z
1/2+x,1/2+y,z
1/2-x,1/2+y,-z
1/2-x,1/2-y,-z
1/2+x,1/2-y,z
loop_
_atom_site_type_symbol
_atom_site_label
_atom_site_fract_x
_atom_site_fract_y
_atom_site_fract_z
Si Si1 0.296722 0.288530 0.668127
Si Si2 0.610859 0.704856 0.088366
Si Si3 0.406732 0.290810 0.358683
Si Si4 0.007671 0.707571 0.926970
Si Si5 0.022786 0.788755 0.382826
O O1 0.298848 0.500000 0.665713
O O2 0.400691 0.235052 0.529515
O O3 0.347687 0.235722 0.689957
O O4 0.148813 0.227614 0.781597
O O5 0.598265 0.500000 0.100039
O O6 0.485388 0.776298 0.233722
O O7 0.604319 0.758028 0.025610
O O8 0.750000 0.750000 0.000000
O O9 0.413590 0.500000 0.352305
O O10 0.250000 0.250000 0.500000
O O11 0.490249 0.228596 0.344868
O O12 0.015528 0.500000 0.925089
O O13 0.000000 0.776325 0.000000
O O14 0.025789 0.000000 0.378222
#
# Coordination Sequence:
#
# PCOD9206518 Si02
#       5
#     8   8   8   8   8
#     4   8  14  26  48  79 109 139 181 236 293 344
#     4  11  25  42  61  88 125 167 208 254 307 368
#     4  10  21  36  59  86 117 156 200 249 304 365
#     4  10  21  36  60  87 114 154 203 253 304 363
#     4   8  14  26  48  77 107 139 182 236 288 344
#
# _framework density 22.849619000000001
#
# number of rings (size 3 to 8) (size 9 to 14) (size 15 to 20)
#    0.000    2.600    0.000    3.000    2.800    3.600 
#    0.000    0.000    0.000    0.000    0.000    5.600 
#    0.000    0.000    0.000    0.000    0.000    0.000 
#
# Total GULP energy -111622.337107 kJ/mol
# GULP energy per Si atom -5581.116855 kJ/mol
# Density = 2.279761 g / cm^3
# Si number density = 22.849619 Si / 1000 Ang^3
#
#
#
# Elastic Constant Matrix: (Units=GPa)
#
#
# Indices 1 2 3 4 5 6 
#
# 1 174.4842 -3.3195 39.9360 0.0005 5.3464 -0.0004
# 2 -3.3195 33.9552 0.4796 -0.0006 7.1888 0.0002
# 3 39.9360 0.4796 64.2920 -0.0005 -2.4187 0.0003
# 4 0.0005 -0.0006 -0.0005 12.0887 0.0002 -5.2175
# 5 5.3464 7.1888 -2.4187 0.0002 32.7692 -0.0001
# 6 -0.0004 0.0002 0.0003 -5.2175 -0.0001 15.4131
#
#
#
# Elastic Compliance Matrix: (Units=1/GPa)
#
#
# Indices 1 2 3 4 5 6 
#
# 1 0.006783 0.001075 -0.004284 0.000000 -0.001659 0.000000
# 2 0.001075 0.031071 -0.001166 0.000002 -0.007078 0.000000
# 3 -0.004284 -0.001166 0.018310 0.000001 0.002306 0.000000
# 4 0.000000 0.000002 0.000001 0.096875 -0.000001 0.032793
# 5 -0.001659 -0.007078 0.002306 -0.000001 0.032510 0.000000
# 6 0.000000 0.000000 0.000000 0.032793 0.000000 0.075981
#
#
# Mechanical properties :
#
#
# Convention : Reuss Voigt Hill
#
# Bulk Modulus (GPa) = 21.09056 38.54707 29.81881
# Shear Modulus (GPa) = 17.47738 27.76323 22.62030
#
# Velocity S-wave (km/s) = 2.76866 3.48953 3.14978
# Velocity P-wave (km/s) = 4.41258 5.75693 5.12899
#
# Compressibility (1/GPa) = 0.04741458
#
# Stress axis : x y z
#
# Youngs Moduli (GPa) = 147.42938 32.18486 54.61377
#
# Poissons Ratio (x) = -0.03459 0.23395
# Poissons Ratio (y) = -0.15845 0.06366
# Poissons Ratio (z) = 0.63155 0.03752
#
# Static dielectric constant tensor:
#      x y z
#    x 1.853860 0.000000 0.017810 
#    y 0.000000 1.862190 0.000000 
#    z 0.017810 0.000000 1.862840 
# 
# From -- ./inp_files/345805.got.cif
#   From: 2010.05.17/outbox.cif.g08.bks.cpg/sg12_173_cif.got.tgz:345805.got - 2010.06.03 13:09:07.
