data_PCOD9206815
_publ_section_title
;
Structure prediction by ZEFSAII (Michael W. Deem and Ramdas Pophale) SiO2 
 PCOD9206815
Probable space group: C 2/M
;
_chemical_formula_sum "Si O2"
_cell_formula_units_Z 44
_cell_length_a 8.765006
_cell_length_b 27.293380
_cell_length_c 7.320237
_cell_angle_alpha 90.000000
_cell_angle_beta 85.804192
_cell_angle_gamma 90.000000
_cell_volume 1746.502201
_symmetry_space_group_name_H-M "C 2/M"
_symmetry_group_IT_number 12
_symmetry_cell_setting 'monoclinic'
loop_
_space_group_symop_operation_xyz
x,y,z
-x,y,-z
-x,-y,-z
x,-y,z
1/2+x,1/2+y,z
1/2-x,1/2+y,-z
1/2-x,1/2-y,-z
1/2+x,1/2-y,z
loop_
_atom_site_type_symbol
_atom_site_label
_atom_site_fract_x
_atom_site_fract_y
_atom_site_fract_z
Si Si1 0.500000 0.418435 0.500000
Si Si2 0.158817 0.310400 0.228469
Si Si3 0.674759 0.082086 0.406841
Si Si4 0.825095 0.445424 0.992057
Si Si5 0.819705 0.712264 0.215568
Si Si6 0.095869 0.863432 0.162160
O O1 0.681743 0.434997 0.477541
O O2 0.487527 0.391183 0.309541
O O3 0.183607 0.361729 0.327447
O O4 0.272783 0.266952 0.271024
O O5 0.982929 0.298423 0.282336
O O6 0.170691 0.303142 0.003510
O O7 0.500000 0.076101 0.500000
O O8 0.693623 0.051282 0.222002
O O9 0.805727 0.500000 0.074215
O O10 0.711670 0.404296 0.075438
O O11 0.000000 0.428378 0.000000
O O12 0.683378 0.675971 0.277449
O O13 0.000000 0.842058 0.000000
#
# Coordination Sequence:
#
# PCOD9206815 Si02
#       6
#     4   8   8   8   8   8
#     4  12  26  44  75 110 136 198 240 290 365 436
#     4  10  21  37  62  98 133 185 236 291 350 420
#     4  12  25  47  70 103 152 190 239 305 364 428
#     4  11  24  46  77 106 140 188 240 301 371 436
#     4  10  21  36  65  96 133 184 241 286 350 426
#     4  12  24  46  72  99 146 189 234 300 361 430
#
# _framework density 25.193214000000001
#
# number of rings (size 3 to 8) (size 9 to 14) (size 15 to 20)
#    0.000    0.909    3.636    3.273    7.636    0.727 
#    1.636    3.636    0.000    0.000    0.000    0.000 
#    0.000    0.000    0.000    0.000    0.000    0.000 
#
# Total GULP energy -122758.754435 kJ/mol
# GULP energy per Si atom -5579.943383 kJ/mol
# Density = 2.513587 g / cm^3
# Si number density = 25.193214 Si / 1000 Ang^3
#
#
#
# Elastic Constant Matrix: (Units=GPa)
#
#
# Indices 1 2 3 4 5 6 
#
# 1 184.0345 43.1436 4.1340 0.0000 22.8943 0.0000
# 2 43.1436 117.5804 -1.2196 0.0000 -12.9548 0.0000
# 3 4.1340 -1.2196 74.5256 0.0000 6.5331 0.0000
# 4 0.0000 0.0000 0.0000 19.5227 0.0000 1.2971
# 5 22.8943 -12.9548 6.5331 0.0000 34.5090 0.0000
# 6 0.0000 0.0000 0.0000 1.2971 0.0000 144.8972
#
#
#
# Elastic Compliance Matrix: (Units=1/GPa)
#
#
# Indices 1 2 3 4 5 6 
#
# 1 0.006892 -0.003164 0.000072 0.000000 -0.005774 0.000000
# 2 -0.003164 0.010326 -0.000182 0.000000 0.006010 0.000000
# 3 0.000072 -0.000182 0.013648 0.000000 -0.002700 0.000000
# 4 0.000000 0.000000 0.000000 0.051253 0.000000 -0.000459
# 5 -0.005774 0.006010 -0.002700 0.000000 0.035576 0.000000
# 6 0.000000 0.000000 0.000000 -0.000459 0.000000 0.006906
#
#
# Mechanical properties :
#
#
# Convention : Reuss Voigt Hill
#
# Bulk Modulus (GPa) = 41.12341 52.02849 46.57595
# Shear Modulus (GPa) = 35.90502 61.79128 48.84815
#
# Velocity S-wave (km/s) = 3.77926 4.95784 4.40812
# Velocity P-wave (km/s) = 5.94999 7.31233 6.66606
#
# Compressibility (1/GPa) = 0.02431705
#
# Stress axis : x y z
#
# Youngs Moduli (GPa) = 145.08937 96.84045 73.27124
#
# Poissons Ratio (x) = 0.30644 -0.00528
# Poissons Ratio (y) = 0.45912 0.01336
# Poissons Ratio (z) = -0.01046 0.01766
#
# Static dielectric constant tensor:
#      x y z
#    x 2.131000 0.000000 -0.007400 
#    y 0.000000 2.034980 0.000000 
#    z -0.007400 0.000000 2.137320 
# 
# From -- ./inp_files/41665.got.cif
#   From: 2010.05.17/outbox.cif.g08.bks.cpg/sg12_21_cif.got.tgz:41665.got - 2010.06.03 13:09:07.
