data_PCOD9206993
_publ_section_title
;
Structure prediction by ZEFSAII (Michael W. Deem and Ramdas Pophale) SiO2 
 PCOD9206993
Probable space group: C 2/M
;
_chemical_formula_sum "Si O2"
_cell_formula_units_Z 64
_cell_length_a 21.005438
_cell_length_b 8.614744
_cell_length_c 24.033971
_cell_angle_alpha 90.000000
_cell_angle_beta 123.198319
_cell_angle_gamma 90.000000
_cell_volume 3639.243698
_symmetry_space_group_name_H-M "C 2/M"
_symmetry_group_IT_number 12
_symmetry_cell_setting 'monoclinic'
loop_
_space_group_symop_operation_xyz
x,y,z
-x,y,-z
-x,-y,-z
x,-y,z
1/2+x,1/2+y,z
1/2-x,1/2+y,-z
1/2-x,1/2-y,-z
1/2+x,1/2-y,z
loop_
_atom_site_type_symbol
_atom_site_label
_atom_site_fract_x
_atom_site_fract_y
_atom_site_fract_z
Si Si1 0.664618 0.814555 0.959361
Si Si2 0.276064 0.188567 0.825082
Si Si3 0.086431 0.310211 0.036802
Si Si4 0.367021 0.814239 0.576873
Si Si5 0.371076 0.313095 0.173984
Si Si6 0.964748 0.812664 0.326154
Si Si7 0.683066 0.687820 0.674671
Si Si8 0.729238 0.814204 0.577201
O O1 0.622598 0.759980 0.883427
O O2 0.668457 0.000000 0.962066
O O3 0.750000 0.750000 0.000000
O O4 0.622492 0.762898 0.995276
O O5 0.357263 0.241388 0.886807
O O6 0.210619 0.230591 0.838296
O O7 0.246079 0.238962 0.750440
O O8 0.277060 0.000000 0.824133
O O9 0.085906 0.500000 0.037688
O O10 0.000000 0.256860 0.000000
O O11 0.452855 0.755419 0.622618
O O12 0.328583 0.765228 0.499864
O O13 0.311748 0.748913 0.598411
O O14 0.365855 0.000000 0.578891
O O15 0.372027 0.500000 0.169475
O O16 0.433317 0.267986 0.249955
O O17 0.899168 0.766669 0.339091
O O18 0.968834 0.000000 0.329344
O O19 0.684123 0.500000 0.672953
O O20 0.701248 0.752902 0.623002
O O21 0.731875 0.000000 0.579426
#
# Coordination Sequence:
#
# PCOD9206993 Si02
#       8
#     8   8   8   8   8   8   8   8
#     4  11  20  31  52  78 101 133 178 220 261 310
#     4   8  14  29  51  72 100 137 172 207 253 309
#     4   9  17  30  49  73 101 133 171 215 258 300
#     4  10  21  37  57  79 106 141 179 220 263 314
#     4   9  17  33  54  76 104 137 171 211 263 313
#     4   9  19  35  56  80 109 143 176 217 269 320
#     4   9  18  33  55  80 104 140 184 218 258 318
#     4  10  21  37  56  78 108 143 177 217 267 317
#
# _framework density 17.586071
#
# number of rings (size 3 to 8) (size 9 to 14) (size 15 to 20)
#    0.000    2.625    1.250    2.625    0.000    3.000 
#    2.250    4.375    0.000    1.500    0.000    0.000 
#    0.000    0.000    0.000    0.000    0.000    0.000 
#
# Total GULP energy -178432.890682 kJ/mol
# GULP energy per Si atom -5576.027834 kJ/mol
# Density = 1.754604 g / cm^3
# Si number density = 17.586071 Si / 1000 Ang^3
#
#
#
# Elastic Constant Matrix: (Units=GPa)
#
#
# Indices 1 2 3 4 5 6 
#
# 1 145.0095 30.8122 102.6596 0.0000 9.4086 0.0000
# 2 30.8122 19.5581 29.7239 0.0000 -1.0082 0.0000
# 3 102.6596 29.7239 130.9138 0.0000 3.1208 0.0000
# 4 0.0000 0.0000 0.0000 28.8461 0.0000 -2.7298
# 5 9.4086 -1.0082 3.1208 0.0000 33.1493 0.0000
# 6 0.0000 0.0000 0.0000 -2.7298 0.0000 26.2198
#
#
#
# Elastic Compliance Matrix: (Units=1/GPa)
#
#
# Indices 1 2 3 4 5 6 
#
# 1 0.017189 -0.010627 -0.010966 0.000000 -0.004169 0.000000
# 2 -0.010627 0.085186 -0.011166 0.000000 0.006659 0.000000
# 3 -0.010966 -0.011166 0.018750 0.000000 0.001008 0.000000
# 4 0.000000 0.000000 0.000000 0.035012 0.000000 0.003645
# 5 -0.004169 0.006659 0.001008 0.000000 0.031458 0.000000
# 6 0.000000 0.000000 0.000000 0.003645 0.000000 0.038519
#
#
# Mechanical properties :
#
#
# Convention : Reuss Voigt Hill
#
# Bulk Modulus (GPa) = 17.98443 69.09700 43.54072
# Shear Modulus (GPa) = 16.12032 26.46209 21.29120
#
# Velocity S-wave (km/s) = 3.03091 3.88328 3.48327
# Velocity P-wave (km/s) = 4.74313 7.71249 6.40234
#
# Compressibility (1/GPa) = 0.05560364
#
# Stress axis : x y z
#
# Youngs Moduli (GPa) = 58.17832 11.73898 53.33449
#
# Poissons Ratio (x) = 0.12476 0.58489
# Poissons Ratio (y) = 0.61829 0.59555
# Poissons Ratio (z) = 0.63801 0.13108
#
# Static dielectric constant tensor:
#      x y z
#    x 1.572340 0.000000 0.006450 
#    y 0.000000 1.601080 0.000000 
#    z 0.006450 0.000000 1.606590 
# 
# From -- ./inp_files/320161.got.cif
#   From: 2010.05.17/outbox.cif.g08.bks.cpg/sg12_161_cif.got.tgz:320161.got - 2010.06.03 13:09:07.
