data_PCOD9206521
_publ_section_title
;
Structure prediction by ZEFSAII (Michael W. Deem and Ramdas Pophale) SiO2 
 PCOD9206521
Probable space group: C 2/M
;
_chemical_formula_sum "Si O2"
_cell_formula_units_Z 50
_cell_length_a 27.974044
_cell_length_b 10.764564
_cell_length_c 9.972221
_cell_angle_alpha 90.000000
_cell_angle_beta 65.574253
_cell_angle_gamma 90.000000
_cell_volume 2734.151380
_symmetry_space_group_name_H-M "C 2/M"
_symmetry_group_IT_number 12
_symmetry_cell_setting 'monoclinic'
loop_
_space_group_symop_operation_xyz
x,y,z
-x,y,-z
-x,-y,-z
x,-y,z
1/2+x,1/2+y,z
1/2-x,1/2+y,-z
1/2-x,1/2-y,-z
1/2+x,1/2-y,z
loop_
_atom_site_type_symbol
_atom_site_label
_atom_site_fract_x
_atom_site_fract_y
_atom_site_fract_z
Si Si1 0.792669 0.644771 0.982252
Si Si2 0.500876 0.149965 0.154543
Si Si3 0.176471 0.140187 0.549267
Si Si4 0.432128 0.284355 0.448226
Si Si5 0.292642 0.138569 0.299575
Si Si6 0.500000 0.500000 0.500000
Si Si7 0.407948 0.148069 0.750326
O O1 0.778408 0.500000 0.963205
O O2 0.847318 0.678801 0.847685
O O3 0.750000 0.750000 0.000000
O O4 0.802077 0.645228 0.130840
O O5 0.454319 0.207557 0.296795
O O6 0.554297 0.187393 0.170866
O O7 0.497173 0.000000 0.161400
O O8 0.500000 0.189044 0.000000
O O9 0.125045 0.162061 0.520889
O O10 0.230194 0.149334 0.401048
O O11 0.180151 0.249129 0.654350
O O12 0.175204 0.000000 0.607949
O O13 0.471972 0.392654 0.439756
O O14 0.426847 0.202049 0.587927
O O15 0.309085 0.000000 0.328133
O O16 0.411366 0.000000 0.740278
#
# Coordination Sequence:
#
# PCOD9206521 Si02
#       7
#     8   8   8   8   8   2   8
#     4  10  21  38  59  87 121 158 201 249 300 358
#     4  10  22  39  62  91 118 150 195 251 308 362
#     4  10  21  36  59  86 118 157 196 243 302 362
#     4  12  22  40  63  87 120 160 203 247 304 365
#     4   9  20  38  58  86 119 155 199 250 298 356
#     4  12  24  40  60  88 124 164 206 258 292 372
#     4  10  21  38  61  88 118 153 199 251 298 356
#
# _framework density 18.287210000000002
#
# number of rings (size 3 to 8) (size 9 to 14) (size 15 to 20)
#    0.000    1.760    2.400    1.440    2.240    3.200 
#    1.440    3.600    3.520    0.000    0.000    0.000 
#    0.000    0.000    0.000    0.000    0.000    0.000 
#
# Total GULP energy -139209.911902 kJ/mol
# GULP energy per Si atom -5568.396476 kJ/mol
# Density = 1.824559 g / cm^3
# Si number density = 18.287210 Si / 1000 Ang^3
#
#
#
# Elastic Constant Matrix: (Units=GPa)
#
#
# Indices 1 2 3 4 5 6 
#
# 1 80.9230 52.5133 33.3306 0.0000 8.7410 0.0000
# 2 52.5133 59.7846 43.3815 0.0000 -0.3792 0.0000
# 3 33.3306 43.3815 120.2179 0.0000 9.1694 0.0000
# 4 0.0000 0.0000 0.0000 13.0931 0.0000 14.7617
# 5 8.7410 -0.3792 9.1694 0.0000 19.4234 0.0000
# 6 0.0000 0.0000 0.0000 14.7617 0.0000 18.4408
#
#
#
# Elastic Compliance Matrix: (Units=1/GPa)
#
#
# Indices 1 2 3 4 5 6 
#
# 1 0.033837 -0.032514 0.003694 0.000000 -0.017606 0.000000
# 2 -0.032514 0.054282 -0.012210 0.000000 0.021456 0.000000
# 3 0.003694 -0.012210 0.012287 0.000000 -0.007702 0.000000
# 4 0.000000 0.000000 0.000000 0.783405 0.000000 -0.627109
# 5 -0.017606 0.021456 -0.007702 0.000000 0.063462 0.000000
# 6 0.000000 0.000000 0.000000 -0.627109 0.000000 0.556223
#
#
# Mechanical properties :
#
#
# Convention : Reuss Voigt Hill
#
# Bulk Modulus (GPa) = 54.50369 57.70848 56.10609
# Shear Modulus (GPa) = 3.14135 18.97149 11.05642
#
# Velocity S-wave (km/s) = 1.31207 3.22439 2.46153
# Velocity P-wave (km/s) = 5.67136 6.74444 6.23105
#
# Compressibility (1/GPa) = 0.01834738
#
# Stress axis : x y z
#
# Youngs Moduli (GPa) = 29.55385 18.42236 81.38372
#
# Poissons Ratio (x) = 0.59898 -0.30066
# Poissons Ratio (y) = 0.96090 0.99370
# Poissons Ratio (z) = -0.10918 0.22494
#
# Static dielectric constant tensor:
#      x y z
#    x 1.640000 0.000000 -0.020330 
#    y 0.000000 1.623700 0.000000 
#    z -0.020330 0.000000 1.609900 
# 
# From -- ./inp_files/103104.got.cif
#   From: 2010.05.17/outbox.cif.g08.bks.cpg/sg12_52_cif.got.tgz:103104.got - 2010.06.03 13:09:07.
