data_PCOD9206373
_publ_section_title
;
Structure prediction by ZEFSAII (Michael W. Deem and Ramdas Pophale) SiO2 
 PCOD9206373
Probable space group: C 2/M
;
_chemical_formula_sum "Si O2"
_cell_formula_units_Z 36
_cell_length_a 7.709169
_cell_length_b 24.319861
_cell_length_c 13.630598
_cell_angle_alpha 90.000000
_cell_angle_beta 38.330961
_cell_angle_gamma 90.000000
_cell_volume 1584.956822
_symmetry_space_group_name_H-M "C 2/M"
_symmetry_group_IT_number 12
_symmetry_cell_setting 'monoclinic'
loop_
_space_group_symop_operation_xyz
x,y,z
-x,y,-z
-x,-y,-z
x,-y,z
1/2+x,1/2+y,z
1/2-x,1/2+y,-z
1/2-x,1/2-y,-z
1/2+x,1/2-y,z
loop_
_atom_site_type_symbol
_atom_site_label
_atom_site_fract_x
_atom_site_fract_y
_atom_site_fract_z
Si Si1 0.500000 0.405769 0.000000
Si Si2 0.219814 0.207348 0.311273
Si Si3 0.665881 0.171563 0.256518
Si Si4 0.119351 0.890185 0.559473
Si Si5 0.330107 0.000000 0.932663
Si Si6 0.542402 0.500000 0.265737
O O1 0.427977 0.366952 0.122487
O O2 0.238922 0.445622 0.097683
O O3 0.512162 0.185379 0.221480
O O4 0.236704 0.268601 0.264973
O O5 0.000000 0.212189 0.500000
O O6 0.078948 0.158814 0.310727
O O7 0.425190 0.137147 0.418438
O O8 0.000000 0.901403 0.500000
O O9 0.104867 0.945320 0.628431
O O10 0.644735 0.000000 0.828163
O O11 0.106306 0.000000 0.121542
#
# Coordination Sequence:
#
# PCOD9206373 Si02
#       6
#     4   8   8   8   4   4
#     4  11  24  42  54  78 120 159 184 228 292 333
#     4   9  18  35  56  84 114 143 181 236 284 324
#     4  10  21  36  58  82 114 151 187 227 279 336
#     4   9  18  34  60  88 114 145 185 233 283 333
#     4  10  24  41  57  80 119 149 181 239 289 322
#     4  11  21  39  65  87 105 146 198 233 271 340
#
# _framework density 22.713552
#
# number of rings (size 3 to 8) (size 9 to 14) (size 15 to 20)
#    0.000    2.667    0.000    5.667    0.000    6.222 
#    0.000    3.333    0.000    0.000    0.000    0.000 
#    0.000    0.000    0.000    0.000    0.000    0.000 
#
# Total GULP energy -100523.595460 kJ/mol
# GULP energy per Si atom -5584.644192 kJ/mol
# Density = 2.266186 g / cm^3
# Si number density = 22.713552 Si / 1000 Ang^3
#
#
#
# Elastic Constant Matrix: (Units=GPa)
#
#
# Indices 1 2 3 4 5 6 
#
# 1 24.1826 14.2984 10.1240 0.0000 -1.9467 0.0000
# 2 14.2984 204.4587 46.8630 0.0000 8.3559 0.0000
# 3 10.1240 46.8630 32.3649 0.0000 -2.7245 0.0000
# 4 0.0000 0.0000 0.0000 27.1851 0.0000 14.9366
# 5 -1.9467 8.3559 -2.7245 0.0000 20.3639 0.0000
# 6 0.0000 0.0000 0.0000 14.9366 0.0000 33.2126
#
#
#
# Elastic Compliance Matrix: (Units=1/GPa)
#
#
# Indices 1 2 3 4 5 6 
#
# 1 0.047720 -0.000114 -0.014538 0.000000 0.002663 0.000000
# 2 -0.000114 0.007747 -0.011581 0.000000 -0.004739 0.000000
# 3 -0.014538 -0.011581 0.053095 0.000000 0.010466 0.000000
# 4 0.000000 0.000000 0.000000 0.048858 0.000000 -0.021973
# 5 0.002663 -0.004739 0.010466 0.000000 0.052706 0.000000
# 6 0.000000 0.000000 0.000000 -0.021973 0.000000 0.039991
#
#
# Mechanical properties :
#
#
# Convention : Reuss Voigt Hill
#
# Bulk Modulus (GPa) = 17.82646 44.84188 31.33417
# Shear Modulus (GPa) = 15.56277 28.80036 22.18156
#
# Velocity S-wave (km/s) = 2.62043 3.56474 3.12842
# Velocity P-wave (km/s) = 4.12564 6.06039 5.18407
#
# Compressibility (1/GPa) = 0.05609640
#
# Stress axis : x y z
#
# Youngs Moduli (GPa) = 20.95556 129.08346 18.83434
#
# Poissons Ratio (x) = 0.01470 0.27382
# Poissons Ratio (y) = 0.00239 0.21811
# Poissons Ratio (z) = 0.30465 1.49486
#
# Static dielectric constant tensor:
#      x y z
#    x 1.898680 0.000000 0.046660 
#    y 0.000000 1.826350 0.000000 
#    z 0.046660 0.000000 1.855550 
# 
# From -- ./inp_files/40614.got.cif
#   From: 2010.05.17/outbox.cif.g08.bks.cpg/sg12_21_cif.got.tgz:40614.got - 2010.06.03 13:09:07.
