data_PCOD9206378
_publ_section_title
;
Structure prediction by ZEFSAII (Michael W. Deem and Ramdas Pophale) SiO2 
 PCOD9206378
Probable space group: C 2/M
;
_chemical_formula_sum "Si O2"
_cell_formula_units_Z 58
_cell_length_a 20.898337
_cell_length_b 7.546716
_cell_length_c 24.323463
_cell_angle_alpha 90.000000
_cell_angle_beta 43.299505
_cell_angle_gamma 90.000000
_cell_volume 2630.875297
_symmetry_space_group_name_H-M "C 2/M"
_symmetry_group_IT_number 12
_symmetry_cell_setting 'monoclinic'
loop_
_space_group_symop_operation_xyz
x,y,z
-x,y,-z
-x,-y,-z
x,-y,z
1/2+x,1/2+y,z
1/2-x,1/2+y,-z
1/2-x,1/2-y,-z
1/2+x,1/2-y,z
loop_
_atom_site_type_symbol
_atom_site_label
_atom_site_fract_x
_atom_site_fract_y
_atom_site_fract_z
Si Si1 0.076974 0.205715 0.380162
Si Si2 0.599198 0.704395 0.787789
Si Si3 0.389035 0.286200 0.434259
Si Si4 0.788905 0.704927 0.387286
Si Si5 0.393450 0.715405 0.896070
Si Si6 0.730526 0.283501 0.799814
Si Si7 0.000000 0.500000 0.500000
Si Si8 0.772548 0.792623 0.074743
O O1 0.171520 0.224425 0.287020
O O2 0.988749 0.260592 0.396962
O O3 0.071624 0.342817 0.433213
O O4 0.065643 0.000000 0.403682
O O5 0.579486 0.500000 0.813641
O O6 0.670998 0.710035 0.692382
O O7 0.499667 0.779497 0.831584
O O8 0.648901 0.780511 0.810331
O O9 0.383705 0.500000 0.434816
O O10 0.306016 0.221856 0.526345
O O11 0.364925 0.218299 0.388724
O O12 0.771605 0.500000 0.384734
O O13 0.390984 0.500000 0.895967
O O14 0.332391 0.774870 0.882450
O O15 0.339361 0.778887 0.984808
O O16 0.731397 0.500000 0.799152
O O17 0.718653 0.219837 0.869612
O O18 0.795698 0.000000 0.064094
#
# Coordination Sequence:
#
# PCOD9206378 Si02
#       8
#     8   8   8   8   8   8   2   8
#     4  11  25  42  65  92 125 169 217 264 319 377
#     4  10  22  37  57  84 123 162 203 254 314 381
#     4   9  21  40  58  83 113 153 206 256 310 368
#     4  10  21  36  58  83 114 153 198 253 310 370
#     4   9  19  37  60  90 118 158 207 255 317 382
#     4  10  22  40  59  89 126 166 210 262 319 379
#     4  12  26  44  64  90 124 166 214 268 308 386
#     4   9  19  37  63  88 120 157 205 261 315 381
#
# _framework density 22.045895999999999
#
# number of rings (size 3 to 8) (size 9 to 14) (size 15 to 20)
#    0.000    2.207    0.690    0.621    4.828    2.759 
#    0.000    2.759    0.000    0.000    0.000    5.793 
#    0.000    0.000    0.000    0.000    0.000    0.000 
#
# Total GULP energy -161789.062028 kJ/mol
# GULP energy per Si atom -5578.933173 kJ/mol
# Density = 2.199572 g / cm^3
# Si number density = 22.045896 Si / 1000 Ang^3
#
#
#
# Elastic Constant Matrix: (Units=GPa)
#
#
# Indices 1 2 3 4 5 6 
#
# 1 100.7058 -12.9486 26.9228 -0.0004 14.2681 -0.0010
# 2 -12.9486 75.3903 -9.0289 -0.0060 4.6805 -0.0007
# 3 26.9228 -9.0289 40.2163 -0.0001 18.1735 0.0000
# 4 -0.0004 -0.0060 -0.0001 -3.8322 -0.0004 -15.5594
# 5 14.2681 4.6805 18.1735 -0.0004 34.3225 -0.0002
# 6 -0.0010 -0.0007 0.0000 -15.5594 -0.0002 3.9029
#
#
#
# Elastic Compliance Matrix: (Units=1/GPa)
#
#
# Indices 1 2 3 4 5 6 
#
# 1 0.012241 0.001323 -0.007252 -0.000001 -0.001429 -0.000001
# 2 0.001323 0.014343 0.004557 -0.000002 -0.004919 -0.000005
# 3 -0.007252 0.004557 0.038992 0.000000 -0.018253 -0.000001
# 4 -0.000001 -0.000002 0.000000 -0.015183 0.000000 -0.060530
# 5 -0.001429 -0.004919 -0.018253 0.000000 0.040065 0.000001
# 6 -0.000001 -0.000005 -0.000001 -0.060530 0.000001 0.014908
#
#
# Mechanical properties :
#
#
# Convention : Reuss Voigt Hill
#
# Bulk Modulus (GPa) = 15.91554 25.13368 20.52461
# Shear Modulus (GPa) = 38.74353 20.96978 29.85665
#
# Velocity S-wave (km/s) = 4.19669 3.08748 3.68407
# Velocity P-wave (km/s) = 5.54237 4.91278 5.23704
#
# Compressibility (1/GPa) = 0.06283168
#
# Stress axis : x y z
#
# Youngs Moduli (GPa) = 81.69089 69.72210 25.64631
#
# Poissons Ratio (x) = -0.09222 0.18599
# Poissons Ratio (y) = -0.10805 -0.11688
# Poissons Ratio (z) = 0.59243 -0.31775
#
# Static dielectric constant tensor:
#      x y z
#    x 1.824340 0.000000 -0.001190 
#    y 0.000000 1.840620 0.000000 
#    z -0.001190 0.000000 1.775600 
# 
# From -- ./inp_files/346490.got.cif
#   From: 2010.05.17/outbox.cif.g08.bks.cpg/sg12_174_cif.got.tgz:346490.got - 2010.06.03 13:09:07.
