data_PCOD9206731
_publ_section_title
;
Structure prediction by ZEFSAII (Michael W. Deem and Ramdas Pophale) SiO2 
 PCOD9206731
Probable space group: C 2/M
;
_chemical_formula_sum "Si O2"
_cell_formula_units_Z 56
_cell_length_a 24.800595
_cell_length_b 21.875823
_cell_length_c 15.704912
_cell_angle_alpha 90.000000
_cell_angle_beta 17.419553
_cell_angle_gamma 90.000000
_cell_volume 2550.733561
_symmetry_space_group_name_H-M "C 2/M"
_symmetry_group_IT_number 12
_symmetry_cell_setting 'monoclinic'
loop_
_space_group_symop_operation_xyz
x,y,z
-x,y,-z
-x,-y,-z
x,-y,z
1/2+x,1/2+y,z
1/2-x,1/2+y,-z
1/2-x,1/2-y,-z
1/2+x,1/2-y,z
loop_
_atom_site_type_symbol
_atom_site_label
_atom_site_fract_x
_atom_site_fract_y
_atom_site_fract_z
Si Si1 0.531988 0.165665 0.549793
Si Si2 0.044455 0.295077 0.022406
Si Si3 0.477965 0.108076 0.806063
Si Si4 0.453212 0.326395 0.915381
Si Si5 0.027319 0.798637 0.616078
Si Si6 0.859234 0.932136 0.288312
Si Si7 0.407467 0.567117 0.548542
O O1 0.500000 0.146546 0.500000
O O2 0.443123 0.126423 0.760254
O O3 0.469388 0.237164 0.652925
O O4 0.745620 0.158628 0.247861
O O5 0.971003 0.226541 0.137875
O O6 0.985730 0.330838 0.194055
O O7 0.258580 0.289981 0.702570
O O8 0.000000 0.326042 0.000000
O O9 0.660819 0.071560 0.547349
O O10 0.304233 0.078161 0.112470
O O11 0.446830 0.298060 0.831122
O O12 0.588035 0.382869 0.720027
O O13 0.010283 0.869294 0.611758
O O14 0.889611 0.000000 0.276059
O O15 0.000000 0.920142 0.000000
O O16 0.500000 0.562058 0.500000
O O17 0.430922 0.500000 0.469617
#
# Coordination Sequence:
#
# PCOD9206731 Si02
#       7
#     8   8   8   8   8   8   8
#     4  11  24  39  61  97 132 171 213 268 329 386
#     4  10  21  36  61  94 128 163 205 262 327 384
#     4  11  22  42  66  97 126 168 213 268 325 385
#     4  11  22  38  62  90 131 167 209 262 321 388
#     4  10  22  38  59  94 127 166 211 266 322 385
#     4  11  23  39  61  89 126 167 209 261 321 384
#     4  10  23  43  66  89 122 172 222 264 313 375
#
# _framework density 21.954467999999999
#
# number of rings (size 3 to 8) (size 9 to 14) (size 15 to 20)
#    0.000    1.429    2.857    2.143    4.000    2.286 
#    0.000    0.000    0.000    6.857    0.000    0.000 
#    0.000    0.000    0.000    0.000    0.000    0.000 
#
# Total GULP energy -156197.791278 kJ/mol
# GULP energy per Si atom -5578.492546 kJ/mol
# Density = 2.190450 g / cm^3
# Si number density = 21.954468 Si / 1000 Ang^3
#
#
#
# Elastic Constant Matrix: (Units=GPa)
#
#
# Indices 1 2 3 4 5 6 
#
# 1 78.5213 15.9582 -14.3032 -0.0089 6.9983 -0.0056
# 2 15.9582 77.4650 -17.5055 0.0138 -5.1521 -0.0196
# 3 -14.3032 -17.5055 43.3615 0.0077 -7.5967 -0.0208
# 4 -0.0089 0.0138 0.0077 -22.1883 0.0093 14.1740
# 5 6.9983 -5.1521 -7.5967 0.0093 34.0601 0.0033
# 6 -0.0056 -0.0196 -0.0208 14.1740 0.0033 29.7574
#
#
#
# Elastic Compliance Matrix: (Units=1/GPa)
#
#
# Indices 1 2 3 4 5 6 
#
# 1 0.014022 -0.002321 0.003249 -0.000004 -0.002508 0.000005
# 2 -0.002321 0.015018 0.006014 0.000017 0.004090 0.000005
# 3 0.003249 0.006014 0.027686 0.000023 0.006417 0.000012
# 4 -0.000004 0.000017 0.000023 -0.034555 0.000016 0.016459
# 5 -0.002508 0.004090 0.006417 0.000016 0.031925 -0.000005
# 6 0.000005 0.000005 0.000012 0.016459 -0.000005 0.025765
#
#
# Mechanical properties :
#
#
# Convention : Reuss Voigt Hill
#
# Bulk Modulus (GPa) = 14.16235 18.62743 16.39489
# Shear Modulus (GPa) = 55.85625 22.67242 39.26434
#
# Velocity S-wave (km/s) = 5.04946 3.21705 4.23359
# Velocity P-wave (km/s) = 6.36089 4.72253 5.60193
#
# Compressibility (1/GPa) = 0.07060973
#
# Stress axis : x y z
#
# Youngs Moduli (GPa) = 71.31404 66.58546 36.11969
#
# Poissons Ratio (x) = 0.15456 -0.11735
# Poissons Ratio (y) = 0.16554 -0.21722
# Poissons Ratio (z) = -0.23170 -0.40044
#
# Static dielectric constant tensor:
#      x y z
#    x 1.806970 0.000000 -0.013950 
#    y 0.000000 1.890000 0.000010 
#    z -0.013950 0.000010 1.870770 
# 
# From -- ./inp_files/242108.got.cif
#   From: 2010.05.17/outbox.cif.g08.bks.cpg/sg12_122_cif.got.tgz:242108.got - 2010.06.03 13:09:07.
