data_PCOD9206977
_publ_section_title
;
Structure prediction by ZEFSAII (Michael W. Deem and Ramdas Pophale) SiO2 
 PCOD9206977
Probable space group: C 2/M
;
_chemical_formula_sum "Si O2"
_cell_formula_units_Z 56
_cell_length_a 11.163171
_cell_length_b 28.289818
_cell_length_c 9.210245
_cell_angle_alpha 90.000000
_cell_angle_beta 77.839758
_cell_angle_gamma 90.000000
_cell_volume 2843.369875
_symmetry_space_group_name_H-M "C 2/M"
_symmetry_group_IT_number 12
_symmetry_cell_setting 'monoclinic'
loop_
_space_group_symop_operation_xyz
x,y,z
-x,y,-z
-x,-y,-z
x,-y,z
1/2+x,1/2+y,z
1/2-x,1/2+y,-z
1/2-x,1/2-y,-z
1/2+x,1/2-y,z
loop_
_atom_site_type_symbol
_atom_site_label
_atom_site_fract_x
_atom_site_fract_y
_atom_site_fract_z
Si Si1 0.186743 0.798749 0.073601
Si Si2 0.967316 0.765899 0.339541
Si Si3 0.695635 0.122631 0.755338
Si Si4 0.726309 0.369115 0.825206
Si Si5 0.484399 0.836141 0.674126
Si Si6 0.628075 0.640248 0.556737
Si Si7 0.146337 0.555043 0.997660
O O1 0.273365 0.833988 0.144222
O O2 0.074997 0.785987 0.209919
O O3 0.250000 0.750000 0.000000
O O4 0.151469 0.833346 0.948817
O O5 0.865255 0.805760 0.383932
O O6 0.000000 0.758907 0.500000
O O7 0.948966 0.712527 0.295590
O O8 0.555090 0.124538 0.744497
O O9 0.771648 0.129226 0.589123
O O10 0.715653 0.074370 0.836083
O O11 0.842483 0.337167 0.746544
O O12 0.651411 0.386377 0.702613
O O13 0.791198 0.412213 0.894430
O O14 0.500000 0.843987 0.500000
O O15 0.500000 0.635408 0.500000
O O16 0.165998 0.500000 0.021780
O O17 0.000000 0.561040 0.000000
#
# Coordination Sequence:
#
# PCOD9206977 Si02
#       7
#     8   8   8   8   8   8   8
#     4  11  22  37  55  89 126 170 213 264 301 364
#     4  10  21  37  55  86 126 184 222 248 296 365
#     4  11  22  39  63  87 130 163 209 260 318 374
#     4  11  23  39  64  93 126 166 207 265 322 371
#     4  11  21  34  59  91 129 168 210 260 313 364
#     4  11  23  43  61  86 125 176 222 254 295 367
#     4  10  22  43  70 100 128 153 195 264 342 396
#
# _framework density 19.694938
#
# number of rings (size 3 to 8) (size 9 to 14) (size 15 to 20)
#    0.000    1.286    7.143    0.000    2.000    1.143 
#    0.000    0.714    0.000    5.143    0.000    0.000 
#    0.000    0.000    0.000    0.000    0.000    0.000 
#
# Total GULP energy -155908.103911 kJ/mol
# GULP energy per Si atom -5568.146568 kJ/mol
# Density = 1.965011 g / cm^3
# Si number density = 19.694938 Si / 1000 Ang^3
#
#
#
# Elastic Constant Matrix: (Units=GPa)
#
#
# Indices 1 2 3 4 5 6 
#
# 1 67.6595 22.8389 38.5773 0.0000 22.7938 0.0000
# 2 22.8389 105.7554 50.5180 0.0000 9.8303 0.0000
# 3 38.5773 50.5180 132.5641 0.0000 6.7703 0.0000
# 4 0.0000 0.0000 0.0000 13.3834 0.0000 -0.1662
# 5 22.7938 9.8303 6.7703 0.0000 34.9050 0.0000
# 6 0.0000 0.0000 0.0000 -0.1662 0.0000 21.2800
#
#
#
# Elastic Compliance Matrix: (Units=1/GPa)
#
#
# Indices 1 2 3 4 5 6 
#
# 1 0.022873 -0.001014 -0.005577 0.000000 -0.013569 0.000000
# 2 -0.001014 0.011812 -0.004111 0.000000 -0.001867 0.000000
# 3 -0.005577 -0.004111 0.010593 0.000000 0.002745 0.000000
# 4 0.000000 0.000000 0.000000 0.074726 0.000000 0.000584
# 5 -0.013569 -0.001867 0.002745 0.000000 0.037504 0.000000
# 6 0.000000 0.000000 0.000000 0.000584 0.000000 0.046997
#
#
# Mechanical properties :
#
#
# Convention : Reuss Voigt Hill
#
# Bulk Modulus (GPa) = 41.88617 58.87192 50.37904
# Shear Modulus (GPa) = 21.37961 26.85001 24.11481
#
# Velocity S-wave (km/s) = 3.29833 3.69629 3.50296
# Velocity P-wave (km/s) = 5.98489 6.94072 6.48045
#
# Compressibility (1/GPa) = 0.02387423
#
# Stress axis : x y z
#
# Youngs Moduli (GPa) = 43.71883 84.65903 94.40383
#
# Poissons Ratio (x) = 0.08588 0.52647
# Poissons Ratio (y) = 0.04435 0.38808
# Poissons Ratio (z) = 0.24381 0.34802
#
# Static dielectric constant tensor:
#      x y z
#    x 1.731690 0.000000 0.013180 
#    y 0.000000 1.728610 0.000000 
#    z 0.013180 0.000000 1.748760 
# 
# From -- ./inp_files/53185.got.cif
#   From: 2010.05.17/outbox.cif.g08.bks.cpg/sg12_27_cif.got.tgz:53185.got - 2010.06.03 13:09:07.
