data_PCOD9206336
_publ_section_title
;
Structure prediction by ZEFSAII (Michael W. Deem and Ramdas Pophale) SiO2 
 PCOD9206336
Probable space group: C 2/M
;
_chemical_formula_sum "Si O2"
_cell_formula_units_Z 56
_cell_length_a 15.704804
_cell_length_b 22.273884
_cell_length_c 17.114523
_cell_angle_alpha 90.000000
_cell_angle_beta 156.053084
_cell_angle_gamma 90.000000
_cell_volume 2429.974455
_symmetry_space_group_name_H-M "C 2/M"
_symmetry_group_IT_number 12
_symmetry_cell_setting 'monoclinic'
loop_
_space_group_symop_operation_xyz
x,y,z
-x,y,-z
-x,-y,-z
x,-y,z
1/2+x,1/2+y,z
1/2-x,1/2+y,-z
1/2-x,1/2-y,-z
1/2+x,1/2-y,z
loop_
_atom_site_type_symbol
_atom_site_label
_atom_site_fract_x
_atom_site_fract_y
_atom_site_fract_z
Si Si1 0.466770 0.265950 0.258724
Si Si2 0.093078 0.656675 0.993016
Si Si3 0.824437 0.364687 0.162772
Si Si4 0.685808 0.070029 0.552803
Si Si5 0.815279 0.804020 0.399082
Si Si6 0.892682 0.182321 0.792909
Si Si7 0.871723 0.930895 0.151662
O O1 0.459400 0.194238 0.254911
O O2 0.598781 0.288345 0.443536
O O3 0.542698 0.296674 0.242317
O O4 0.229864 0.288373 0.075188
O O5 0.882852 0.651976 0.765670
O O6 0.260880 0.603389 0.129400
O O7 0.000000 0.665668 0.000000
O O8 0.738357 0.400933 0.016063
O O9 0.966472 0.408516 0.333004
O O10 0.608813 0.336613 0.016127
O O11 0.753650 0.121943 0.670746
O O12 0.681291 0.000000 0.575252
O O13 0.877707 0.073843 0.650436
O O14 0.737210 0.741349 0.292199
O O15 0.000000 0.828383 0.500000
O O16 0.818985 0.000000 0.110374
#
# Coordination Sequence:
#
# PCOD9206336 Si02
#       7
#     8   8   8   8   8   8   8
#     4  12  22  38  60  91 120 158 201 258 310 369
#     4  12  24  40  59  89 127 166 208 250 305 364
#     4  11  20  35  63  88 118 152 196 257 313 352
#     4  10  21  36  57  88 119 150 198 248 297 355
#     4  12  25  38  61  90 124 162 199 250 311 372
#     4  11  22  36  61  92 118 156 200 252 312 363
#     4  10  23  40  59  88 123 163 210 255 298 359
#
# _framework density 23.045508999999999
#
# number of rings (size 3 to 8) (size 9 to 14) (size 15 to 20)
#    0.000    0.857    7.143    2.143    2.000    0.857 
#    0.000    0.000    0.000    0.857    0.000    1.000 
#    0.000    0.000    0.000    0.000    0.000    0.000 
#
# Total GULP energy -156545.074230 kJ/mol
# GULP energy per Si atom -5590.895508 kJ/mol
# Density = 2.299306 g / cm^3
# Si number density = 23.045509 Si / 1000 Ang^3
#
#
#
# Elastic Constant Matrix: (Units=GPa)
#
#
# Indices 1 2 3 4 5 6 
#
# 1 76.4275 -1.2826 18.1202 0.0000 17.4528 0.0000
# 2 -1.2826 123.7853 4.4638 0.0003 2.3218 -0.0001
# 3 18.1202 4.4638 139.5976 -0.0004 1.5943 0.0002
# 4 0.0000 0.0003 -0.0004 37.4228 0.0000 -0.4084
# 5 17.4528 2.3218 1.5943 0.0000 31.9971 0.0000
# 6 0.0000 -0.0001 0.0002 -0.4084 0.0000 10.8799
#
#
#
# Elastic Compliance Matrix: (Units=1/GPa)
#
#
# Indices 1 2 3 4 5 6 
#
# 1 0.015456 0.000386 -0.001923 0.000000 -0.008363 0.000000
# 2 0.000386 0.008108 -0.000300 0.000000 -0.000784 0.000000
# 3 -0.001923 -0.000300 0.007415 0.000000 0.000701 0.000000
# 4 0.000000 0.000000 0.000000 0.026733 0.000000 0.001003
# 5 -0.008363 -0.000784 0.000701 0.000000 0.035836 0.000000
# 6 0.000000 0.000000 0.000000 0.001003 0.000000 0.091950
#
#
# Mechanical properties :
#
#
# Convention : Reuss Voigt Hill
#
# Bulk Modulus (GPa) = 36.62371 42.49036 39.55703
# Shear Modulus (GPa) = 25.21754 37.29389 31.25572
#
# Velocity S-wave (km/s) = 3.31153 4.02714 3.68674
# Velocity P-wave (km/s) = 5.52703 6.33257 5.94346
#
# Compressibility (1/GPa) = 0.02730471
#
# Stress axis : x y z
#
# Youngs Moduli (GPa) = 64.69779 123.33423 134.86774
#
# Poissons Ratio (x) = -0.04765 0.25937
# Poissons Ratio (y) = -0.02500 0.04052
# Poissons Ratio (z) = 0.12442 0.03706
#
# Static dielectric constant tensor:
#      x y z
#    x 1.925210 0.000000 0.006450 
#    y 0.000000 1.863000 0.000000 
#    z 0.006450 0.000000 1.923040 
# 
# From -- ./inp_files/318293.got.cif
#   From: 2010.05.17/outbox.cif.g08.bks.cpg/sg12_160_cif.got.tgz:318293.got - 2010.06.03 13:09:07.
