data_PCOD9206483
_publ_section_title
;
Structure prediction by ZEFSAII (Michael W. Deem and Ramdas Pophale) SiO2 
 PCOD9206483
Probable space group: C 2/M
;
_chemical_formula_sum "Si O2"
_cell_formula_units_Z 50
_cell_length_a 13.071279
_cell_length_b 20.601769
_cell_length_c 10.062038
_cell_angle_alpha 90.000000
_cell_angle_beta 78.963796
_cell_angle_gamma 90.000000
_cell_volume 2659.510414
_symmetry_space_group_name_H-M "C 2/M"
_symmetry_group_IT_number 12
_symmetry_cell_setting 'monoclinic'
loop_
_space_group_symop_operation_xyz
x,y,z
-x,y,-z
-x,-y,-z
x,-y,z
1/2+x,1/2+y,z
1/2-x,1/2+y,-z
1/2-x,1/2-y,-z
1/2+x,1/2-y,z
loop_
_atom_site_type_symbol
_atom_site_label
_atom_site_fract_x
_atom_site_fract_y
_atom_site_fract_z
Si Si1 0.245906 0.077928 0.837438
Si Si2 0.118927 0.422377 0.433354
Si Si3 0.416647 0.266424 0.418515
Si Si4 0.303921 0.422946 0.857783
Si Si5 0.965610 0.103187 0.271015
Si Si6 0.265396 0.159688 0.378466
Si Si7 0.000000 0.000000 0.500000
O O1 0.340757 0.101190 0.720673
O O2 0.138139 0.094215 0.789784
O O3 0.251521 0.000000 0.843100
O O4 0.244104 0.099413 0.990439
O O5 0.130959 0.500000 0.433241
O O6 0.194353 0.391521 0.523177
O O7 0.000000 0.408508 0.500000
O O8 0.500000 0.237194 0.500000
O O9 0.468547 0.322545 0.318299
O O10 0.357012 0.213062 0.346262
O O11 0.331629 0.302745 0.532317
O O12 0.282388 0.500000 0.838610
O O13 0.429022 0.415305 0.832409
O O14 0.264253 0.379113 0.746154
O O15 0.965587 0.056626 0.399997
#
# Coordination Sequence:
#
# PCOD9206483 Si02
#       7
#     8   8   8   8   8   8   2
#     4  10  21  36  58  90 131 159 192 253 324 370
#     4  10  21  38  62  89 116 157 211 260 306 358
#     4  11  22  37  59  90 122 158 209 255 303 358
#     4  11  22  37  61  96 129 160 197 251 316 378
#     4  12  20  34  58  94 128 158 196 251 313 368
#     4  11  22  38  61  87 118 163 207 257 300 361
#     4  12  20  28  62 100 126 150 204 252 294 384
#
# _framework density 18.800452
#
# number of rings (size 3 to 8) (size 9 to 14) (size 15 to 20)
#    0.000    1.120    5.600    1.440    0.000    1.280 
#    0.000    1.600    0.000    5.760    0.000    0.000 
#    0.000    0.000    0.000    0.000    0.000    0.000 
#
# Total GULP energy -139326.556001 kJ/mol
# GULP energy per Si atom -5573.062240 kJ/mol
# Density = 1.875766 g / cm^3
# Si number density = 18.800452 Si / 1000 Ang^3
#
#
#
# Elastic Constant Matrix: (Units=GPa)
#
#
# Indices 1 2 3 4 5 6 
#
# 1 86.2126 24.6433 46.8431 0.0000 -5.4727 0.0000
# 2 24.6433 66.8129 42.2958 0.0000 -6.5897 0.0000
# 3 46.8431 42.2958 124.8021 0.0000 -0.5828 0.0000
# 4 0.0000 0.0000 0.0000 -4.4994 0.0000 4.1094
# 5 -5.4727 -6.5897 -0.5828 0.0000 16.2292 0.0000
# 6 0.0000 0.0000 0.0000 4.1094 0.0000 27.5004
#
#
#
# Elastic Compliance Matrix: (Units=1/GPa)
#
#
# Indices 1 2 3 4 5 6 
#
# 1 0.015144 -0.002030 -0.004977 0.000000 0.004104 0.000000
# 2 -0.002030 0.020288 -0.006079 0.000000 0.007335 0.000000
# 3 -0.004977 -0.006079 0.011924 0.000000 -0.003719 0.000000
# 4 0.000000 0.000000 0.000000 -0.195563 0.000000 0.029223
# 5 0.004104 0.007335 -0.003719 0.000000 0.065846 0.000000
# 6 0.000000 0.000000 0.000000 0.029223 0.000000 0.031996
#
#
# Mechanical properties :
#
#
# Convention : Reuss Voigt Hill
#
# Bulk Modulus (GPa) = 47.20863 56.15467 51.68165
# Shear Modulus (GPa) = -291.87559 18.78240 -136.54660
#
# Velocity S-wave (km/s) = -12.47342 3.16419 -8.53154
# Velocity P-wave (km/s) = 13.50124 6.57899 8.33668
#
# Compressibility (1/GPa) = 0.02118257
#
# Stress axis : x y z
#
# Youngs Moduli (GPa) = 66.03138 49.29025 83.86680
#
# Poissons Ratio (x) = 0.10008 0.41740
# Poissons Ratio (y) = 0.13407 0.50985
# Poissons Ratio (z) = 0.32864 0.29965
#
# Static dielectric constant tensor:
#      x y z
#    x 1.674390 0.000000 -0.038270 
#    y 0.000000 1.658650 0.000000 
#    z -0.038270 0.000000 1.655650 
# 
# From -- ./inp_files/63445.got.cif
#   From: 2010.05.17/outbox.cif.g08.bks.cpg/sg12_32_cif.got.tgz:63445.got - 2010.06.03 13:09:07.
