data_PCOD9206163
_publ_section_title
;
Structure prediction by ZEFSAII (Michael W. Deem and Ramdas Pophale) SiO2 
 PCOD9206163
Probable space group: C 2/M
;
_chemical_formula_sum "Si O2"
_cell_formula_units_Z 52
_cell_length_a 14.580194
_cell_length_b 9.992197
_cell_length_c 25.635728
_cell_angle_alpha 90.000000
_cell_angle_beta 138.374718
_cell_angle_gamma 90.000000
_cell_volume 2480.878571
_symmetry_space_group_name_H-M "C 2/M"
_symmetry_group_IT_number 12
_symmetry_cell_setting 'monoclinic'
loop_
_space_group_symop_operation_xyz
x,y,z
-x,y,-z
-x,-y,-z
x,-y,z
1/2+x,1/2+y,z
1/2-x,1/2+y,-z
1/2-x,1/2-y,-z
1/2+x,1/2-y,z
loop_
_atom_site_type_symbol
_atom_site_label
_atom_site_fract_x
_atom_site_fract_y
_atom_site_fract_z
Si Si1 0.000000 0.752229 0.000000
Si Si2 0.804551 0.848161 0.120721
Si Si3 0.908943 0.350357 0.410927
Si Si4 0.466058 0.347993 0.869859
Si Si5 0.203870 0.349666 0.267883
Si Si6 0.474565 0.850774 0.256690
Si Si7 0.646388 0.150138 0.427643
O O1 0.859986 0.669550 0.951822
O O2 0.984720 0.834543 0.939747
O O3 0.857349 0.748177 0.187867
O O4 0.892459 0.823049 0.104204
O O5 0.837601 0.000000 0.149528
O O6 0.846333 0.500000 0.393680
O O7 0.807129 0.236171 0.347660
O O8 0.000000 0.313531 0.500000
O O9 0.018561 0.363783 0.411710
O O10 0.423224 0.500000 0.838700
O O11 0.350372 0.242422 0.802188
O O12 0.253317 0.500000 0.275106
O O13 0.069380 0.365295 0.246398
O O14 0.577311 0.798501 0.345094
O O15 0.425673 0.000000 0.251825
O O16 0.750000 0.250000 0.500000
O O17 0.705516 0.000000 0.443283
#
# Coordination Sequence:
#
# PCOD9206163 Si02
#       7
#     4   8   8   8   8   8   8
#     4  12  24  40  66  98 124 160 214 266 316 378
#     4  10  23  42  64  92 127 164 205 260 319 373
#     4  10  21  36  56  85 121 159 201 248 301 363
#     4  10  23  43  65  91 124 166 211 255 314 383
#     4  10  21  38  61  87 118 156 199 254 313 362
#     4   9  20  39  60  84 118 157 201 250 303 364
#     4  10  21  36  56  84 116 155 198 246 296 355
#
# _framework density 20.960317
#
# number of rings (size 3 to 8) (size 9 to 14) (size 15 to 20)
#    0.000    2.000    0.000    2.308    2.154    4.615 
#    0.000    3.077    0.000    0.000    0.000    0.000 
#    0.000    0.000    0.000    0.000    0.000    0.000 
#
# Total GULP energy -144961.514902 kJ/mol
# GULP energy per Si atom -5575.442881 kJ/mol
# Density = 2.091261 g / cm^3
# Si number density = 20.960317 Si / 1000 Ang^3
#
#
#
# Elastic Constant Matrix: (Units=GPa)
#
#
# Indices 1 2 3 4 5 6 
#
# 1 75.3651 28.8619 26.7594 0.0000 -8.4096 0.0000
# 2 28.8619 138.9385 89.4427 0.0000 10.6517 0.0000
# 3 26.7594 89.4427 132.0241 0.0000 -13.6367 0.0000
# 4 0.0000 0.0000 0.0000 27.4737 0.0000 -6.2159
# 5 -8.4096 10.6517 -13.6367 0.0000 36.3337 0.0000
# 6 0.0000 0.0000 0.0000 -6.2159 0.0000 2.6040
#
#
#
# Elastic Compliance Matrix: (Units=1/GPa)
#
#
# Indices 1 2 3 4 5 6 
#
# 1 0.015123 -0.003148 -0.000495 0.000000 0.004237 0.000000
# 2 -0.003148 0.015577 -0.010884 0.000000 -0.009380 0.000000
# 3 -0.000495 -0.010884 0.015986 0.000000 0.009076 0.000000
# 4 0.000000 0.000000 0.000000 0.079140 0.000000 0.188916
# 5 0.004237 -0.009380 0.009076 0.000000 0.034660 0.000000
# 6 0.000000 0.000000 0.000000 0.188916 0.000000 0.834991
#
#
# Mechanical properties :
#
#
# Convention : Reuss Voigt Hill
#
# Bulk Modulus (GPa) = 56.71413 70.71732 63.71572
# Shear Modulus (GPa) = 4.85245 26.69983 15.77614
#
# Velocity S-wave (km/s) = 1.52318 3.57294 2.74645
# Velocity P-wave (km/s) = 5.49637 7.12974 6.36566
#
# Compressibility (1/GPa) = 0.01763229
#
# Stress axis : x y z
#
# Youngs Moduli (GPa) = 66.12558 64.19737 62.55602
#
# Poissons Ratio (x) = 0.20207 0.03097
# Poissons Ratio (y) = 0.20814 0.68085
# Poissons Ratio (z) = 0.03274 0.69871
#
# Static dielectric constant tensor:
#      x y z
#    x 1.794160 0.000000 -0.066450 
#    y 0.000000 1.867010 0.000000 
#    z -0.066450 0.000000 1.753020 
# 
# From -- ./inp_files/339641.got.cif
#   From: 2010.05.17/outbox.cif.g08.bks.cpg/sg12_170_cif.got.tgz:339641.got - 2010.06.03 13:09:07.
