data_PCOD9206007
_publ_section_title
;
Structure prediction by ZEFSAII (Michael W. Deem and Ramdas Pophale) SiO2 
 PCOD9206007
Probable space group: C 2/M
;
_chemical_formula_sum "Si O2"
_cell_formula_units_Z 56
_cell_length_a 18.776449
_cell_length_b 8.880010
_cell_length_c 29.777330
_cell_angle_alpha 90.000000
_cell_angle_beta 141.850183
_cell_angle_gamma 90.000000
_cell_volume 3066.932616
_symmetry_space_group_name_H-M "C 2/M"
_symmetry_group_IT_number 12
_symmetry_cell_setting 'monoclinic'
loop_
_space_group_symop_operation_xyz
x,y,z
-x,y,-z
-x,-y,-z
x,-y,z
1/2+x,1/2+y,z
1/2-x,1/2+y,-z
1/2-x,1/2-y,-z
1/2+x,1/2-y,z
loop_
_atom_site_type_symbol
_atom_site_label
_atom_site_fract_x
_atom_site_fract_y
_atom_site_fract_z
Si Si1 0.745960 0.820206 0.359155
Si Si2 0.087514 0.680990 0.632933
Si Si3 0.712639 0.679153 0.934837
Si Si4 0.366739 0.680233 0.934380
Si Si5 0.332665 0.319722 0.503152
Si Si6 0.505972 0.680701 0.770212
Si Si7 0.337335 0.179888 0.229744
O O1 0.836251 0.747206 0.369486
O O2 0.782608 0.788898 0.428709
O O3 0.618904 0.754127 0.288624
O O4 0.745584 0.000000 0.352833
O O5 0.082545 0.500000 0.626736
O O6 0.143196 0.719887 0.708915
O O7 0.959395 0.748489 0.568731
O O8 0.714195 0.500000 0.939402
O O9 0.801979 0.734383 0.941760
O O10 0.587299 0.722912 0.852863
O O11 0.750000 0.750000 0.000000
O O12 0.360740 0.500000 0.939416
O O13 0.291630 0.710800 0.852428
O O14 0.500000 0.723398 0.000000
O O15 0.339098 0.500000 0.512257
O O16 0.250000 0.250000 0.500000
O O17 0.496340 0.500000 0.763835
O O18 0.573474 0.737704 0.759287
O O19 0.357386 0.000000 0.235148
#
# Coordination Sequence:
#
# PCOD9206007 Si02
#       7
#     8   8   8   8   8   8   8
#     4  11  24  40  58  83 115 148 183 228 281 332
#     4  11  23  38  58  85 116 149 186 230 278 329
#     4  10  21  36  55  81 112 146 186 231 277 328
#     4   9  18  34  56  80 109 146 184 226 278 331
#     4  11  24  41  61  85 113 147 188 231 277 333
#     4  10  21  37  58  83 110 144 188 232 274 329
#     4   9  19  36  56  80 111 145 183 227 276 331
#
# _framework density 18.259285999999999
#
# number of rings (size 3 to 8) (size 9 to 14) (size 15 to 20)
#    0.000    1.857    0.000    3.429    0.000   11.714 
#    0.000    2.857    0.000    0.000    0.000    0.000 
#    0.000    0.000    0.000    0.000    0.000    0.000 
#
# Total GULP energy -156407.558189 kJ/mol
# GULP energy per Si atom -5585.984221 kJ/mol
# Density = 1.821773 g / cm^3
# Si number density = 18.259286 Si / 1000 Ang^3
#
#
#
# Elastic Constant Matrix: (Units=GPa)
#
#
# Indices 1 2 3 4 5 6 
#
# 1 146.2468 69.4897 117.6991 0.0000 4.6637 0.0000
# 2 69.4897 64.3408 88.4659 0.0000 -4.2667 0.0001
# 3 117.6991 88.4659 185.0965 0.0000 1.3996 0.0000
# 4 0.0000 0.0000 0.0000 29.0824 0.0000 -1.0653
# 5 4.6637 -4.2667 1.3996 0.0000 37.1255 0.0000
# 6 0.0000 0.0001 0.0000 -1.0653 0.0000 35.7554
#
#
#
# Elastic Compliance Matrix: (Units=1/GPa)
#
#
# Indices 1 2 3 4 5 6 
#
# 1 0.016076 -0.010319 -0.005268 0.000000 -0.003007 0.000000
# 2 -0.010319 0.053347 -0.018997 0.000000 0.008143 0.000000
# 3 -0.005268 -0.018997 0.017848 0.000000 -0.002194 0.000000
# 4 0.000000 0.000000 0.000000 0.034423 0.000000 0.001026
# 5 -0.003007 0.008143 -0.002194 0.000000 0.028332 0.000000
# 6 0.000000 0.000000 0.000000 0.001026 0.000000 0.027998
#
#
# Mechanical properties :
#
#
# Convention : Reuss Voigt Hill
#
# Bulk Modulus (GPa) = 55.23636 105.22152 80.22894
# Shear Modulus (GPa) = 19.74515 28.39463 24.06989
#
# Velocity S-wave (km/s) = 3.29200 3.94773 3.63468
# Velocity P-wave (km/s) = 6.69077 8.86176 7.85166
#
# Compressibility (1/GPa) = 0.01810402
#
# Stress axis : x y z
#
# Youngs Moduli (GPa) = 62.20264 18.74530 56.02753
#
# Poissons Ratio (x) = 0.19343 0.29515
# Poissons Ratio (y) = 0.64187 1.06434
# Poissons Ratio (z) = 0.32769 0.35610
#
# Static dielectric constant tensor:
#      x y z
#    x 1.579810 0.000000 -0.006230 
#    y 0.000000 1.610870 0.000000 
#    z -0.006230 0.000000 1.635660 
# 
# From -- ./inp_files/363150.got.cif
#   From: 2010.05.17/outbox.cif.g08.bks.cpg/sg12_182_cif.got.tgz:363150.got - 2010.06.03 13:09:07.
