data_PCOD9206803
_publ_section_title
;
Structure prediction by ZEFSAII (Michael W. Deem and Ramdas Pophale) SiO2 
 PCOD9206803
Probable space group: C 2/M
;
_chemical_formula_sum "Si O2"
_cell_formula_units_Z 52
_cell_length_a 17.388923
_cell_length_b 20.764798
_cell_length_c 9.450892
_cell_angle_alpha 90.000000
_cell_angle_beta 49.955488
_cell_angle_gamma 90.000000
_cell_volume 2612.424995
_symmetry_space_group_name_H-M "C 2/M"
_symmetry_group_IT_number 12
_symmetry_cell_setting 'monoclinic'
loop_
_space_group_symop_operation_xyz
x,y,z
-x,y,-z
-x,-y,-z
x,-y,z
1/2+x,1/2+y,z
1/2-x,1/2+y,-z
1/2-x,1/2-y,-z
1/2+x,1/2-y,z
loop_
_atom_site_type_symbol
_atom_site_label
_atom_site_fract_x
_atom_site_fract_y
_atom_site_fract_z
Si Si1 0.000000 0.390156 0.000000
Si Si2 0.315375 0.800310 0.139025
Si Si3 0.973533 0.569473 0.339201
Si Si4 0.748329 0.424755 0.723648
Si Si5 0.896401 0.820110 0.209721
Si Si6 0.641967 0.169678 0.225721
Si Si7 0.401062 0.707026 0.535409
O O1 0.902751 0.346340 0.090278
O O2 0.980695 0.429064 0.163144
O O3 0.331480 0.734736 0.207271
O O4 0.204307 0.826734 0.301465
O O5 0.332766 0.794044 0.950470
O O6 0.012703 0.500000 0.341166
O O7 0.858109 0.577118 0.520086
O O8 0.045518 0.625529 0.308261
O O9 0.724028 0.500000 0.778596
O O10 0.665599 0.386657 0.729942
O O11 0.769589 0.379834 0.835567
O O12 0.914384 0.797749 0.350508
O O13 0.000000 0.825152 0.000000
O O14 0.618196 0.221447 0.376015
O O15 0.500000 0.682722 0.500000
#
# Coordination Sequence:
#
# PCOD9206803 Si02
#       7
#     4   8   8   8   8   8   8
#     4  10  21  36  64  92 129 164 202 254 314 378
#     4  11  23  40  63  99 131 161 202 257 321 377
#     4  10  21  38  59  92 129 165 203 248 307 377
#     4  11  24  41  64  88 122 169 216 256 304 372
#     4  12  26  42  64  93 125 164 213 262 314 366
#     4  11  23  37  65  97 131 159 200 254 318 381
#     4  12  25  38  65  97 129 163 205 258 323 374
#
# _framework density 19.904876999999999
#
# number of rings (size 3 to 8) (size 9 to 14) (size 15 to 20)
#    0.000    0.923    2.308    4.846    6.462    1.538 
#    0.000    0.000    0.000    1.385    0.000    0.000 
#    0.000    0.000    0.000    0.000    0.000    0.000 
#
# Total GULP energy -145236.539412 kJ/mol
# GULP energy per Si atom -5586.020747 kJ/mol
# Density = 1.985957 g / cm^3
# Si number density = 19.904877 Si / 1000 Ang^3
#
#
#
# Elastic Constant Matrix: (Units=GPa)
#
#
# Indices 1 2 3 4 5 6 
#
# 1 143.2519 56.7667 69.7612 0.0000 3.8524 0.0000
# 2 56.7667 66.4921 31.7559 0.0000 19.2198 0.0000
# 3 69.7612 31.7559 111.8020 0.0000 16.5038 0.0000
# 4 0.0000 0.0000 0.0000 10.7570 0.0000 -2.7843
# 5 3.8524 19.2198 16.5038 0.0000 52.8879 0.0000
# 6 0.0000 0.0000 0.0000 -2.7843 0.0000 23.5531
#
#
#
# Elastic Compliance Matrix: (Units=1/GPa)
#
#
# Indices 1 2 3 4 5 6 
#
# 1 0.014157 -0.010311 -0.006610 0.000000 0.004779 0.000000
# 2 -0.010311 0.026276 0.000282 0.000000 -0.008886 0.000000
# 3 -0.006610 0.000282 0.013558 0.000000 -0.003852 0.000000
# 4 0.000000 0.000000 0.000000 0.095897 0.000000 0.011336
# 5 0.004779 -0.008886 -0.003852 0.000000 0.022991 0.000000
# 6 0.000000 0.000000 0.000000 0.011336 0.000000 0.043797
#
#
# Mechanical properties :
#
#
# Convention : Reuss Voigt Hill
#
# Bulk Modulus (GPa) = 48.28076 70.90151 59.59113
# Shear Modulus (GPa) = 19.46598 28.32375 23.89487
#
# Velocity S-wave (km/s) = 3.13061 3.77630 3.46851
# Velocity P-wave (km/s) = 6.11360 7.39672 6.78555
#
# Compressibility (1/GPa) = 0.02071218
#
# Stress axis : x y z
#
# Youngs Moduli (GPa) = 70.63534 38.05789 73.75935
#
# Poissons Ratio (x) = 0.39240 0.48758
# Poissons Ratio (y) = 0.72830 -0.02080
# Poissons Ratio (z) = 0.46693 -0.01073
#
# Static dielectric constant tensor:
#      x y z
#    x 1.745340 0.000000 -0.000430 
#    y 0.000000 1.714590 0.000000 
#    z -0.000430 0.000000 1.714840 
# 
# From -- ./inp_files/77960.got.cif
#   From: 2010.05.17/outbox.cif.g08.bks.cpg/sg12_39_cif.got.tgz:77960.got - 2010.06.03 13:09:07.
