data_PCOD9206664
_publ_section_title
;
Structure prediction by ZEFSAII (Michael W. Deem and Ramdas Pophale) SiO2 
 PCOD9206664
Probable space group: C 2/M
;
_chemical_formula_sum "Si O2"
_cell_formula_units_Z 64
_cell_length_a 9.474900
_cell_length_b 27.444147
_cell_length_c 18.742962
_cell_angle_alpha 90.000000
_cell_angle_beta 42.099986
_cell_angle_gamma 90.000000
_cell_volume 3267.485948
_symmetry_space_group_name_H-M "C 2/M"
_symmetry_group_IT_number 12
_symmetry_cell_setting 'monoclinic'
loop_
_space_group_symop_operation_xyz
x,y,z
-x,y,-z
-x,-y,-z
x,-y,z
1/2+x,1/2+y,z
1/2-x,1/2+y,-z
1/2-x,1/2-y,-z
1/2+x,1/2-y,z
loop_
_atom_site_type_symbol
_atom_site_label
_atom_site_fract_x
_atom_site_fract_y
_atom_site_fract_z
Si Si1 0.566963 0.764487 0.126056
Si Si2 0.849964 0.946426 0.260877
Si Si3 0.360536 0.308269 0.774393
Si Si4 0.769056 0.399986 0.090464
Si Si5 0.261004 0.132568 0.581116
Si Si6 0.095730 0.555005 0.217558
Si Si7 0.733233 0.634370 0.944023
Si Si8 0.208123 0.942733 0.469366
O O1 0.560301 0.723059 0.188079
O O2 0.330136 0.776415 0.187801
O O3 0.657500 0.815579 0.119913
O O4 0.750000 0.750000 0.000000
O O5 0.761996 0.902987 0.341638
O O6 0.786606 0.940901 0.202271
O O7 0.098519 0.940374 0.171605
O O8 0.775691 0.000000 0.312071
O O9 0.247953 0.357433 0.844535
O O10 0.569703 0.327975 0.654631
O O11 0.722577 0.373384 0.032696
O O12 0.000000 0.420604 0.000000
O O13 0.500000 0.152718 0.500000
O O14 0.231305 0.096100 0.524595
O O15 0.083399 0.500000 0.195280
O O16 0.129926 0.591481 0.141139
O O17 0.897468 0.564243 0.342653
O O18 0.500000 0.633081 0.000000
O O19 0.000000 0.935878 0.500000
O O20 0.212917 0.000000 0.492193
#
# Coordination Sequence:
#
# PCOD9206664 Si02
#       8
#     8   8   8   8   8   8   8   8
#     4  12  23  43  68  94 123 161 205 259 317 379
#     4  10  21  36  60  92 126 167 217 258 302 376
#     4  11  25  42  66  97 123 157 210 270 309 388
#     4  11  21  39  57  90 133 159 205 260 321 372
#     4  11  23  42  68  92 125 167 212 264 325 366
#     4  10  22  38  58  93 128 164 215 257 302 377
#     4  12  23  36  63  91 122 173 203 252 319 374
#     4  10  22  40  64  94 128 168 217 267 311 368
#
# _framework density 19.586922999999999
#
# number of rings (size 3 to 8) (size 9 to 14) (size 15 to 20)
#    0.000    1.125    5.000    1.500    1.750    1.500 
#    0.000    1.875    0.000    0.000    0.000    0.000 
#    0.000    0.000    0.000    0.000    0.000    0.000 
#
# Total GULP energy -178544.670180 kJ/mol
# GULP energy per Si atom -5579.520943 kJ/mol
# Density = 1.954234 g / cm^3
# Si number density = 19.586923 Si / 1000 Ang^3
#
#
#
# Elastic Constant Matrix: (Units=GPa)
#
#
# Indices 1 2 3 4 5 6 
#
# 1 64.7845 19.9160 39.6065 -0.0001 -21.6179 -0.0002
# 2 19.9160 79.4917 44.3459 0.0000 -4.2746 0.0000
# 3 39.6065 44.3459 86.2146 -0.0003 -26.3709 -0.0005
# 4 -0.0001 0.0000 -0.0003 -9.8843 0.0002 -73.3120
# 5 -21.6179 -4.2746 -26.3709 0.0002 30.7168 0.0003
# 6 -0.0002 0.0000 -0.0005 -73.3120 0.0003 -98.4822
#
#
#
# Elastic Compliance Matrix: (Units=1/GPa)
#
#
# Indices 1 2 3 4 5 6 
#
# 1 0.023597 -0.001536 -0.006829 0.000000 0.010530 0.000000
# 2 -0.001536 0.019014 -0.011657 0.000000 -0.008443 0.000000
# 3 -0.006829 -0.011657 0.025449 0.000000 0.015420 0.000000
# 4 0.000000 0.000000 0.000000 0.022376 0.000000 -0.016657
# 5 0.010530 -0.008443 0.015420 0.000000 0.052030 0.000000
# 6 0.000000 0.000000 0.000000 -0.016657 0.000000 0.002246
#
#
# Mechanical properties :
#
#
# Convention : Reuss Voigt Hill
#
# Bulk Modulus (GPa) = 35.69483 48.69195 42.19339
# Shear Modulus (GPa) = 25.76076 -7.08845 9.33615
#
# Velocity S-wave (km/s) = 3.63051 -1.90442 2.18561
# Velocity P-wave (km/s) = 5.98644 4.48080 5.28749
#
# Compressibility (1/GPa) = 0.02801526
#
# Stress axis : x y z
#
# Youngs Moduli (GPa) = 42.37826 52.59362 39.29467
#
# Poissons Ratio (x) = 0.08078 0.26836
# Poissons Ratio (y) = 0.06509 0.45805
# Poissons Ratio (z) = 0.28942 0.61307
#
# Static dielectric constant tensor:
#      x y z
#    x 1.797930 0.000000 -0.094530 
#    y 0.000000 1.674060 0.000000 
#    z -0.094530 0.000000 1.750620 
# 
# From -- ./inp_files/260336.got.cif
#   From: 2010.05.17/outbox.cif.g08.bks.cpg/sg12_131_cif.got.tgz:260336.got - 2010.06.03 13:09:07.
