data_PCOD9206909
_publ_section_title
;
Structure prediction by ZEFSAII (Michael W. Deem and Ramdas Pophale) SiO2 
 PCOD9206909
Probable space group: C 2/M
;
_chemical_formula_sum "Si O2"
_cell_formula_units_Z 56
_cell_length_a 10.497530
_cell_length_b 14.291048
_cell_length_c 29.069539
_cell_angle_alpha 90.000000
_cell_angle_beta 144.406946
_cell_angle_gamma 90.000000
_cell_volume 2538.227433
_symmetry_space_group_name_H-M "C 2/M"
_symmetry_group_IT_number 12
_symmetry_cell_setting 'monoclinic'
loop_
_space_group_symop_operation_xyz
x,y,z
-x,y,-z
-x,-y,-z
x,-y,z
1/2+x,1/2+y,z
1/2-x,1/2+y,-z
1/2-x,1/2-y,-z
1/2+x,1/2-y,z
loop_
_atom_site_type_symbol
_atom_site_label
_atom_site_fract_x
_atom_site_fract_y
_atom_site_fract_z
Si Si1 0.816443 0.114086 0.982463
Si Si2 0.745947 0.386203 0.932909
Si Si3 0.685104 0.887951 0.313804
Si Si4 0.507294 0.614356 0.233389
Si Si5 0.143580 0.385590 0.197495
Si Si6 0.380868 0.674557 0.510160
Si Si7 0.033007 0.607318 0.660372
O O1 0.578320 0.141196 0.893682
O O2 0.823745 0.000000 0.985354
O O3 0.839253 0.144959 0.042102
O O4 0.000000 0.144601 0.000000
O O5 0.740750 0.500000 0.931788
O O6 0.601992 0.357260 0.847101
O O7 0.000000 0.360625 0.000000
O O8 0.644997 0.853415 0.250618
O O9 0.525178 0.850186 0.306940
O O10 0.931908 0.870340 0.403597
O O11 0.654613 0.000000 0.303608
O O12 0.500908 0.500000 0.233877
O O13 0.354614 0.645375 0.230491
O O14 0.759840 0.646285 0.306552
O O15 0.145594 0.500000 0.198804
O O16 0.500000 0.715202 0.500000
O O17 0.250000 0.750000 0.500000
O O18 0.191426 0.608654 0.434152
O O19 0.093068 0.500000 0.687242
#
# Coordination Sequence:
#
# PCOD9206909 Si02
#       7
#     8   8   8   8   8   8   8
#     4   9  16  22  32  53  85 124 163 197 231 276
#     4   9  14  22  34  51  83 126 161 191 232 277
#     4   9  18  32  51  72  98 129 160 199 244 288
#     4   9  16  25  39  61  91 126 162 197 236 285
#     4   9  16  26  38  60  93 126 160 198 239 282
#     4  10  21  37  55  75  98 125 160 199 243 294
#     4   9  18  32  51  73  97 127 163 200 240 289
#
# _framework density 22.062640999999999
#
# number of rings (size 3 to 8) (size 9 to 14) (size 15 to 20)
#    0.000    2.857    1.429    0.429    2.000    2.857 
#    0.000    0.000    0.000    4.286    0.000    0.000 
#    0.000    2.286    0.000    0.143    0.000    0.143 
#
# Total GULP energy -156331.507780 kJ/mol
# GULP energy per Si atom -5583.268135 kJ/mol
# Density = 2.201243 g / cm^3
# Si number density = 22.062641 Si / 1000 Ang^3
#
#
#
# Elastic Constant Matrix: (Units=GPa)
#
#
# Indices 1 2 3 4 5 6 
#
# 1 149.9474 7.1622 35.2784 0.0000 11.0945 0.0000
# 2 7.1622 60.3934 -1.6597 0.0000 -2.0985 0.0000
# 3 35.2784 -1.6597 56.7417 0.0000 1.0189 0.0000
# 4 0.0000 0.0000 0.0000 5.0454 0.0000 -2.7063
# 5 11.0945 -2.0985 1.0189 0.0000 43.5349 0.0000
# 6 0.0000 0.0000 0.0000 -2.7063 0.0000 -0.6052
#
#
#
# Elastic Compliance Matrix: (Units=1/GPa)
#
#
# Indices 1 2 3 4 5 6 
#
# 1 0.008049 -0.001161 -0.005002 0.000000 -0.001990 0.000000
# 2 -0.001161 0.016766 0.001193 0.000000 0.001076 0.000000
# 3 -0.005002 0.001193 0.020754 0.000000 0.000847 0.000000
# 4 0.000000 0.000000 0.000000 0.058317 0.000000 -0.260788
# 5 -0.001990 0.001076 0.000847 0.000000 0.023509 0.000000
# 6 0.000000 0.000000 0.000000 -0.260788 0.000000 -0.486199
#
#
# Mechanical properties :
#
#
# Convention : Reuss Voigt Hill
#
# Bulk Modulus (GPa) = 28.06845 38.73826 33.40335
# Shear Modulus (GPa) = -14.83731 24.68181 4.92225
#
# Velocity S-wave (km/s) = -2.59609 3.34835 1.49529
# Velocity P-wave (km/s) = 1.93998 5.70482 4.26078
#
# Compressibility (1/GPa) = 0.03562719
#
# Stress axis : x y z
#
# Youngs Moduli (GPa) = 124.24494 59.64461 48.18454
#
# Poissons Ratio (x) = 0.06926 0.24104
# Poissons Ratio (y) = 0.14426 -0.05748
# Poissons Ratio (z) = 0.62152 -0.07116
#
# Static dielectric constant tensor:
#      x y z
#    x 1.802510 0.000000 0.006650 
#    y 0.000000 1.875930 0.000000 
#    z 0.006650 0.000000 1.770910 
# 
# From -- ./inp_files/301629.got.cif
#   From: 2010.05.17/outbox.cif.g08.bks.cpg/sg12_151_cif.got.tgz:301629.got - 2010.06.03 13:09:07.
