data_PCOD9206435
_publ_section_title
;
Structure prediction by ZEFSAII (Michael W. Deem and Ramdas Pophale) SiO2 
 PCOD9206435
Probable space group: C 2/M
;
_chemical_formula_sum "Si O2"
_cell_formula_units_Z 44
_cell_length_a 5.033815
_cell_length_b 19.990131
_cell_length_c 24.013827
_cell_angle_alpha 90.000000
_cell_angle_beta 108.571091
_cell_angle_gamma 90.000000
_cell_volume 2290.604872
_symmetry_space_group_name_H-M "C 2/M"
_symmetry_group_IT_number 12
_symmetry_cell_setting 'monoclinic'
loop_
_space_group_symop_operation_xyz
x,y,z
-x,y,-z
-x,-y,-z
x,-y,z
1/2+x,1/2+y,z
1/2-x,1/2+y,-z
1/2-x,1/2-y,-z
1/2+x,1/2-y,z
loop_
_atom_site_type_symbol
_atom_site_label
_atom_site_fract_x
_atom_site_fract_y
_atom_site_fract_z
Si Si1 0.028423 0.790306 0.563011
Si Si2 0.354201 0.101229 0.644663
Si Si3 0.220038 0.200828 0.807385
Si Si4 0.185164 0.500000 0.457409
Si Si5 0.520144 0.575962 0.276891
Si Si6 0.838092 0.704937 0.938846
O O1 0.216539 0.724578 0.563041
O O2 0.216585 0.828677 0.619443
O O3 0.000000 0.823578 0.500000
O O4 0.137411 0.071574 0.674525
O O5 0.660142 0.098468 0.691705
O O6 0.369488 0.061616 0.587683
O O7 0.474966 0.243710 0.798696
O O8 0.128518 0.135830 0.766772
O O9 0.300858 0.175386 0.875078
O O10 0.500000 0.500000 0.500000
O O11 0.000000 0.500000 0.500000
O O12 0.516916 0.500000 0.252479
O O13 0.538168 0.730628 0.940121
O O14 0.000000 0.668161 0.000000
#
# Coordination Sequence:
#
# PCOD9206435 Si02
#       6
#     8   8   8   4   8   8
#     4  10  22  39  58  82 109 135 167 216 279 341
#     4  12  24  41  60  81 108 144 184 223 280 341
#     4  10  21  36  58  88 116 153 201 239 279 336
#     4  12  24  40  62  82 102 130 179 234 275 324
#     4  12  24  41  58  80 121 153 188 233 286 343
#     4   8  14  27  49  79 114 147 186 239 286 322
#
# _framework density 19.208901999999998
#
# number of rings (size 3 to 8) (size 9 to 14) (size 15 to 20)
#    0.000    1.455    1.818    3.818    0.000    6.545 
#    0.000    0.000    0.000    0.545    0.000    0.000 
#    0.000   17.455    0.000    0.000    0.000    2.545 
#
# Total GULP energy -122676.002601 kJ/mol
# GULP energy per Si atom -5576.181936 kJ/mol
# Density = 1.916518 g / cm^3
# Si number density = 19.208902 Si / 1000 Ang^3
#
#
#
# Elastic Constant Matrix: (Units=GPa)
#
#
# Indices 1 2 3 4 5 6 
#
# 1 97.3585 5.2827 5.9180 0.0000 6.7030 0.0000
# 2 5.2827 68.7622 49.4700 0.0000 6.8486 0.0000
# 3 5.9180 49.4700 70.4635 0.0000 7.1541 0.0000
# 4 0.0000 0.0000 0.0000 35.3338 0.0000 7.0133
# 5 6.7030 6.8486 7.1541 0.0000 29.5483 0.0000
# 6 0.0000 0.0000 0.0000 7.0133 0.0000 15.9926
#
#
#
# Elastic Compliance Matrix: (Units=1/GPa)
#
#
# Indices 1 2 3 4 5 6 
#
# 1 0.010465 -0.000229 -0.000495 0.000000 -0.002201 0.000000
# 2 -0.000229 0.029490 -0.020500 0.000000 -0.001820 0.000000
# 3 -0.000495 -0.020500 0.028841 0.000000 -0.002119 0.000000
# 4 0.000000 0.000000 0.000000 0.031000 0.000000 -0.013594
# 5 -0.002201 -0.001820 -0.002119 0.000000 0.035277 0.000000
# 6 0.000000 0.000000 0.000000 -0.013594 0.000000 0.068491
#
#
# Mechanical properties :
#
#
# Convention : Reuss Voigt Hill
#
# Bulk Modulus (GPa) = 37.95204 39.76949 38.86076
# Shear Modulus (GPa) = 19.62368 27.90252 23.76310
#
# Velocity S-wave (km/s) = 3.19970 3.81541 3.52104
# Velocity P-wave (km/s) = 5.78370 6.33707 6.06670
#
# Compressibility (1/GPa) = 0.02634905
#
# Stress axis : x y z
#
# Youngs Moduli (GPa) = 95.55337 33.90958 34.67305
#
# Poissons Ratio (x) = 0.00776 0.01716
# Poissons Ratio (y) = 0.02186 0.71080
# Poissons Ratio (z) = 0.04729 0.69515
#
# Static dielectric constant tensor:
#      x y z
#    x 1.663240 0.000000 -0.004320 
#    y 0.000000 1.692320 0.000000 
#    z -0.004320 0.000000 1.718390 
# 
# From -- ./inp_files/331076.got.cif
#   From: 2010.05.17/outbox.cif.g08.bks.cpg/sg12_166_cif.got.tgz:331076.got - 2010.06.03 13:09:07.
