data_PCOD9206047
_publ_section_title
;
Structure prediction by ZEFSAII (Michael W. Deem and Ramdas Pophale) SiO2 
 PCOD9206047
Probable space group: C 2/M
;
_chemical_formula_sum "Si O2"
_cell_formula_units_Z 56
_cell_length_a 29.060954
_cell_length_b 7.901497
_cell_length_c 11.545902
_cell_angle_alpha 90.000000
_cell_angle_beta 72.617153
_cell_angle_gamma 90.000000
_cell_volume 2530.146126
_symmetry_space_group_name_H-M "C 2/M"
_symmetry_group_IT_number 12
_symmetry_cell_setting 'monoclinic'
loop_
_space_group_symop_operation_xyz
x,y,z
-x,y,-z
-x,-y,-z
x,-y,z
1/2+x,1/2+y,z
1/2-x,1/2+y,-z
1/2-x,1/2-y,-z
1/2+x,1/2-y,z
loop_
_atom_site_type_symbol
_atom_site_label
_atom_site_fract_x
_atom_site_fract_y
_atom_site_fract_z
Si Si1 0.220639 0.189072 0.133186
Si Si2 0.554705 0.791836 0.228010
Si Si3 0.846893 0.295392 0.431538
Si Si4 0.700939 0.307616 0.762654
Si Si5 0.449319 0.205059 0.244159
Si Si6 0.634112 0.195133 0.332186
Si Si7 0.099875 0.705140 0.949979
O O1 0.257960 0.195225 0.211524
O O2 0.174464 0.297474 0.202723
O O3 0.203193 0.000000 0.125555
O O4 0.250000 0.250000 0.000000
O O5 0.499580 0.734188 0.258509
O O6 0.585258 0.731061 0.315245
O O7 0.554754 0.000000 0.230909
O O8 0.582479 0.743039 0.089437
O O9 0.841685 0.500000 0.428841
O O10 0.810625 0.223867 0.363118
O O11 0.901066 0.249298 0.349657
O O12 0.843817 0.233613 0.565800
O O13 0.716780 0.500000 0.767663
O O14 0.651157 0.275453 0.869522
O O15 0.439160 0.254241 0.118769
O O16 0.451619 0.000000 0.243601
O O17 0.623238 0.000000 0.368788
O O18 0.103866 0.500000 0.945051
#
# Coordination Sequence:
#
# PCOD9206047 Si02
#       7
#     8   8   8   8   8   8   8
#     4  12  25  42  63  86 113 143 177 220 273 332
#     4   9  16  27  49  80 112 146 184 229 276 321
#     4   9  19  36  56  80 112 148 189 233 274 322
#     4  11  22  37  59  83 109 144 185 230 280 332
#     4   8  14  26  48  79 111 146 187 229 273 320
#     4  10  21  36  55  82 114 148 188 232 276 325
#     4   9  16  29  51  80 113 146 183 229 280 333
#
# _framework density 22.133109999999999
#
# number of rings (size 3 to 8) (size 9 to 14) (size 15 to 20)
#    0.000    2.286    0.000    4.714    0.000    4.571 
#    0.000    2.857    0.000   10.286    0.000    5.000 
#    0.000    0.000    0.000    0.000    0.000    0.000 
#
# Total GULP energy -156387.444447 kJ/mol
# GULP energy per Si atom -5585.265873 kJ/mol
# Density = 2.208273 g / cm^3
# Si number density = 22.133110 Si / 1000 Ang^3
#
#
#
# Elastic Constant Matrix: (Units=GPa)
#
#
# Indices 1 2 3 4 5 6 
#
# 1 92.1752 -8.4716 6.2232 0.0000 16.9834 0.0000
# 2 -8.4716 39.2901 0.5553 0.0000 4.8454 0.0000
# 3 6.2232 0.5553 67.7162 0.0000 18.4489 0.0000
# 4 0.0000 0.0000 0.0000 11.3701 0.0000 -0.2072
# 5 16.9834 4.8454 18.4489 0.0000 20.5076 0.0000
# 6 0.0000 0.0000 0.0000 -0.2072 0.0000 10.1998
#
#
#
# Elastic Compliance Matrix: (Units=1/GPa)
#
#
# Indices 1 2 3 4 5 6 
#
# 1 0.013902 0.004831 0.002822 0.000000 -0.015193 0.000000
# 2 0.004831 0.028091 0.002946 0.000000 -0.013288 0.000000
# 3 0.002822 0.002946 0.020281 0.000000 -0.021278 0.000000
# 4 0.000000 0.000000 0.000000 0.087982 0.000000 0.001788
# 5 -0.015193 -0.013288 -0.021278 0.000000 0.083626 0.000000
# 6 0.000000 0.000000 0.000000 0.001788 0.000000 0.098078
#
#
# Mechanical properties :
#
#
# Convention : Reuss Voigt Hill
#
# Bulk Modulus (GPa) = 11.98008 21.75503 16.86756
# Shear Modulus (GPa) = 14.76733 21.80714 18.28723
#
# Velocity S-wave (km/s) = 2.58583 3.14231 2.87756
# Velocity P-wave (km/s) = 3.78680 4.79750 4.32180
#
# Compressibility (1/GPa) = 0.08347186
#
# Stress axis : x y z
#
# Youngs Moduli (GPa) = 71.93346 35.59920 49.30683
#
# Poissons Ratio (x) = -0.17199 -0.13915
# Poissons Ratio (y) = -0.34753 -0.14526
# Poissons Ratio (z) = -0.20300 -0.10487
#
# Static dielectric constant tensor:
#      x y z
#    x 1.804950 0.000000 0.019770 
#    y 0.000000 1.835040 0.000000 
#    z 0.019770 0.000000 1.817350 
# 
# From -- ./inp_files/180712.got.cif
#   From: 2010.05.17/outbox.cif.g08.bks.cpg/sg12_91_cif.got.tgz:180712.got - 2010.06.03 13:09:07.
