data_PCOD9206899
_publ_section_title
;
Structure prediction by ZEFSAII (Michael W. Deem and Ramdas Pophale) SiO2 
 PCOD9206899
Probable space group: C 2/M
;
_chemical_formula_sum "Si O2"
_cell_formula_units_Z 52
_cell_length_a 8.370891
_cell_length_b 13.444736
_cell_length_c 20.629275
_cell_angle_alpha 90.000000
_cell_angle_beta 95.229699
_cell_angle_gamma 90.000000
_cell_volume 2312.045167
_symmetry_space_group_name_H-M "C 2/M"
_symmetry_group_IT_number 12
_symmetry_cell_setting 'monoclinic'
loop_
_space_group_symop_operation_xyz
x,y,z
-x,y,-z
-x,-y,-z
x,-y,z
1/2+x,1/2+y,z
1/2-x,1/2+y,-z
1/2-x,1/2-y,-z
1/2+x,1/2-y,z
loop_
_atom_site_type_symbol
_atom_site_label
_atom_site_fract_x
_atom_site_fract_y
_atom_site_fract_z
Si Si1 0.244524 0.314782 0.909846
Si Si2 0.353774 0.884255 0.599736
Si Si3 0.667886 0.380394 0.471264
Si Si4 0.017526 0.199639 0.182290
Si Si5 0.000000 0.317165 0.000000
Si Si6 0.217079 0.614277 0.655915
Si Si7 0.235770 0.804361 0.731917
O O1 0.355872 0.360679 0.857075
O O2 0.375323 0.252937 0.956188
O O3 0.125688 0.238932 0.868485
O O4 0.120802 0.370830 0.953582
O O5 0.298005 0.842965 0.528255
O O6 0.543578 0.878089 0.615549
O O7 0.272657 0.848451 0.663260
O O8 0.309205 0.000000 0.594598
O O9 0.500000 0.365800 0.500000
O O10 0.694987 0.500000 0.463565
O O11 0.665850 0.346063 0.396576
O O12 0.111628 0.296387 0.214856
O O13 0.920956 0.152110 0.238966
O O14 0.248143 0.500000 0.674561
O O15 0.211281 0.687214 0.715965
#
# Coordination Sequence:
#
# PCOD9206899 Si02
#       7
#     8   8   8   8   4   8   8
#     4   8  14  25  42  69 102 144 172 212 250 296
#     4  10  21  37  55  73  97 133 174 218 268 325
#     4   9  19  34  53  76  98 120 164 230 283 309
#     4   9  18  29  44  67 106 143 172 204 264 295
#     4   8  12  22  44  70 100 140 182 202 254 294
#     4  10  21  37  55  73  97 133 174 218 268 325
#     4  11  20  34  50  74 102 143 174 210 256 323
#
# _framework density 22.490908999999998
#
# number of rings (size 3 to 8) (size 9 to 14) (size 15 to 20)
#    0.000    2.615    1.538    0.462    2.154    2.462 
#    0.000    0.000    0.000    0.000    0.000    0.000 
#    0.000    0.000    0.000 1279.385    0.000    0.000 
#
# Total GULP energy -144811.962524 kJ/mol
# GULP energy per Si atom -5569.690866 kJ/mol
# Density = 2.243972 g / cm^3
# Si number density = 22.490909 Si / 1000 Ang^3
#
#
#
# Elastic Constant Matrix: (Units=GPa)
#
#
# Indices 1 2 3 4 5 6 
#
# 1 110.3184 6.6704 45.9733 0.0000 -36.4160 0.0000
# 2 6.6704 38.0782 16.0957 0.0000 0.2136 0.0000
# 3 45.9733 16.0957 102.2501 0.0000 -18.6730 0.0000
# 4 0.0000 0.0000 0.0000 -9.6144 0.0000 4.0634
# 5 -36.4160 0.2136 -18.6730 0.0000 65.8735 0.0000
# 6 0.0000 0.0000 0.0000 4.0634 0.0000 9.2216
#
#
#
# Elastic Compliance Matrix: (Units=1/GPa)
#
#
# Indices 1 2 3 4 5 6 
#
# 1 0.012977 -0.000311 -0.004720 0.000000 0.005837 0.000000
# 2 -0.000311 0.028268 -0.004596 0.000000 -0.001566 0.000000
# 3 -0.004720 -0.004596 0.012815 0.000000 0.001038 0.000000
# 4 0.000000 0.000000 0.000000 -0.087681 0.000000 0.038636
# 5 0.005837 -0.001566 0.001038 0.000000 0.018707 0.000000
# 6 0.000000 0.000000 0.000000 0.038636 0.000000 0.091416
#
#
# Mechanical properties :
#
#
# Convention : Reuss Voigt Hill
#
# Bulk Modulus (GPa) = 28.73028 43.12508 35.92768
# Shear Modulus (GPa) = 46.57313 25.22329 35.89821
#
# Velocity S-wave (km/s) = 4.55549 3.35250 3.99948
# Velocity P-wave (km/s) = 6.36175 5.84822 6.11038
#
# Compressibility (1/GPa) = 0.03480649
#
# Stress axis : x y z
#
# Youngs Moduli (GPa) = 77.05817 35.37600 78.03251
#
# Poissons Ratio (x) = 0.01100 0.36830
# Poissons Ratio (y) = 0.02396 0.35864
# Poissons Ratio (z) = 0.36370 0.16259
#
# Static dielectric constant tensor:
#      x y z
#    x 1.891720 0.000000 -0.022380 
#    y 0.000000 1.856370 0.000000 
#    z -0.022380 0.000000 1.915850 
# 
# From -- ./inp_files/299888.got.cif
#   From: 2010.05.17/outbox.cif.g08.bks.cpg/sg12_150_cif.got.tgz:299888.got - 2010.06.03 13:09:07.
