data_PCOD9206009
_publ_section_title
;
Structure prediction by ZEFSAII (Michael W. Deem and Ramdas Pophale) SiO2 
 PCOD9206009
Probable space group: C 2/M
;
_chemical_formula_sum "Si O2"
_cell_formula_units_Z 64
_cell_length_a 10.422461
_cell_length_b 7.876880
_cell_length_c 36.095001
_cell_angle_alpha 90.000000
_cell_angle_beta 89.785542
_cell_angle_gamma 90.000000
_cell_volume 2963.251575
_symmetry_space_group_name_H-M "C 2/M"
_symmetry_group_IT_number 12
_symmetry_cell_setting 'monoclinic'
loop_
_space_group_symop_operation_xyz
x,y,z
-x,y,-z
-x,-y,-z
x,-y,z
1/2+x,1/2+y,z
1/2-x,1/2+y,-z
1/2-x,1/2-y,-z
1/2+x,1/2-y,z
loop_
_atom_site_type_symbol
_atom_site_label
_atom_site_fract_x
_atom_site_fract_y
_atom_site_fract_z
Si Si1 0.899533 0.795255 0.106508
Si Si2 0.123784 0.795350 0.977469
Si Si3 0.428387 0.294224 0.352754
Si Si4 0.853303 0.202729 0.849192
Si Si5 0.668351 0.700306 0.726539
Si Si6 0.179237 0.297030 0.395311
Si Si7 0.580953 0.199741 0.233763
Si Si8 0.376649 0.795191 0.522464
O O1 0.875751 0.731661 0.064810
O O2 0.783889 0.746145 0.133558
O O3 0.034532 0.736046 0.123277
O O4 0.904134 0.000000 0.104980
O O5 0.115798 0.000000 0.975829
O O6 0.250000 0.750000 0.000000
O O7 0.000000 0.732428 0.000000
O O8 0.428965 0.500000 0.352314
O O9 0.386556 0.231632 0.312151
O O10 0.317629 0.234493 0.381273
O O11 0.568190 0.238446 0.365732
O O12 0.877082 0.276307 0.808566
O O13 0.863396 0.000000 0.845923
O O14 0.689886 0.500000 0.720926
O O15 0.556284 0.720643 0.756853
O O16 0.803847 0.771366 0.740694
O O17 0.191149 0.500000 0.398569
O O18 0.136741 0.229696 0.435498
O O19 0.567188 0.000000 0.241094
O O20 0.500000 0.730135 0.500000
O O21 0.250000 0.750000 0.500000
O O22 0.387514 0.000000 0.524379
#
# Coordination Sequence:
#
# PCOD9206009 Si02
#       8
#     8   8   8   8   8   8   8   8
#     4  10  22  39  58  83 116 151 188 233 282 332
#     4  10  21  38  59  84 115 150 189 233 281 333
#     4  10  21  37  57  81 109 144 185 227 274 330
#     4  11  23  39  60  85 114 149 189 232 278 331
#     4  10  22  39  57  81 113 145 182 228 275 328
#     4  10  21  37  56  81 113 146 184 231 279 329
#     4  11  23  39  60  85 114 148 185 228 279 331
#     4  10  21  36  55  81 112 146 186 231 278 330
#
# _framework density 21.597897
#
# number of rings (size 3 to 8) (size 9 to 14) (size 15 to 20)
#    0.000    1.750    0.000    3.750    0.000    9.500 
#    0.000    0.000    0.000    0.000    0.000    0.000 
#    0.000    0.000    0.000    0.000    0.000    0.000 
#
# Total GULP energy -178927.398660 kJ/mol
# GULP energy per Si atom -5591.481208 kJ/mol
# Density = 2.154874 g / cm^3
# Si number density = 21.597897 Si / 1000 Ang^3
#
#
#
# Elastic Constant Matrix: (Units=GPa)
#
#
# Indices 1 2 3 4 5 6 
#
# 1 74.4172 -9.4445 -26.5458 0.0000 1.7176 0.0000
# 2 -9.4445 18.6544 -3.9866 0.0000 0.3316 0.0000
# 3 -26.5458 -3.9866 56.2210 0.0000 1.4429 0.0000
# 4 0.0000 0.0000 0.0000 18.1044 0.0000 9.8004
# 5 1.7176 0.3316 1.4429 0.0000 43.8579 0.0000
# 6 0.0000 0.0000 0.0000 9.8004 0.0000 18.8305
#
#
#
# Elastic Compliance Matrix: (Units=1/GPa)
#
#
# Indices 1 2 3 4 5 6 
#
# 1 0.018269 0.011290 0.009455 0.000000 -0.001112 0.000000
# 2 0.011290 0.061421 0.009717 0.000000 -0.001226 0.000000
# 3 0.009455 0.009717 0.022971 0.000000 -0.001199 0.000000
# 4 0.000000 0.000000 0.000000 0.076901 0.000000 -0.040023
# 5 -0.001112 -0.001226 -0.001199 0.000000 0.022893 0.000000
# 6 0.000000 0.000000 0.000000 -0.040023 0.000000 0.073935
#
#
# Mechanical properties :
#
#
# Convention : Reuss Voigt Hill
#
# Bulk Modulus (GPa) = 6.11299 7.70432 6.90865
# Shear Modulus (GPa) = 18.51890 28.77651 23.64771
#
# Velocity S-wave (km/s) = 2.93138 3.65413 3.31253
# Velocity P-wave (km/s) = 3.78072 4.62369 4.22329
#
# Compressibility (1/GPa) = 0.16358615
#
# Stress axis : x y z
#
# Youngs Moduli (GPa) = 54.73743 16.28106 43.53275
#
# Poissons Ratio (x) = -0.18381 -0.41161
# Poissons Ratio (y) = -0.61797 -0.42303
# Poissons Ratio (z) = -0.51755 -0.15821
#
# Static dielectric constant tensor:
#      x y z
#    x 1.731780 0.000000 -0.003240 
#    y 0.000000 1.795060 0.000000 
#    z -0.003240 0.000000 1.781140 
# 
# From -- ./inp_files/373614.got.cif
#   From: 2010.05.17/outbox.cif.g08.bks.cpg/sg12_187_cif.got.tgz:373614.got - 2010.06.03 13:09:07.
