data_PCOD9206603
_publ_section_title
;
Structure prediction by ZEFSAII (Michael W. Deem and Ramdas Pophale) SiO2 
 PCOD9206603
Probable space group: C 2/M
;
_chemical_formula_sum "Si O2"
_cell_formula_units_Z 56
_cell_length_a 26.939214
_cell_length_b 18.163241
_cell_length_c 9.749926
_cell_angle_alpha 90.000000
_cell_angle_beta 138.635626
_cell_angle_gamma 90.000000
_cell_volume 3152.676484
_symmetry_space_group_name_H-M "C 2/M"
_symmetry_group_IT_number 12
_symmetry_cell_setting 'monoclinic'
loop_
_space_group_symop_operation_xyz
x,y,z
-x,y,-z
-x,-y,-z
x,-y,z
1/2+x,1/2+y,z
1/2-x,1/2+y,-z
1/2-x,1/2-y,-z
1/2+x,1/2-y,z
loop_
_atom_site_type_symbol
_atom_site_label
_atom_site_fract_x
_atom_site_fract_y
_atom_site_fract_z
Si Si1 0.948515 0.141476 0.776516
Si Si2 0.948370 0.279564 0.094282
Si Si3 0.466677 0.085706 0.585218
Si Si4 0.575441 0.420996 0.566983
Si Si5 0.181895 0.673884 0.704658
Si Si6 0.664809 0.750542 0.376244
Si Si7 0.344353 0.707998 0.111654
O O1 0.941167 0.093770 0.626110
O O2 0.869549 0.168664 0.674801
O O3 0.991013 0.217848 0.823693
O O4 0.000000 0.106116 0.000000
O O5 0.900831 0.240864 0.116684
O O6 0.988697 0.353853 0.230288
O O7 0.890390 0.289844 0.847961
O O8 0.500000 0.093217 0.500000
O O9 0.378277 0.108195 0.404142
O O10 0.476196 0.000000 0.646467
O O11 0.500000 0.422199 0.500000
O O12 0.613859 0.500000 0.662970
O O13 0.621211 0.353860 0.720804
O O14 0.162611 0.712665 0.521007
O O15 0.171132 0.725133 0.816156
O O16 0.272377 0.669507 0.891824
O O17 0.750000 0.750000 0.500000
#
# Coordination Sequence:
#
# PCOD9206603 Si02
#       7
#     8   8   8   8   8   8   8
#     4  10  21  36  60  84 112 155 191 240 290 344
#     4  11  20  36  62  89 115 148 198 251 291 347
#     4  11  23  39  61  89 123 159 199 247 300 360
#     4  11  22  36  58  88 119 149 188 238 297 357
#     4  11  22  37  61  88 113 153 200 242 297 346
#     4  11  21  35  58  90 116 147 200 249 290 339
#     4  11  21  36  62  88 114 150 194 253 295 343
#
# _framework density 17.762685999999999
#
# number of rings (size 3 to 8) (size 9 to 14) (size 15 to 20)
#    0.000    1.143    7.143    0.000    0.000    0.857 
#    0.000    1.429    0.000    0.857    0.000    0.000 
#    0.000    0.000    0.000    0.000    0.000    0.000 
#
# Total GULP energy -156062.050965 kJ/mol
# GULP energy per Si atom -5573.644677 kJ/mol
# Density = 1.772226 g / cm^3
# Si number density = 17.762686 Si / 1000 Ang^3
#
#
#
# Elastic Constant Matrix: (Units=GPa)
#
#
# Indices 1 2 3 4 5 6 
#
# 1 78.4793 -1.2990 14.6691 0.0000 5.8151 0.0000
# 2 -1.2990 44.7549 13.0246 0.0000 7.9515 0.0000
# 3 14.6691 13.0246 82.8693 0.0000 -5.6883 0.0000
# 4 0.0000 0.0000 0.0000 -21.1948 0.0000 52.3294
# 5 5.8151 7.9515 -5.6883 0.0000 34.6513 0.0000
# 6 0.0000 0.0000 0.0000 52.3294 0.0000 -157.6945
#
#
#
# Elastic Compliance Matrix: (Units=1/GPa)
#
#
# Indices 1 2 3 4 5 6 
#
# 1 0.013548 0.001798 -0.002898 0.000000 -0.003162 0.000000
# 2 0.001798 0.024976 -0.004711 0.000000 -0.006807 0.000000
# 3 -0.002898 -0.004711 0.013581 0.000000 0.003797 0.000000
# 4 0.000000 0.000000 0.000000 -0.261112 0.000000 -0.086647
# 5 -0.003162 -0.006807 0.003797 0.000000 0.031575 0.000000
# 6 0.000000 0.000000 0.000000 -0.086647 0.000000 -0.035094
#
#
# Mechanical properties :
#
#
# Convention : Reuss Voigt Hill
#
# Bulk Modulus (GPa) = 24.70090 28.76586 26.73338
# Shear Modulus (GPa) = -26.67951 -16.86701 -21.77326
#
# Velocity S-wave (km/s) = -3.87977 -3.08486 -3.50492
# Velocity P-wave (km/s) = 2.47666 1.88181 1.13856
#
# Compressibility (1/GPa) = 0.04048435
#
# Stress axis : x y z
#
# Youngs Moduli (GPa) = 73.81205 40.03770 73.63103
#
# Poissons Ratio (x) = -0.07200 0.21337
# Poissons Ratio (y) = -0.13274 0.34688
# Poissons Ratio (z) = 0.21390 0.18862
#
# Static dielectric constant tensor:
#      x y z
#    x 1.597560 0.000000 0.039130 
#    y 0.000000 1.589700 0.000000 
#    z 0.039130 0.000000 1.630770 
# 
# From -- ./inp_files/106029.got.cif
#   From: 2010.05.17/outbox.cif.g08.bks.cpg/sg12_54_cif.got.tgz:106029.got - 2010.06.03 13:09:07.
