data_PCOD9206260
_publ_section_title
;
Structure prediction by ZEFSAII (Michael W. Deem and Ramdas Pophale) SiO2 
 PCOD9206260
Probable space group: C 2/M
;
_chemical_formula_sum "Si O2"
_cell_formula_units_Z 56
_cell_length_a 21.653890
_cell_length_b 14.772012
_cell_length_c 9.580978
_cell_angle_alpha 90.000000
_cell_angle_beta 60.784080
_cell_angle_gamma 90.000000
_cell_volume 2674.813063
_symmetry_space_group_name_H-M "C 2/M"
_symmetry_group_IT_number 12
_symmetry_cell_setting 'monoclinic'
loop_
_space_group_symop_operation_xyz
x,y,z
-x,y,-z
-x,-y,-z
x,-y,z
1/2+x,1/2+y,z
1/2-x,1/2+y,-z
1/2-x,1/2-y,-z
1/2+x,1/2-y,z
loop_
_atom_site_type_symbol
_atom_site_label
_atom_site_fract_x
_atom_site_fract_y
_atom_site_fract_z
Si Si1 0.277773 0.355290 0.317057
Si Si2 0.913642 0.392021 0.694554
Si Si3 0.267325 0.659238 0.730897
Si Si4 0.748517 0.897556 0.041270
Si Si5 0.154997 0.596153 0.665512
Si Si6 0.397242 0.395883 0.405562
Si Si7 0.955003 0.294164 0.358987
O O1 0.250182 0.252724 0.328830
O O2 0.284588 0.388860 0.151759
O O3 0.215493 0.399665 0.478496
O O4 0.349763 0.373601 0.320934
O O5 0.928521 0.500000 0.662393
O O6 0.834164 0.383678 0.835030
O O7 0.923120 0.339248 0.536662
O O8 0.969026 0.341527 0.734093
O O9 0.198523 0.602591 0.760494
O O10 0.338565 0.616900 0.591682
O O11 0.272721 0.666778 0.889979
O O12 0.759375 0.000000 0.977506
O O13 0.117519 0.500000 0.694424
O O14 0.098538 0.673843 0.701785
O O15 0.422205 0.500000 0.374558
O O16 0.453156 0.314617 0.365533
#
# Coordination Sequence:
#
# PCOD9206260 Si02
#       7
#     8   8   8   8   8   8   8
#     4  11  19  34  54  80 113 151 186 221 271 337
#     4  10  21  36  57  84 113 147 188 232 275 332
#     4  11  20  34  51  83 119 147 172 225 284 337
#     4  11  21  34  52  82 116 147 181 221 280 341
#     4  11  18  31  54  79 109 143 179 224 272 321
#     4  11  21  36  57  85 115 145 185 231 277 330
#     4  11  19  35  56  81 110 141 194 231 269 317
#
# _framework density 20.936042
#
# number of rings (size 3 to 8) (size 9 to 14) (size 15 to 20)
#    0.000    1.143    4.286    6.429    0.000    0.000 
#    0.000    2.143    0.000    2.571    0.000    4.000 
#    0.000    0.000    0.000    0.000    0.000    0.000 
#
# Total GULP energy -156331.363804 kJ/mol
# GULP energy per Si atom -5583.262993 kJ/mol
# Density = 2.088839 g / cm^3
# Si number density = 20.936042 Si / 1000 Ang^3
#
#
#
# Elastic Constant Matrix: (Units=GPa)
#
#
# Indices 1 2 3 4 5 6 
#
# 1 51.6603 18.2092 15.4966 0.0000 12.0312 0.0000
# 2 18.2092 166.3944 3.9238 0.0000 0.5141 0.0000
# 3 15.4966 3.9238 73.6148 0.0000 25.9204 0.0000
# 4 0.0000 0.0000 0.0000 16.4268 0.0000 4.1854
# 5 12.0312 0.5141 25.9204 0.0000 19.4427 0.0000
# 6 0.0000 0.0000 0.0000 4.1854 0.0000 19.4445
#
#
#
# Elastic Compliance Matrix: (Units=1/GPa)
#
#
# Indices 1 2 3 4 5 6 
#
# 1 0.023657 -0.002554 0.000541 0.000000 -0.015292 0.000000
# 2 -0.002554 0.006296 -0.000558 0.000000 0.002157 0.000000
# 3 0.000541 -0.000558 0.025656 0.000000 -0.034524 0.000000
# 4 0.000000 0.000000 0.000000 0.064408 0.000000 -0.013864
# 5 -0.015292 0.002157 -0.034524 0.000000 0.106866 0.000000
# 6 0.000000 0.000000 0.000000 -0.013864 0.000000 0.054413
#
#
# Mechanical properties :
#
#
# Convention : Reuss Voigt Hill
#
# Bulk Modulus (GPa) = 19.81501 40.76985 30.29243
# Shear Modulus (GPa) = 16.48747 27.99880 22.24314
#
# Velocity S-wave (km/s) = 2.80932 3.66095 3.26303
# Velocity P-wave (km/s) = 4.47304 6.11440 5.35696
#
# Compressibility (1/GPa) = 0.05046680
#
# Stress axis : x y z
#
# Youngs Moduli (GPa) = 42.27115 158.83527 38.97655
#
# Poissons Ratio (x) = 0.40572 -0.02108
# Poissons Ratio (y) = 0.10798 0.02173
# Poissons Ratio (z) = -0.02286 0.08855
#
# Static dielectric constant tensor:
#      x y z
#    x 1.759930 0.000000 0.038220 
#    y 0.000000 1.853840 0.000000 
#    z 0.038220 0.000000 1.735310 
# 
# From -- ./inp_files/96303.got.cif
#   From: 2010.05.17/outbox.cif.g08.bks.cpg/sg12_49_cif.got.tgz:96303.got - 2010.06.03 13:09:07.
