data_PCOD9206859
_publ_section_title
;
Structure prediction by ZEFSAII (Michael W. Deem and Ramdas Pophale) SiO2 
 PCOD9206859
Probable space group: C 2/M
;
_chemical_formula_sum "Si O2"
_cell_formula_units_Z 48
_cell_length_a 5.169778
_cell_length_b 21.524416
_cell_length_c 22.321256
_cell_angle_alpha 90.000000
_cell_angle_beta 102.928387
_cell_angle_gamma 90.000000
_cell_volume 2420.866241
_symmetry_space_group_name_H-M "C 2/M"
_symmetry_group_IT_number 12
_symmetry_cell_setting 'monoclinic'
loop_
_space_group_symop_operation_xyz
x,y,z
-x,y,-z
-x,-y,-z
x,-y,z
1/2+x,1/2+y,z
1/2-x,1/2+y,-z
1/2-x,1/2-y,-z
1/2+x,1/2-y,z
loop_
_atom_site_type_symbol
_atom_site_label
_atom_site_fract_x
_atom_site_fract_y
_atom_site_fract_z
Si Si1 0.097677 0.074194 0.639580
Si Si2 0.108033 0.882586 0.143529
Si Si3 0.350581 0.283998 0.938762
Si Si4 0.071911 0.208535 0.574190
Si Si5 0.822327 0.571444 0.277453
Si Si6 0.541508 0.073136 0.071128
O O1 0.089131 0.136290 0.597290
O O2 0.370765 0.080603 0.690759
O O3 0.850412 0.080458 0.671762
O O4 0.094652 0.000000 0.616788
O O5 0.137209 0.812082 0.125479
O O6 0.211655 0.892050 0.215239
O O7 0.293034 0.915018 0.102426
O O8 0.804173 0.900172 0.116241
O O9 0.551899 0.226532 0.942690
O O10 0.500000 0.320991 0.000000
O O11 0.341725 0.249388 0.593050
O O12 0.000000 0.205360 0.500000
O O13 0.787456 0.500000 0.257216
O O14 0.585290 0.000000 0.069862
O O15 0.500000 0.094153 0.000000
#
# Coordination Sequence:
#
# PCOD9206859 Si02
#       6
#     8   8   8   8   8   8
#     4  10  21  39  61  88 122 163 209 248 292 353
#     4  12  22  37  57  77 105 143 184 228 289 350
#     4  10  21  37  54  72  97 131 175 228 283 341
#     4  10  21  39  64  95 130 165 202 248 303 353
#     4  10  21  37  58  84 115 152 193 239 290 348
#     4  11  22  34  52  80 107 132 171 225 285 350
#
# _framework density 19.827615000000002
#
# number of rings (size 3 to 8) (size 9 to 14) (size 15 to 20)
#    0.000    1.500    0.000    6.000    0.000    4.333 
#    0.000    5.000    0.000    6.000    0.000    0.000 
#    0.000    0.000    0.000    0.000    0.000    0.000 
#
# Total GULP energy -133676.823544 kJ/mol
# GULP energy per Si atom -5569.867648 kJ/mol
# Density = 1.978249 g / cm^3
# Si number density = 19.827615 Si / 1000 Ang^3
#
#
#
# Elastic Constant Matrix: (Units=GPa)
#
#
# Indices 1 2 3 4 5 6 
#
# 1 65.3306 19.7282 -0.9464 0.0000 10.3839 0.0000
# 2 19.7282 107.8045 36.9425 0.0000 -2.0105 0.0000
# 3 -0.9464 36.9425 48.2991 0.0000 0.5722 0.0000
# 4 0.0000 0.0000 0.0000 20.9252 0.0000 -11.1891
# 5 10.3839 -2.0105 0.5722 0.0000 16.8331 0.0000
# 6 0.0000 0.0000 0.0000 -11.1891 0.0000 23.1599
#
#
#
# Elastic Compliance Matrix: (Units=1/GPa)
#
#
# Indices 1 2 3 4 5 6 
#
# 1 0.018940 -0.005253 0.004537 0.000000 -0.012465 0.000000
# 2 -0.005253 0.014085 -0.010938 0.000000 0.005295 0.000000
# 3 0.004537 -0.010938 0.029220 0.000000 -0.005098 0.000000
# 4 0.000000 0.000000 0.000000 0.064435 0.000000 0.031130
# 5 -0.012465 0.005295 -0.005098 0.000000 0.067902 0.000000
# 6 0.000000 0.000000 0.000000 0.031130 0.000000 0.058218
#
#
# Mechanical properties :
#
#
# Convention : Reuss Voigt Hill
#
# Bulk Modulus (GPa) = 25.68383 36.98698 31.33541
# Shear Modulus (GPa) = 17.29580 23.23097 20.26338
#
# Velocity S-wave (km/s) = 2.95669 3.42665 3.20031
# Velocity P-wave (km/s) = 4.96364 5.86094 5.43085
#
# Compressibility (1/GPa) = 0.03893500
#
# Stress axis : x y z
#
# Youngs Moduli (GPa) = 52.79805 70.99986 34.22297
#
# Poissons Ratio (x) = 0.37297 -0.15526
# Poissons Ratio (y) = 0.27736 0.37435
# Poissons Ratio (z) = -0.23953 0.77663
#
# Static dielectric constant tensor:
#      x y z
#    x 1.735980 0.000000 -0.001090 
#    y 0.000000 1.801760 0.000000 
#    z -0.001090 0.000000 1.692190 
# 
# From -- ./inp_files/297745.got.cif
#   From: 2010.05.17/outbox.cif.g08.bks.cpg/sg12_149_cif.got.tgz:297745.got - 2010.06.03 13:09:07.
