data_PCOD9206525
_publ_section_title
;
Structure prediction by ZEFSAII (Michael W. Deem and Ramdas Pophale) SiO2 
 PCOD9206525
Probable space group: C 2/M
;
_chemical_formula_sum "Si O2"
_cell_formula_units_Z 56
_cell_length_a 22.706727
_cell_length_b 9.058140
_cell_length_c 14.494521
_cell_angle_alpha 90.000000
_cell_angle_beta 74.105128
_cell_angle_gamma 90.000000
_cell_volume 2867.258020
_symmetry_space_group_name_H-M "C 2/M"
_symmetry_group_IT_number 12
_symmetry_cell_setting 'monoclinic'
loop_
_space_group_symop_operation_xyz
x,y,z
-x,y,-z
-x,-y,-z
x,-y,z
1/2+x,1/2+y,z
1/2-x,1/2+y,-z
1/2-x,1/2-y,-z
1/2+x,1/2-y,z
loop_
_atom_site_type_symbol
_atom_site_label
_atom_site_fract_x
_atom_site_fract_y
_atom_site_fract_z
Si Si1 0.534093 0.174616 0.797255
Si Si2 0.367653 0.676197 0.608141
Si Si3 0.367501 0.674150 0.125743
Si Si4 0.873810 0.325481 0.412024
Si Si5 0.185458 0.824629 0.049856
Si Si6 0.904110 0.322855 0.773542
Si Si7 0.724918 0.823155 0.694015
O O1 0.569692 0.259117 0.862204
O O2 0.573487 0.197102 0.686840
O O3 0.464890 0.217941 0.804843
O O4 0.535928 0.000000 0.817025
O O5 0.374243 0.500000 0.612545
O O6 0.383120 0.732105 0.499525
O O7 0.406452 0.757628 0.669919
O O8 0.296043 0.714812 0.656863
O O9 0.366356 0.500000 0.143561
O O10 0.356425 0.699219 0.022613
O O11 0.311984 0.747261 0.207332
O O12 0.871881 0.500000 0.435730
O O13 0.811172 0.285560 0.384901
O O14 0.192619 0.000000 0.062041
O O15 0.250000 0.750000 0.000000
O O16 0.153558 0.748582 0.150290
O O17 0.899527 0.500000 0.772626
O O18 0.719310 0.000000 0.708315
#
# Coordination Sequence:
#
# PCOD9206525 Si02
#       7
#     8   8   8   8   8   8   8
#     4   9  21  41  61  82 111 149 193 233 278 337
#     4  11  22  35  54  83 116 151 190 236 287 337
#     4  10  21  36  59  87 114 145 183 232 285 331
#     4   9  18  35  57  80 109 147 190 236 281 335
#     4  11  24  41  61  89 120 150 185 228 280 337
#     4  11  24  41  60  82 111 151 194 236 280 333
#     4   9  19  35  55  81 115 151 187 228 279 339
#
# _framework density 19.530854000000001
#
# number of rings (size 3 to 8) (size 9 to 14) (size 15 to 20)
#    0.000    2.000    0.000    3.857    0.000   10.286 
#    0.000    5.714    0.000    0.000    0.000    0.000 
#    0.000    0.000    0.000    0.000    0.000    0.000 
#
# Total GULP energy -156485.289029 kJ/mol
# GULP energy per Si atom -5588.760322 kJ/mol
# Density = 1.948640 g / cm^3
# Si number density = 19.530854 Si / 1000 Ang^3
#
#
#
# Elastic Constant Matrix: (Units=GPa)
#
#
# Indices 1 2 3 4 5 6 
#
# 1 73.2924 31.6290 5.7665 0.0000 5.8182 0.0000
# 2 31.6290 48.1905 28.9753 0.0000 15.3171 0.0000
# 3 5.7665 28.9753 38.6792 0.0000 18.7278 0.0000
# 4 0.0000 0.0000 0.0000 31.5429 0.0000 5.5358
# 5 5.8182 15.3171 18.7278 0.0000 20.3833 0.0000
# 6 0.0000 0.0000 0.0000 5.5358 0.0000 28.3723
#
#
#
# Elastic Compliance Matrix: (Units=1/GPa)
#
#
# Indices 1 2 3 4 5 6 
#
# 1 0.022719 -0.023259 0.015697 0.000000 -0.003429 0.000000
# 2 -0.023259 0.061781 -0.042421 0.000000 -0.000811 0.000000
# 3 0.015697 -0.042421 0.075704 0.000000 -0.042159 0.000000
# 4 0.000000 0.000000 0.000000 0.032827 0.000000 -0.006405
# 5 -0.003429 -0.000811 -0.042159 0.000000 0.089382 0.000000
# 6 0.000000 0.000000 0.000000 -0.006405 0.000000 0.036495
#
#
# Mechanical properties :
#
#
# Convention : Reuss Voigt Hill
#
# Bulk Modulus (GPa) = 16.60100 32.54487 24.57294
# Shear Modulus (GPa) = 11.39074 22.31247 16.85160
#
# Velocity S-wave (km/s) = 2.41761 3.38364 2.94057
# Velocity P-wave (km/s) = 4.03874 5.65375 4.91306
#
# Compressibility (1/GPa) = 0.06023733
#
# Stress axis : x y z
#
# Youngs Moduli (GPa) = 44.01697 16.18631 13.20929
#
# Poissons Ratio (x) = 0.37648 -0.20735
# Poissons Ratio (y) = 1.02380 0.56035
# Poissons Ratio (z) = -0.69093 0.68664
#
# Static dielectric constant tensor:
#      x y z
#    x 1.693870 0.000000 0.007190 
#    y 0.000000 1.647380 0.000000 
#    z 0.007190 0.000000 1.662830 
# 
# From -- ./inp_files/237461.got.cif
#   From: 2010.05.17/outbox.cif.g08.bks.cpg/sg12_119_cif.got.tgz:237461.got - 2010.06.03 13:09:07.
