data_PCOD9206751
_publ_section_title
;
Structure prediction by ZEFSAII (Michael W. Deem and Ramdas Pophale) SiO2 
 PCOD9206751
Probable space group: C 2/M
;
_chemical_formula_sum "Si O2"
_cell_formula_units_Z 46
_cell_length_a 22.804103
_cell_length_b 13.053765
_cell_length_c 20.585557
_cell_angle_alpha 90.000000
_cell_angle_beta 19.345318
_cell_angle_gamma 90.000000
_cell_volume 2029.931748
_symmetry_space_group_name_H-M "C 2/M"
_symmetry_group_IT_number 12
_symmetry_cell_setting 'monoclinic'
loop_
_space_group_symop_operation_xyz
x,y,z
-x,y,-z
-x,-y,-z
x,-y,z
1/2+x,1/2+y,z
1/2-x,1/2+y,-z
1/2-x,1/2-y,-z
1/2+x,1/2-y,z
loop_
_atom_site_type_symbol
_atom_site_label
_atom_site_fract_x
_atom_site_fract_y
_atom_site_fract_z
Si Si1 0.456923 0.610550 0.816636
Si Si2 0.446940 0.811638 0.228541
Si Si3 0.074394 0.171220 0.561235
Si Si4 0.875473 0.212761 0.075237
Si Si5 0.456257 0.113226 0.732540
Si Si6 0.500000 0.709557 0.500000
Si Si7 0.500000 0.500000 0.000000
O O1 0.526326 0.500000 0.761738
O O2 0.585805 0.698283 0.707020
O O3 0.450738 0.622185 0.745289
O O4 0.256783 0.622979 0.050828
O O5 0.273735 0.853512 0.374637
O O6 0.505776 0.874399 0.230038
O O7 0.590343 0.780575 0.024402
O O8 0.032822 0.145769 0.531037
O O9 0.045790 0.294160 0.600206
O O10 0.673122 0.221586 0.307413
O O11 0.938737 0.093686 0.012394
O O12 0.000000 0.262679 0.000000
O O13 0.510016 0.000000 0.654195
#
# Coordination Sequence:
#
# PCOD9206751 Si02
#       7
#     8   8   8   8   8   4   2
#     4  10  21  36  62  87 118 153 200 250 299 356
#     4  11  21  38  62  86 124 152 199 251 300 354
#     4  11  22  38  58  89 117 163 198 244 302 354
#     4  10  21  39  56  86 118 156 196 239 292 352
#     4  10  21  39  60  89 116 154 201 250 299 361
#     4  12  22  41  63  80 124 166 196 244 296 358
#     4   8  20  38  52  84 124 148 200 236 288 356
#
# _framework density 22.66086
#
# number of rings (size 3 to 8) (size 9 to 14) (size 15 to 20)
#    0.522    1.043    1.739    6.261    1.217    3.130 
#    6.261    0.435    0.000    1.565    0.000    0.000 
#    0.000    0.000    0.000    0.000    0.000    0.000 
#
# Total GULP energy -128142.344128 kJ/mol
# GULP energy per Si atom -5571.406266 kJ/mol
# Density = 2.260928 g / cm^3
# Si number density = 22.660860 Si / 1000 Ang^3
#
#
#
# Elastic Constant Matrix: (Units=GPa)
#
#
# Indices 1 2 3 4 5 6 
#
# 1 106.1486 -19.9512 6.8997 0.0001 -3.2240 0.0001
# 2 -19.9512 36.9620 -10.2813 0.0002 -9.9383 -0.0006
# 3 6.8997 -10.2813 68.8955 0.0008 -3.4881 -0.0006
# 4 0.0001 0.0002 0.0008 9.9021 -0.0003 -6.2831
# 5 -3.2240 -9.9383 -3.4881 -0.0003 36.7067 0.0002
# 6 0.0001 -0.0006 -0.0006 -6.2831 0.0002 6.3911
#
#
#
# Elastic Compliance Matrix: (Units=1/GPa)
#
#
# Indices 1 2 3 4 5 6 
#
# 1 0.010728 0.006531 0.000038 0.000000 0.002714 0.000000
# 2 0.006531 0.034809 0.005071 0.000003 0.010480 0.000006
# 3 0.000038 0.005071 0.015412 -0.000001 0.002841 0.000001
# 4 0.000000 0.000003 -0.000001 0.268442 0.000002 0.263904
# 5 0.002714 0.010480 0.002841 0.000002 0.030589 0.000002
# 6 0.000000 0.000006 0.000001 0.263904 0.000002 0.415910
#
#
# Mechanical properties :
#
#
# Convention : Reuss Voigt Hill
#
# Bulk Modulus (GPa) = 11.87254 18.37117 15.12186
# Shear Modulus (GPa) = 6.40463 26.28924 16.34693
#
# Velocity S-wave (km/s) = 1.68298 3.40974 2.68875
# Velocity P-wave (km/s) = 3.00453 4.86070 4.04064
#
# Compressibility (1/GPa) = 0.08422795
#
# Stress axis : x y z
#
# Youngs Moduli (GPa) = 93.21139 28.72858 64.88641
#
# Poissons Ratio (x) = -0.18763 -0.00244
# Poissons Ratio (y) = -0.60878 -0.32904
# Poissons Ratio (z) = -0.00351 -0.14568
#
# Static dielectric constant tensor:
#      x y z
#    x 1.914940 0.000000 0.031630 
#    y 0.000000 1.817780 0.000000 
#    z 0.031630 0.000000 1.851400 
# 
# From -- ./inp_files/325659.got.cif
#   From: 2010.05.17/outbox.cif.g08.bks.cpg/sg12_163_cif.got.tgz:325659.got - 2010.06.03 13:09:07.
