data_PCOD9206746
_publ_section_title
;
Structure prediction by ZEFSAII (Michael W. Deem and Ramdas Pophale) SiO2 
 PCOD9206746
Probable space group: C 2/M
;
_chemical_formula_sum "Si O2"
_cell_formula_units_Z 42
_cell_length_a 17.224717
_cell_length_b 21.433566
_cell_length_c 9.566835
_cell_angle_alpha 90.000000
_cell_angle_beta 149.904044
_cell_angle_gamma 90.000000
_cell_volume 1771.096250
_symmetry_space_group_name_H-M "C 2/M"
_symmetry_group_IT_number 12
_symmetry_cell_setting 'monoclinic'
loop_
_space_group_symop_operation_xyz
x,y,z
-x,y,-z
-x,-y,-z
x,-y,z
1/2+x,1/2+y,z
1/2-x,1/2+y,-z
1/2-x,1/2-y,-z
1/2+x,1/2-y,z
loop_
_atom_site_type_symbol
_atom_site_label
_atom_site_fract_x
_atom_site_fract_y
_atom_site_fract_z
Si Si1 0.299639 0.106944 0.265794
Si Si2 0.349678 0.254006 0.347983
Si Si3 0.999213 0.261824 0.848114
Si Si4 0.470205 0.428868 0.786732
Si Si5 0.870906 0.600019 0.694591
Si Si6 0.500000 0.000000 0.500000
O O1 0.352625 0.178396 0.339565
O O2 0.346961 0.079004 0.494692
O O3 0.371728 0.056349 0.275402
O O4 0.115488 0.109337 0.957705
O O5 0.500000 0.278569 0.500000
O O6 0.386844 0.270868 0.565253
O O7 0.169741 0.271072 0.045580
O O8 0.923395 0.328863 0.756761
O O9 0.000000 0.228674 0.000000
O O10 0.484033 0.500000 0.758557
O O11 0.295616 0.407116 0.493871
O O12 0.500000 0.429323 0.000000
O O13 0.000000 0.571728 0.000000
#
# Coordination Sequence:
#
# PCOD9206746 Si02
#       6
#     8   8   8   8   8   2
#     4  10  21  36  62  85 113 151 200 241 287 353
#     4  11  22  38  59  91 120 158 200 246 301 357
#     4  10  22  39  61  86 123 160 199 246 298 356
#     4   9  17  32  54  82 106 141 191 244 284 334
#     4   9  20  37  58  87 118 148 190 243 302 345
#     4  12  20  40  60  82 114 156 202 236 286 340
#
# _framework density 23.714127000000001
#
# number of rings (size 3 to 8) (size 9 to 14) (size 15 to 20)
#    0.000    2.095    1.905    1.143    1.333    7.238 
#    0.000    0.000    0.000    1.143    0.000    0.000 
#    0.000    0.000    0.000    0.000    0.000    0.000 
#
# Total GULP energy -116944.352641 kJ/mol
# GULP energy per Si atom -5568.778697 kJ/mol
# Density = 2.366015 g / cm^3
# Si number density = 23.714127 Si / 1000 Ang^3
#
#
#
# Elastic Constant Matrix: (Units=GPa)
#
#
# Indices 1 2 3 4 5 6 
#
# 1 36.8473 13.8218 24.7411 0.0000 25.9575 0.0000
# 2 13.8218 69.4290 17.6157 0.0000 4.7838 0.0000
# 3 24.7411 17.6157 175.4008 0.0000 32.8431 0.0000
# 4 0.0000 0.0000 0.0000 25.2305 0.0000 18.1202
# 5 25.9575 4.7838 32.8431 0.0000 47.3909 0.0000
# 6 0.0000 0.0000 0.0000 18.1202 0.0000 14.1555
#
#
#
# Elastic Compliance Matrix: (Units=1/GPa)
#
#
# Indices 1 2 3 4 5 6 
#
# 1 0.048359 -0.007560 -0.001431 0.000000 -0.024733 0.000000
# 2 -0.007560 0.015973 -0.001162 0.000000 0.003334 0.000000
# 3 -0.001431 -0.001162 0.006724 0.000000 -0.003759 0.000000
# 4 0.000000 0.000000 0.000000 0.491366 0.000000 -0.628989
# 5 -0.024733 0.003334 -0.003759 0.000000 0.036916 0.000000
# 6 0.000000 0.000000 0.000000 -0.628989 0.000000 0.875803
#
#
# Mechanical properties :
#
#
# Convention : Reuss Voigt Hill
#
# Bulk Modulus (GPa) = 19.70443 43.78162 31.74302
# Shear Modulus (GPa) = 3.30608 32.38859 17.84734
#
# Velocity S-wave (km/s) = 1.18202 3.69967 2.74634
# Velocity P-wave (km/s) = 3.19219 6.06238 4.84471
#
# Compressibility (1/GPa) = 0.05075002
#
# Stress axis : x y z
#
# Youngs Moduli (GPa) = 20.67862 62.60414 148.73111
#
# Poissons Ratio (x) = 0.47329 0.21281
# Poissons Ratio (y) = 0.15633 0.17284
# Poissons Ratio (z) = 0.02959 0.07275
#
# Static dielectric constant tensor:
#      x y z
#    x 2.054530 0.000000 -0.023380 
#    y 0.000000 1.887650 0.000000 
#    z -0.023380 0.000000 1.919830 
# 
# From -- ./inp_files/170641.got.cif
#   From: 2010.05.17/outbox.cif.g08.bks.cpg/sg12_86_cif.got.tgz:170641.got - 2010.06.03 13:09:07.
