data_PCOD9206723
_publ_section_title
;
Structure prediction by ZEFSAII (Michael W. Deem and Ramdas Pophale) SiO2 
 PCOD9206723
Probable space group: C 2/M
;
_chemical_formula_sum "Si O2"
_cell_formula_units_Z 48
_cell_length_a 9.171411
_cell_length_b 30.070837
_cell_length_c 8.588419
_cell_angle_alpha 90.000000
_cell_angle_beta 96.566424
_cell_angle_gamma 90.000000
_cell_volume 2353.079049
_symmetry_space_group_name_H-M "C 2/M"
_symmetry_group_IT_number 12
_symmetry_cell_setting 'monoclinic'
loop_
_space_group_symop_operation_xyz
x,y,z
-x,y,-z
-x,-y,-z
x,-y,z
1/2+x,1/2+y,z
1/2-x,1/2+y,-z
1/2-x,1/2-y,-z
1/2+x,1/2-y,z
loop_
_atom_site_type_symbol
_atom_site_label
_atom_site_fract_x
_atom_site_fract_y
_atom_site_fract_z
Si Si1 0.645546 0.406958 0.712071
Si Si2 0.131712 0.763427 0.611943
Si Si3 0.661483 0.500000 0.850784
Si Si4 0.893320 0.327513 0.218056
Si Si5 0.793263 0.095258 0.635476
Si Si6 0.785666 0.328773 0.872116
Si Si7 0.803663 0.000000 0.788307
O O1 0.698606 0.455687 0.763955
O O2 0.715318 0.397294 0.551678
O O3 0.469221 0.402564 0.684908
O O4 0.695740 0.373897 0.852137
O O5 0.250000 0.750000 0.500000
O O6 0.082738 0.716657 0.678375
O O7 0.201598 0.793906 0.752926
O O8 0.000000 0.786208 0.500000
O O9 0.482323 0.500000 0.822569
O O10 0.731244 0.500000 0.031523
O O11 0.803467 0.366734 0.292363
O O12 0.055322 0.340281 0.180309
O O13 0.805750 0.313722 0.051189
O O14 0.755343 0.045313 0.693637
#
# Coordination Sequence:
#
# PCOD9206723 Si02
#       7
#     8   8   4   8   8   8   4
#     4  10  21  36  61  92 123 163 208 252 303 358
#     4  12  25  44  67  90 121 159 203 254 308 367
#     4   9  17  33  56  87 128 161 202 256 299 355
#     4  11  25  44  62  90 127 164 201 254 307 366
#     4  10  21  36  62  91 125 162 207 255 302 359
#     4  11  25  43  64  90 125 163 205 251 309 365
#     4   9  17  33  56  89 124 163 205 249 304 356
#
# _framework density 20.398806
#
# number of rings (size 3 to 8) (size 9 to 14) (size 15 to 20)
#    0.000    1.500    1.667    3.000    4.667    4.000 
#    0.000    0.833    0.000    5.000    0.000    0.000 
#    0.000    0.000    0.000    0.000    0.000    0.000 
#
# Total GULP energy -133963.245385 kJ/mol
# GULP energy per Si atom -5581.801891 kJ/mol
# Density = 2.035238 g / cm^3
# Si number density = 20.398806 Si / 1000 Ang^3
#
#
#
# Elastic Constant Matrix: (Units=GPa)
#
#
# Indices 1 2 3 4 5 6 
#
# 1 36.4386 13.1421 25.0706 0.0000 1.3656 0.0000
# 2 13.1421 82.1459 12.7970 0.0000 4.3214 0.0000
# 3 25.0706 12.7970 83.8435 0.0000 8.7236 0.0000
# 4 0.0000 0.0000 0.0000 -108.0315 0.0000 99.1157
# 5 1.3656 4.3214 8.7236 0.0000 33.3609 0.0000
# 6 0.0000 0.0000 0.0000 99.1157 0.0000 -59.5642
#
#
#
# Elastic Compliance Matrix: (Units=1/GPa)
#
#
# Indices 1 2 3 4 5 6 
#
# 1 0.035995 -0.004247 -0.010299 0.000000 0.001770 0.000000
# 2 -0.004247 0.013014 -0.000575 0.000000 -0.001362 0.000000
# 3 -0.010299 -0.000575 0.015463 0.000000 -0.003548 0.000000
# 4 0.000000 0.000000 0.000000 0.017575 0.000000 0.029245
# 5 0.001770 -0.001362 -0.003548 0.000000 0.031007 0.000000
# 6 0.000000 0.000000 0.000000 0.029245 0.000000 0.031876
#
#
# Mechanical properties :
#
#
# Convention : Reuss Voigt Hill
#
# Bulk Modulus (GPa) = 29.21369 33.82748 31.52059
# Shear Modulus (GPa) = 26.79785 -16.75240 5.02273
#
# Velocity S-wave (km/s) = 3.62843 -2.86884 1.57086
# Velocity P-wave (km/s) = 5.64857 2.37600 4.33311
#
# Compressibility (1/GPa) = 0.03423052
#
# Stress axis : x y z
#
# Youngs Moduli (GPa) = 27.78177 76.83955 64.66910
#
# Poissons Ratio (x) = 0.32636 0.66602
# Poissons Ratio (y) = 0.11800 0.03716
# Poissons Ratio (z) = 0.28612 0.04416
#
# Static dielectric constant tensor:
#      x y z
#    x 1.752780 0.000000 0.011580 
#    y 0.000000 1.723950 0.000000 
#    z 0.011580 0.000000 1.720640 
# 
# From -- ./inp_files/42263.got.cif
#   From: 2010.05.17/outbox.cif.g08.bks.cpg/sg12_22_cif.got.tgz:42263.got - 2010.06.03 13:09:07.
