data_PCOD9206667
_publ_section_title
;
Structure prediction by ZEFSAII (Michael W. Deem and Ramdas Pophale) SiO2 
 PCOD9206667
Probable space group: C 2/M
;
_chemical_formula_sum "Si O2"
_cell_formula_units_Z 40
_cell_length_a 5.425780
_cell_length_b 30.030763
_cell_length_c 12.718732
_cell_angle_alpha 90.000000
_cell_angle_beta 123.333496
_cell_angle_gamma 90.000000
_cell_volume 1731.456842
_symmetry_space_group_name_H-M "C 2/M"
_symmetry_group_IT_number 12
_symmetry_cell_setting 'monoclinic'
loop_
_space_group_symop_operation_xyz
x,y,z
-x,y,-z
-x,-y,-z
x,-y,z
1/2+x,1/2+y,z
1/2-x,1/2+y,-z
1/2-x,1/2-y,-z
1/2+x,1/2-y,z
loop_
_atom_site_type_symbol
_atom_site_label
_atom_site_fract_x
_atom_site_fract_y
_atom_site_fract_z
Si Si1 0.501871 0.765789 0.356149
Si Si2 0.000000 0.087968 0.500000
Si Si3 0.797044 0.048227 0.642132
Si Si4 0.353626 0.000000 0.080435
Si Si5 0.142593 0.599595 0.917612
Si Si6 0.427346 0.134568 0.314448
O O1 0.750000 0.750000 0.500000
O O2 0.208661 0.736167 0.301134
O O3 0.373417 0.815574 0.338576
O O4 0.963319 0.056600 0.391492
O O5 0.276346 0.119965 0.556943
O O6 0.500000 0.045853 0.500000
O O7 0.789067 0.093139 0.708428
O O8 0.832044 0.000000 0.703715
O O9 0.434225 0.049193 0.138242
O O10 0.500000 0.000000 0.000000
O O11 0.000000 0.000000 0.000000
O O12 0.028960 0.632358 0.800489
O O13 0.500000 0.603615 0.000000
O O14 0.000000 0.606174 0.000000
#
# Coordination Sequence:
#
# PCOD9206667 Si02
#       6
#     8   4   8   4   8   8
#     4  10  23  39  64  93 127 159 209 273 338 389
#     4  10  21  36  60  92 132 172 214 264 333 388
#     4   9  20  36  55  88 135 176 214 257 325 403
#     4   8  16  36  58  83 121 165 221 266 304 357
#     4  10  23  41  63  92 129 175 222 269 319 383
#     4  11  24  38  68  93 131 172 222 275 331 401
#
# _framework density 23.101929999999999
#
# number of rings (size 3 to 8) (size 9 to 14) (size 15 to 20)
#    0.000    2.200    0.000    1.500   15.400    0.800 
#    0.000    0.000    0.000    3.600    0.000    0.000 
#    0.000    0.000    0.000    0.000    0.000    0.000 
#
# Total GULP energy -111461.617302 kJ/mol
# GULP energy per Si atom -5573.080865 kJ/mol
# Density = 2.304935 g / cm^3
# Si number density = 23.101930 Si / 1000 Ang^3
#
#
#
# Elastic Constant Matrix: (Units=GPa)
#
#
# Indices 1 2 3 4 5 6 
#
# 1 123.0378 20.4456 22.3712 0.0000 -14.8961 0.0000
# 2 20.4456 147.1369 29.8031 0.0000 -13.2621 0.0000
# 3 22.3712 29.8031 74.8028 0.0000 -8.1952 0.0000
# 4 0.0000 0.0000 0.0000 25.1246 0.0000 -7.0395
# 5 -14.8961 -13.2621 -8.1952 0.0000 27.5154 0.0000
# 6 0.0000 0.0000 0.0000 -7.0395 0.0000 22.9973
#
#
#
# Elastic Compliance Matrix: (Units=1/GPa)
#
#
# Indices 1 2 3 4 5 6 
#
# 1 0.009077 -0.000473 -0.002081 0.000000 0.004066 0.000000
# 2 -0.000473 0.007629 -0.002608 0.000000 0.002644 0.000000
# 3 -0.002081 -0.002608 0.015267 0.000000 0.002164 0.000000
# 4 0.000000 0.000000 0.000000 0.043535 0.000000 0.013326
# 5 0.004066 0.002644 0.002164 0.000000 0.040463 0.000000
# 6 0.000000 0.000000 0.000000 0.013326 0.000000 0.047562
#
#
# Mechanical properties :
#
#
# Convention : Reuss Voigt Hill
#
# Bulk Modulus (GPa) = 46.19310 54.46859 50.33085
# Shear Modulus (GPa) = 27.61303 33.28465 30.44884
#
# Velocity S-wave (km/s) = 3.46102 3.79987 3.63440
# Velocity P-wave (km/s) = 6.00086 6.54834 6.28056
#
# Compressibility (1/GPa) = 0.02164825
#
# Stress axis : x y z
#
# Youngs Moduli (GPa) = 110.17078 131.08252 65.50103
#
# Poissons Ratio (x) = 0.06205 0.13628
# Poissons Ratio (y) = 0.05215 0.17084
# Poissons Ratio (z) = 0.22921 0.34190
#
# Static dielectric constant tensor:
#      x y z
#    x 2.035670 0.000000 -0.056140 
#    y 0.000000 1.908310 0.000000 
#    z -0.056140 0.000000 1.915620 
# 
# From -- ./inp_files/192256.got.cif
#   From: 2010.05.17/outbox.cif.g08.bks.cpg/sg12_97_cif.got.tgz:192256.got - 2010.06.03 13:09:07.
