data_PCOD9206467
_publ_section_title
;
Structure prediction by ZEFSAII (Michael W. Deem and Ramdas Pophale) SiO2 
 PCOD9206467
Probable space group: C 2/M
;
_chemical_formula_sum "Si O2"
_cell_formula_units_Z 48
_cell_length_a 22.074206
_cell_length_b 8.793391
_cell_length_c 12.419545
_cell_angle_alpha 90.000000
_cell_angle_beta 108.906188
_cell_angle_gamma 90.000000
_cell_volume 2280.664597
_symmetry_space_group_name_H-M "C 2/M"
_symmetry_group_IT_number 12
_symmetry_cell_setting 'monoclinic'
loop_
_space_group_symop_operation_xyz
x,y,z
-x,y,-z
-x,-y,-z
x,-y,z
1/2+x,1/2+y,z
1/2-x,1/2+y,-z
1/2-x,1/2-y,-z
1/2+x,1/2-y,z
loop_
_atom_site_type_symbol
_atom_site_label
_atom_site_fract_x
_atom_site_fract_y
_atom_site_fract_z
Si Si1 0.534413 0.179766 0.133820
Si Si2 0.997727 0.822503 0.328324
Si Si3 0.148774 0.821576 0.470397
Si Si4 0.673992 0.316669 0.247276
Si Si5 0.873034 0.678172 0.322850
Si Si6 0.769470 0.819223 0.125859
O O1 0.494604 0.260387 0.205094
O O2 0.603701 0.258079 0.173732
O O3 0.541239 0.000000 0.162188
O O4 0.500000 0.195674 0.000000
O O5 0.947015 0.728007 0.367676
O O6 0.072284 0.808214 0.402942
O O7 0.981035 0.000000 0.327091
O O8 0.182400 0.773187 0.378334
O O9 0.159910 0.725975 0.583885
O O10 0.162455 0.000000 0.498528
O O11 0.676201 0.500000 0.243799
O O12 0.723027 0.245046 0.192000
O O13 0.866541 0.500000 0.302291
O O14 0.839274 0.766590 0.205777
O O15 0.765465 0.000000 0.118671
O O16 0.750000 0.750000 0.000000
#
# Coordination Sequence:
#
# PCOD9206467 Si02
#       6
#     8   8   8   8   8   8
#     4  10  21  36  58  89 125 164 208 257 308 369
#     4  10  21  38  61  91 128 167 209 259 313 371
#     4   9  20  40  65  94 128 165 207 255 313 373
#     4  10  22  42  66  92 125 163 207 259 312 370
#     4  12  25  40  63  94 128 167 212 258 313 375
#     4  12  27  47  68  90 123 165 211 261 312 371
#
# _framework density 21.046498
#
# number of rings (size 3 to 8) (size 9 to 14) (size 15 to 20)
#    0.000    1.500    0.000    6.000    2.333    8.000 
#    0.000    0.000    0.000    0.000    0.000    0.000 
#    0.000    0.000    0.000    0.000    0.000    0.000 
#
# Total GULP energy -134257.690886 kJ/mol
# GULP energy per Si atom -5594.070454 kJ/mol
# Density = 2.099859 g / cm^3
# Si number density = 21.046498 Si / 1000 Ang^3
#
#
#
# Elastic Constant Matrix: (Units=GPa)
#
#
# Indices 1 2 3 4 5 6 
#
# 1 69.7217 -0.2524 6.0177 0.0000 -12.2961 0.0000
# 2 -0.2524 70.0209 27.3327 0.0000 7.1806 0.0000
# 3 6.0177 27.3327 89.0563 0.0000 -3.9174 0.0000
# 4 0.0000 0.0000 0.0000 34.8875 0.0000 -6.0849
# 5 -12.2961 7.1806 -3.9174 0.0000 21.9596 0.0000
# 6 0.0000 0.0000 0.0000 -6.0849 0.0000 35.4451
#
#
#
# Elastic Compliance Matrix: (Units=1/GPa)
#
#
# Indices 1 2 3 4 5 6 
#
# 1 0.015984 -0.000692 -0.000468 0.000000 0.009093 0.000000
# 2 -0.000692 0.017151 -0.005524 0.000000 -0.006981 0.000000
# 3 -0.000468 -0.005524 0.013127 0.000000 0.003886 0.000000
# 4 0.000000 0.000000 0.000000 0.029548 0.000000 0.005073
# 5 0.009093 -0.006981 0.003886 0.000000 0.053606 0.000000
# 6 0.000000 0.000000 0.000000 0.005073 0.000000 0.029083
#
#
# Mechanical properties :
#
#
# Convention : Reuss Voigt Hill
#
# Bulk Modulus (GPa) = 30.40074 32.77722 31.58898
# Shear Modulus (GPa) = 27.34727 31.50516 29.42621
#
# Velocity S-wave (km/s) = 3.60859 3.87322 3.74324
# Velocity P-wave (km/s) = 5.64256 5.96741 5.80726
#
# Compressibility (1/GPa) = 0.03289394
#
# Stress axis : x y z
#
# Youngs Moduli (GPa) = 62.56144 58.30457 76.17948
#
# Poissons Ratio (x) = 0.04037 0.03562
# Poissons Ratio (y) = 0.04332 0.42084
# Poissons Ratio (z) = 0.02925 0.32209
#
# Static dielectric constant tensor:
#      x y z
#    x 1.560080 0.000000 0.061980 
#    y 0.000000 1.697280 0.000000 
#    z 0.061980 0.000000 1.737210 
# 
# From -- ./inp_files/173047.got.cif
#   From: 2010.05.17/outbox.cif.g08.bks.cpg/sg12_87_cif.got.tgz:173047.got - 2010.06.03 13:09:07.
