data_PCOD9206843
_publ_section_title
;
Structure prediction by ZEFSAII (Michael W. Deem and Ramdas Pophale) SiO2 
 PCOD9206843
Probable space group: C 2/M
;
_chemical_formula_sum "Si O2"
_cell_formula_units_Z 48
_cell_length_a 20.135461
_cell_length_b 9.504156
_cell_length_c 17.059032
_cell_angle_alpha 90.000000
_cell_angle_beta 115.299864
_cell_angle_gamma 90.000000
_cell_volume 2951.468083
_symmetry_space_group_name_H-M "C 2/M"
_symmetry_group_IT_number 12
_symmetry_cell_setting 'monoclinic'
loop_
_space_group_symop_operation_xyz
x,y,z
-x,y,-z
-x,-y,-z
x,-y,z
1/2+x,1/2+y,z
1/2-x,1/2+y,-z
1/2-x,1/2-y,-z
1/2+x,1/2-y,z
loop_
_atom_site_type_symbol
_atom_site_label
_atom_site_fract_x
_atom_site_fract_y
_atom_site_fract_z
Si Si1 0.616198 0.835366 0.592978
Si Si2 0.207450 0.669067 0.047767
Si Si3 0.043082 0.664702 0.401616
Si Si4 0.941924 0.835280 0.040507
Si Si5 0.477257 0.333387 0.234063
Si Si6 0.678181 0.666187 0.760381
O O1 0.536526 0.825666 0.595592
O O2 0.601615 0.785848 0.496548
O O3 0.670855 0.750081 0.675815
O O4 0.635723 0.000000 0.600583
O O5 0.207500 0.500000 0.034938
O O6 0.251772 0.697290 0.150512
O O7 0.250000 0.750000 0.000000
O O8 0.126582 0.734190 0.009090
O O9 0.056286 0.500000 0.392709
O O10 0.033926 0.750679 0.317467
O O11 0.977949 0.799201 0.142609
O O12 0.917372 0.000000 0.034091
O O13 0.000000 0.825222 0.000000
O O14 0.489104 0.500000 0.249462
O O15 0.394710 0.302321 0.224242
O O16 0.676699 0.500000 0.743191
#
# Coordination Sequence:
#
# PCOD9206843 Si02
#       6
#     8   8   8   8   8   8
#     4   8  14  24  38  60  91 122 153 189 233 287
#     4  11  21  34  52  74 101 131 168 208 248 297
#     4   8  14  24  38  60  90 122 154 190 234 284
#     4  10  21  37  53  71 100 134 169 209 250 294
#     4   9  16  28  44  65  92 124 161 196 238 289
#     4   9  17  28  43  66  95 123 156 197 239 287
#
# _framework density 16.263092
#
# number of rings (size 3 to 8) (size 9 to 14) (size 15 to 20)
#    0.000    2.833    1.667    1.500    0.000    3.000 
#    0.000    3.333    0.000    0.000    0.000    1.167 
#    0.000    0.000    0.000    0.000    0.000    0.000 
#
# Total GULP energy -133643.737235 kJ/mol
# GULP energy per Si atom -5568.489051 kJ/mol
# Density = 1.622608 g / cm^3
# Si number density = 16.263092 Si / 1000 Ang^3
#
#
#
# Elastic Constant Matrix: (Units=GPa)
#
#
# Indices 1 2 3 4 5 6 
#
# 1 29.0886 27.3220 36.9122 0.0000 -3.1527 0.0000
# 2 27.3220 60.2805 84.0721 0.0000 1.8284 0.0000
# 3 36.9122 84.0721 193.1110 0.0000 -6.8844 0.0000
# 4 0.0000 0.0000 0.0000 36.1744 0.0000 2.8614
# 5 -3.1527 1.8284 -6.8844 0.0000 12.0726 0.0000
# 6 0.0000 0.0000 0.0000 2.8614 0.0000 13.6880
#
#
#
# Elastic Compliance Matrix: (Units=1/GPa)
#
#
# Indices 1 2 3 4 5 6 
#
# 1 0.066167 -0.036577 0.004175 0.000000 0.025199 0.000000
# 2 -0.036577 0.066281 -0.023031 0.000000 -0.032723 0.000000
# 3 0.004175 -0.023031 0.014873 0.000000 0.013059 0.000000
# 4 0.000000 0.000000 0.000000 0.028109 0.000000 -0.005876
# 5 0.025199 -0.032723 0.013059 0.000000 0.101815 0.000000
# 6 0.000000 0.000000 0.000000 -0.005876 0.000000 0.074285
#
#
# Mechanical properties :
#
#
# Convention : Reuss Voigt Hill
#
# Bulk Modulus (GPa) = 27.43161 64.34364 45.88763
# Shear Modulus (GPa) = 10.53640 21.33192 15.93416
#
# Velocity S-wave (km/s) = 2.54809 3.62564 3.13353
# Velocity P-wave (km/s) = 5.05580 7.56155 6.43188
#
# Compressibility (1/GPa) = 0.03645429
#
# Stress axis : x y z
#
# Youngs Moduli (GPa) = 15.11337 15.08739 67.23817
#
# Poissons Ratio (x) = 0.55185 -0.28071
# Poissons Ratio (y) = 0.55280 1.54855
# Poissons Ratio (z) = -0.06310 0.34747
#
# Static dielectric constant tensor:
#      x y z
#    x 1.523770 0.000000 -0.002480 
#    y 0.000000 1.544000 0.000000 
#    z -0.002480 0.000000 1.562320 
# 
# From -- ./inp_files/249364.got.cif
#   From: 2010.05.17/outbox.cif.g08.bks.cpg/sg12_125_cif.got.tgz:249364.got - 2010.06.03 13:09:07.
