data_PCOD9206498
_publ_section_title
;
Structure prediction by ZEFSAII (Michael W. Deem and Ramdas Pophale) SiO2 
 PCOD9206498
Probable space group: C 2/M
;
_chemical_formula_sum "Si O2"
_cell_formula_units_Z 32
_cell_length_a 13.931982
_cell_length_b 17.511851
_cell_length_c 11.419972
_cell_angle_alpha 90.000000
_cell_angle_beta 149.339527
_cell_angle_gamma 90.000000
_cell_volume 1420.814095
_symmetry_space_group_name_H-M "C 2/M"
_symmetry_group_IT_number 12
_symmetry_cell_setting 'monoclinic'
loop_
_space_group_symop_operation_xyz
x,y,z
-x,y,-z
-x,-y,-z
x,-y,z
1/2+x,1/2+y,z
1/2-x,1/2+y,-z
1/2-x,1/2-y,-z
1/2+x,1/2-y,z
loop_
_atom_site_type_symbol
_atom_site_label
_atom_site_fract_x
_atom_site_fract_y
_atom_site_fract_z
Si Si1 0.321892 0.326363 0.505299
Si Si2 0.239820 0.000000 0.879088
Si Si3 0.283922 0.500000 0.417929
Si Si4 0.265533 0.152396 0.021901
Si Si5 0.692646 0.742676 0.144276
O O1 0.250000 0.250000 0.500000
O O2 0.240468 0.414507 0.426468
O O3 0.540153 0.338740 0.766620
O O4 0.295727 0.297026 0.344542
O O5 0.286937 0.000000 0.791236
O O6 0.315231 0.929790 0.031020
O O7 0.012272 0.000000 0.647861
O O8 0.357692 0.205575 0.020471
O O9 0.308124 0.176438 0.199532
O O10 0.500000 0.713588 0.000000
#
# Coordination Sequence:
#
# PCOD9206498 Si02
#       5
#     8   4   4   8   8
#     4  11  20  37  60  83 118 150 187 236 283 338
#     4   9  16  34  56  81 107 142 197 240 269 326
#     4   9  18  32  57  86 106 147 198 230 272 335
#     4  10  21  36  59  82 111 148 191 236 283 331
#     4  11  21  35  55  86 112 147 189 228 286 339
#
# _framework density 22.522297999999999
#
# number of rings (size 3 to 8) (size 9 to 14) (size 15 to 20)
#    0.000    1.750    5.000    0.750    0.000    0.000 
#    0.000    4.375    0.000    0.000    0.000    5.250 
#    0.000    0.000    0.000    0.000    0.000    0.000 
#
# Total GULP energy -89100.350306 kJ/mol
# GULP energy per Si atom -5568.771894 kJ/mol
# Density = 2.247104 g / cm^3
# Si number density = 22.522298 Si / 1000 Ang^3
#
#
#
# Elastic Constant Matrix: (Units=GPa)
#
#
# Indices 1 2 3 4 5 6 
#
# 1 98.8233 51.1258 26.9029 0.0000 -11.1548 0.0000
# 2 51.1258 209.2783 37.4325 0.0000 -20.1559 0.0000
# 3 26.9029 37.4325 68.7480 0.0000 1.1162 0.0000
# 4 0.0000 0.0000 0.0000 17.7449 0.0000 -10.8298
# 5 -11.1548 -20.1559 1.1162 0.0000 28.3931 0.0000
# 6 0.0000 0.0000 0.0000 -10.8298 0.0000 20.3093
#
#
#
# Elastic Compliance Matrix: (Units=1/GPa)
#
#
# Indices 1 2 3 4 5 6 
#
# 1 0.012651 -0.002039 -0.003900 0.000000 0.003676 0.000000
# 2 -0.002039 0.006086 -0.002574 0.000000 0.003620 0.000000
# 3 -0.003900 -0.002574 0.017540 0.000000 -0.004049 0.000000
# 4 0.000000 0.000000 0.000000 0.083543 0.000000 0.044549
# 5 0.003676 0.003620 -0.004049 0.000000 0.039393 0.000000
# 6 0.000000 0.000000 0.000000 0.044549 0.000000 0.072994
#
#
# Mechanical properties :
#
#
# Convention : Reuss Voigt Hill
#
# Bulk Modulus (GPa) = 51.95078 67.53023 59.74051
# Shear Modulus (GPa) = 19.55810 30.71534 25.13672
#
# Velocity S-wave (km/s) = 2.95004 3.69694 3.34441
# Velocity P-wave (km/s) = 5.89238 6.94780 6.44174
#
# Compressibility (1/GPa) = 0.01924899
#
# Stress axis : x y z
#
# Youngs Moduli (GPa) = 79.04826 164.32340 57.01400
#
# Poissons Ratio (x) = 0.33503 0.22236
# Poissons Ratio (y) = 0.16117 0.14678
# Poissons Ratio (z) = 0.30829 0.42304
#
# Static dielectric constant tensor:
#      x y z
#    x 1.918720 0.000000 0.039020 
#    y 0.000000 1.988810 0.000000 
#    z 0.039020 0.000000 1.863870 
# 
# From -- ./inp_files/58742.got.cif
#   From: 2010.05.17/outbox.cif.g08.bks.cpg/sg12_30_cif.got.tgz:58742.got - 2010.06.03 13:09:07.
