data_PCOD9206555
_publ_section_title
;
Structure prediction by ZEFSAII (Michael W. Deem and Ramdas Pophale) SiO2 
 PCOD9206555
Probable space group: C 2/M
;
_chemical_formula_sum "Si O2"
_cell_formula_units_Z 34
_cell_length_a 19.262132
_cell_length_b 10.326662
_cell_length_c 23.604073
_cell_angle_alpha 90.000000
_cell_angle_beta 154.146464
_cell_angle_gamma 90.000000
_cell_volume 2047.432609
_symmetry_space_group_name_H-M "C 2/M"
_symmetry_group_IT_number 12
_symmetry_cell_setting 'monoclinic'
loop_
_space_group_symop_operation_xyz
x,y,z
-x,y,-z
-x,-y,-z
x,-y,z
1/2+x,1/2+y,z
1/2-x,1/2+y,-z
1/2-x,1/2-y,-z
1/2+x,1/2-y,z
loop_
_atom_site_type_symbol
_atom_site_label
_atom_site_fract_x
_atom_site_fract_y
_atom_site_fract_z
Si Si1 0.467576 0.000000 0.178414
Si Si2 0.271379 0.500000 0.101086
Si Si3 0.500000 0.000000 0.000000
Si Si4 0.989065 0.240478 0.718911
Si Si5 0.740501 0.000000 0.285517
Si Si6 0.361704 0.152998 0.508558
Si Si7 0.000000 0.784201 0.500000
O O1 0.461879 0.871269 0.212482
O O2 0.630236 0.000000 0.260858
O O3 0.326588 0.000000 0.029320
O O4 0.148415 0.500000 0.062867
O O5 0.380910 0.627813 0.183370
O O6 0.628883 0.000000 0.148593
O O7 0.824164 0.190211 0.624971
O O8 0.948087 0.275506 0.624018
O O9 0.856848 0.123732 0.373554
O O10 0.436311 0.198878 0.504721
O O11 0.377830 0.000000 0.528266
#
# Coordination Sequence:
#
# PCOD9206555 Si02
#       7
#     4   4   2   8   4   8   4
#     4  11  21  40  61  87 120 157 197 248 293 354
#     4  11  23  39  65  85 118 156 203 243 295 361
#     4  10  22  40  58  88 118 150 198 248 304 346
#     4  11  22  39  60  90 118 155 200 246 297 354
#     4  10  21  36  59  90 114 158 198 245 290 361
#     4  11  22  36  60  85 123 156 194 248 302 347
#     4  11  21  36  60  86 123 157 200 242 298 352
#
# _framework density 16.606162999999999
#
# number of rings (size 3 to 8) (size 9 to 14) (size 15 to 20)
#    0.000    1.176    4.706    2.471    0.000    0.941 
#    0.000    0.000    0.000    0.706    0.000    0.000 
#    0.000    0.000    0.000    0.000    0.000    0.000 
#
# Total GULP energy -94683.721433 kJ/mol
# GULP energy per Si atom -5569.630673 kJ/mol
# Density = 1.656837 g / cm^3
# Si number density = 16.606163 Si / 1000 Ang^3
#
#
#
# Elastic Constant Matrix: (Units=GPa)
#
#
# Indices 1 2 3 4 5 6 
#
# 1 144.6799 46.5580 62.9632 -0.0001 5.3973 0.0000
# 2 46.5580 91.8618 49.6170 -0.0004 21.2654 0.0000
# 3 62.9632 49.6170 118.4808 0.0005 15.8052 0.0001
# 4 -0.0001 -0.0004 0.0005 16.2596 0.0001 -2.2821
# 5 5.3973 21.2654 15.8052 0.0001 18.7639 0.0000
# 6 0.0000 0.0000 0.0001 -2.2821 0.0000 12.6777
#
#
#
# Elastic Compliance Matrix: (Units=1/GPa)
#
#
# Indices 1 2 3 4 5 6 
#
# 1 0.009831 -0.003856 -0.004298 0.000000 0.005163 0.000000
# 2 -0.003856 0.018694 -0.003494 0.000001 -0.017134 0.000000
# 3 -0.004298 -0.003494 0.012949 0.000000 -0.005712 0.000000
# 4 0.000000 0.000001 0.000000 0.063096 -0.000001 0.011358
# 5 0.005163 -0.017134 -0.005712 -0.000001 0.076038 0.000000
# 6 0.000000 0.000000 0.000000 0.011358 0.000000 0.080923
#
#
# Mechanical properties :
#
#
# Convention : Reuss Voigt Hill
#
# Bulk Modulus (GPa) = 55.01166 74.81099 64.91132
# Shear Modulus (GPa) = 17.18889 22.59918 19.89403
#
# Velocity S-wave (km/s) = 3.22077 3.69303 3.46496
# Velocity P-wave (km/s) = 6.85787 7.95817 7.42842
#
# Compressibility (1/GPa) = 0.01817796
#
# Stress axis : x y z
#
# Youngs Moduli (GPa) = 101.72370 53.49413 77.22450
#
# Poissons Ratio (x) = 0.20628 0.33191
# Poissons Ratio (y) = 0.39225 0.26980
# Poissons Ratio (z) = 0.43721 0.18689
#
# Static dielectric constant tensor:
#      x y z
#    x 1.532220 0.000000 0.000880 
#    y 0.000000 1.530790 0.000000 
#    z 0.000880 0.000000 1.540690 
# 
# From -- ./inp_files/70987.got.cif
#   From: 2010.05.17/outbox.cif.g08.bks.cpg/sg12_36_cif.got.tgz:70987.got - 2010.06.03 13:09:07.
