data_PCOD9206012
_publ_section_title
;
Structure prediction by ZEFSAII (Michael W. Deem and Ramdas Pophale) SiO2 
 PCOD9206012
Probable space group: C 2/M
;
_chemical_formula_sum "Si O2"
_cell_formula_units_Z 56
_cell_length_a 26.093967
_cell_length_b 9.052882
_cell_length_c 19.797193
_cell_angle_alpha 90.000000
_cell_angle_beta 142.230912
_cell_angle_gamma 90.000000
_cell_volume 2864.329444
_symmetry_space_group_name_H-M "C 2/M"
_symmetry_group_IT_number 12
_symmetry_cell_setting 'monoclinic'
loop_
_space_group_symop_operation_xyz
x,y,z
-x,y,-z
-x,-y,-z
x,-y,z
1/2+x,1/2+y,z
1/2-x,1/2+y,-z
1/2-x,1/2-y,-z
1/2+x,1/2-y,z
loop_
_atom_site_type_symbol
_atom_site_label
_atom_site_fract_x
_atom_site_fract_y
_atom_site_fract_z
Si Si1 0.616703 0.167075 0.476816
Si Si2 0.309953 0.326459 0.724527
Si Si3 0.831432 0.670356 0.615497
Si Si4 0.146113 0.323046 0.967299
Si Si5 0.087717 0.321585 0.054774
Si Si6 0.477906 0.325573 0.404890
Si Si7 0.343284 0.322393 0.162254
O O1 0.711705 0.189552 0.602628
O O2 0.609817 0.171109 0.388397
O O3 0.558535 0.293226 0.444434
O O4 0.592243 0.000000 0.472314
O O5 0.327655 0.500000 0.746946
O O6 0.357676 0.253242 0.710465
O O7 0.338947 0.246890 0.822733
O O8 0.812457 0.500000 0.612500
O O9 0.750000 0.750000 0.500000
O O10 0.135770 0.500000 0.949983
O O11 0.099997 0.277506 0.988846
O O12 0.245923 0.290225 0.075305
O O13 0.123378 0.246556 0.872880
O O14 0.093453 0.500000 0.062718
O O15 0.000000 0.279909 0.000000
O O16 0.500000 0.258327 0.500000
O O17 0.463389 0.500000 0.398394
O O18 0.398357 0.266117 0.282018
O O19 0.350741 0.500000 0.164673
#
# Coordination Sequence:
#
# PCOD9206012 Si02
#       7
#     8   8   8   8   8   8   8
#     4   9  20  36  53  78 110 146 187 228 275 335
#     4  10  21  36  55  81 112 148 189 229 279 342
#     4   9  17  32  53  77 107 142 184 228 269 326
#     4   9  19  37  61  83 109 148 191 234 284 337
#     4  10  22  38  57  84 113 144 186 235 291 349
#     4  10  22  36  54  83 116 148 186 230 279 339
#     4   9  19  37  58  83 112 145 191 237 278 334
#
# _framework density 19.550822
#
# number of rings (size 3 to 8) (size 9 to 14) (size 15 to 20)
#    0.000    2.571    0.000    1.714    2.000    6.286 
#    0.000    4.286    0.000    0.000    0.000    0.000 
#    0.000    0.000    0.000    0.000    0.000    0.000 
#
# Total GULP energy -156014.685474 kJ/mol
# GULP energy per Si atom -5571.953053 kJ/mol
# Density = 1.950632 g / cm^3
# Si number density = 19.550822 Si / 1000 Ang^3
#
#
#
# Elastic Constant Matrix: (Units=GPa)
#
#
# Indices 1 2 3 4 5 6 
#
# 1 68.9777 7.9102 19.0481 0.0000 -18.0166 0.0000
# 2 7.9102 4.9665 11.0679 0.0000 -1.3896 0.0000
# 3 19.0481 11.0679 80.1535 0.0000 -16.5975 0.0000
# 4 0.0000 0.0000 0.0000 25.6391 0.0000 -6.7903
# 5 -18.0166 -1.3896 -16.5975 0.0000 21.2179 0.0000
# 6 0.0000 0.0000 0.0000 -6.7903 0.0000 26.2877
#
#
#
# Elastic Compliance Matrix: (Units=1/GPa)
#
#
# Indices 1 2 3 4 5 6 
#
# 1 0.023406 -0.041355 0.004418 0.000000 0.020623 0.000000
# 2 -0.041355 0.367841 -0.051607 0.000000 -0.051394 0.000000
# 3 0.004418 -0.051607 0.022230 0.000000 0.017761 0.000000
# 4 0.000000 0.000000 0.000000 0.041867 0.000000 0.010815
# 5 0.020623 -0.051394 0.017761 0.000000 0.075168 0.000000
# 6 0.000000 0.000000 0.000000 0.010815 0.000000 0.040834
#
#
# Mechanical properties :
#
#
# Convention : Reuss Voigt Hill
#
# Bulk Modulus (GPa) = 4.23032 25.57223 14.90128
# Shear Modulus (GPa) = 6.04426 22.36705 14.20566
#
# Velocity S-wave (km/s) = 1.76019 3.38605 2.69848
# Velocity P-wave (km/s) = 2.50988 5.32873 4.16502
#
# Compressibility (1/GPa) = 0.23638866
#
# Stress axis : x y z
#
# Youngs Moduli (GPa) = 42.72355 2.71857 44.98438
#
# Poissons Ratio (x) = 0.11243 -0.19876
# Poissons Ratio (y) = 1.76685 2.32151
# Poissons Ratio (z) = -0.18877 0.14030
#
# Static dielectric constant tensor:
#      x y z
#    x 1.712240 0.000000 -0.001280 
#    y 0.000000 1.675710 0.000000 
#    z -0.001280 0.000000 1.726050 
# 
# From -- ./inp_files/238965.got.cif
#   From: 2010.05.17/outbox.cif.g08.bks.cpg/sg12_120_cif.got.tgz:238965.got - 2010.06.03 13:09:07.
