data_PCOD9206901
_publ_section_title
;
Structure prediction by ZEFSAII (Michael W. Deem and Ramdas Pophale) SiO2 
 PCOD9206901
Probable space group: C 2/M
;
_chemical_formula_sum "Si O2"
_cell_formula_units_Z 64
_cell_length_a 32.572994
_cell_length_b 8.763087
_cell_length_c 26.259299
_cell_angle_alpha 90.000000
_cell_angle_beta 150.490173
_cell_angle_gamma 90.000000
_cell_volume 3692.056889
_symmetry_space_group_name_H-M "C 2/M"
_symmetry_group_IT_number 12
_symmetry_cell_setting 'monoclinic'
loop_
_space_group_symop_operation_xyz
x,y,z
-x,y,-z
-x,-y,-z
x,-y,z
1/2+x,1/2+y,z
1/2-x,1/2+y,-z
1/2-x,1/2-y,-z
1/2+x,1/2-y,z
loop_
_atom_site_type_symbol
_atom_site_label
_atom_site_fract_x
_atom_site_fract_y
_atom_site_fract_z
Si Si1 0.421591 0.314088 0.447881
Si Si2 0.050125 0.182670 0.205758
Si Si3 0.235173 0.683952 0.224464
Si Si4 0.610515 0.683642 0.471615
Si Si5 0.301768 0.183555 0.700635
Si Si6 0.636590 0.317043 0.023256
Si Si7 0.507916 0.818333 0.267854
Si Si8 0.672208 0.683452 0.946544
O O1 0.500000 0.259620 0.500000
O O2 0.421839 0.500000 0.447068
O O3 0.332006 0.265852 0.329021
O O4 0.424282 0.271732 0.510242
O O5 0.126476 0.237357 0.254054
O O6 0.049988 0.258339 0.261241
O O7 0.051128 0.000000 0.212946
O O8 0.961203 0.225212 0.084457
O O9 0.234702 0.500000 0.222566
O O10 0.198136 0.728816 0.239624
O O11 0.184305 0.745618 0.122025
O O12 0.602157 0.500000 0.457486
O O13 0.709272 0.718452 0.579590
O O14 0.561687 0.764088 0.373822
O O15 0.311992 0.000000 0.709258
O O16 0.641457 0.500000 0.032372
O O17 0.674104 0.273214 0.008576
O O18 0.415418 0.746166 0.169216
O O19 0.501370 0.000000 0.259450
O O20 0.671710 0.500000 0.942938
O O21 0.750000 0.750000 0.000000
#
# Coordination Sequence:
#
# PCOD9206901 Si02
#       8
#     8   8   8   8   8   8   8   8
#     4   8  15  30  52  77 103 133 171 211 251 300
#     4  10  21  37  55  75 101 136 178 219 263 315
#     4   9  18  32  52  78 105 135 173 213 255 310
#     4   9  18  34  54  76 106 139 172 215 262 310
#     4   9  19  35  53  76 106 138 174 217 263 312
#     4   9  20  36  52  74 105 136 168 213 263 309
#     4  11  22  36  55  79 107 138 174 216 263 314
#     4  10  21  38  57  79 108 141 178 218 261 309
#
# _framework density 17.334510999999999
#
# number of rings (size 3 to 8) (size 9 to 14) (size 15 to 20)
#    0.000    2.625    0.000    4.125    0.000    6.000 
#    0.000    5.625    0.000    0.750    0.000    0.000 
#    0.000    0.000    0.000    0.000    0.000    0.000 
#
# Total GULP energy -178508.787558 kJ/mol
# GULP energy per Si atom -5578.399611 kJ/mol
# Density = 1.729506 g / cm^3
# Si number density = 17.334511 Si / 1000 Ang^3
#
#
#
# Elastic Constant Matrix: (Units=GPa)
#
#
# Indices 1 2 3 4 5 6 
#
# 1 166.8744 57.8778 117.2230 0.0000 14.4337 0.0000
# 2 57.8778 51.6980 56.2344 0.0000 -1.5210 0.0000
# 3 117.2230 56.2344 145.2645 0.0000 -21.1584 0.0000
# 4 0.0000 0.0000 0.0000 32.6635 0.0000 -3.0740
# 5 14.4337 -1.5210 -21.1584 0.0000 28.6491 0.0000
# 6 0.0000 0.0000 0.0000 -3.0740 0.0000 27.9535
#
#
#
# Elastic Compliance Matrix: (Units=1/GPa)
#
#
# Indices 1 2 3 4 5 6 
#
# 1 0.030486 -0.004628 -0.028106 0.000000 -0.036362 0.000000
# 2 -0.004628 0.036178 -0.010814 0.000000 -0.003734 0.000000
# 3 -0.028106 -0.010814 0.040036 0.000000 0.043154 0.000000
# 4 0.000000 0.000000 0.000000 0.030935 0.000000 0.003402
# 5 -0.036362 -0.003734 0.043154 0.000000 0.084897 0.000000
# 6 0.000000 0.000000 0.000000 0.003402 0.000000 0.036148
#
#
# Mechanical properties :
#
#
# Convention : Reuss Voigt Hill
#
# Bulk Modulus (GPa) = 51.01050 91.83415 71.42232
# Shear Modulus (GPa) = 14.19199 26.68665 20.43932
#
# Velocity S-wave (km/s) = 2.86442 3.92792 3.43754
# Velocity P-wave (km/s) = 6.35853 8.58277 7.55298
#
# Compressibility (1/GPa) = 0.01960381
#
# Stress axis : x y z
#
# Youngs Moduli (GPa) = 32.80186 27.64131 24.97732
#
# Poissons Ratio (x) = 0.12792 0.70201
# Poissons Ratio (y) = 0.15181 0.27011
# Poissons Ratio (z) = 0.92192 0.29892
#
# Static dielectric constant tensor:
#      x y z
#    x 1.573630 0.000000 0.003940 
#    y 0.000000 1.585200 0.000000 
#    z 0.003940 0.000000 1.565420 
# 
# From -- ./inp_files/353591.got.cif
#   From: 2010.05.17/outbox.cif.g08.bks.cpg/sg12_177_cif.got.tgz:353591.got - 2010.06.03 13:09:07.
