data_PCOD9206854
_publ_section_title
;
Structure prediction by ZEFSAII (Michael W. Deem and Ramdas Pophale) SiO2 
 PCOD9206854
Probable space group: C 2/M
;
_chemical_formula_sum "Si O2"
_cell_formula_units_Z 60
_cell_length_a 20.900277
_cell_length_b 21.622161
_cell_length_c 13.976523
_cell_angle_alpha 90.000000
_cell_angle_beta 30.172504
_cell_angle_gamma 90.000000
_cell_volume 3174.513635
_symmetry_space_group_name_H-M "C 2/M"
_symmetry_group_IT_number 12
_symmetry_cell_setting 'monoclinic'
loop_
_space_group_symop_operation_xyz
x,y,z
-x,y,-z
-x,-y,-z
x,-y,z
1/2+x,1/2+y,z
1/2-x,1/2+y,-z
1/2-x,1/2-y,-z
1/2+x,1/2-y,z
loop_
_atom_site_type_symbol
_atom_site_label
_atom_site_fract_x
_atom_site_fract_y
_atom_site_fract_z
Si Si1 0.976769 0.341128 0.222545
Si Si2 0.500000 0.248874 0.500000
Si Si3 0.124122 0.751859 0.890683
Si Si4 0.751206 0.676125 0.885325
Si Si5 0.009014 0.783561 0.690076
Si Si6 0.237503 0.848649 0.403965
Si Si7 0.644535 0.426865 0.343533
Si Si8 0.171347 0.573137 0.074752
O O1 0.950586 0.284185 0.327378
O O2 0.852426 0.365448 0.327085
O O3 0.046247 0.394119 0.192912
O O4 0.073311 0.305120 0.024241
O O5 0.386724 0.209710 0.694365
O O6 0.541627 0.289127 0.536133
O O7 0.188223 0.807228 0.865225
O O8 0.212423 0.717164 0.701397
O O9 0.000000 0.776438 0.000000
O O10 0.782711 0.610003 0.890342
O O11 0.640645 0.704943 0.097047
O O12 0.098909 0.833146 0.627312
O O13 0.209382 0.894212 0.351576
O O14 0.500000 0.411414 0.500000
O O15 0.645932 0.500000 0.362696
O O16 0.726597 0.416100 0.141815
O O17 0.156839 0.500000 0.109109
#
# Coordination Sequence:
#
# PCOD9206854 Si02
#       8
#     8   4   8   8   8   8   8   8
#     4  10  21  37  53  84 123 149 190 239 292 356
#     4  12  22  34  61  86 117 156 188 236 294 354
#     4   9  19  34  56  85 117 149 186 236 296 355
#     4  11  23  39  58  88 119 157 195 241 294 349
#     4  11  23  35  60  90 123 149 190 242 302 352
#     4  11  20  34  59  85 116 156 188 233 297 357
#     4  10  22  37  55  83 118 158 203 241 286 349
#     4  11  23  39  58  82 118 159 201 249 284 335
#
# _framework density 18.900534
#
# number of rings (size 3 to 8) (size 9 to 14) (size 15 to 20)
#    0.000    1.467    4.000    1.600    4.667    0.533 
#    0.000    1.667    0.000    0.400    0.000    0.000 
#    0.000    0.000    0.000    0.000    0.000    0.000 
#
# Total GULP energy -167077.024420 kJ/mol
# GULP energy per Si atom -5569.234147 kJ/mol
# Density = 1.885752 g / cm^3
# Si number density = 18.900534 Si / 1000 Ang^3
#
#
#
# Elastic Constant Matrix: (Units=GPa)
#
#
# Indices 1 2 3 4 5 6 
#
# 1 105.2066 59.7697 16.0833 0.0003 -31.1690 -0.0002
# 2 59.7697 90.4153 28.4927 0.0001 -19.7571 0.0000
# 3 16.0833 28.4927 68.0309 0.0004 -17.5747 -0.0011
# 4 0.0003 0.0001 0.0004 20.2888 -0.0002 0.7256
# 5 -31.1690 -19.7571 -17.5747 -0.0002 31.6486 0.0003
# 6 -0.0002 0.0000 -0.0011 0.7256 0.0003 23.0779
#
#
#
# Elastic Compliance Matrix: (Units=1/GPa)
#
#
# Indices 1 2 3 4 5 6 
#
# 1 0.019321 -0.010795 0.003652 0.000000 0.014318 0.000000
# 2 -0.010795 0.019765 -0.006170 0.000000 -0.001719 0.000000
# 3 0.003652 -0.006170 0.019093 0.000000 0.010347 0.000001
# 4 0.000000 0.000000 0.000000 0.049344 0.000000 -0.001551
# 5 0.014318 -0.001719 0.010347 0.000000 0.050371 0.000000
# 6 0.000000 0.000000 0.000001 -0.001551 0.000000 0.043380
#
#
# Mechanical properties :
#
#
# Convention : Reuss Voigt Hill
#
# Bulk Modulus (GPa) = 31.69186 52.48267 42.08726
# Shear Modulus (GPa) = 20.97166 25.62354 23.29760
#
# Velocity S-wave (km/s) = 3.33465 3.68598 3.51471
# Velocity P-wave (km/s) = 5.62411 6.77816 6.22792
#
# Compressibility (1/GPa) = 0.03155385
#
# Stress axis : x y z
#
# Youngs Moduli (GPa) = 51.75632 50.59526 52.37523
#
# Poissons Ratio (x) = 0.54616 -0.19128
# Poissons Ratio (y) = 0.55869 0.32315
# Poissons Ratio (z) = -0.18902 0.31217
#
# Static dielectric constant tensor:
#      x y z
#    x 1.718700 0.000000 -0.022510 
#    y 0.000000 1.629230 0.000000 
#    z -0.022510 0.000000 1.746040 
# 
# From -- ./inp_files/235183.got.cif
#   From: 2010.05.17/outbox.cif.g08.bks.cpg/sg12_118_cif.got.tgz:235183.got - 2010.06.03 13:09:07.
