data_PCOD9206155
_publ_section_title
;
Structure prediction by ZEFSAII (Michael W. Deem and Ramdas Pophale) SiO2 
 PCOD9206155
Probable space group: C 2/M
;
_chemical_formula_sum "Si O2"
_cell_formula_units_Z 64
_cell_length_a 9.166642
_cell_length_b 31.213743
_cell_length_c 14.697108
_cell_angle_alpha 90.000000
_cell_angle_beta 137.149105
_cell_angle_gamma 90.000000
_cell_volume 2859.935126
_symmetry_space_group_name_H-M "C 2/M"
_symmetry_group_IT_number 12
_symmetry_cell_setting 'monoclinic'
loop_
_space_group_symop_operation_xyz
x,y,z
-x,y,-z
-x,-y,-z
x,-y,z
1/2+x,1/2+y,z
1/2-x,1/2+y,-z
1/2-x,1/2-y,-z
1/2+x,1/2-y,z
loop_
_atom_site_type_symbol
_atom_site_label
_atom_site_fract_x
_atom_site_fract_y
_atom_site_fract_z
Si Si1 0.267209 0.736782 0.813527
Si Si2 0.877539 0.307534 0.068845
Si Si3 0.255820 0.450393 0.419031
Si Si4 0.528086 0.692758 0.252222
Si Si5 0.804534 0.546621 0.060190
Si Si6 0.355748 0.893603 0.805338
Si Si7 0.189336 0.047291 0.217332
Si Si8 0.126416 0.897498 0.353987
O O1 0.231426 0.705862 0.884918
O O2 0.482792 0.766590 0.900910
O O3 0.291037 0.708718 0.734542
O O4 0.068925 0.769614 0.729983
O O5 0.054936 0.345178 0.158393
O O6 0.683498 0.318402 0.909319
O O7 0.500000 0.455542 0.500000
O O8 0.174381 0.500000 0.387246
O O9 0.173151 0.416796 0.305699
O O10 0.259226 0.425032 0.515577
O O11 0.626717 0.653804 0.353812
O O12 0.905352 0.500000 0.092170
O O13 0.782877 0.553541 0.159385
O O14 0.936782 0.581136 0.066637
O O15 0.564356 0.545987 0.915305
O O16 0.132561 0.903300 0.752901
O O17 0.221186 0.084738 0.303289
O O18 0.250213 0.000000 0.280898
#
# Coordination Sequence:
#
# PCOD9206155 Si02
#       8
#     8   8   8   8   8   8   8   8
#     4  10  21  36  56  83 120 155 184 222 283 348
#     4  11  20  34  56  86 118 151 186 228 281 343
#     4   9  20  40  61  80 108 149 194 243 297 335
#     4  11  20  34  56  86 118 151 186 228 281 343
#     4   9  19  35  53  78 114 148 176 218 286 354
#     4  11  22  35  57  84 110 144 196 244 277 330
#     4   9  19  35  53  78 114 148 176 218 286 354
#     4  11  22  35  57  84 110 144 196 244 277 330
#
# _framework density 22.378132000000001
#
# number of rings (size 3 to 8) (size 9 to 14) (size 15 to 20)
#    0.000    1.875    1.250    5.250    1.750    3.000 
#    0.000    1.875    0.000    6.750    0.000    0.000 
#    0.000    0.000    0.000    0.000    0.000    0.000 
#
# Total GULP energy -178377.238896 kJ/mol
# GULP energy per Si atom -5574.288715 kJ/mol
# Density = 2.232720 g / cm^3
# Si number density = 22.378132 Si / 1000 Ang^3
#
#
#
# Elastic Constant Matrix: (Units=GPa)
#
#
# Indices 1 2 3 4 5 6 
#
# 1 101.9368 26.5471 10.6681 0.0000 1.4427 0.0000
# 2 26.5471 86.3266 23.2712 0.0000 -7.3321 0.0000
# 3 10.6681 23.2712 31.0661 0.0000 -9.1986 0.0000
# 4 0.0000 0.0000 0.0000 16.0983 0.0000 -32.6669
# 5 1.4427 -7.3321 -9.1986 0.0000 29.9768 0.0000
# 6 0.0000 0.0000 0.0000 -32.6669 0.0000 -245.8096
#
#
#
# Elastic Compliance Matrix: (Units=1/GPa)
#
#
# Indices 1 2 3 4 5 6 
#
# 1 0.010816 -0.002925 -0.002078 0.000000 -0.001874 0.000000
# 2 -0.002925 0.015308 -0.010243 0.000000 0.000742 0.000000
# 3 -0.002078 -0.010243 0.043847 0.000000 0.011050 0.000000
# 4 0.000000 0.000000 0.000000 0.048925 0.000000 -0.006502
# 5 -0.001874 0.000742 0.011050 0.000000 0.037021 0.000000
# 6 0.000000 0.000000 0.000000 -0.006502 0.000000 -0.003204
#
#
# Mechanical properties :
#
#
# Convention : Reuss Voigt Hill
#
# Bulk Modulus (GPa) = 25.32942 37.81138 31.57040
# Shear Modulus (GPa) = 25.46303 -29.35737 -1.94717
#
# Velocity S-wave (km/s) = 3.37687 -3.62591 -0.93382
# Velocity P-wave (km/s) = 5.15245 0.77228 3.60217
#
# Compressibility (1/GPa) = 0.03947978
#
# Stress axis : x y z
#
# Youngs Moduli (GPa) = 92.45796 65.32727 22.80644
#
# Poissons Ratio (x) = 0.19109 0.04739
# Poissons Ratio (y) = 0.27045 0.23360
# Poissons Ratio (z) = 0.19210 0.66912
#
# Static dielectric constant tensor:
#      x y z
#    x 1.816950 0.000000 0.025930 
#    y 0.000000 1.857460 0.000000 
#    z 0.025930 0.000000 1.910070 
# 
# From -- ./inp_files/201327.got.cif
#   From: 2010.05.17/outbox.cif.g08.bks.cpg/sg12_101_cif.got.tgz:201327.got - 2010.06.03 13:09:07.
