data_PCOD9206718
_publ_section_title
;
Structure prediction by ZEFSAII (Michael W. Deem and Ramdas Pophale) SiO2 
 PCOD9206718
Probable space group: C 2/M
;
_chemical_formula_sum "Si O2"
_cell_formula_units_Z 40
_cell_length_a 17.162088
_cell_length_b 13.457787
_cell_length_c 9.120139
_cell_angle_alpha 90.000000
_cell_angle_beta 129.901006
_cell_angle_gamma 90.000000
_cell_volume 1615.949272
_symmetry_space_group_name_H-M "C 2/M"
_symmetry_group_IT_number 12
_symmetry_cell_setting 'monoclinic'
loop_
_space_group_symop_operation_xyz
x,y,z
-x,y,-z
-x,-y,-z
x,-y,z
1/2+x,1/2+y,z
1/2-x,1/2+y,-z
1/2-x,1/2-y,-z
1/2+x,1/2-y,z
loop_
_atom_site_type_symbol
_atom_site_label
_atom_site_fract_x
_atom_site_fract_y
_atom_site_fract_z
Si Si1 0.203577 0.285788 0.791872
Si Si2 0.096617 0.171454 0.424553
Si Si3 0.552347 0.500000 0.725761
Si Si4 0.617192 0.783249 0.174139
Si Si5 0.274127 0.500000 0.569079
Si Si6 0.882410 0.500000 0.830228
Si Si7 0.738247 0.000000 0.857939
O O1 0.122711 0.211301 0.618634
O O2 0.299557 0.286586 0.797054
O O3 0.172570 0.399576 0.781280
O O4 0.250000 0.250000 0.000000
O O5 0.114106 0.267875 0.344836
O O6 0.995464 0.105098 0.275221
O O7 0.178051 0.092985 0.459732
O O8 0.500000 0.500000 0.500000
O O9 0.671743 0.500000 0.909851
O O10 0.647614 0.891773 0.149140
O O11 0.500000 0.761513 0.000000
O O12 0.155703 0.500000 0.383432
O O13 0.292316 0.500000 0.762741
O O14 0.000000 0.500000 0.000000
#
# Coordination Sequence:
#
# PCOD9206718 Si02
#       7
#     8   8   4   8   4   4   4
#     4  12  25  42  65  99 139 180 225 283 355 418
#     4  11  23  39  67  93 133 175 220 282 337 404
#     4  11  25  44  66 102 143 181 224 286 368 416
#     4  11  22  40  64  94 125 174 227 279 333 403
#     4  11  20  38  68  96 127 163 239 276 333 399
#     4  10  21  36  61  90 129 167 220 276 339 396
#     4  12  24  41  70 102 135 177 236 287 339 420
#
# _framework density 24.753252
#
# number of rings (size 3 to 8) (size 9 to 14) (size 15 to 20)
#    0.000    0.800    4.000    4.200    0.000    2.400 
#    0.000    0.000    0.000    0.000    0.000   11.200 
#    0.000    0.000    0.000    0.000    0.000    0.000 
#
# Total GULP energy -111507.383379 kJ/mol
# GULP energy per Si atom -5575.369169 kJ/mol
# Density = 2.469691 g / cm^3
# Si number density = 24.753252 Si / 1000 Ang^3
#
#
#
# Elastic Constant Matrix: (Units=GPa)
#
#
# Indices 1 2 3 4 5 6 
#
# 1 29.1510 -4.7773 7.3595 0.0000 3.1724 0.0000
# 2 -4.7773 176.8225 9.3722 0.0000 -8.5744 0.0000
# 3 7.3595 9.3722 107.4249 0.0000 -6.3261 0.0000
# 4 0.0000 0.0000 0.0000 24.2129 0.0000 -4.5688
# 5 3.1724 -8.5744 -6.3261 0.0000 36.2290 0.0000
# 6 0.0000 0.0000 0.0000 -4.5688 0.0000 20.4823
#
#
#
# Elastic Compliance Matrix: (Units=1/GPa)
#
#
# Indices 1 2 3 4 5 6 
#
# 1 0.035509 0.000940 -0.002713 0.000000 -0.003360 0.000000
# 2 0.000940 0.005765 -0.000497 0.000000 0.001195 0.000000
# 3 -0.002713 -0.000497 0.009644 0.000000 0.001804 0.000000
# 4 0.000000 0.000000 0.000000 0.043115 0.000000 0.009617
# 5 -0.003360 0.001195 0.001804 0.000000 0.028494 0.000000
# 6 0.000000 0.000000 0.000000 0.009617 0.000000 0.050968
#
#
# Mechanical properties :
#
#
# Convention : Reuss Voigt Hill
#
# Bulk Modulus (GPa) = 21.56133 37.47859 29.51996
# Shear Modulus (GPa) = 25.84062 36.28110 31.06086
#
# Velocity S-wave (km/s) = 3.23449 3.83261 3.54619
# Velocity P-wave (km/s) = 4.76221 5.89567 5.35899
#
# Compressibility (1/GPa) = 0.04637933
#
# Stress axis : x y z
#
# Youngs Moduli (GPa) = 28.16207 173.45760 103.68872
#
# Poissons Ratio (x) = -0.16308 0.28126
# Poissons Ratio (y) = -0.02648 0.05153
# Poissons Ratio (z) = 0.07639 0.08621
#
# Static dielectric constant tensor:
#      x y z
#    x 1.946130 0.000000 -0.025530 
#    y 0.000000 2.131110 0.000000 
#    z -0.025530 0.000000 2.098920 
# 
# From -- ./inp_files/86130.got.cif
#   From: 2010.05.17/outbox.cif.g08.bks.cpg/sg12_44_cif.got.tgz:86130.got - 2010.06.03 13:09:07.
