data_PCOD9206693
_publ_section_title
;
Structure prediction by ZEFSAII (Michael W. Deem and Ramdas Pophale) SiO2 
 PCOD9206693
Probable space group: C 2/M
;
_chemical_formula_sum "Si O2"
_cell_formula_units_Z 48
_cell_length_a 18.473641
_cell_length_b 22.063478
_cell_length_c 10.745393
_cell_angle_alpha 90.000000
_cell_angle_beta 25.841101
_cell_angle_gamma 90.000000
_cell_volume 1909.029152
_symmetry_space_group_name_H-M "C 2/M"
_symmetry_group_IT_number 12
_symmetry_cell_setting 'monoclinic'
loop_
_space_group_symop_operation_xyz
x,y,z
-x,y,-z
-x,-y,-z
x,-y,z
1/2+x,1/2+y,z
1/2-x,1/2+y,-z
1/2-x,1/2-y,-z
1/2+x,1/2-y,z
loop_
_atom_site_type_symbol
_atom_site_label
_atom_site_fract_x
_atom_site_fract_y
_atom_site_fract_z
Si Si1 0.175019 0.187140 0.472656
Si Si2 0.305035 0.064610 0.273287
Si Si3 0.794541 0.435085 0.573414
Si Si4 0.373413 0.069124 0.813417
Si Si5 0.690139 0.691215 0.732310
Si Si6 0.140659 0.188228 0.172313
O O1 0.240690 0.125436 0.311013
O O2 0.229786 0.250599 0.329877
O O3 0.256546 0.187177 0.485039
O O4 0.977375 0.186612 0.767389
O O5 0.232881 0.063341 0.526378
O O6 0.261550 0.000000 0.281247
O O7 0.500000 0.066952 0.000000
O O8 0.747763 0.500000 0.703125
O O9 0.724981 0.373752 0.736680
O O10 0.994081 0.430108 0.277446
O O11 0.500000 0.074894 0.500000
O O12 0.301969 0.000000 0.919012
O O13 0.251323 0.126758 0.005766
O O14 0.500000 0.702261 0.000000
O O15 0.000000 0.189114 0.500000
O O16 0.250000 0.250000 0.000000
#
# Coordination Sequence:
#
# PCOD9206693 Si02
#       6
#     8   8   8   8   8   8
#     4  10  23  38  56  88 118 153 208 256 311 373
#     4   9  18  34  59  86 118 155 193 253 316 369
#     4   9  19  36  58  87 118 156 205 250 308 376
#     4  10  23  44  69  95 130 174 214 260 319 383
#     4  10  21  36  61  84 115 156 196 261 313 366
#     4  12  28  44  67  95 129 174 218 267 317 378
#
# _framework density 25.14367
#
# number of rings (size 3 to 8) (size 9 to 14) (size 15 to 20)
#    0.000    2.000    0.000    2.000    7.000    1.333 
#    0.000    0.000    0.000    0.000    0.000    0.000 
#    0.000    0.000    0.000    0.000    0.000    0.000 
#
# Total GULP energy -133993.677831 kJ/mol
# GULP energy per Si atom -5583.069910 kJ/mol
# Density = 2.508644 g / cm^3
# Si number density = 25.143670 Si / 1000 Ang^3
#
#
#
# Elastic Constant Matrix: (Units=GPa)
#
#
# Indices 1 2 3 4 5 6 
#
# 1 92.0872 38.0320 10.5338 -0.0019 -2.4452 0.0021
# 2 38.0320 327.0269 118.4473 -0.0111 -16.9701 0.0038
# 3 10.5338 118.4473 95.0629 0.0124 -6.1415 0.0049
# 4 -0.0019 -0.0111 0.0124 53.1723 0.0068 -18.0335
# 5 -2.4452 -16.9701 -6.1415 0.0068 36.8448 -0.0039
# 6 0.0021 0.0038 0.0049 -18.0335 -0.0039 0.1303
#
#
#
# Elastic Compliance Matrix: (Units=1/GPa)
#
#
# Indices 1 2 3 4 5 6 
#
# 1 0.011434 -0.001579 0.000710 0.000001 0.000150 0.000004
# 2 -0.001579 0.005866 -0.007042 -0.000001 0.001423 -0.000011
# 3 0.000710 -0.007042 0.019215 0.000004 0.000007 0.000029
# 4 0.000001 -0.000001 0.000004 -0.000409 -0.000006 -0.056659
# 5 0.000150 0.001423 0.000007 -0.000006 0.027807 -0.000007
# 6 0.000004 -0.000011 0.000029 -0.056659 -0.000007 -0.167061
#
#
# Mechanical properties :
#
#
# Convention : Reuss Voigt Hill
#
# Bulk Modulus (GPa) = 48.32358 94.24480 71.28419
# Shear Modulus (GPa) = -62.16724 41.17373 -10.49676
#
# Velocity S-wave (km/s) = -4.97780 4.05104 -2.04543
# Velocity P-wave (km/s) = 3.71177 7.71007 4.77849
#
# Compressibility (1/GPa) = 0.02069383
#
# Stress axis : x y z
#
# Youngs Moduli (GPa) = 87.45663 170.47642 52.04213
#
# Poissons Ratio (x) = 0.26923 -0.03697
# Poissons Ratio (y) = 0.13812 0.36648
# Poissons Ratio (z) = -0.06213 1.20048
#
# Static dielectric constant tensor:
#      x y z
#    x 2.161520 0.000000 0.142780 
#    y 0.000000 1.966480 -0.000010 
#    z 0.142780 -0.000010 1.971990 
# 
# From -- ./inp_files/241830.got.cif
#   From: 2010.05.17/outbox.cif.g08.bks.cpg/sg12_121_cif.got.tgz:241830.got - 2010.06.03 13:09:07.
