data_PCOD9206380
_publ_section_title
;
Structure prediction by ZEFSAII (Michael W. Deem and Ramdas Pophale) SiO2 
 PCOD9206380
Probable space group: C 2/M
;
_chemical_formula_sum "Si O2"
_cell_formula_units_Z 56
_cell_length_a 13.048205
_cell_length_b 21.506005
_cell_length_c 10.989413
_cell_angle_alpha 90.000000
_cell_angle_beta 83.166213
_cell_angle_gamma 90.000000
_cell_volume 3061.882757
_symmetry_space_group_name_H-M "C 2/M"
_symmetry_group_IT_number 12
_symmetry_cell_setting 'monoclinic'
loop_
_space_group_symop_operation_xyz
x,y,z
-x,y,-z
-x,-y,-z
x,-y,z
1/2+x,1/2+y,z
1/2-x,1/2+y,-z
1/2-x,1/2-y,-z
1/2+x,1/2-y,z
loop_
_atom_site_type_symbol
_atom_site_label
_atom_site_fract_x
_atom_site_fract_y
_atom_site_fract_z
Si Si1 0.754150 0.152433 0.351820
Si Si2 0.205097 0.570478 0.145411
Si Si3 0.044186 0.429311 0.823882
Si Si4 0.036648 0.776457 0.634337
Si Si5 0.325860 0.833692 0.038607
Si Si6 0.406546 0.863586 0.419734
Si Si7 0.845873 0.753358 0.813895
O O1 0.749489 0.091845 0.268132
O O2 0.866936 0.179686 0.354564
O O3 0.696578 0.141219 0.486729
O O4 0.689471 0.203544 0.283171
O O5 0.230850 0.500000 0.112285
O O6 0.079759 0.576179 0.168745
O O7 0.238875 0.619166 0.037946
O O8 0.067617 0.500000 0.861282
O O9 0.092941 0.377185 0.903787
O O10 0.090930 0.414696 0.685166
O O11 0.070936 0.704185 0.641150
O O12 0.000000 0.783746 0.500000
O O13 0.944177 0.786754 0.742121
O O14 0.249832 0.797818 0.140332
O O15 0.370574 0.783725 0.935582
O O16 0.500000 0.876150 0.500000
#
# Coordination Sequence:
#
# PCOD9206380 Si02
#       7
#     8   8   8   8   8   8   8
#     4  11  21  36  57  84 112 152 183 228 283 335
#     4  10  21  38  57  80 112 151 190 228 279 338
#     4  11  22  34  56  86 117 151 186 231 280 332
#     4  11  22  35  59  86 115 145 187 232 284 337
#     4  10  21  36  58  83 119 147 183 229 283 334
#     4  11  19  35  56  83 118 148 184 226 278 342
#     4  10  21  38  57  87 115 149 184 228 282 341
#
# _framework density 18.289401999999999
#
# number of rings (size 3 to 8) (size 9 to 14) (size 15 to 20)
#    0.000    1.429    4.286    3.000    2.000    3.143 
#    0.000    7.143    0.000    3.000    0.000    0.000 
#    0.000    0.000    0.000    0.000    0.000    0.000 
#
# Total GULP energy -156427.620407 kJ/mol
# GULP energy per Si atom -5586.700729 kJ/mol
# Density = 1.824777 g / cm^3
# Si number density = 18.289402 Si / 1000 Ang^3
#
#
#
# Elastic Constant Matrix: (Units=GPa)
#
#
# Indices 1 2 3 4 5 6 
#
# 1 65.6201 21.8722 30.0880 0.0000 2.4432 0.0000
# 2 21.8722 69.5329 24.4795 0.0000 3.5534 0.0000
# 3 30.0880 24.4795 93.0669 0.0000 -15.6429 0.0000
# 4 0.0000 0.0000 0.0000 17.3000 0.0000 5.6352
# 5 2.4432 3.5534 -15.6429 0.0000 24.6800 0.0000
# 6 0.0000 0.0000 0.0000 5.6352 0.0000 23.3271
#
#
#
# Elastic Compliance Matrix: (Units=1/GPa)
#
#
# Indices 1 2 3 4 5 6 
#
# 1 0.019528 -0.003668 -0.006250 0.000000 -0.005367 0.000000
# 2 -0.003668 0.017238 -0.004146 0.000000 -0.004747 0.000000
# 3 -0.006250 -0.004146 0.015737 0.000000 0.011190 0.000000
# 4 0.000000 0.000000 0.000000 0.062740 0.000000 -0.015156
# 5 -0.005367 -0.004747 0.011190 0.000000 0.048826 0.000000
# 6 0.000000 0.000000 0.000000 -0.015156 0.000000 0.046530
#
#
# Mechanical properties :
#
#
# Convention : Reuss Voigt Hill
#
# Bulk Modulus (GPa) = 41.02789 42.34435 41.68612
# Shear Modulus (GPa) = 20.25507 23.18011 21.71759
#
# Velocity S-wave (km/s) = 3.33149 3.56393 3.44966
# Velocity P-wave (km/s) = 6.10571 6.33546 6.22165
#
# Compressibility (1/GPa) = 0.02437366
#
# Stress axis : x y z
#
# Youngs Moduli (GPa) = 51.20973 58.01254 63.54399
#
# Poissons Ratio (x) = 0.21278 0.39718
# Poissons Ratio (y) = 0.18783 0.26346
# Poissons Ratio (z) = 0.32008 0.24053
#
# Static dielectric constant tensor:
#      x y z
#    x 1.615700 0.000000 0.013860 
#    y 0.000000 1.631840 0.000000 
#    z 0.013860 0.000000 1.667580 
# 
# From -- ./inp_files/133142.got.cif
#   From: 2010.05.17/outbox.cif.g08.bks.cpg/sg12_67_cif.got.tgz:133142.got - 2010.06.03 13:09:07.
