data_PCOD9206106
_publ_section_title
;
Structure prediction by ZEFSAII (Michael W. Deem and Ramdas Pophale) SiO2 
 PCOD9206106
Probable space group: C 2/M
;
_chemical_formula_sum "Si O2"
_cell_formula_units_Z 40
_cell_length_a 13.119146
_cell_length_b 22.677059
_cell_length_c 9.405648
_cell_angle_alpha 90.000000
_cell_angle_beta 49.455229
_cell_angle_gamma 90.000000
_cell_volume 2126.358381
_symmetry_space_group_name_H-M "C 2/M"
_symmetry_group_IT_number 12
_symmetry_cell_setting 'monoclinic'
loop_
_space_group_symop_operation_xyz
x,y,z
-x,y,-z
-x,-y,-z
x,-y,z
1/2+x,1/2+y,z
1/2-x,1/2+y,-z
1/2-x,1/2-y,-z
1/2+x,1/2-y,z
loop_
_atom_site_type_symbol
_atom_site_label
_atom_site_fract_x
_atom_site_fract_y
_atom_site_fract_z
Si Si1 0.219078 0.567301 0.553980
Si Si2 0.378119 0.183243 0.503051
Si Si3 0.639181 0.570603 0.305271
Si Si4 0.589765 0.269944 0.789773
Si Si5 0.499926 0.400846 0.167204
O O1 0.167452 0.500000 0.596424
O O2 0.142655 0.616319 0.532569
O O3 0.240999 0.588808 0.697945
O O4 0.370485 0.567633 0.352888
O O5 0.500000 0.187598 0.500000
O O6 0.401692 0.223622 0.343964
O O7 0.239585 0.208474 0.695474
O O8 0.500000 0.594744 0.500000
O O9 0.636820 0.500000 0.321120
O O10 0.628285 0.584147 0.148185
O O11 0.521650 0.330841 0.800813
O O12 0.500000 0.247124 0.000000
O O13 0.500000 0.415401 0.000000
#
# Coordination Sequence:
#
# PCOD9206106 Si02
#       5
#     8   8   8   8   8
#     4   9  18  32  48  70 104 142 176 211 258 316
#     4  10  21  36  56  81 106 139 182 220 262 318
#     4   8  14  25  43  67  97 134 169 204 253 307
#     4   9  20  37  55  79 109 137 172 221 272 317
#     4   9  16  27  48  79 107 131 168 219 269 311
#
# _framework density 18.811503999999999
#
# number of rings (size 3 to 8) (size 9 to 14) (size 15 to 20)
#    0.000    3.000    0.000    1.800    0.000    8.400 
#    0.000    4.000    0.000    0.600    0.000    0.000 
#    0.000    0.000    0.000    0.000    0.000    0.000 
#
# Total GULP energy -111345.145668 kJ/mol
# GULP energy per Si atom -5567.257283 kJ/mol
# Density = 1.876869 g / cm^3
# Si number density = 18.811504 Si / 1000 Ang^3
#
#
#
# Elastic Constant Matrix: (Units=GPa)
#
#
# Indices 1 2 3 4 5 6 
#
# 1 132.0229 44.3137 38.6656 0.0000 11.0923 0.0000
# 2 44.3137 48.0871 21.0442 0.0000 7.1602 0.0000
# 3 38.6656 21.0442 72.5068 0.0000 13.2617 0.0000
# 4 0.0000 0.0000 0.0000 44.1242 0.0000 -5.9901
# 5 11.0923 7.1602 13.2617 0.0000 14.1601 0.0000
# 6 0.0000 0.0000 0.0000 -5.9901 0.0000 16.3406
#
#
#
# Elastic Compliance Matrix: (Units=1/GPa)
#
#
# Indices 1 2 3 4 5 6 
#
# 1 0.011745 -0.009144 -0.003345 0.000000 -0.001444 0.000000
# 2 -0.009144 0.031483 -0.003209 0.000000 -0.005751 0.000000
# 3 -0.003345 -0.003209 0.018983 0.000000 -0.013535 0.000000
# 4 0.000000 0.000000 0.000000 0.023850 0.000000 0.008743
# 5 -0.001444 -0.005751 -0.013535 0.000000 0.087336 0.000000
# 6 0.000000 0.000000 0.000000 0.008743 0.000000 0.064402
#
#
# Mechanical properties :
#
#
# Convention : Reuss Voigt Hill
#
# Bulk Modulus (GPa) = 32.45372 51.18487 41.81930
# Shear Modulus (GPa) = 17.89117 24.83119 21.36118
#
# Velocity S-wave (km/s) = 3.08730 3.63712 3.37343
# Velocity P-wave (km/s) = 5.47705 6.70124 6.11983
#
# Compressibility (1/GPa) = 0.03081311
#
# Stress axis : x y z
#
# Youngs Moduli (GPa) = 85.14508 31.76310 52.67943
#
# Poissons Ratio (x) = 0.29045 0.17621
# Poissons Ratio (y) = 0.77859 0.16907
# Poissons Ratio (z) = 0.28481 0.10194
#
# Static dielectric constant tensor:
#      x y z
#    x 1.683460 0.000000 0.020090 
#    y 0.000000 1.648520 0.000000 
#    z 0.020090 0.000000 1.688570 
# 
# From -- ./inp_files/50432.got.cif
#   From: 2010.05.17/outbox.cif.g08.bks.cpg/sg12_26_cif.got.tgz:50432.got - 2010.06.03 13:09:07.
