data_PCOD9206967
_publ_section_title
;
Structure prediction by ZEFSAII (Michael W. Deem and Ramdas Pophale) SiO2 
 PCOD9206967
Probable space group: C 2/M
;
_chemical_formula_sum "Si O2"
_cell_formula_units_Z 44
_cell_length_a 20.277799
_cell_length_b 22.331241
_cell_length_c 5.077817
_cell_angle_alpha 90.000000
_cell_angle_beta 70.979861
_cell_angle_gamma 90.000000
_cell_volume 2173.843080
_symmetry_space_group_name_H-M "C 2/M"
_symmetry_group_IT_number 12
_symmetry_cell_setting 'monoclinic'
loop_
_space_group_symop_operation_xyz
x,y,z
-x,y,-z
-x,-y,-z
x,-y,z
1/2+x,1/2+y,z
1/2-x,1/2+y,-z
1/2-x,1/2-y,-z
1/2+x,1/2-y,z
loop_
_atom_site_type_symbol
_atom_site_label
_atom_site_fract_x
_atom_site_fract_y
_atom_site_fract_z
Si Si1 0.500000 0.380482 0.000000
Si Si2 0.685270 0.500000 0.120675
Si Si3 0.719524 0.000000 0.510188
Si Si4 0.429095 0.284700 0.712714
Si Si5 0.128658 0.892857 0.519059
Si Si6 0.806411 0.702409 0.033631
Si Si7 0.278172 0.872839 0.575665
O O1 0.544521 0.335796 0.123426
O O2 0.441636 0.414578 0.243404
O O3 0.750621 0.500000 0.234882
O O4 0.644783 0.439901 0.263958
O O5 0.716646 0.500000 0.788550
O O6 0.683543 0.936185 0.518741
O O7 0.500000 0.258359 0.500000
O O8 0.387186 0.325467 0.558538
O O9 0.380027 0.235009 0.899449
O O10 0.196866 0.885790 0.612466
O O11 0.792948 0.647768 0.851275
O O12 0.750000 0.750000 0.000000
O O13 0.798521 0.678457 0.339896
#
# Coordination Sequence:
#
# PCOD9206967 Si02
#       7
#     4   4   4   8   8   8   8
#     4  10  22  37  56  74 120 163 202 242 294 344
#     4  10  22  35  61  79 118 158 210 239 283 341
#     4  10  22  40  58  88 120 155 190 247 303 355
#     4  10  23  38  56  82 123 159 194 243 302 350
#     4  10  21  37  55  83 115 164 197 247 288 343
#     4  12  23  36  62  93 118 152 199 246 293 361
#     4  11  23  38  63  88 119 151 196 246 301 345
#
# _framework density 20.240649999999999
#
# number of rings (size 3 to 8) (size 9 to 14) (size 15 to 20)
#    0.000    1.455    1.818    3.818   10.182    0.364 
#    0.000    4.091    0.000    0.000    0.000    3.818 
#    0.000    0.000    0.000    0.000    0.000    0.000 
#
# Total GULP energy -122836.239039 kJ/mol
# GULP energy per Si atom -5583.465411 kJ/mol
# Density = 2.019458 g / cm^3
# Si number density = 20.240650 Si / 1000 Ang^3
#
#
#
# Elastic Constant Matrix: (Units=GPa)
#
#
# Indices 1 2 3 4 5 6 
#
# 1 45.2561 2.9547 9.5398 0.0000 -9.0447 0.0000
# 2 2.9547 57.3073 -4.4240 0.0000 -18.5698 0.0000
# 3 9.5398 -4.4240 57.4038 0.0000 -16.5563 0.0000
# 4 0.0000 0.0000 0.0000 34.0446 0.0000 -1.0043
# 5 -9.0447 -18.5698 -16.5563 0.0000 32.4601 0.0000
# 6 0.0000 0.0000 0.0000 -1.0043 0.0000 7.3747
#
#
#
# Elastic Compliance Matrix: (Units=1/GPa)
#
#
# Indices 1 2 3 4 5 6 
#
# 1 0.023683 0.000455 -0.002254 0.000000 0.005710 0.000000
# 2 0.000455 0.023406 0.006597 0.000000 0.016882 0.000000
# 3 -0.002254 0.006597 0.022524 0.000000 0.014635 0.000000
# 4 0.000000 0.000000 0.000000 0.029492 0.000000 0.004016
# 5 0.005710 0.016882 0.014635 0.000000 0.049520 0.000000
# 6 0.000000 0.000000 0.000000 0.004016 0.000000 0.136146
#
#
# Mechanical properties :
#
#
# Convention : Reuss Voigt Hill
#
# Bulk Modulus (GPa) = 12.62462 19.56760 16.09611
# Shear Modulus (GPa) = 16.57947 24.90233 20.74090
#
# Velocity S-wave (km/s) = 2.86513 3.51139 3.20459
# Velocity P-wave (km/s) = 4.14682 5.11158 4.65426
#
# Compressibility (1/GPa) = 0.07921031
#
# Stress axis : x y z
#
# Youngs Moduli (GPa) = 42.22435 42.72404 44.39632
#
# Poissons Ratio (x) = -0.01944 0.10007
# Poissons Ratio (y) = -0.01922 -0.29289
# Poissons Ratio (z) = 0.09517 -0.28186
#
# Static dielectric constant tensor:
#      x y z
#    x 1.735600 0.000000 0.016350 
#    y 0.000000 1.770450 0.000000 
#    z 0.016350 0.000000 1.790890 
# 
# From -- ./inp_files/20911.got.cif
#   From: 2010.05.17/outbox.cif.g08.bks.cpg/sg12_11_cif.got.tgz:20911.got - 2010.06.03 13:09:07.
