data_PCOD9206267
_publ_section_title
;
Structure prediction by ZEFSAII (Michael W. Deem and Ramdas Pophale) SiO2 
 PCOD9206267
Probable space group: C 2/M
;
_chemical_formula_sum "Si O2"
_cell_formula_units_Z 48
_cell_length_a 21.779668
_cell_length_b 10.075985
_cell_length_c 18.750777
_cell_angle_alpha 90.000000
_cell_angle_beta 148.930341
_cell_angle_gamma 90.000000
_cell_volume 2123.610743
_symmetry_space_group_name_H-M "C 2/M"
_symmetry_group_IT_number 12
_symmetry_cell_setting 'monoclinic'
loop_
_space_group_symop_operation_xyz
x,y,z
-x,y,-z
-x,-y,-z
x,-y,z
1/2+x,1/2+y,z
1/2-x,1/2+y,-z
1/2-x,1/2-y,-z
1/2+x,1/2-y,z
loop_
_atom_site_type_symbol
_atom_site_label
_atom_site_fract_x
_atom_site_fract_y
_atom_site_fract_z
Si Si1 0.232006 0.152480 0.049285
Si Si2 0.844822 0.146766 0.564891
Si Si3 0.203268 0.352442 0.280913
Si Si4 0.003157 0.356816 0.681631
Si Si5 0.127570 0.351744 0.595422
Si Si6 0.001970 0.155018 0.915817
O O1 0.363641 0.153826 0.215799
O O2 0.126060 0.183165 0.998896
O O3 0.212459 0.000000 0.005325
O O4 0.250000 0.250000 0.000000
O O5 0.750000 0.250000 0.500000
O O6 0.799427 0.128680 0.439058
O O7 0.969212 0.225069 0.690875
O O8 0.846790 0.000000 0.599685
O O9 0.167234 0.500000 0.220348
O O10 0.272347 0.257960 0.294152
O O11 0.095611 0.263689 0.203746
O O12 0.995706 0.500000 0.713494
O O13 0.906847 0.363764 0.522636
O O14 0.163588 0.500000 0.655403
O O15 0.000000 0.314866 0.500000
O O16 0.970821 0.000000 0.870559
O O17 0.000000 0.167618 0.000000
#
# Coordination Sequence:
#
# PCOD9206267 Si02
#       6
#     8   8   8   8   8   8
#     4  10  23  41  62  90 122 160 203 251 303 357
#     4  10  21  36  57  84 115 151 193 243 300 356
#     4  10  22  38  56  84 121 155 193 245 305 363
#     4   9  19  36  56  83 116 149 193 245 298 353
#     4   9  18  33  60  88 112 148 194 244 296 354
#     4  10  23  42  66  91 120 160 209 256 298 356
#
# _framework density 22.603013000000001
#
# number of rings (size 3 to 8) (size 9 to 14) (size 15 to 20)
#    0.000    2.333    0.000    1.000    4.667    4.000 
#    0.000    0.000    0.000    0.000    0.000    0.000 
#    0.000    0.000    0.000    0.000    0.000    0.000 
#
# Total GULP energy -133809.263379 kJ/mol
# GULP energy per Si atom -5575.385974 kJ/mol
# Density = 2.255157 g / cm^3
# Si number density = 22.603013 Si / 1000 Ang^3
#
#
#
# Elastic Constant Matrix: (Units=GPa)
#
#
# Indices 1 2 3 4 5 6 
#
# 1 100.1291 74.3323 34.4160 0.0000 30.7889 0.0000
# 2 74.3323 198.1557 73.5892 0.0000 54.9889 0.0000
# 3 34.4160 73.5892 72.9414 0.0000 23.4213 0.0000
# 4 0.0000 0.0000 0.0000 20.1266 0.0000 7.0675
# 5 30.7889 54.9889 23.4213 0.0000 52.1864 0.0000
# 6 0.0000 0.0000 0.0000 7.0675 0.0000 18.0209
#
#
#
# Elastic Compliance Matrix: (Units=1/GPa)
#
#
# Indices 1 2 3 4 5 6 
#
# 1 0.014565 -0.003681 -0.001922 0.000000 -0.003852 0.000000
# 2 -0.003681 0.010744 -0.007203 0.000000 -0.005917 0.000000
# 3 -0.001922 -0.007203 0.022295 0.000000 -0.001283 0.000000
# 4 0.000000 0.000000 0.000000 0.057621 0.000000 -0.022598
# 5 -0.003852 -0.005917 -0.001283 0.000000 0.028245 0.000000
# 6 0.000000 0.000000 0.000000 -0.022598 0.000000 0.064354
#
#
# Mechanical properties :
#
#
# Convention : Reuss Voigt Hill
#
# Bulk Modulus (GPa) = 45.46932 81.76680 63.61806
# Shear Modulus (GPa) = 21.66703 30.65936 26.16319
#
# Velocity S-wave (km/s) = 3.09947 3.68697 3.40591
# Velocity P-wave (km/s) = 5.74187 7.37419 6.60862
#
# Compressibility (1/GPa) = 0.02199285
#
# Stress axis : x y z
#
# Youngs Moduli (GPa) = 68.65965 93.07279 44.85290
#
# Poissons Ratio (x) = 0.34260 0.08619
# Poissons Ratio (y) = 0.25274 0.32308
# Poissons Ratio (z) = 0.13193 0.67040
#
# Static dielectric constant tensor:
#      x y z
#    x 1.893850 0.000000 -0.052470 
#    y 0.000000 1.937010 0.000000 
#    z -0.052470 0.000000 1.890750 
# 
# From -- ./inp_files/348894.got.cif
#   From: 2010.05.17/outbox.cif.g08.bks.cpg/sg12_175_cif.got.tgz:348894.got - 2010.06.03 13:09:07.
