data_PCOD9206317
_publ_section_title
;
Structure prediction by ZEFSAII (Michael W. Deem and Ramdas Pophale) SiO2 
 PCOD9206317
Probable space group: C 2/M
;
_chemical_formula_sum "Si O2"
_cell_formula_units_Z 48
_cell_length_a 30.088274
_cell_length_b 10.106773
_cell_length_c 16.358247
_cell_angle_alpha 90.000000
_cell_angle_beta 153.822524
_cell_angle_gamma 90.000000
_cell_volume 2194.501460
_symmetry_space_group_name_H-M "C 2/M"
_symmetry_group_IT_number 12
_symmetry_cell_setting 'monoclinic'
loop_
_space_group_symop_operation_xyz
x,y,z
-x,y,-z
-x,-y,-z
x,-y,z
1/2+x,1/2+y,z
1/2-x,1/2+y,-z
1/2-x,1/2-y,-z
1/2+x,1/2-y,z
loop_
_atom_site_type_symbol
_atom_site_label
_atom_site_fract_x
_atom_site_fract_y
_atom_site_fract_z
Si Si1 0.112526 0.284420 0.175207
Si Si2 0.896152 0.351846 0.551985
Si Si3 0.325662 0.647486 0.877145
Si Si4 0.980878 0.147498 0.563078
Si Si5 0.706915 0.351198 0.994921
Si Si6 0.344081 0.357238 0.595074
O O1 0.113640 0.241010 0.082573
O O2 0.221444 0.352272 0.377757
O O3 0.124409 0.162173 0.258624
O O4 0.000000 0.344587 0.000000
O O5 0.941153 0.500000 0.632235
O O6 0.777936 0.368202 0.342372
O O7 0.898837 0.259946 0.636227
O O8 0.932034 0.264403 0.534490
O O9 0.370205 0.500000 0.962393
O O10 0.294318 0.700244 0.914304
O O11 0.000000 0.181298 0.500000
O O12 0.931069 0.000000 0.484486
O O13 0.090757 0.134164 0.782008
O O14 0.753863 0.500000 0.070320
O O15 0.750000 0.250000 0.000000
O O16 0.377630 0.500000 0.619486
#
# Coordination Sequence:
#
# PCOD9206317 Si02
#       6
#     8   8   8   8   8   8
#     4  10  22  38  62  92 125 164 211 258 309 376
#     4  10  21  38  60  84 117 157 202 252 300 363
#     4   9  19  36  57  84 115 151 198 245 293 353
#     4  10  21  36  57  87 119 152 194 246 307 367
#     4  10  21  37  59  84 116 151 192 243 293 357
#     4  10  22  40  63  91 126 165 205 259 318 368
#
# _framework density 21.872848999999999
#
# number of rings (size 3 to 8) (size 9 to 14) (size 15 to 20)
#    0.000    2.167    0.000    2.000    2.333    6.667 
#    0.000    3.333    0.000    0.000    0.000    0.000 
#    0.000    0.000    0.000    0.000    0.000    0.000 
#
# Total GULP energy -133654.007351 kJ/mol
# GULP energy per Si atom -5568.916973 kJ/mol
# Density = 2.182307 g / cm^3
# Si number density = 21.872849 Si / 1000 Ang^3
#
#
#
# Elastic Constant Matrix: (Units=GPa)
#
#
# Indices 1 2 3 4 5 6 
#
# 1 133.4149 78.5768 9.4634 0.0000 -14.1576 0.0000
# 2 78.5768 145.3138 8.6891 0.0000 8.3790 0.0000
# 3 9.4634 8.6891 71.4271 0.0000 -5.4869 0.0000
# 4 0.0000 0.0000 0.0000 -0.3138 0.0000 -19.9993
# 5 -14.1576 8.3790 -5.4869 0.0000 36.4752 0.0000
# 6 0.0000 0.0000 0.0000 -19.9993 0.0000 -16.1543
#
#
#
# Elastic Compliance Matrix: (Units=1/GPa)
#
#
# Indices 1 2 3 4 5 6 
#
# 1 0.012318 -0.007009 -0.000292 0.000000 0.006347 0.000000
# 2 -0.007009 0.011031 -0.000827 0.000000 -0.005379 0.000000
# 3 -0.000292 -0.000827 0.014311 0.000000 0.002229 0.000000
# 4 0.000000 0.000000 0.000000 0.040907 0.000000 -0.050644
# 5 0.006347 -0.005379 0.002229 0.000000 0.031451 0.000000
# 6 0.000000 0.000000 0.000000 -0.050644 0.000000 0.000795
#
#
# Mechanical properties :
#
#
# Convention : Reuss Voigt Hill
#
# Bulk Modulus (GPa) = 46.71811 60.40159 53.55985
# Shear Modulus (GPa) = 37.25708 20.89654 29.07681
#
# Velocity S-wave (km/s) = 4.13164 3.09425 3.64999
# Velocity P-wave (km/s) = 6.64575 6.35930 6.50410
#
# Compressibility (1/GPa) = 0.02140498
#
# Stress axis : x y z
#
# Youngs Moduli (GPa) = 81.18243 90.64970 69.87762
#
# Poissons Ratio (x) = 0.63540 0.02038
# Poissons Ratio (y) = 0.56904 0.05776
# Poissons Ratio (z) = 0.02368 0.07492
#
# Static dielectric constant tensor:
#      x y z
#    x 1.944010 0.000000 -0.069840 
#    y 0.000000 1.914960 0.000000 
#    z -0.069840 0.000000 1.867390 
# 
# From -- ./inp_files/246013.got.cif
#   From: 2010.05.17/outbox.cif.g08.bks.cpg/sg12_124_cif.got.tgz:246013.got - 2010.06.03 13:09:07.
