data_PCOD9206786
_publ_section_title
;
Structure prediction by ZEFSAII (Michael W. Deem and Ramdas Pophale) SiO2 
 PCOD9206786
Probable space group: C 2/M
;
_chemical_formula_sum "Si O2"
_cell_formula_units_Z 56
_cell_length_a 8.637834
_cell_length_b 27.985590
_cell_length_c 12.446957
_cell_angle_alpha 90.000000
_cell_angle_beta 121.179822
_cell_angle_gamma 90.000000
_cell_volume 2574.223206
_symmetry_space_group_name_H-M "C 2/M"
_symmetry_group_IT_number 12
_symmetry_cell_setting 'monoclinic'
loop_
_space_group_symop_operation_xyz
x,y,z
-x,y,-z
-x,-y,-z
x,-y,z
1/2+x,1/2+y,z
1/2-x,1/2+y,-z
1/2-x,1/2-y,-z
1/2+x,1/2-y,z
loop_
_atom_site_type_symbol
_atom_site_label
_atom_site_fract_x
_atom_site_fract_y
_atom_site_fract_z
Si Si1 0.183706 0.278263 0.814221
Si Si2 0.187186 0.884698 0.130067
Si Si3 0.199865 0.287011 0.577946
Si Si4 0.519377 0.355659 0.632780
Si Si5 0.675250 0.052429 0.990449
Si Si6 0.876828 0.687961 0.863461
Si Si7 0.459847 0.555457 0.737367
O O1 0.287655 0.328443 0.848562
O O2 0.170944 0.263090 0.684203
O O3 0.287131 0.232467 0.896257
O O4 0.002425 0.290838 0.813365
O O5 0.333411 0.907395 0.103204
O O6 0.176857 0.915867 0.233722
O O7 0.000000 0.892231 0.000000
O O8 0.250000 0.250000 0.500000
O O9 0.364739 0.324038 0.635245
O O10 0.000000 0.311014 0.500000
O O11 0.500000 0.344740 0.500000
O O12 0.713885 0.342649 0.754478
O O13 0.480909 0.411284 0.641330
O O14 0.695768 0.000000 0.944343
O O15 0.500000 0.052102 0.000000
O O16 0.848945 0.057442 0.130089
O O17 0.000000 0.663728 0.000000
O O18 0.414318 0.500000 0.703815
#
# Coordination Sequence:
#
# PCOD9206786 Si02
#       7
#     8   8   8   8   8   8   8
#     4  12  24  41  64  99 137 184 224 288 343 420
#     4  10  21  36  63  92 134 178 227 272 348 415
#     4  12  24  44  71  98 134 184 240 289 340 414
#     4  12  26  46  70 101 136 185 236 291 348 418
#     4   9  19  36  63  98 136 177 227 287 347 415
#     4  12  28  43  68 102 149 185 229 283 356 420
#     4  10  22  41  66  95 133 179 232 285 349 416
#
# _framework density 21.754135000000002
#
# number of rings (size 3 to 8) (size 9 to 14) (size 15 to 20)
#    0.000    1.000    1.429    6.000    6.000    2.000 
#    0.000    0.000    0.000    0.429    0.000    0.000 
#    0.000    0.000    0.000    0.000    0.000    0.000 
#
# Total GULP energy -156396.786127 kJ/mol
# GULP energy per Si atom -5585.599505 kJ/mol
# Density = 2.170462 g / cm^3
# Si number density = 21.754135 Si / 1000 Ang^3
#
#
#
# Elastic Constant Matrix: (Units=GPa)
#
#
# Indices 1 2 3 4 5 6 
#
# 1 115.8407 20.2662 42.9908 0.0000 -5.8143 0.0000
# 2 20.2662 115.5654 23.5744 0.0000 -6.0216 0.0000
# 3 42.9908 23.5744 87.1078 0.0000 -3.1277 0.0000
# 4 0.0000 0.0000 0.0000 25.2927 0.0000 -8.2713
# 5 -5.8143 -6.0216 -3.1277 0.0000 31.2791 0.0000
# 6 0.0000 0.0000 0.0000 -8.2713 0.0000 31.6918
#
#
#
# Elastic Compliance Matrix: (Units=1/GPa)
#
#
# Indices 1 2 3 4 5 6 
#
# 1 0.010700 -0.000783 -0.005021 0.000000 0.001336 0.000000
# 2 -0.000783 0.009289 -0.002076 0.000000 0.001435 0.000000
# 3 -0.005021 -0.002076 0.014524 0.000000 0.000119 0.000000
# 4 0.000000 0.000000 0.000000 0.043227 0.000000 0.011282
# 5 0.001336 0.001435 0.000119 0.000000 0.032507 0.000000
# 6 0.000000 0.000000 0.000000 0.011282 0.000000 0.034498
#
#
# Mechanical properties :
#
#
# Convention : Reuss Voigt Hill
#
# Bulk Modulus (GPa) = 53.32345 54.68630 54.00488
# Shear Modulus (GPa) = 29.98411 33.09821 31.54116
#
# Velocity S-wave (km/s) = 3.71660 3.90483 3.81188
# Velocity P-wave (km/s) = 6.55611 6.74709 6.65228
#
# Compressibility (1/GPa) = 0.01875348
#
# Stress axis : x y z
#
# Youngs Moduli (GPa) = 93.45863 107.65860 68.85040
#
# Poissons Ratio (x) = 0.08425 0.34570
# Poissons Ratio (y) = 0.07313 0.14294
# Poissons Ratio (z) = 0.46926 0.22351
#
# Static dielectric constant tensor:
#      x y z
#    x 1.824990 0.000000 0.022890 
#    y 0.000000 1.817760 0.000000 
#    z 0.022890 0.000000 1.864180 
# 
# From -- ./inp_files/125822.got.cif
#   From: 2010.05.17/outbox.cif.g08.bks.cpg/sg12_63_cif.got.tgz:125822.got - 2010.06.03 13:09:07.
