data_PCOD9206449
_publ_section_title
;
Structure prediction by ZEFSAII (Michael W. Deem and Ramdas Pophale) SiO2 
 PCOD9206449
Probable space group: C 2/M
;
_chemical_formula_sum "Si O2"
_cell_formula_units_Z 48
_cell_length_a 25.597442
_cell_length_b 13.081470
_cell_length_c 5.498722
_cell_angle_alpha 90.000000
_cell_angle_beta 91.971636
_cell_angle_gamma 90.000000
_cell_volume 1840.168932
_symmetry_space_group_name_H-M "C 2/M"
_symmetry_group_IT_number 12
_symmetry_cell_setting 'monoclinic'
loop_
_space_group_symop_operation_xyz
x,y,z
-x,y,-z
-x,-y,-z
x,-y,z
1/2+x,1/2+y,z
1/2-x,1/2+y,-z
1/2-x,1/2-y,-z
1/2+x,1/2-y,z
loop_
_atom_site_type_symbol
_atom_site_label
_atom_site_fract_x
_atom_site_fract_y
_atom_site_fract_z
Si Si1 0.552575 0.385771 0.757327
Si Si2 0.744522 0.121784 0.260599
Si Si3 0.619003 0.737221 0.433663
Si Si4 0.684529 0.121966 0.745453
Si Si5 0.839750 0.116328 0.954909
Si Si6 0.517360 0.179710 0.246737
O O1 0.529620 0.500000 0.751966
O O2 0.585877 0.359544 0.522769
O O3 0.512795 0.291092 0.765837
O O4 0.599313 0.383850 0.961042
O O5 0.708660 0.143113 0.015072
O O6 0.802760 0.148103 0.174276
O O7 0.745205 0.000000 0.276876
O O8 0.723534 0.148856 0.525644
O O9 0.634630 0.810986 0.658741
O O10 0.663936 0.689954 0.274852
O O11 0.579117 0.803360 0.265803
O O12 0.673829 0.000000 0.733697
O O13 0.824504 0.000000 0.886970
O O14 0.500000 0.133351 0.500000
O O15 0.500000 0.125355 0.000000
#
# Coordination Sequence:
#
# PCOD9206449 Si02
#       6
#     8   8   8   8   8   8
#     4  10  22  38  58  87 125 163 196 235 295 359
#     4   9  21  40  60  86 121 158 197 247 299 349
#     4  11  23  36  62  86 119 156 208 244 294 351
#     4  10  23  42  63  85 117 159 201 250 303 350
#     4  10  21  36  58  88 124 159 197 242 291 353
#     4  10  21  38  57  84 118 159 192 239 289 347
#
# _framework density 26.084561999999998
#
# number of rings (size 3 to 8) (size 9 to 14) (size 15 to 20)
#    0.000    2.000    1.667    0.500    4.667    5.333 
#    0.000    0.000    0.000    5.000    0.000    0.000 
#    0.000    0.000    0.000    0.000    0.000    0.000 
#
# Total GULP energy -134176.760928 kJ/mol
# GULP energy per Si atom -5590.698372 kJ/mol
# Density = 2.602519 g / cm^3
# Si number density = 26.084562 Si / 1000 Ang^3
#
#
#
# Elastic Constant Matrix: (Units=GPa)
#
#
# Indices 1 2 3 4 5 6 
#
# 1 54.6937 10.4351 -0.2107 0.0000 6.8230 0.0000
# 2 10.4351 91.3791 1.9233 0.0000 -2.7370 0.0000
# 3 -0.2107 1.9233 121.7080 0.0000 -22.0763 0.0000
# 4 0.0000 0.0000 0.0000 24.5011 0.0000 7.8636
# 5 6.8230 -2.7370 -22.0763 0.0000 54.2315 0.0000
# 6 0.0000 0.0000 0.0000 7.8636 0.0000 13.8727
#
#
#
# Elastic Compliance Matrix: (Units=1/GPa)
#
#
# Indices 1 2 3 4 5 6 
#
# 1 0.019045 -0.002246 -0.000418 0.000000 -0.002679 0.000000
# 2 -0.002246 0.011226 -0.000029 0.000000 0.000837 0.000000
# 3 -0.000418 -0.000029 0.008881 0.000000 0.003666 0.000000
# 4 0.000000 0.000000 0.000000 0.049891 0.000000 -0.028280
# 5 -0.002679 0.000837 0.003666 0.000000 0.020311 0.000000
# 6 0.000000 0.000000 0.000000 -0.028280 0.000000 0.088114
#
#
# Mechanical properties :
#
#
# Convention : Reuss Voigt Hill
#
# Bulk Modulus (GPa) = 29.61639 32.45292 31.03466
# Shear Modulus (GPa) = 23.35252 35.56327 29.45789
#
# Velocity S-wave (km/s) = 2.99534 3.69641 3.36419
# Velocity P-wave (km/s) = 4.83129 5.53953 5.19749
#
# Compressibility (1/GPa) = 0.03376508
#
# Stress axis : x y z
#
# Youngs Moduli (GPa) = 52.50762 89.08187 112.59792
#
# Poissons Ratio (x) = 0.20010 0.04701
# Poissons Ratio (y) = 0.11795 0.00331
# Poissons Ratio (z) = 0.02192 0.00262
#
# Static dielectric constant tensor:
#      x y z
#    x 2.103540 0.000000 0.011040 
#    y 0.000000 2.016330 0.000000 
#    z 0.011040 0.000000 2.120300 
# 
# From -- ./inp_files/24787.got.cif
#   From: 2010.05.17/outbox.cif.g08.bks.cpg/sg12_13_cif.got.tgz:24787.got - 2010.06.03 13:09:07.
