data_PCOD9206930
_publ_section_title
;
Structure prediction by ZEFSAII (Michael W. Deem and Ramdas Pophale) SiO2 
 PCOD9206930
Probable space group: C 2/M
;
_chemical_formula_sum "Si O2"
_cell_formula_units_Z 56
_cell_length_a 16.484463
_cell_length_b 7.929039
_cell_length_c 23.810619
_cell_angle_alpha 90.000000
_cell_angle_beta 59.571350
_cell_angle_gamma 90.000000
_cell_volume 2683.518221
_symmetry_space_group_name_H-M "C 2/M"
_symmetry_group_IT_number 12
_symmetry_cell_setting 'monoclinic'
loop_
_space_group_symop_operation_xyz
x,y,z
-x,y,-z
-x,-y,-z
x,-y,z
1/2+x,1/2+y,z
1/2-x,1/2+y,-z
1/2-x,1/2-y,-z
1/2+x,1/2-y,z
loop_
_atom_site_type_symbol
_atom_site_label
_atom_site_fract_x
_atom_site_fract_y
_atom_site_fract_z
Si Si1 0.066792 0.201440 0.427224
Si Si2 0.280060 0.800510 0.349756
Si Si3 0.254611 0.296814 0.933378
Si Si4 0.571043 0.692144 0.203716
Si Si5 0.468362 0.804422 0.346651
Si Si6 0.076589 0.805960 0.931393
Si Si7 0.375766 0.693013 0.205744
O O1 0.174233 0.269043 0.393940
O O2 0.014733 0.227688 0.385958
O O3 0.000000 0.269235 0.500000
O O4 0.075105 0.000000 0.431900
O O5 0.368244 0.732728 0.356872
O O6 0.307788 0.777826 0.274604
O O7 0.277662 0.000000 0.362065
O O8 0.244052 0.500000 0.932107
O O9 0.348036 0.247086 0.866381
O O10 0.170801 0.199420 0.933393
O O11 0.250000 0.250000 0.000000
O O12 0.594570 0.500000 0.212470
O O13 0.543829 0.789216 0.269576
O O14 0.476198 0.688349 0.200836
O O15 0.452055 0.000000 0.364657
O O16 0.103460 0.727276 0.862094
O O17 0.044633 0.000000 0.930614
O O18 0.000000 0.726578 0.000000
O O19 0.342040 0.500000 0.208934
#
# Coordination Sequence:
#
# PCOD9206930 Si02
#       7
#     8   8   8   8   8   8   8
#     4  10  22  40  61  85 117 158 197 234 287 357
#     4   9  20  38  58  83 117 152 189 238 291 340
#     4  11  23  37  55  79 109 146 189 236 286 341
#     4   9  19  37  58  80 109 147 187 228 280 342
#     4  10  21  37  59  88 119 150 190 243 294 339
#     4  10  21  37  55  77 110 148 186 233 284 337
#     4   9  18  34  57  81 106 142 186 229 278 337
#
# _framework density 20.868129
#
# number of rings (size 3 to 8) (size 9 to 14) (size 15 to 20)
#    0.000    2.286    0.000    1.714    2.000    6.286 
#    0.000    2.857    0.000    0.000    0.000    0.000 
#    0.000    0.000    0.000    0.000    0.000    0.000 
#
# Total GULP energy -156074.535544 kJ/mol
# GULP energy per Si atom -5574.090555 kJ/mol
# Density = 2.082063 g / cm^3
# Si number density = 20.868129 Si / 1000 Ang^3
#
#
#
# Elastic Constant Matrix: (Units=GPa)
#
#
# Indices 1 2 3 4 5 6 
#
# 1 81.0768 2.9495 75.8009 0.0000 -14.5447 0.0000
# 2 2.9495 24.8443 1.8757 0.0000 -6.4072 0.0000
# 3 75.8009 1.8757 151.8930 0.0000 -19.2031 0.0001
# 4 0.0000 0.0000 0.0000 19.7102 0.0000 2.2750
# 5 -14.5447 -6.4072 -19.2031 0.0000 41.7292 0.0000
# 6 0.0000 0.0000 0.0001 2.2750 0.0000 19.6812
#
#
#
# Elastic Compliance Matrix: (Units=1/GPa)
#
#
# Indices 1 2 3 4 5 6 
#
# 1 0.023497 -0.001216 -0.011360 0.000000 0.002775 0.000000
# 2 -0.001216 0.041987 0.000902 0.000000 0.006438 0.000000
# 3 -0.011360 0.000902 0.012485 0.000000 0.001924 0.000000
# 4 0.000000 0.000000 0.000000 0.051421 0.000000 -0.005944
# 5 0.002775 0.006438 0.001924 0.000000 0.026805 0.000000
# 6 0.000000 0.000000 0.000000 -0.005944 0.000000 0.051497
#
#
# Mechanical properties :
#
#
# Convention : Reuss Voigt Hill
#
# Bulk Modulus (GPa) = 18.30783 46.56292 32.43538
# Shear Modulus (GPa) = 20.06037 28.03665 24.04851
#
# Velocity S-wave (km/s) = 3.10384 3.66938 3.39839
# Velocity P-wave (km/s) = 4.65158 6.34931 5.56556
#
# Compressibility (1/GPa) = 0.05462143
#
# Stress axis : x y z
#
# Youngs Moduli (GPa) = 42.55870 23.81672 80.09699
#
# Poissons Ratio (x) = 0.02896 0.90991
# Poissons Ratio (y) = 0.05176 -0.07228
# Poissons Ratio (z) = 0.48347 -0.02149
#
# Static dielectric constant tensor:
#      x y z
#    x 1.731070 0.000000 -0.000240 
#    y 0.000000 1.798960 0.000000 
#    z -0.000240 0.000000 1.773330 
# 
# From -- ./inp_files/338541.got.cif
#   From: 2010.05.17/outbox.cif.g08.bks.cpg/sg12_170_cif.got.tgz:338541.got - 2010.06.03 13:09:07.
