data_PCOD9206849
_publ_section_title
;
Structure prediction by ZEFSAII (Michael W. Deem and Ramdas Pophale) SiO2 
 PCOD9206849
Probable space group: C 2/M
;
_chemical_formula_sum "Si O2"
_cell_formula_units_Z 40
_cell_length_a 19.108294
_cell_length_b 18.565933
_cell_length_c 11.323000
_cell_angle_alpha 90.000000
_cell_angle_beta 25.161773
_cell_angle_gamma 90.000000
_cell_volume 1707.923602
_symmetry_space_group_name_H-M "C 2/M"
_symmetry_group_IT_number 12
_symmetry_cell_setting 'monoclinic'
loop_
_space_group_symop_operation_xyz
x,y,z
-x,y,-z
-x,-y,-z
x,-y,z
1/2+x,1/2+y,z
1/2-x,1/2+y,-z
1/2-x,1/2-y,-z
1/2+x,1/2-y,z
loop_
_atom_site_type_symbol
_atom_site_label
_atom_site_fract_x
_atom_site_fract_y
_atom_site_fract_z
Si Si1 0.329028 0.750610 0.718869
Si Si2 0.835922 0.387311 0.562782
Si Si3 0.696519 0.129875 0.033692
Si Si4 0.942134 0.077681 0.826390
Si Si5 0.140471 0.178719 0.682640
O O1 0.500000 0.717342 0.500000
O O2 0.341226 0.801573 0.588547
O O3 0.302643 0.810955 0.861026
O O4 0.208172 0.683229 0.903595
O O5 0.757082 0.385326 0.554708
O O6 0.023531 0.410791 0.293094
O O7 0.708383 0.422367 0.848129
O O8 0.852559 0.084536 0.836483
O O9 0.050335 0.145991 0.704266
O O10 0.027495 0.000000 0.703269
O O11 0.250000 0.250000 0.500000
O O12 0.000000 0.189149 0.000000
#
# Coordination Sequence:
#
# PCOD9206849 Si02
#       5
#     8   8   8   8   8
#     4   8  15  26  47  75 108 139 174 230 290 318
#     4   9  19  31  51  83 108 147 182 238 285 338
#     4   9  17  29  51  78 107 141 184 228 283 335
#     4  10  21  37  53  79 117 153 186 233 288 345
#     4  10  23  37  57  88 119 147 194 238 289 342
#
# _framework density 23.420252000000001
#
# number of rings (size 3 to 8) (size 9 to 14) (size 15 to 20)
#    0.000    2.800    0.000    1.800   14.000    5.200 
#    0.000    0.000    0.000    1.200    0.000    0.000 
#    0.000    0.000    0.000    0.000    0.000    0.000 
#
# Total GULP energy -111351.553129 kJ/mol
# GULP energy per Si atom -5567.577656 kJ/mol
# Density = 2.336695 g / cm^3
# Si number density = 23.420252 Si / 1000 Ang^3
#
#
#
# Elastic Constant Matrix: (Units=GPa)
#
#
# Indices 1 2 3 4 5 6 
#
# 1 68.9623 12.2765 19.1377 -0.0001 -24.3184 0.0000
# 2 12.2765 101.8800 34.2881 -0.0042 -9.1284 0.0000
# 3 19.1377 34.2881 58.8902 -0.0043 -19.4748 -0.0008
# 4 -0.0001 -0.0042 -0.0043 8.0299 0.0010 -4.8444
# 5 -24.3184 -9.1284 -19.4748 0.0010 29.4297 0.0008
# 6 0.0000 0.0000 -0.0008 -4.8444 0.0008 10.0265
#
#
#
# Elastic Compliance Matrix: (Units=1/GPa)
#
#
# Indices 1 2 3 4 5 6 
#
# 1 0.020591 -0.000722 -0.000920 -0.000005 0.016182 -0.000004
# 2 -0.000722 0.012265 -0.007483 0.000003 -0.001744 0.000001
# 3 -0.000920 -0.007483 0.026394 0.000013 0.014384 0.000007
# 4 -0.000005 0.000003 0.000013 0.175768 -0.000003 0.084924
# 5 0.016182 -0.001744 0.014384 -0.000003 0.056328 -0.000005
# 6 -0.000004 0.000001 0.000007 0.084924 -0.000005 0.140768
#
#
# Mechanical properties :
#
#
# Convention : Reuss Voigt Hill
#
# Bulk Modulus (GPa) = 24.39062 40.12633 32.25848
# Shear Modulus (GPa) = 10.77518 20.43256 15.60387
#
# Velocity S-wave (km/s) = 2.14727 2.95690 2.58399
# Velocity P-wave (km/s) = 4.07243 5.36918 4.76512
#
# Compressibility (1/GPa) = 0.04099937
#
# Stress axis : x y z
#
# Youngs Moduli (GPa) = 48.56562 81.53510 37.88802
#
# Poissons Ratio (x) = 0.05884 0.03485
# Poissons Ratio (y) = 0.03505 0.28352
# Poissons Ratio (z) = 0.04468 0.61014
#
# Static dielectric constant tensor:
#      x y z
#    x 2.006060 0.000000 0.012280 
#    y 0.000000 1.912350 0.000000 
#    z 0.012280 0.000000 2.022090 
# 
# From -- ./inp_files/241230.got.cif
#   From: 2010.05.17/outbox.cif.g08.bks.cpg/sg12_121_cif.got.tgz:241230.got - 2010.06.03 13:09:07.
