data_PCOD9206193
_publ_section_title
;
Structure prediction by ZEFSAII (Michael W. Deem and Ramdas Pophale) SiO2 
 PCOD9206193
Probable space group: C 2/M
;
_chemical_formula_sum "Si O2"
_cell_formula_units_Z 58
_cell_length_a 16.034005
_cell_length_b 9.862284
_cell_length_c 16.408512
_cell_angle_alpha 90.000000
_cell_angle_beta 87.131140
_cell_angle_gamma 90.000000
_cell_volume 2591.457427
_symmetry_space_group_name_H-M "C 2/M"
_symmetry_group_IT_number 12
_symmetry_cell_setting 'monoclinic'
loop_
_space_group_symop_operation_xyz
x,y,z
-x,y,-z
-x,-y,-z
x,-y,z
1/2+x,1/2+y,z
1/2-x,1/2+y,-z
1/2-x,1/2-y,-z
1/2+x,1/2-y,z
loop_
_atom_site_type_symbol
_atom_site_label
_atom_site_fract_x
_atom_site_fract_y
_atom_site_fract_z
Si Si1 0.405693 0.654735 0.697466
Si Si2 0.969893 0.345307 0.828506
Si Si3 0.932437 0.242522 0.403460
Si Si4 0.377184 0.844530 0.987479
Si Si5 0.313360 0.346286 0.542795
Si Si6 0.500000 0.000000 0.500000
Si Si7 0.843179 0.342070 0.253078
Si Si8 0.211950 0.842944 0.882228
O O1 0.388402 0.500000 0.720503
O O2 0.415630 0.747734 0.774997
O O3 0.495201 0.664355 0.647656
O O4 0.339753 0.699012 0.631772
O O5 0.942085 0.500000 0.816622
O O6 0.954965 0.316528 0.924173
O O7 0.065033 0.337240 0.794094
O O8 0.894506 0.161147 0.480817
O O9 0.860788 0.282685 0.341761
O O10 0.970386 0.381186 0.436895
O O11 0.298355 0.842792 0.928318
O O12 0.382665 0.000000 0.020335
O O13 0.354033 0.733631 0.055575
O O14 0.282116 0.500000 0.548088
O O15 0.250000 0.250000 0.500000
O O16 0.817192 0.500000 0.256814
O O17 0.786109 0.246661 0.199837
O O18 0.189578 0.000000 0.866809
#
# Coordination Sequence:
#
# PCOD9206193 Si02
#       8
#     8   8   8   8   8   2   8   8
#     4  10  21  38  58  82 113 147 186 237 293 345
#     4   9  20  36  59  84 109 143 191 234 278 337
#     4  11  22  38  64  86 113 153 198 241 288 344
#     4   9  19  39  60  81 108 150 193 232 278 336
#     4  11  25  39  56  82 116 152 192 240 294 346
#     4  12  20  36  70  92 108 154 208 248 276 362
#     4  10  21  36  56  86 114 145 185 233 286 334
#     4  10  21  36  58  83 114 150 189 230 282 344
#
# _framework density 22.381226999999999
#
# number of rings (size 3 to 8) (size 9 to 14) (size 15 to 20)
#    0.000    1.931    2.069    0.828    1.931    7.172 
#    0.000    5.517    0.000    0.000    0.000    0.000 
#    0.000    0.000    0.000    0.000    0.000    0.000 
#
# Total GULP energy -161953.306516 kJ/mol
# GULP energy per Si atom -5584.596776 kJ/mol
# Density = 2.233029 g / cm^3
# Si number density = 22.381227 Si / 1000 Ang^3
#
#
#
# Elastic Constant Matrix: (Units=GPa)
#
#
# Indices 1 2 3 4 5 6 
#
# 1 57.4762 24.0418 11.1849 0.0000 1.3603 0.0000
# 2 24.0418 104.4171 55.6641 0.0000 25.2027 0.0000
# 3 11.1849 55.6641 121.6185 0.0000 20.8321 0.0000
# 4 0.0000 0.0000 0.0000 37.5326 0.0000 12.9900
# 5 1.3603 25.2027 20.8321 0.0000 44.8799 0.0000
# 6 0.0000 0.0000 0.0000 12.9900 0.0000 13.7451
#
#
#
# Elastic Compliance Matrix: (Units=1/GPa)
#
#
# Indices 1 2 3 4 5 6 
#
# 1 0.019446 -0.005097 0.000169 0.000000 0.002195 0.000000
# 2 -0.005097 0.015035 -0.005424 0.000000 -0.005771 0.000000
# 3 0.000169 -0.005424 0.011047 0.000000 -0.002087 0.000000
# 4 0.000000 0.000000 0.000000 0.039594 0.000000 -0.037419
# 5 0.002195 -0.005771 -0.002087 0.000000 0.026424 0.000000
# 6 0.000000 0.000000 0.000000 -0.037419 0.000000 0.108117
#
#
# Mechanical properties :
#
#
# Convention : Reuss Voigt Hill
#
# Bulk Modulus (GPa) = 40.28577 51.69927 45.99252
# Shear Modulus (GPa) = 20.10918 32.07292 26.09105
#
# Velocity S-wave (km/s) = 3.00072 3.78964 3.41802
# Velocity P-wave (km/s) = 5.48130 6.50370 6.01426
#
# Compressibility (1/GPa) = 0.02482266
#
# Stress axis : x y z
#
# Youngs Moduli (GPa) = 51.42508 66.51152 90.52218
#
# Poissons Ratio (x) = 0.33900 -0.01526
# Poissons Ratio (y) = 0.26211 0.49101
# Poissons Ratio (z) = -0.00867 0.36077
#
# Static dielectric constant tensor:
#      x y z
#    x 1.923180 0.000000 -0.014770 
#    y 0.000000 1.756180 0.000000 
#    z -0.014770 0.000000 1.815070 
# 
# From -- ./inp_files/275427.got.cif
#   From: 2010.05.17/outbox.cif.g08.bks.cpg/sg12_138_cif.got.tgz:275427.got - 2010.06.03 13:09:07.
