data_PCOD9206137
_publ_section_title
;
Structure prediction by ZEFSAII (Michael W. Deem and Ramdas Pophale) SiO2 
 PCOD9206137
Probable space group: C 2/M
;
_chemical_formula_sum "Si O2"
_cell_formula_units_Z 56
_cell_length_a 10.223767
_cell_length_b 7.835696
_cell_length_c 31.752212
_cell_angle_alpha 90.000000
_cell_angle_beta 104.064445
_cell_angle_gamma 90.000000
_cell_volume 2467.428297
_symmetry_space_group_name_H-M "C 2/M"
_symmetry_group_IT_number 12
_symmetry_cell_setting 'monoclinic'
loop_
_space_group_symop_operation_xyz
x,y,z
-x,y,-z
-x,-y,-z
x,-y,z
1/2+x,1/2+y,z
1/2-x,1/2+y,-z
1/2-x,1/2-y,-z
1/2+x,1/2-y,z
loop_
_atom_site_type_symbol
_atom_site_label
_atom_site_fract_x
_atom_site_fract_y
_atom_site_fract_z
Si Si1 0.042844 0.299921 0.958170
Si Si2 0.102617 0.705567 0.472691
Si Si3 0.804281 0.206151 0.675120
Si Si4 0.762038 0.199164 0.912408
Si Si5 0.923701 0.800045 0.178238
Si Si6 0.982168 0.295999 0.376129
Si Si7 0.213823 0.792508 0.229373
O O1 0.072141 0.500000 0.966783
O O2 0.907422 0.284858 0.919793
O O3 0.172468 0.227548 0.944104
O O4 0.000000 0.224958 0.000000
O O5 0.093348 0.500000 0.470563
O O6 0.250000 0.750000 0.500000
O O7 0.000000 0.769471 0.500000
O O8 0.060732 0.771298 0.423255
O O9 0.670064 0.269106 0.640667
O O10 0.797703 0.262334 0.723044
O O11 0.934819 0.260994 0.659635
O O12 0.802687 0.000000 0.675493
O O13 0.667840 0.214163 0.864327
O O14 0.788955 0.000000 0.921850
O O15 0.845005 0.775964 0.216036
O O16 0.076748 0.737416 0.194918
O O17 0.929729 0.000000 0.168236
O O18 0.972514 0.500000 0.379978
O O19 0.218750 0.000000 0.228668
#
# Coordination Sequence:
#
# PCOD9206137 Si02
#       7
#     8   8   8   8   8   8   8
#     4  10  22  40  61  87 118 151 190 235 282 334
#     4  10  21  37  56  80 111 146 186 231 278 330
#     4  10  21  38  59  83 113 147 183 228 280 333
#     4  11  23  38  59  86 115 151 192 233 281 334
#     4  11  23  38  58  84 114 149 188 231 279 331
#     4  10  21  36  56  83 112 145 186 230 278 333
#     4  10  22  39  59  85 114 146 187 231 278 334
#
# _framework density 22.695695000000001
#
# number of rings (size 3 to 8) (size 9 to 14) (size 15 to 20)
#    0.000    1.714    0.000    3.857    0.000    8.000 
#    0.000    0.000    0.000    0.000    0.000    0.000 
#    0.000    0.000    0.000    0.000    0.000    0.000 
#
# Total GULP energy -156606.307425 kJ/mol
# GULP energy per Si atom -5593.082408 kJ/mol
# Density = 2.264404 g / cm^3
# Si number density = 22.695695 Si / 1000 Ang^3
#
#
#
# Elastic Constant Matrix: (Units=GPa)
#
#
# Indices 1 2 3 4 5 6 
#
# 1 78.5592 -6.2504 -25.1301 0.0000 1.2070 0.0000
# 2 -6.2504 29.1069 1.4961 0.0000 3.1348 0.0000
# 3 -25.1301 1.4961 59.3630 0.0000 2.4469 0.0000
# 4 0.0000 0.0000 0.0000 20.1105 0.0000 -3.2812
# 5 1.2070 3.1348 2.4469 0.0000 41.8148 0.0000
# 6 0.0000 0.0000 0.0000 -3.2812 0.0000 -1.9847
#
#
#
# Elastic Compliance Matrix: (Units=1/GPa)
#
#
# Indices 1 2 3 4 5 6 
#
# 1 0.015006 0.003008 0.006319 0.000000 -0.001028 0.000000
# 2 0.003008 0.035274 0.000498 0.000000 -0.002760 0.000000
# 3 0.006319 0.000498 0.019564 0.000000 -0.001365 0.000000
# 4 0.000000 0.000000 0.000000 0.039162 0.000000 -0.064744
# 5 -0.001028 -0.002760 -0.001365 0.000000 0.024231 0.000000
# 6 0.000000 0.000000 0.000000 -0.064744 0.000000 -0.396813
#
#
# Mechanical properties :
#
#
# Convention : Reuss Voigt Hill
#
# Bulk Modulus (GPa) = 11.17385 11.91783 11.54584
# Shear Modulus (GPa) = -19.73199 25.11569 2.69185
#
# Velocity S-wave (km/s) = -2.95178 3.33021 1.09025
# Velocity P-wave (km/s) = 2.58522 4.47768 2.58518
#
# Compressibility (1/GPa) = 0.08949467
#
# Stress axis : x y z
#
# Youngs Moduli (GPa) = 66.64110 28.34969 51.11384
#
# Poissons Ratio (x) = -0.08528 -0.32298
# Poissons Ratio (y) = -0.20048 -0.02547
# Poissons Ratio (z) = -0.42110 -0.01413
#
# Static dielectric constant tensor:
#      x y z
#    x 1.787240 0.000000 0.000080 
#    y 0.000000 1.838160 0.000000 
#    z 0.000080 0.000000 1.864640 
# 
# From -- ./inp_files/357520.got.cif
#   From: 2010.05.17/outbox.cif.g08.bks.cpg/sg12_179_cif.got.tgz:357520.got - 2010.06.03 13:09:07.
