data_PCOD9206612
_publ_section_title
;
Structure prediction by ZEFSAII (Michael W. Deem and Ramdas Pophale) SiO2 
 PCOD9206612
Probable space group: C 2/M
;
_chemical_formula_sum "Si O2"
_cell_formula_units_Z 44
_cell_length_a 10.577397
_cell_length_b 28.094035
_cell_length_c 10.544269
_cell_angle_alpha 90.000000
_cell_angle_beta 134.286699
_cell_angle_gamma 90.000000
_cell_volume 2243.026332
_symmetry_space_group_name_H-M "C 2/M"
_symmetry_group_IT_number 12
_symmetry_cell_setting 'monoclinic'
loop_
_space_group_symop_operation_xyz
x,y,z
-x,y,-z
-x,-y,-z
x,-y,z
1/2+x,1/2+y,z
1/2-x,1/2+y,-z
1/2-x,1/2-y,-z
1/2+x,1/2-y,z
loop_
_atom_site_type_symbol
_atom_site_label
_atom_site_fract_x
_atom_site_fract_y
_atom_site_fract_z
Si Si1 0.580244 0.555308 0.698099
Si Si2 0.706383 0.850536 0.167672
Si Si3 0.000000 0.604916 0.500000
Si Si4 0.345963 0.821872 0.588684
Si Si5 0.361785 0.443714 0.798671
Si Si6 0.989837 0.227140 0.337862
O O1 0.500000 0.560076 0.500000
O O2 0.642729 0.500000 0.754265
O O3 0.722343 0.597192 0.817221
O O4 0.437146 0.563267 0.709244
O O5 0.720639 0.844458 0.328369
O O6 0.826688 0.807824 0.195692
O O7 0.500000 0.845046 0.000000
O O8 0.077813 0.638267 0.446459
O O9 0.164878 0.575895 0.669732
O O10 0.493541 0.780377 0.705102
O O11 0.168322 0.797559 0.410974
O O12 0.351717 0.500000 0.812873
O O13 0.500000 0.423950 0.000000
O O14 0.000000 0.232134 0.500000
#
# Coordination Sequence:
#
# PCOD9206612 Si02
#       6
#     8   8   4   8   8   8
#     4  10  21  42  65  86 117 161 206 251 307 367
#     4  11  23  36  58  88 121 153 196 250 303 358
#     4  12  21  36  64  92 118 158 207 248 308 376
#     4  10  21  36  60  86 111 157 204 242 296 359
#     4  10  23  41  62  90 126 162 201 257 312 368
#     4   9  18  39  59  78 116 156 199 243 290 361
#
# _framework density 19.616354999999999
#
# number of rings (size 3 to 8) (size 9 to 14) (size 15 to 20)
#    0.000    1.818    0.909    4.091    2.545    1.091 
#    0.000    1.818    0.000    0.000    0.000    0.000 
#    0.000    0.000    0.000    0.000    0.000    0.000 
#
# Total GULP energy -122688.774308 kJ/mol
# GULP energy per Si atom -5576.762469 kJ/mol
# Density = 1.957171 g / cm^3
# Si number density = 19.616355 Si / 1000 Ang^3
#
#
#
# Elastic Constant Matrix: (Units=GPa)
#
#
# Indices 1 2 3 4 5 6 
#
# 1 91.6622 45.4164 23.5185 0.0000 16.4707 0.0000
# 2 45.4164 87.7220 29.0619 0.0000 26.0514 0.0000
# 3 23.5185 29.0619 69.9916 0.0000 24.7165 0.0000
# 4 0.0000 0.0000 0.0000 19.2304 0.0000 24.6170
# 5 16.4707 26.0514 24.7165 0.0000 35.5903 0.0000
# 6 0.0000 0.0000 0.0000 24.6170 0.0000 63.0819
#
#
#
# Elastic Compliance Matrix: (Units=1/GPa)
#
#
# Indices 1 2 3 4 5 6 
#
# 1 0.014939 -0.006944 -0.001974 0.000000 -0.000460 0.000000
# 2 -0.006944 0.018294 -0.002211 0.000000 -0.008642 0.000000
# 3 -0.001974 -0.002211 0.019840 0.000000 -0.011247 0.000000
# 4 0.000000 0.000000 0.000000 0.103909 0.000000 -0.040549
# 5 -0.000460 -0.008642 -0.011247 0.000000 0.042446 0.000000
# 6 0.000000 0.000000 0.000000 -0.040549 0.000000 0.031676
#
#
# Mechanical properties :
#
#
# Convention : Reuss Voigt Hill
#
# Bulk Modulus (GPa) = 32.45166 49.48548 40.96857
# Shear Modulus (GPa) = 18.96566 33.67243 26.31905
#
# Velocity S-wave (km/s) = 3.11276 4.14762 3.66688
# Velocity P-wave (km/s) = 5.43122 6.94395 6.23364
#
# Compressibility (1/GPa) = 0.03081507
#
# Stress axis : x y z
#
# Youngs Moduli (GPa) = 66.93737 54.66404 50.40215
#
# Poissons Ratio (x) = 0.37958 0.09951
# Poissons Ratio (y) = 0.46481 0.11144
# Poissons Ratio (z) = 0.13215 0.12086
#
# Static dielectric constant tensor:
#      x y z
#    x -0.522880 0.000000 0.423290 
#    y 0.000000 1.700570 0.000000 
#    z 0.423290 0.000000 1.693110 
# 
# From -- ./inp_files/137065.got.cif
#   From: 2010.05.17/outbox.cif.g08.bks.cpg/sg12_69_cif.got.tgz:137065.got - 2010.06.03 13:09:07.
