data_PCOD9206042
_publ_section_title
;
Structure prediction by ZEFSAII (Michael W. Deem and Ramdas Pophale) SiO2 
 PCOD9206042
Probable space group: C 2/M
;
_chemical_formula_sum "Si O2"
_cell_formula_units_Z 56
_cell_length_a 9.656002
_cell_length_b 20.336536
_cell_length_c 15.678286
_cell_angle_alpha 90.000000
_cell_angle_beta 110.947028
_cell_angle_gamma 90.000000
_cell_volume 2875.269540
_symmetry_space_group_name_H-M "C 2/M"
_symmetry_group_IT_number 12
_symmetry_cell_setting 'monoclinic'
loop_
_space_group_symop_operation_xyz
x,y,z
-x,y,-z
-x,-y,-z
x,-y,z
1/2+x,1/2+y,z
1/2-x,1/2+y,-z
1/2-x,1/2-y,-z
1/2+x,1/2-y,z
loop_
_atom_site_type_symbol
_atom_site_label
_atom_site_fract_x
_atom_site_fract_y
_atom_site_fract_z
Si Si1 0.435694 0.309764 0.117639
Si Si2 0.777392 0.191174 0.391520
Si Si3 0.104042 0.820977 0.393358
Si Si4 0.742386 0.311481 0.100735
Si Si5 0.553351 0.075567 0.919026
Si Si6 0.484444 0.425863 0.253005
Si Si7 0.679926 0.069859 0.280531
O O1 0.611053 0.304685 0.139752
O O2 0.361492 0.246115 0.144521
O O3 0.421545 0.378459 0.164592
O O4 0.347650 0.307715 0.008807
O O5 0.826298 0.169592 0.497560
O O6 0.692747 0.259864 0.374677
O O7 0.668721 0.135246 0.332218
O O8 0.930373 0.196125 0.371643
O O9 0.106561 0.883586 0.331166
O O10 0.829126 0.379515 0.104816
O O11 0.412465 0.074326 0.826411
O O12 0.605523 0.000000 0.943442
O O13 0.500000 0.101986 0.000000
O O14 0.526667 0.500000 0.234689
O O15 0.350911 0.432983 0.290613
O O16 0.639522 0.000000 0.313739
#
# Coordination Sequence:
#
# PCOD9206042 Si02
#       7
#     8   8   8   8   8   8   8
#     4  10  23  38  56  83 109 146 183 235 278 327
#     4   9  18  35  56  83 111 140 184 229 274 335
#     4   9  19  34  57  83 109 143 181 228 281 326
#     4  10  23  38  57  81 111 144 189 229 280 327
#     4  10  21  36  57  83 113 150 186 227 275 330
#     4  10  21  36  55  82 113 147 186 227 281 333
#     4   9  19  34  55  83 111 147 187 227 275 328
#
# _framework density 19.476434999999999
#
# number of rings (size 3 to 8) (size 9 to 14) (size 15 to 20)
#    0.000    2.429    0.000    0.857    8.000    4.000 
#    0.000    4.286    0.000    0.000    0.000    4.000 
#    0.000    0.000    0.000    0.000    0.000    0.000 
#
# Total GULP energy -155955.902612 kJ/mol
# GULP energy per Si atom -5569.853665 kJ/mol
# Density = 1.943211 g / cm^3
# Si number density = 19.476435 Si / 1000 Ang^3
#
#
#
# Elastic Constant Matrix: (Units=GPa)
#
#
# Indices 1 2 3 4 5 6 
#
# 1 56.8408 48.9652 8.4860 0.0000 5.8631 0.0000
# 2 48.9652 136.2175 43.1044 0.0000 1.3103 0.0000
# 3 8.4860 43.1044 52.3908 0.0000 6.1913 0.0000
# 4 0.0000 0.0000 0.0000 20.1279 0.0000 -5.3258
# 5 5.8631 1.3103 6.1913 0.0000 16.2472 0.0000
# 6 0.0000 0.0000 0.0000 -5.3258 0.0000 -3.6270
#
#
#
# Elastic Compliance Matrix: (Units=1/GPa)
#
#
# Indices 1 2 3 4 5 6 
#
# 1 0.028347 -0.012258 0.006896 0.000000 -0.011869 0.000000
# 2 -0.012258 0.015317 -0.011512 0.000000 0.007575 0.000000
# 3 0.006896 -0.011512 0.028929 0.000000 -0.012584 0.000000
# 4 0.000000 0.000000 0.000000 0.035781 0.000000 -0.052539
# 5 -0.011869 0.007575 -0.012584 0.000000 0.070017 0.000000
# 6 0.000000 0.000000 0.000000 -0.052539 0.000000 -0.198562
#
#
# Mechanical properties :
#
#
# Convention : Reuss Voigt Hill
#
# Bulk Modulus (GPa) = 25.74262 49.61780 37.68021
# Shear Modulus (GPa) = 188.50052 16.20918 102.35485
#
# Velocity S-wave (km/s) = 9.84855 2.88800 7.25722
# Velocity P-wave (km/s) = 11.94032 6.05407 9.46634
#
# Compressibility (1/GPa) = 0.03884608
#
# Stress axis : x y z
#
# Youngs Moduli (GPa) = 35.27698 65.28516 34.56737
#
# Poissons Ratio (x) = 0.80025 -0.23838
# Poissons Ratio (y) = 0.43242 0.39794
# Poissons Ratio (z) = -0.24328 0.75157
#
# Static dielectric constant tensor:
#      x y z
#    x 1.683630 0.000000 -0.012790 
#    y 0.000000 1.726670 0.000000 
#    z -0.012790 0.000000 1.697430 
# 
# From -- ./inp_files/257214.got.cif
#   From: 2010.05.17/outbox.cif.g08.bks.cpg/sg12_129_cif.got.tgz:257214.got - 2010.06.03 13:09:07.
