data_PCOD9206252
_publ_section_title
;
Structure prediction by ZEFSAII (Michael W. Deem and Ramdas Pophale) SiO2 
 PCOD9206252
Probable space group: C 2/M
;
_chemical_formula_sum "Si O2"
_cell_formula_units_Z 64
_cell_length_a 23.981300
_cell_length_b 7.645235
_cell_length_c 31.214716
_cell_angle_alpha 90.000000
_cell_angle_beta 149.698874
_cell_angle_gamma 90.000000
_cell_volume 2887.503401
_symmetry_space_group_name_H-M "C 2/M"
_symmetry_group_IT_number 12
_symmetry_cell_setting 'monoclinic'
loop_
_space_group_symop_operation_xyz
x,y,z
-x,y,-z
-x,-y,-z
x,-y,z
1/2+x,1/2+y,z
1/2-x,1/2+y,-z
1/2-x,1/2-y,-z
1/2+x,1/2-y,z
loop_
_atom_site_type_symbol
_atom_site_label
_atom_site_fract_x
_atom_site_fract_y
_atom_site_fract_z
Si Si1 0.389025 0.287247 0.480969
Si Si2 0.740017 0.701330 0.059331
Si Si3 0.156589 0.799658 0.177326
Si Si4 0.012964 0.706499 0.770632
Si Si5 0.381407 0.800521 0.936881
Si Si6 0.630305 0.288198 0.630885
Si Si7 0.521550 0.712740 0.872284
Si Si8 0.201588 0.710866 0.420906
O O1 0.387347 0.500000 0.481134
O O2 0.514043 0.234339 0.574809
O O3 0.370693 0.238021 0.419606
O O4 0.293410 0.223080 0.448343
O O5 0.756575 0.500000 0.057340
O O6 0.861802 0.782575 0.146075
O O7 0.679363 0.704937 0.065176
O O8 0.647183 0.774534 0.965173
O O9 0.182251 0.703322 0.150173
O O10 0.264719 0.791501 0.277458
O O11 0.056385 0.728668 0.140125
O O12 0.130481 0.000000 0.149438
O O13 0.023658 0.500000 0.768112
O O14 0.977691 0.727346 0.797026
O O15 0.919313 0.775300 0.675703
O O16 0.397747 0.000000 0.962062
O O17 0.500000 0.729486 0.000000
O O18 0.637611 0.500000 0.637638
O O19 0.520989 0.500000 0.872126
O O20 0.196491 0.500000 0.414153
O O21 0.250000 0.750000 0.500000
#
# Coordination Sequence:
#
# PCOD9206252 Si02
#       8
#     8   8   8   8   8   8   8   8
#     4   8  16  33  57  80 108 142 178 227 287 332
#     4  10  21  39  59  83 118 155 185 227 284 337
#     4  11  22  35  54  82 116 153 185 225 283 337
#     4  10  22  38  60  87 113 145 191 237 278 329
#     4  11  23  38  57  81 107 144 193 234 267 319
#     4   9  17  33  57  83 107 139 184 233 279 332
#     4  10  21  36  57  83 116 154 188 223 280 340
#     4  10  21  38  57  80 109 145 185 228 278 333
#
# _framework density 22.164476000000001
#
# number of rings (size 3 to 8) (size 9 to 14) (size 15 to 20)
#    0.000    2.125    1.250    2.625    0.000    5.000 
#    0.000    5.000    0.000    0.000    0.000    0.000 
#    0.000    0.000    0.000    0.000    0.000    0.000 
#
# Total GULP energy -178629.911570 kJ/mol
# GULP energy per Si atom -5582.184737 kJ/mol
# Density = 2.211403 g / cm^3
# Si number density = 22.164476 Si / 1000 Ang^3
#
#
#
# Elastic Constant Matrix: (Units=GPa)
#
#
# Indices 1 2 3 4 5 6 
#
# 1 55.0459 -0.6757 40.1872 -0.0005 -3.5154 0.0018
# 2 -0.6757 49.8316 12.2185 -0.0031 3.4155 0.0000
# 3 40.1872 12.2185 168.5812 0.0000 2.6420 0.0004
# 4 -0.0005 -0.0031 0.0000 12.7174 0.0002 -5.6879
# 5 -3.5154 3.4155 2.6420 0.0002 26.8320 0.0000
# 6 0.0018 0.0000 0.0004 -5.6879 0.0000 17.6910
#
#
#
# Elastic Compliance Matrix: (Units=1/GPa)
#
#
# Indices 1 2 3 4 5 6 
#
# 1 0.022407 0.001426 -0.005497 0.000000 0.003295 -0.000002
# 2 0.001426 0.020685 -0.001804 0.000006 -0.002269 0.000002
# 3 -0.005497 -0.001804 0.007392 -0.000001 -0.001218 0.000000
# 4 0.000000 0.000006 -0.000001 0.091838 -0.000001 0.029527
# 5 0.003295 -0.002269 -0.001218 -0.000001 0.038109 -0.000001
# 6 -0.000002 0.000002 0.000000 0.029527 -0.000001 0.066019
#
#
# Mechanical properties :
#
#
# Convention : Reuss Voigt Hill
#
# Bulk Modulus (GPa) = 25.81621 41.87984 33.84803
# Shear Modulus (GPa) = 18.44260 26.23000 22.33630
#
# Velocity S-wave (km/s) = 2.88771 3.44383 3.17796
# Velocity P-wave (km/s) = 4.77403 5.89485 5.36380
#
# Compressibility (1/GPa) = 0.03873535
#
# Stress axis : x y z
#
# Youngs Moduli (GPa) = 44.62795 48.34506 135.28196
#
# Poissons Ratio (x) = -0.06893 0.74359
# Poissons Ratio (y) = -0.06363 0.24398
# Poissons Ratio (z) = 0.24530 0.08719
#
# Static dielectric constant tensor:
#      x y z
#    x 1.801340 0.000000 0.007570 
#    y 0.000000 1.853150 0.000000 
#    z 0.007570 0.000000 1.860300 
# 
# From -- ./inp_files/382537.got.cif
#   From: 2010.05.17/outbox.cif.g08.bks.cpg/sg12_192_cif.got.tgz:382537.got - 2010.06.03 13:09:07.
