data_PCOD9206975
_publ_section_title
;
Structure prediction by ZEFSAII (Michael W. Deem and Ramdas Pophale) SiO2 
 PCOD9206975
Probable space group: C 2/M
;
_chemical_formula_sum "Si O2"
_cell_formula_units_Z 64
_cell_length_a 18.634154
_cell_length_b 19.861884
_cell_length_c 11.824641
_cell_angle_alpha 90.000000
_cell_angle_beta 42.304853
_cell_angle_gamma 90.000000
_cell_volume 2945.653424
_symmetry_space_group_name_H-M "C 2/M"
_symmetry_group_IT_number 12
_symmetry_cell_setting 'monoclinic'
loop_
_space_group_symop_operation_xyz
x,y,z
-x,y,-z
-x,-y,-z
x,-y,z
1/2+x,1/2+y,z
1/2-x,1/2+y,-z
1/2-x,1/2-y,-z
1/2+x,1/2-y,z
loop_
_atom_site_type_symbol
_atom_site_label
_atom_site_fract_x
_atom_site_fract_y
_atom_site_fract_z
Si Si1 0.291219 0.077053 0.405732
Si Si2 0.391701 0.210029 0.939013
Si Si3 0.676478 0.796923 0.464014
Si Si4 0.951544 0.074542 0.263811
Si Si5 0.310581 0.801359 0.802377
Si Si6 0.314674 0.577317 0.927338
Si Si7 0.911933 0.787051 0.235981
Si Si8 0.657191 0.075735 0.912243
O O1 0.321843 0.136060 0.458182
O O2 0.162343 0.076525 0.541135
O O3 0.335131 0.089660 0.229316
O O4 0.320079 0.000000 0.407557
O O5 0.397511 0.214813 0.796672
O O6 0.477044 0.250898 0.909586
O O7 0.273997 0.239603 0.099782
O O8 0.410293 0.133261 0.950739
O O9 0.642663 0.811752 0.376093
O O10 0.800249 0.773603 0.307064
O O11 0.617951 0.737853 0.600793
O O12 0.937427 0.134730 0.193502
O O13 0.962514 0.000000 0.201200
O O14 0.058345 0.087863 0.211177
O O15 0.245626 0.866835 0.925953
O O16 0.293125 0.500000 0.990973
O O17 0.268051 0.580752 0.854281
O O18 0.616700 0.000000 0.974809
#
# Coordination Sequence:
#
# PCOD9206975 Si02
#       8
#     8   8   8   8   8   8   8   8
#     4   9  19  37  56  80 114 150 188 233 284 337
#     4  10  21  37  59  82 114 149 190 236 280 329
#     4  10  23  38  57  82 115 150 190 232 285 341
#     4   9  17  32  53  79 112 145 186 230 278 340
#     4  10  21  37  55  86 115 148 189 230 282 339
#     4   9  17  33  55  82 113 148 188 231 282 339
#     4  10  21  39  55  85 113 151 191 229 284 338
#     4   9  19  35  57  81 112 150 189 236 283 331
#
# _framework density 21.726928999999998
#
# number of rings (size 3 to 8) (size 9 to 14) (size 15 to 20)
#    0.000    2.500    1.250    0.000    5.250    2.000 
#    0.000    5.625    0.000    6.000    0.000    4.375 
#    0.000    0.000    0.000    0.000    0.000    0.000 
#
# Total GULP energy -178400.319417 kJ/mol
# GULP energy per Si atom -5575.009982 kJ/mol
# Density = 2.167748 g / cm^3
# Si number density = 21.726929 Si / 1000 Ang^3
#
#
#
# Elastic Constant Matrix: (Units=GPa)
#
#
# Indices 1 2 3 4 5 6 
#
# 1 58.0624 20.6425 25.1208 0.0000 15.0225 0.0000
# 2 20.6425 94.7598 16.4695 0.0000 8.8296 0.0000
# 3 25.1208 16.4695 36.7827 0.0000 20.0484 0.0000
# 4 0.0000 0.0000 0.0000 18.0276 0.0000 -1.3666
# 5 15.0225 8.8296 20.0484 0.0000 39.5627 0.0000
# 6 0.0000 0.0000 0.0000 -1.3666 0.0000 19.2873
#
#
#
# Elastic Compliance Matrix: (Units=1/GPa)
#
#
# Indices 1 2 3 4 5 6 
#
# 1 0.025105 -0.002701 -0.015293 0.000000 -0.001180 0.000000
# 2 -0.002701 0.011734 -0.003511 0.000000 0.000186 0.000000
# 3 -0.015293 -0.003511 0.049200 0.000000 -0.018342 0.000000
# 4 0.000000 0.000000 0.000000 0.055770 0.000000 0.003952
# 5 -0.001180 0.000186 -0.018342 0.000000 0.034978 0.000000
# 6 0.000000 0.000000 0.000000 0.003952 0.000000 0.052128
#
#
# Mechanical properties :
#
#
# Convention : Reuss Voigt Hill
#
# Bulk Modulus (GPa) = 23.23944 34.89673 29.06808
# Shear Modulus (GPa) = 17.46622 23.86698 20.66660
#
# Velocity S-wave (km/s) = 2.83838 3.31795 3.08750
# Velocity P-wave (km/s) = 4.63263 5.54750 5.11058
#
# Compressibility (1/GPa) = 0.04303031
#
# Stress axis : x y z
#
# Youngs Moduli (GPa) = 39.83281 85.22080 20.32521
#
# Poissons Ratio (x) = 0.23018 0.31083
# Poissons Ratio (y) = 0.10759 0.07135
# Poissons Ratio (z) = 0.60916 0.29918
#
# Static dielectric constant tensor:
#      x y z
#    x 1.779780 0.000000 -0.017400 
#    y 0.000000 1.822730 0.000000 
#    z -0.017400 0.000000 1.827580 
# 
# From -- ./inp_files/169657.got.cif
#   From: 2010.05.17/outbox.cif.g08.bks.cpg/sg12_85_cif.got.tgz:169657.got - 2010.06.03 13:09:07.
