data_PCOD9206162
_publ_section_title
;
Structure prediction by ZEFSAII (Michael W. Deem and Ramdas Pophale) SiO2 
 PCOD9206162
Probable space group: C 2/M
;
_chemical_formula_sum "Si O2"
_cell_formula_units_Z 56
_cell_length_a 32.146560
_cell_length_b 11.710239
_cell_length_c 15.826166
_cell_angle_alpha 90.000000
_cell_angle_beta 25.822262
_cell_angle_gamma 90.000000
_cell_volume 2595.044386
_symmetry_space_group_name_H-M "C 2/M"
_symmetry_group_IT_number 12
_symmetry_cell_setting 'monoclinic'
loop_
_space_group_symop_operation_xyz
x,y,z
-x,y,-z
-x,-y,-z
x,-y,z
1/2+x,1/2+y,z
1/2-x,1/2+y,-z
1/2-x,1/2-y,-z
1/2+x,1/2-y,z
loop_
_atom_site_type_symbol
_atom_site_label
_atom_site_fract_x
_atom_site_fract_y
_atom_site_fract_z
Si Si1 0.131747 0.368613 0.196515
Si Si2 0.157755 0.868275 0.926621
Si Si3 0.509596 0.701318 0.642774
Si Si4 0.570382 0.783804 0.943432
Si Si5 0.213053 0.621997 0.556836
Si Si6 0.300174 0.280809 0.775162
Si Si7 0.074005 0.622380 0.658908
O O1 0.101414 0.500000 0.255465
O O2 0.165327 0.319914 0.224995
O O3 0.051223 0.283401 0.307485
O O4 0.223108 0.355598 0.967233
O O5 0.069472 0.864560 0.156429
O O6 0.188416 0.000000 0.862623
O O7 0.121993 0.814747 0.903185
O O8 0.238686 0.783271 0.814968
O O9 0.602732 0.650390 0.425818
O O10 0.564935 0.779976 0.608460
O O11 0.635155 0.872140 0.773790
O O12 0.500000 0.733511 0.000000
O O13 0.511142 0.854777 0.119899
O O14 0.266578 0.500000 0.467644
O O15 0.250000 0.750000 0.500000
O O16 0.165468 0.622523 0.551620
O O17 0.063612 0.500000 0.635772
#
# Coordination Sequence:
#
# PCOD9206162 Si02
#       7
#     8   8   8   8   8   8   8
#     4  10  21  38  59  86 115 149 192 237 291 350
#     4  10  22  38  59  85 118 158 199 245 302 360
#     4  10  21  37  58  85 118 149 194 242 292 352
#     4   9  19  37  58  78 111 148 195 244 292 342
#     4  10  21  36  56  84 116 151 193 241 292 352
#     4  10  22  38  58  85 119 150 189 243 291 357
#     4   9  18  34  57  80 106 145 192 237 285 344
#
# _framework density 21.579592999999999
#
# number of rings (size 3 to 8) (size 9 to 14) (size 15 to 20)
#    0.000    2.286    0.000    1.714    2.000    6.000 
#    0.000    6.429    0.000    5.143    0.000    0.000 
#    0.000    0.000    0.000    0.000    0.000    0.000 
#
# Total GULP energy -156069.985629 kJ/mol
# GULP energy per Si atom -5573.928058 kJ/mol
# Density = 2.153048 g / cm^3
# Si number density = 21.579593 Si / 1000 Ang^3
#
#
#
# Elastic Constant Matrix: (Units=GPa)
#
#
# Indices 1 2 3 4 5 6 
#
# 1 93.5266 26.2034 4.8395 0.0000 1.4906 0.0000
# 2 26.2034 91.4572 -7.0695 0.0000 -7.9942 0.0000
# 3 4.8395 -7.0695 107.3383 0.0000 -12.5599 0.0000
# 4 0.0000 0.0000 0.0000 86.0559 0.0000 7.9495
# 5 1.4906 -7.9942 -12.5599 0.0000 17.5261 0.0000
# 6 0.0000 0.0000 0.0000 7.9495 0.0000 6.6933
#
#
#
# Elastic Compliance Matrix: (Units=1/GPa)
#
#
# Indices 1 2 3 4 5 6 
#
# 1 0.011881 -0.003814 -0.001210 0.000000 -0.003617 0.000000
# 2 -0.003814 0.012832 0.001899 0.000000 0.007539 0.000000
# 3 -0.001210 0.001899 0.010489 0.000000 0.008486 0.000000
# 4 0.000000 0.000000 0.000000 0.013052 0.000000 -0.015502
# 5 -0.003617 0.007539 0.008486 0.000000 0.066885 0.000000
# 6 0.000000 0.000000 0.000000 -0.015502 0.000000 0.167815
#
#
# Mechanical properties :
#
#
# Convention : Reuss Voigt Hill
#
# Bulk Modulus (GPa) = 34.53848 37.80764 36.17306
# Shear Modulus (GPa) = 16.73052 39.94497 28.33774
#
# Velocity S-wave (km/s) = 2.78743 4.30705 3.62770
# Velocity P-wave (km/s) = 5.13805 6.50326 5.86055
#
# Compressibility (1/GPa) = 0.02895321
#
# Stress axis : x y z
#
# Youngs Moduli (GPa) = 84.16870 77.92720 95.33835
#
# Poissons Ratio (x) = 0.29719 0.11537
# Poissons Ratio (y) = 0.32099 -0.18107
# Poissons Ratio (z) = 0.10185 -0.14800
#
# Static dielectric constant tensor:
#      x y z
#    x 1.766060 0.000000 0.017960 
#    y 0.000000 1.802510 0.000000 
#    z 0.017960 0.000000 1.945840 
# 
# From -- ./inp_files/251013.got.cif
#   From: 2010.05.17/outbox.cif.g08.bks.cpg/sg12_126_cif.got.tgz:251013.got - 2010.06.03 13:09:07.
