data_PCOD9206018
_publ_section_title
;
Structure prediction by ZEFSAII (Michael W. Deem and Ramdas Pophale) SiO2 
 PCOD9206018
Probable space group: C 2/M
;
_chemical_formula_sum "Si O2"
_cell_formula_units_Z 40
_cell_length_a 5.282888
_cell_length_b 16.330583
_cell_length_c 25.709520
_cell_angle_alpha 90.000000
_cell_angle_beta 107.952506
_cell_angle_gamma 90.000000
_cell_volume 2110.037590
_symmetry_space_group_name_H-M "C 2/M"
_symmetry_group_IT_number 12
_symmetry_cell_setting 'monoclinic'
loop_
_space_group_symop_operation_xyz
x,y,z
-x,y,-z
-x,-y,-z
x,-y,z
1/2+x,1/2+y,z
1/2-x,1/2+y,-z
1/2-x,1/2-y,-z
1/2+x,1/2-y,z
loop_
_atom_site_type_symbol
_atom_site_label
_atom_site_fract_x
_atom_site_fract_y
_atom_site_fract_z
Si Si1 0.258721 0.098453 0.672468
Si Si2 0.301333 0.401389 0.034223
Si Si3 0.028124 0.194387 0.852113
Si Si4 0.908484 0.805942 0.438994
Si Si5 0.141854 0.099104 0.261250
O O1 0.167100 0.132538 0.611398
O O2 0.558371 0.124698 0.705302
O O3 0.057600 0.124698 0.705308
O O4 0.256103 0.000000 0.670724
O O5 0.311456 0.500000 0.040973
O O6 0.389217 0.358931 0.092810
O O7 0.500000 0.378670 0.000000
O O8 0.000000 0.378668 0.000000
O O9 0.276942 0.250020 0.851354
O O10 0.947809 0.137726 0.798537
O O11 0.652562 0.750002 0.435049
O O12 0.000000 0.844058 0.500000
O O13 0.135672 0.000000 0.257127
#
# Coordination Sequence:
#
# PCOD9206018 Si02
#       5
#     8   8   8   8   8
#     4  10  21  37  59  83 108 145 189 233 276 321
#     4  10  22  41  63  84 111 151 190 224 273 333
#     4  12  25  38  58  88 117 146 184 231 280 326
#     4  10  21  36  55  81 113 148 183 224 278 335
#     4  10  22  40  58  80 113 149 186 227 276 333
#
# _framework density 18.957008999999999
#
# number of rings (size 3 to 8) (size 9 to 14) (size 15 to 20)
#    0.000    1.600    0.000    4.200    0.000    7.600 
#    0.000    8.000    0.000    7.200    0.000    0.000 
#    0.000    0.000    0.000    0.000    0.000    0.000 
#
# Total GULP energy -111831.507312 kJ/mol
# GULP energy per Si atom -5591.575366 kJ/mol
# Density = 1.891386 g / cm^3
# Si number density = 18.957009 Si / 1000 Ang^3
#
#
#
# Elastic Constant Matrix: (Units=GPa)
#
#
# Indices 1 2 3 4 5 6 
#
# 1 198.2018 43.0042 96.1862 0.0000 -0.4976 0.0000
# 2 43.0042 27.1004 62.9861 0.0000 0.3159 0.0000
# 3 96.1862 62.9861 226.8741 0.0000 0.9534 0.0000
# 4 0.0000 0.0000 0.0000 55.3746 0.0000 0.8298
# 5 -0.4976 0.3159 0.9534 0.0000 35.0415 0.0000
# 6 0.0000 0.0000 0.0000 0.8298 0.0000 2.7611
#
#
#
# Elastic Compliance Matrix: (Units=1/GPa)
#
#
# Indices 1 2 3 4 5 6 
#
# 1 0.007707 -0.013068 0.000360 0.000000 0.000217 0.000000
# 2 -0.013068 0.126177 -0.029487 0.000000 -0.000521 0.000000
# 3 0.000360 -0.029487 0.012442 0.000000 -0.000068 0.000000
# 4 0.000000 0.000000 0.000000 0.018141 0.000000 -0.005452
# 5 0.000217 -0.000521 -0.000068 0.000000 0.028547 0.000000
# 6 0.000000 0.000000 0.000000 -0.005452 0.000000 0.363817
#
#
# Mechanical properties :
#
#
# Convention : Reuss Voigt Hill
#
# Bulk Modulus (GPa) = 16.14616 95.16992 55.65804
# Shear Modulus (GPa) = 7.55438 35.30208 21.42823
#
# Velocity S-wave (km/s) = 1.99841 4.32002 3.36573
# Velocity P-wave (km/s) = 3.72299 8.67153 6.67293
#
# Compressibility (1/GPa) = 0.06193421
#
# Stress axis : x y z
#
# Youngs Moduli (GPa) = 129.75686 7.92537 80.37307
#
# Poissons Ratio (x) = 0.10357 -0.02891
# Poissons Ratio (y) = 1.69567 2.37000
# Poissons Ratio (z) = -0.04668 0.23370
#
# Static dielectric constant tensor:
#      x y z
#    x 1.642860 0.000000 -0.000460 
#    y 0.000000 1.637350 0.000000 
#    z -0.000460 0.000000 1.613700 
# 
# From -- ./inp_files/252537.got.cif
#   From: 2010.05.17/outbox.cif.g08.bks.cpg/sg12_127_cif.got.tgz:252537.got - 2010.06.03 13:09:07.
