data_PCOD9206043
_publ_section_title
;
Structure prediction by ZEFSAII (Michael W. Deem and Ramdas Pophale) SiO2 
 PCOD9206043
Probable space group: C 2/M
;
_chemical_formula_sum "Si O2"
_cell_formula_units_Z 48
_cell_length_a 8.707202
_cell_length_b 17.571213
_cell_length_c 14.093753
_cell_angle_alpha 90.000000
_cell_angle_beta 66.097463
_cell_angle_gamma 90.000000
_cell_volume 1971.357298
_symmetry_space_group_name_H-M "C 2/M"
_symmetry_group_IT_number 12
_symmetry_cell_setting 'monoclinic'
loop_
_space_group_symop_operation_xyz
x,y,z
-x,y,-z
-x,-y,-z
x,-y,z
1/2+x,1/2+y,z
1/2-x,1/2+y,-z
1/2-x,1/2-y,-z
1/2+x,1/2-y,z
loop_
_atom_site_type_symbol
_atom_site_label
_atom_site_fract_x
_atom_site_fract_y
_atom_site_fract_z
Si Si1 0.729948 0.917337 0.066993
Si Si2 0.374450 0.623054 0.213672
Si Si3 0.178341 0.197782 0.430106
Si Si4 0.529889 0.153575 0.383161
Si Si5 0.030796 0.712744 0.880064
Si Si6 0.711164 0.582217 0.173410
O O1 0.872754 0.913481 0.109852
O O2 0.625556 0.839799 0.111389
O O3 0.644103 0.000000 0.101236
O O4 0.773489 0.915776 0.945393
O O5 0.186969 0.610931 0.298453
O O6 0.435372 0.709905 0.182981
O O7 0.515764 0.589006 0.245597
O O8 0.250000 0.250000 0.500000
O O9 0.351442 0.151217 0.372627
O O10 0.109132 0.260440 0.372777
O O11 0.000000 0.157160 0.500000
O O12 0.500000 0.129388 0.500000
O O13 0.185653 0.656118 0.826307
O O14 0.000000 0.729104 0.000000
O O15 0.773267 0.500000 0.190486
#
# Coordination Sequence:
#
# PCOD9206043 Si02
#       6
#     8   8   8   8   8   8
#     4  10  21  38  56  77 110 153 190 220 269 338
#     4  12  22  31  56  88 115 137 180 241 279 315
#     4   7  13  29  47  65  97 140 171 207 259 327
#     4   9  19  32  49  76 111 144 176 219 279 333
#     4  10  21  36  55  82 114 144 183 234 278 317
#     4  10  21  38  57  77 110 155 189 217 270 341
#
# _framework density 24.348707000000001
#
# number of rings (size 3 to 8) (size 9 to 14) (size 15 to 20)
#    0.000    2.667    0.000    3.500    4.667    6.000 
#    0.000    0.000    0.000    2.000    0.000    0.000 
#    0.000    6.667    0.000    0.000    0.000    0.000 
#
# Total GULP energy -133860.824204 kJ/mol
# GULP energy per Si atom -5577.534342 kJ/mol
# Density = 2.429329 g / cm^3
# Si number density = 24.348707 Si / 1000 Ang^3
#
#
#
# Elastic Constant Matrix: (Units=GPa)
#
#
# Indices 1 2 3 4 5 6 
#
# 1 124.6605 19.0420 22.6751 0.0000 -35.8320 0.0000
# 2 19.0420 105.8946 11.0939 0.0000 -8.4995 0.0000
# 3 22.6751 11.0939 90.3848 0.0000 -11.7213 0.0000
# 4 0.0000 0.0000 0.0000 0.2769 0.0000 14.8711
# 5 -35.8320 -8.4995 -11.7213 0.0000 43.2819 0.0000
# 6 0.0000 0.0000 0.0000 14.8711 0.0000 -41.2243
#
#
#
# Elastic Compliance Matrix: (Units=1/GPa)
#
#
# Indices 1 2 3 4 5 6 
#
# 1 0.010874 -0.001126 -0.001504 0.000000 0.008374 0.000000
# 2 -0.001126 0.009793 -0.000820 0.000000 0.000769 0.000000
# 3 -0.001504 -0.000820 0.011773 0.000000 0.001782 0.000000
# 4 0.000000 0.000000 0.000000 0.177258 0.000000 0.063943
# 5 0.008374 0.000769 0.001782 0.000000 0.030671 0.000000
# 6 0.000000 0.000000 0.000000 0.063943 0.000000 -0.001191
#
#
# Mechanical properties :
#
#
# Convention : Reuss Voigt Hill
#
# Bulk Modulus (GPa) = 39.15185 47.39576 43.27380
# Shear Modulus (GPa) = 19.63927 18.34216 18.99071
#
# Velocity S-wave (km/s) = 2.84312 2.74763 2.79578
# Velocity P-wave (km/s) = 5.18578 5.43816 5.31347
#
# Compressibility (1/GPa) = 0.02554158
#
# Stress axis : x y z
#
# Youngs Moduli (GPa) = 91.95934 102.10942 84.94115
#
# Poissons Ratio (x) = 0.11495 0.12775
# Poissons Ratio (y) = 0.10352 0.06964
# Poissons Ratio (z) = 0.13830 0.08372
#
# Static dielectric constant tensor:
#      x y z
#    x 1.977860 0.000000 -0.054370 
#    y 0.000000 1.973110 0.000000 
#    z -0.054370 0.000000 2.071380 
# 
# From -- ./inp_files/256433.got.cif
#   From: 2010.05.17/outbox.cif.g08.bks.cpg/sg12_129_cif.got.tgz:256433.got - 2010.06.03 13:09:07.
