data_PCOD9206630
_publ_section_title
;
Structure prediction by ZEFSAII (Michael W. Deem and Ramdas Pophale) SiO2 
 PCOD9206630
Probable space group: C 2/M
;
_chemical_formula_sum "Si O2"
_cell_formula_units_Z 56
_cell_length_a 17.171637
_cell_length_b 17.747455
_cell_length_c 21.091974
_cell_angle_alpha 90.000000
_cell_angle_beta 152.323143
_cell_angle_gamma 90.000000
_cell_volume 2985.630937
_symmetry_space_group_name_H-M "C 2/M"
_symmetry_group_IT_number 12
_symmetry_cell_setting 'monoclinic'
loop_
_space_group_symop_operation_xyz
x,y,z
-x,y,-z
-x,-y,-z
x,-y,z
1/2+x,1/2+y,z
1/2-x,1/2+y,-z
1/2-x,1/2-y,-z
1/2+x,1/2-y,z
loop_
_atom_site_type_symbol
_atom_site_label
_atom_site_fract_x
_atom_site_fract_y
_atom_site_fract_z
Si Si1 0.929423 0.087494 0.230613
Si Si2 0.194052 0.311718 0.144143
Si Si3 0.810793 0.194709 0.366920
Si Si4 0.822803 0.150221 0.695444
Si Si5 0.550519 0.087696 0.405075
Si Si6 0.267911 0.585503 0.450687
Si Si7 0.322458 0.367879 0.843183
O O1 0.792441 0.145738 0.159135
O O2 0.024824 0.119251 0.237270
O O3 0.071220 0.085807 0.387547
O O4 0.873776 0.000000 0.181166
O O5 0.264655 0.334025 0.263983
O O6 0.201904 0.220060 0.152873
O O7 0.000000 0.332098 0.000000
O O8 0.686631 0.260011 0.301370
O O9 0.805199 0.130584 0.414869
O O10 0.000000 0.226451 0.500000
O O11 0.652045 0.126695 0.535459
O O12 0.831392 0.122201 0.773713
O O13 0.622029 0.119001 0.390252
O O14 0.351654 0.093892 0.263322
O O15 0.600973 0.000000 0.444488
O O16 0.223804 0.500000 0.402378
O O17 0.500000 0.393524 0.000000
#
# Coordination Sequence:
#
# PCOD9206630 Si02
#       7
#     8   8   8   8   8   8   8
#     4  10  21  38  60  85 117 155 192 236 290 342
#     4  10  22  40  57  84 117 152 195 238 286 342
#     4  11  20  35  60  90 114 149 194 235 288 341
#     4  10  21  36  60  89 113 145 195 240 282 341
#     4  10  21  37  59  85 117 153 191 237 286 341
#     4   9  20  35  55  88 118 146 188 242 295 335
#     4  10  22  40  58  84 119 154 191 235 290 342
#
# _framework density 18.756504
#
# number of rings (size 3 to 8) (size 9 to 14) (size 15 to 20)
#    0.000    2.000    1.429    3.429    2.000    4.286 
#    2.571    2.143    0.000    0.000    0.000    0.000 
#    0.000    0.000    0.000    0.000    0.000    0.000 
#
# Total GULP energy -156099.209938 kJ/mol
# GULP energy per Si atom -5574.971783 kJ/mol
# Density = 1.871381 g / cm^3
# Si number density = 18.756504 Si / 1000 Ang^3
#
#
#
# Elastic Constant Matrix: (Units=GPa)
#
#
# Indices 1 2 3 4 5 6 
#
# 1 78.5853 40.6735 27.8372 -0.1476 18.1729 0.1658
# 2 40.6735 42.0629 4.4119 0.0579 8.6573 -0.0715
# 3 27.8372 4.4119 68.5561 0.0093 17.8984 -0.0254
# 4 -0.1476 0.0579 0.0093 -309.9218 -0.0036 374.5001
# 5 18.1729 8.6573 17.8984 -0.0036 21.7781 0.0039
# 6 0.1658 -0.0715 -0.0254 374.5001 0.0039 -409.4367
#
#
#
# Elastic Compliance Matrix: (Units=1/GPa)
#
#
# Indices 1 2 3 4 5 6 
#
# 1 0.033199 -0.029414 -0.009431 -0.000015 -0.008260 0.000005
# 2 -0.029414 0.052043 0.009660 0.000020 -0.004083 -0.000004
# 3 -0.009431 0.009660 0.021316 0.000012 -0.013489 0.000004
# 4 -0.000015 0.000020 0.000012 0.030653 -0.000005 0.028038
# 5 -0.008260 -0.004083 -0.013489 -0.000005 0.065519 -0.000006
# 6 0.000005 -0.000004 0.000004 0.028038 -0.000006 0.023203
#
#
# Mechanical properties :
#
#
# Convention : Reuss Voigt Hill
#
# Bulk Modulus (GPa) = 20.75154 37.22772 28.98963
# Shear Modulus (GPa) = 16.64633 -131.76396 -57.55882
#
# Velocity S-wave (km/s) = 2.98232 -8.39060 -5.54563
# Velocity P-wave (km/s) = 4.79027 8.60109 5.05134
#
# Compressibility (1/GPa) = 0.04818920
#
# Stress axis : x y z
#
# Youngs Moduli (GPa) = 30.12095 19.21491 46.91293
#
# Poissons Ratio (x) = 0.56518 0.44245
# Poissons Ratio (y) = 0.88596 -0.45319
# Poissons Ratio (z) = 0.28408 -0.18562
#
# Static dielectric constant tensor:
#      x y z
#    x 1.652450 0.000000 0.015360 
#    y 0.000000 1.669010 0.000000 
#    z 0.015360 0.000000 1.645930 
# 
# From -- ./inp_files/217637.got.cif
#   From: 2010.05.17/outbox.cif.g08.bks.cpg/sg12_109_cif.got.tgz:217637.got - 2010.06.03 13:09:07.
