data_PCOD9206095
_publ_section_title
;
Structure prediction by ZEFSAII (Michael W. Deem and Ramdas Pophale) SiO2 
 PCOD9206095
Probable space group: C 2/M
;
_chemical_formula_sum "Si O2"
_cell_formula_units_Z 56
_cell_length_a 18.432286
_cell_length_b 25.425873
_cell_length_c 9.685649
_cell_angle_alpha 90.000000
_cell_angle_beta 31.888498
_cell_angle_gamma 90.000000
_cell_volume 2397.938375
_symmetry_space_group_name_H-M "C 2/M"
_symmetry_group_IT_number 12
_symmetry_cell_setting 'monoclinic'
loop_
_space_group_symop_operation_xyz
x,y,z
-x,y,-z
-x,-y,-z
x,-y,z
1/2+x,1/2+y,z
1/2-x,1/2+y,-z
1/2-x,1/2-y,-z
1/2+x,1/2-y,z
loop_
_atom_site_type_symbol
_atom_site_label
_atom_site_fract_x
_atom_site_fract_y
_atom_site_fract_z
Si Si1 0.805508 0.828936 0.558833
Si Si2 0.292856 0.556051 0.585046
Si Si3 0.580232 0.722572 0.189393
Si Si4 0.396466 0.942980 0.838071
Si Si5 0.842949 0.167368 0.200109
Si Si6 0.284608 0.942538 0.605316
Si Si7 0.694296 0.168292 0.023116
O O1 0.870351 0.888335 0.463321
O O2 0.759805 0.819982 0.475073
O O3 0.690684 0.831111 0.861747
O O4 0.923472 0.788650 0.409310
O O5 0.370149 0.500000 0.467607
O O6 0.218289 0.557464 0.557567
O O7 0.185227 0.555751 0.884472
O O8 0.651381 0.681935 0.179379
O O9 0.660598 0.709603 0.915979
O O10 0.606683 0.780679 0.202955
O O11 0.558480 0.939663 0.600877
O O12 0.366580 0.000000 0.818742
O O13 0.350123 0.887941 0.847665
O O14 0.797105 0.109882 0.222454
O O15 0.000000 0.164983 0.000000
O O16 0.226600 0.000000 0.740309
#
# Coordination Sequence:
#
# PCOD9206095 Si02
#       7
#     8   8   8   8   8   8   8
#     4   9  18  35  56  78 103 132 173 220 258 301
#     4   8  14  27  50  78 105 134 170 216 266 307
#     4  10  21  37  53  75 107 139 174 212 255 309
#     4   9  17  31  51  77 105 132 172 220 257 299
#     4   9  19  35  53  76 107 135 170 221 261 298
#     4   9  16  28  49  76 107 142 173 206 258 316
#     4  10  21  36  56  77 102 141 176 208 257 311
#
# _framework density 23.353394000000002
#
# number of rings (size 3 to 8) (size 9 to 14) (size 15 to 20)
#    0.000    2.857    0.000    0.857    0.000    3.714 
#    0.000   17.143    0.000    5.143    0.000    0.000 
#    0.000    0.000    0.000    0.000    0.000    0.000 
#
# Total GULP energy -156163.273827 kJ/mol
# GULP energy per Si atom -5577.259780 kJ/mol
# Density = 2.330024 g / cm^3
# Si number density = 23.353394 Si / 1000 Ang^3
#
#
#
# Elastic Constant Matrix: (Units=GPa)
#
#
# Indices 1 2 3 4 5 6 
#
# 1 59.5299 22.1753 15.7528 0.0001 16.1197 -0.0001
# 2 22.1753 171.0658 7.1825 0.0000 -24.3528 0.0000
# 3 15.7528 7.1825 35.2295 0.0006 12.5264 -0.0002
# 4 0.0001 0.0000 0.0006 9.0589 -0.0001 -6.2169
# 5 16.1197 -24.3528 12.5264 -0.0001 29.8284 0.0001
# 6 -0.0001 0.0000 -0.0002 -6.2169 0.0001 23.4219
#
#
#
# Elastic Compliance Matrix: (Units=1/GPa)
#
#
# Indices 1 2 3 4 5 6 
#
# 1 0.023983 -0.005120 -0.004215 0.000000 -0.015371 0.000000
# 2 -0.005120 0.008182 -0.003218 0.000000 0.010798 0.000000
# 3 -0.004215 -0.003218 0.036501 -0.000003 -0.015678 0.000000
# 4 0.000000 0.000000 -0.000003 0.134975 0.000002 0.035827
# 5 -0.015371 0.010798 -0.015678 0.000002 0.057232 0.000000
# 6 0.000000 0.000000 0.000000 0.035827 0.000000 0.052205
#
#
# Mechanical properties :
#
#
# Convention : Reuss Voigt Hill
#
# Bulk Modulus (GPa) = 22.95708 39.56070 31.25889
# Shear Modulus (GPa) = 14.17623 27.17615 20.67619
#
# Velocity S-wave (km/s) = 2.46647 3.41499 2.97873
# Velocity P-wave (km/s) = 4.23827 5.70319 5.02441
#
# Compressibility (1/GPa) = 0.04355955
#
# Stress axis : x y z
#
# Youngs Moduli (GPa) = 41.69604 122.22250 27.39684
#
# Poissons Ratio (x) = 0.62580 0.11547
# Poissons Ratio (y) = 0.21349 0.08817
# Poissons Ratio (z) = 0.17573 0.39333
#
# Static dielectric constant tensor:
#      x y z
#    x 1.873070 0.000000 0.099650 
#    y 0.000000 1.946100 0.000000 
#    z 0.099650 0.000000 1.891820 
# 
# From -- ./inp_files/135264.got.cif
#   From: 2010.05.17/outbox.cif.g08.bks.cpg/sg12_68_cif.got.tgz:135264.got - 2010.06.03 13:09:07.
