data_PCOD9206334
_publ_section_title
;
Structure prediction by ZEFSAII (Michael W. Deem and Ramdas Pophale) SiO2 
 PCOD9206334
Probable space group: C 2/M
;
_chemical_formula_sum "Si O2"
_cell_formula_units_Z 64
_cell_length_a 14.744614
_cell_length_b 8.894828
_cell_length_c 25.222671
_cell_angle_alpha 90.000000
_cell_angle_beta 88.015527
_cell_angle_gamma 90.000000
_cell_volume 3305.989654
_symmetry_space_group_name_H-M "C 2/M"
_symmetry_group_IT_number 12
_symmetry_cell_setting 'monoclinic'
loop_
_space_group_symop_operation_xyz
x,y,z
-x,y,-z
-x,-y,-z
x,-y,z
1/2+x,1/2+y,z
1/2-x,1/2+y,-z
1/2-x,1/2-y,-z
1/2+x,1/2-y,z
loop_
_atom_site_type_symbol
_atom_site_label
_atom_site_fract_x
_atom_site_fract_y
_atom_site_fract_z
Si Si1 0.948545 0.173481 0.945304
Si Si2 0.447891 0.320420 0.229280
Si Si3 0.285867 0.320561 0.303506
Si Si4 0.604624 0.681321 0.503320
Si Si5 0.897944 0.322725 0.121416
Si Si6 0.741469 0.820544 0.582834
Si Si7 0.355952 0.820238 0.787341
Si Si8 0.718275 0.179022 0.092661
O O1 0.846871 0.235778 0.946835
O O2 0.005276 0.279101 0.904922
O O3 0.949782 0.000000 0.927002
O O4 0.000000 0.180378 0.000000
O O5 0.444353 0.500000 0.221586
O O6 0.387921 0.283906 0.282073
O O7 0.399473 0.241627 0.180558
O O8 0.550811 0.264130 0.227446
O O9 0.281319 0.500000 0.312381
O O10 0.258684 0.237773 0.357451
O O11 0.218508 0.285693 0.256016
O O12 0.500000 0.729428 0.500000
O O13 0.605548 0.500000 0.508403
O O14 0.657110 0.750627 0.552285
O O15 0.666882 0.721636 0.451210
O O16 0.883564 0.500000 0.121119
O O17 0.820369 0.238561 0.090057
O O18 0.734317 0.000000 0.581970
O O19 0.319076 0.784768 0.847032
O O20 0.372713 0.000000 0.786276
O O21 0.715410 0.000000 0.085154
#
# Coordination Sequence:
#
# PCOD9206334 Si02
#       8
#     8   8   8   8   8   8   8   8
#     4  11  25  44  65  91 122 156 199 251 305 363
#     4  11  22  38  60  86 117 157 202 245 295 357
#     4  10  22  40  58  81 122 163 195 238 297 354
#     4   9  19  38  62  84 114 156 198 239 294 357
#     4  12  24  39  63  91 121 158 199 245 299 359
#     4  10  21  36  57  88 119 150 196 248 293 344
#     4  10  21  38  59  87 118 155 198 243 297 355
#     4  11  22  40  65  91 121 156 199 247 299 360
#
# _framework density 19.358803000000002
#
# number of rings (size 3 to 8) (size 9 to 14) (size 15 to 20)
#    0.000    1.500    2.500    2.625    0.000    5.250 
#    0.000    3.750    0.000    0.000    0.000    0.000 
#    0.000    0.000    0.000    0.000    0.000    0.000 
#
# Total GULP energy -178845.404516 kJ/mol
# GULP energy per Si atom -5588.918891 kJ/mol
# Density = 1.931474 g / cm^3
# Si number density = 19.358803 Si / 1000 Ang^3
#
#
#
# Elastic Constant Matrix: (Units=GPa)
#
#
# Indices 1 2 3 4 5 6 
#
# 1 85.5074 15.9188 -5.5224 0.0000 11.6586 0.0000
# 2 15.9188 40.0533 16.0492 0.0000 2.9509 0.0000
# 3 -5.5224 16.0492 43.5801 0.0000 0.6867 0.0000
# 4 0.0000 0.0000 0.0000 27.3684 0.0000 4.9899
# 5 11.6586 2.9509 0.6867 0.0000 17.2638 0.0000
# 6 0.0000 0.0000 0.0000 4.9899 0.0000 33.1204
#
#
#
# Elastic Compliance Matrix: (Units=1/GPa)
#
#
# Indices 1 2 3 4 5 6 
#
# 1 0.014470 -0.006915 0.004518 0.000000 -0.008769 0.000000
# 2 -0.006915 0.032960 -0.013007 0.000000 -0.000446 0.000000
# 3 0.004518 -0.013007 0.028340 0.000000 -0.001955 0.000000
# 4 0.000000 0.000000 0.000000 0.037571 0.000000 -0.005660
# 5 -0.008769 -0.000446 -0.001955 0.000000 0.064001 0.000000
# 6 0.000000 0.000000 0.000000 -0.005660 0.000000 0.031046
#
#
# Mechanical properties :
#
#
# Convention : Reuss Voigt Hill
#
# Bulk Modulus (GPa) = 22.24142 24.67023 23.45583
# Shear Modulus (GPa) = 19.67090 25.06353 22.36721
#
# Velocity S-wave (km/s) = 3.19112 3.60207 3.40281
# Velocity P-wave (km/s) = 5.00916 5.48373 5.25181
#
# Compressibility (1/GPa) = 0.04496116
#
# Stress axis : x y z
#
# Youngs Moduli (GPa) = 69.10935 30.33975 35.28597
#
# Poissons Ratio (x) = 0.20981 -0.15944
# Poissons Ratio (y) = 0.47791 0.45898
# Poissons Ratio (z) = -0.31227 0.39464
#
# Static dielectric constant tensor:
#      x y z
#    x 1.671580 0.000000 -0.006330 
#    y 0.000000 1.639590 0.000000 
#    z -0.006330 0.000000 1.667430 
# 
# From -- ./inp_files/359887.got.cif
#   From: 2010.05.17/outbox.cif.g08.bks.cpg/sg12_180_cif.got.tgz:359887.got - 2010.06.03 13:09:07.
