data_PCOD9206758
_publ_section_title
;
Structure prediction by ZEFSAII (Michael W. Deem and Ramdas Pophale) SiO2 
 PCOD9206758
Probable space group: C 2/M
;
_chemical_formula_sum "Si O2"
_cell_formula_units_Z 44
_cell_length_a 19.824224
_cell_length_b 11.916807
_cell_length_c 10.077969
_cell_angle_alpha 90.000000
_cell_angle_beta 105.724808
_cell_angle_gamma 90.000000
_cell_volume 2291.730099
_symmetry_space_group_name_H-M "C 2/M"
_symmetry_group_IT_number 12
_symmetry_cell_setting 'monoclinic'
loop_
_space_group_symop_operation_xyz
x,y,z
-x,y,-z
-x,-y,-z
x,-y,z
1/2+x,1/2+y,z
1/2-x,1/2+y,-z
1/2-x,1/2-y,-z
1/2+x,1/2-y,z
loop_
_atom_site_type_symbol
_atom_site_label
_atom_site_fract_x
_atom_site_fract_y
_atom_site_fract_z
Si Si1 0.584153 0.742941 0.053265
Si Si2 0.818400 0.247780 0.125993
Si Si3 0.139276 0.211555 0.358801
Si Si4 0.702469 0.131118 0.611285
Si Si5 0.642620 0.500000 0.759102
Si Si6 0.929184 0.000000 0.551121
Si Si7 0.076664 0.000000 0.984213
O O1 0.612387 0.775752 0.212511
O O2 0.609958 0.612804 0.055561
O O3 0.500000 0.749446 0.000000
O O4 0.618921 0.788373 0.937682
O O5 0.812628 0.327405 0.248685
O O6 0.824115 0.119238 0.183106
O O7 0.750000 0.250000 0.000000
O O8 0.215585 0.157344 0.373075
O O9 0.153899 0.296976 0.486281
O O10 0.084988 0.112502 0.371160
O O11 0.690173 0.000000 0.587867
O O12 0.629128 0.500000 0.596657
O O13 0.575626 0.500000 0.823988
O O14 0.000000 0.000000 0.500000
O O15 0.000000 0.000000 0.000000
#
# Coordination Sequence:
#
# PCOD9206758 Si02
#       7
#     8   8   8   8   4   4   4
#     4  10  21  36  62  90 125 161 204 263 325 381
#     4  11  22  39  62  94 125 167 213 267 320 378
#     4  11  23  41  63  96 128 167 214 259 324 386
#     4  11  24  42  64  91 130 171 215 264 316 384
#     4  10  22  38  54  97 129 153 213 269 315 383
#     4  12  25  36  64  98 133 166 205 266 333 392
#     4   8  17  30  55  84 124 158 184 240 320 381
#
# _framework density 19.199468
#
# number of rings (size 3 to 8) (size 9 to 14) (size 15 to 20)
#    0.000    1.455    4.545    0.545    8.909    0.000 
#    0.000    0.909    0.000    6.000    0.000    0.000 
#    0.000    0.000    0.000    0.000    0.000    0.000 
#
# Total GULP energy -122665.955240 kJ/mol
# GULP energy per Si atom -5575.725238 kJ/mol
# Density = 1.915577 g / cm^3
# Si number density = 19.199468 Si / 1000 Ang^3
#
#
#
# Elastic Constant Matrix: (Units=GPa)
#
#
# Indices 1 2 3 4 5 6 
#
# 1 76.8214 31.6031 23.7360 0.0000 -18.3262 0.0000
# 2 31.6031 78.2330 34.6693 0.0000 -7.7364 0.0000
# 3 23.7360 34.6693 128.2350 0.0000 -11.1778 0.0000
# 4 0.0000 0.0000 0.0000 5.2917 0.0000 -2.4689
# 5 -18.3262 -7.7364 -11.1778 0.0000 33.0639 0.0000
# 6 0.0000 0.0000 0.0000 -2.4689 0.0000 19.8734
#
#
#
# Elastic Compliance Matrix: (Units=1/GPa)
#
#
# Indices 1 2 3 4 5 6 
#
# 1 0.017678 -0.005912 -0.000969 0.000000 0.008087 0.000000
# 2 -0.005912 0.016647 -0.003454 0.000000 -0.000550 0.000000
# 3 -0.000969 -0.003454 0.009061 0.000000 0.001718 0.000000
# 4 0.000000 0.000000 0.000000 0.200601 0.000000 0.024921
# 5 0.008087 -0.000550 0.001718 0.000000 0.035179 0.000000
# 6 0.000000 0.000000 0.000000 0.024921 0.000000 0.053414
#
#
# Mechanical properties :
#
#
# Convention : Reuss Voigt Hill
#
# Bulk Modulus (GPa) = 44.02215 51.47844 47.75029
# Shear Modulus (GPa) = 13.85720 24.53121 19.19420
#
# Velocity S-wave (km/s) = 2.68945 3.57837 3.16527
# Velocity P-wave (km/s) = 5.71164 6.62900 6.18735
#
# Compressibility (1/GPa) = 0.02271584
#
# Stress axis : x y z
#
# Youngs Moduli (GPa) = 56.56744 60.07088 110.36140
#
# Poissons Ratio (x) = 0.35515 0.10692
# Poissons Ratio (y) = 0.33443 0.38121
# Poissons Ratio (z) = 0.05480 0.20750
#
# Static dielectric constant tensor:
#      x y z
#    x 1.734140 0.000000 -0.035200 
#    y 0.000000 1.692350 0.000000 
#    z -0.035200 0.000000 1.708020 
# 
# From -- ./inp_files/84202.got.cif
#   From: 2010.05.17/outbox.cif.g08.bks.cpg/sg12_43_cif.got.tgz:84202.got - 2010.06.03 13:09:07.
