data_PCOD9206511
_publ_section_title
;
Structure prediction by ZEFSAII (Michael W. Deem and Ramdas Pophale) SiO2 
 PCOD9206511
Probable space group: C 2/M
;
_chemical_formula_sum "Si O2"
_cell_formula_units_Z 64
_cell_length_a 24.919763
_cell_length_b 17.900920
_cell_length_c 21.841242
_cell_angle_alpha 90.000000
_cell_angle_beta 20.398193
_cell_angle_gamma 90.000000
_cell_volume 3395.879850
_symmetry_space_group_name_H-M "C 2/M"
_symmetry_group_IT_number 12
_symmetry_cell_setting 'monoclinic'
loop_
_space_group_symop_operation_xyz
x,y,z
-x,y,-z
-x,-y,-z
x,-y,z
1/2+x,1/2+y,z
1/2-x,1/2+y,-z
1/2-x,1/2-y,-z
1/2+x,1/2-y,z
loop_
_atom_site_type_symbol
_atom_site_label
_atom_site_fract_x
_atom_site_fract_y
_atom_site_fract_z
Si Si1 0.136220 0.319367 0.610281
Si Si2 0.110553 0.692083 0.233676
Si Si3 0.434965 0.410619 0.728931
Si Si4 0.068385 0.804637 0.491527
Si Si5 0.806130 0.911876 0.093267
Si Si6 0.849352 0.689925 0.998989
Si Si7 0.065065 0.911182 0.721540
Si Si8 0.341349 0.272912 0.136176
O O1 0.250000 0.250000 0.500000
O O2 0.259722 0.384156 0.466424
O O3 0.019286 0.309897 0.678737
O O4 0.017983 0.326896 0.793020
O O5 0.171660 0.611624 0.189472
O O6 0.262526 0.741527 0.056913
O O7 0.037072 0.738172 0.368695
O O8 0.439159 0.500000 0.720156
O O9 0.556155 0.370134 0.554165
O O10 0.268698 0.378256 0.886565
O O11 0.478980 0.386644 0.751019
O O12 0.229098 0.767421 0.303819
O O13 0.000000 0.831325 0.500000
O O14 0.787052 0.853947 0.169326
O O15 0.804706 0.000000 0.108805
O O16 0.965714 0.890473 0.887678
O O17 0.857622 0.718510 0.059851
O O18 0.061719 0.000000 0.723567
O O19 0.500000 0.284993 0.000000
#
# Coordination Sequence:
#
# PCOD9206511 Si02
#       8
#     8   8   8   8   8   8   8   8
#     4  12  22  33  60  91 118 152 197 242 297 345
#     4  10  21  36  59  85 116 153 198 243 287 341
#     4  10  21  40  65  85 115 160 197 239 293 352
#     4  11  20  40  58  86 117 148 197 246 281 345
#     4  10  21  42  63  83 116 159 199 239 293 356
#     4  10  21  38  56  86 116 153 199 243 284 349
#     4  10  23  39  57  87 121 150 189 241 299 348
#     4  11  24  38  59  84 121 153 190 244 299 339
#
# _framework density 18.846367999999998
#
# number of rings (size 3 to 8) (size 9 to 14) (size 15 to 20)
#    0.000    1.500    3.750    4.125    5.250    1.500 
#    0.000    1.250    0.000    0.750    0.000    0.000 
#    0.000    0.000    0.000    0.000    0.000    0.000 
#
# Total GULP energy -178463.814283 kJ/mol
# GULP energy per Si atom -5576.994196 kJ/mol
# Density = 1.880347 g / cm^3
# Si number density = 18.846368 Si / 1000 Ang^3
#
#
#
# Elastic Constant Matrix: (Units=GPa)
#
#
# Indices 1 2 3 4 5 6 
#
# 1 46.6910 14.0490 14.2383 -0.0050 -9.9044 0.0009
# 2 14.0490 79.3697 40.0162 -0.0027 -0.9471 0.0018
# 3 14.2383 40.0162 84.0805 -0.0037 -4.0590 0.0023
# 4 -0.0050 -0.0027 -0.0037 31.0118 0.0023 -1.8877
# 5 -9.9044 -0.9471 -4.0590 0.0023 30.0365 -0.0011
# 6 0.0009 0.0018 0.0023 -1.8877 -0.0011 22.3189
#
#
#
# Elastic Compliance Matrix: (Units=1/GPa)
#
#
# Indices 1 2 3 4 5 6 
#
# 1 0.024703 -0.003104 -0.002333 0.000003 0.007733 0.000000
# 2 -0.003104 0.016976 -0.007627 0.000000 -0.001519 -0.000001
# 3 -0.002333 -0.007627 0.015974 0.000001 0.001149 -0.000001
# 4 0.000003 0.000000 0.000001 0.032413 -0.000001 0.002741
# 5 0.007733 -0.001519 0.001149 -0.000001 0.035950 0.000001
# 6 0.000000 -0.000001 -0.000001 0.002741 0.000001 0.045037
#
#
# Mechanical properties :
#
#
# Convention : Reuss Voigt Hill
#
# Bulk Modulus (GPa) = 31.72077 38.52756 35.12416
# Shear Modulus (GPa) = 24.07456 26.12930 25.10193
#
# Velocity S-wave (km/s) = 3.57797 3.72753 3.65351
# Velocity P-wave (km/s) = 5.82554 6.24606 6.03946
#
# Compressibility (1/GPa) = 0.03152509
#
# Stress axis : x y z
#
# Youngs Moduli (GPa) = 40.48081 58.90684 62.60294
#
# Poissons Ratio (x) = 0.18287 0.14602
# Poissons Ratio (y) = 0.12567 0.47747
# Poissons Ratio (z) = 0.09442 0.44928
#
# Static dielectric constant tensor:
#      x y z
#    x 1.693410 0.000000 0.014830 
#    y 0.000000 1.662410 0.000000 
#    z 0.014830 0.000000 1.720090 
# 
# From -- ./inp_files/326083.got.cif
#   From: 2010.05.17/outbox.cif.g08.bks.cpg/sg12_164_cif.got.tgz:326083.got - 2010.06.03 13:09:07.
