data_PCOD9206295
_publ_section_title
;
Structure prediction by ZEFSAII (Michael W. Deem and Ramdas Pophale) SiO2 
 PCOD9206295
Probable space group: C 2/M
;
_chemical_formula_sum "Si O2"
_cell_formula_units_Z 64
_cell_length_a 25.762408
_cell_length_b 8.985972
_cell_length_c 24.440017
_cell_angle_alpha 90.000000
_cell_angle_beta 148.073690
_cell_angle_gamma 90.000000
_cell_volume 2992.041147
_symmetry_space_group_name_H-M "C 2/M"
_symmetry_group_IT_number 12
_symmetry_cell_setting 'monoclinic'
loop_
_space_group_symop_operation_xyz
x,y,z
-x,y,-z
-x,-y,-z
x,-y,z
1/2+x,1/2+y,z
1/2-x,1/2+y,-z
1/2-x,1/2-y,-z
1/2+x,1/2-y,z
loop_
_atom_site_type_symbol
_atom_site_label
_atom_site_fract_x
_atom_site_fract_y
_atom_site_fract_z
Si Si1 0.261395 0.676319 0.184919
Si Si2 0.340060 0.825397 0.361329
Si Si3 0.907863 0.674288 0.239827
Si Si4 0.148264 0.323089 0.928739
Si Si5 0.432861 0.330268 0.543780
Si Si6 0.634135 0.673951 0.241323
Si Si7 0.725705 0.832840 0.422127
Si Si8 0.923035 0.821863 0.022845
O O1 0.257195 0.500000 0.184330
O O2 0.326778 0.743155 0.292172
O O3 0.315048 0.731487 0.177899
O O4 0.152641 0.745557 0.086351
O O5 0.415668 0.748114 0.470279
O O6 0.233111 0.811421 0.294692
O O7 0.361951 0.000000 0.373782
O O8 0.889264 0.500000 0.234197
O O9 0.920770 0.691473 0.186531
O O10 0.998206 0.734464 0.355455
O O11 0.159826 0.500000 0.950939
O O12 0.250000 0.250000 0.000000
O O13 0.107380 0.236138 0.944192
O O14 0.469564 0.500000 0.570780
O O15 0.327092 0.336724 0.478594
O O16 0.621916 0.500000 0.243530
O O17 0.649135 0.758221 0.311977
O O18 0.537692 0.719406 0.121315
O O19 0.750000 0.750000 0.500000
O O20 0.693816 0.000000 0.406389
O O21 0.911995 0.000000 0.008584
#
# Coordination Sequence:
#
# PCOD9206295 Si02
#       8
#     8   8   8   8   8   8   8   8
#     4  12  25  41  63  90 121 157 202 251 303 359
#     4  10  21  42  67  89 120 158 200 250 302 355
#     4  11  24  41  62  90 122 160 204 247 299 361
#     4  11  23  39  61  88 122 161 202 248 302 356
#     4  10  22  40  61  89 122 157 199 249 302 354
#     4   9  21  40  62  88 119 158 200 245 297 354
#     4  10  21  36  57  85 120 158 199 246 295 352
#     4  11  23  40  62  90 124 160 203 248 299 360
#
# _framework density 21.390079
#
# number of rings (size 3 to 8) (size 9 to 14) (size 15 to 20)
#    0.000    1.500    1.250    3.375    1.750    5.500 
#    0.000    5.000    0.000    0.000    0.000    0.000 
#    0.000    0.000    0.000    0.000    0.000    0.000 
#
# Total GULP energy -178975.095996 kJ/mol
# GULP energy per Si atom -5592.971750 kJ/mol
# Density = 2.134139 g / cm^3
# Si number density = 21.390079 Si / 1000 Ang^3
#
#
#
# Elastic Constant Matrix: (Units=GPa)
#
#
# Indices 1 2 3 4 5 6 
#
# 1 24.9678 18.2504 3.4232 0.0000 -10.6052 0.0000
# 2 18.2504 95.0797 22.9727 0.0000 -17.0537 0.0000
# 3 3.4232 22.9727 105.4204 0.0000 -11.7549 0.0000
# 4 0.0000 0.0000 0.0000 38.0328 0.0000 -6.0257
# 5 -10.6052 -17.0537 -11.7549 0.0000 36.0396 0.0000
# 6 0.0000 0.0000 0.0000 -6.0257 0.0000 23.5818
#
#
#
# Elastic Compliance Matrix: (Units=1/GPa)
#
#
# Indices 1 2 3 4 5 6 
#
# 1 0.050604 -0.007973 0.001384 0.000000 0.011570 0.000000
# 2 -0.007973 0.013157 -0.002258 0.000000 0.003143 0.000000
# 3 0.001384 -0.002258 0.010231 0.000000 0.002676 0.000000
# 4 0.000000 0.000000 0.000000 0.027402 0.000000 0.007002
# 5 0.011570 0.003143 0.002676 0.000000 0.033512 0.000000
# 6 0.000000 0.000000 0.000000 0.007002 0.000000 0.044195
#
#
# Mechanical properties :
#
#
# Convention : Reuss Voigt Hill
#
# Bulk Modulus (GPa) = 17.76200 34.97342 26.36771
# Shear Modulus (GPa) = 23.19536 31.58562 27.39049
#
# Velocity S-wave (km/s) = 3.29659 3.84689 3.58232
# Velocity P-wave (km/s) = 4.77618 6.00976 5.42813
#
# Compressibility (1/GPa) = 0.05629996
#
# Stress axis : x y z
#
# Youngs Moduli (GPa) = 19.76137 76.00435 97.73949
#
# Poissons Ratio (x) = 0.60595 -0.13529
# Poissons Ratio (y) = 0.15755 0.22067
# Poissons Ratio (z) = -0.02735 0.17160
#
# Static dielectric constant tensor:
#      x y z
#    x 1.797050 0.000000 0.029920 
#    y 0.000000 1.726830 0.000000 
#    z 0.029920 0.000000 1.797440 
# 
# From -- ./inp_files/353477.got.cif
#   From: 2010.05.17/outbox.cif.g08.bks.cpg/sg12_177_cif.got.tgz:353477.got - 2010.06.03 13:09:07.
