data_PCOD9206720
_publ_section_title
;
Structure prediction by ZEFSAII (Michael W. Deem and Ramdas Pophale) SiO2 
 PCOD9206720
Probable space group: C 2/M
;
_chemical_formula_sum "Si O2"
_cell_formula_units_Z 40
_cell_length_a 18.359690
_cell_length_b 13.940826
_cell_length_c 15.287526
_cell_angle_alpha 90.000000
_cell_angle_beta 147.349871
_cell_angle_gamma 90.000000
_cell_volume 2111.002121
_symmetry_space_group_name_H-M "C 2/M"
_symmetry_group_IT_number 12
_symmetry_cell_setting 'monoclinic'
loop_
_space_group_symop_operation_xyz
x,y,z
-x,y,-z
-x,-y,-z
x,-y,z
1/2+x,1/2+y,z
1/2-x,1/2+y,-z
1/2-x,1/2-y,-z
1/2+x,1/2-y,z
loop_
_atom_site_type_symbol
_atom_site_label
_atom_site_fract_x
_atom_site_fract_y
_atom_site_fract_z
Si Si1 0.836612 0.113782 0.074461
Si Si2 0.523330 0.720524 0.125726
Si Si3 0.957345 0.108120 0.557780
Si Si4 0.804234 0.289637 0.463213
Si Si5 0.974151 0.613383 0.206766
O O1 0.913113 0.163557 0.071472
O O2 0.922448 0.129100 0.250907
O O3 0.836784 0.000000 0.059291
O O4 0.680428 0.142297 0.928237
O O5 0.669436 0.669742 0.283898
O O6 0.521991 0.824729 0.171647
O O7 0.500000 0.729406 0.000000
O O8 0.855394 0.195893 0.464526
O O9 0.000000 0.105756 0.500000
O O10 0.905976 0.000000 0.527865
O O11 0.750000 0.250000 0.500000
O O12 0.927405 0.358573 0.613227
O O13 0.978971 0.500000 0.195255
#
# Coordination Sequence:
#
# PCOD9206720 Si02
#       5
#     8   8   8   8   8
#     4  10  21  40  62  85 118 161 201 241 293 355
#     4  11  24  39  61  91 123 158 195 243 302 355
#     4  10  21  36  61  91 120 155 200 246 296 355
#     4  10  21  38  58  88 120 160 192 239 302 347
#     4  10  22  40  63  87 117 160 202 245 296 345
#
# _framework density 18.948346000000001
#
# number of rings (size 3 to 8) (size 9 to 14) (size 15 to 20)
#    0.000    1.800    4.000    0.600    2.800    4.800 
#    0.000    0.000    0.000    3.000    0.000    0.000 
#    0.000    0.000    0.000    0.000    0.000    0.000 
#
# Total GULP energy -111485.039301 kJ/mol
# GULP energy per Si atom -5574.251965 kJ/mol
# Density = 1.890522 g / cm^3
# Si number density = 18.948346 Si / 1000 Ang^3
#
#
#
# Elastic Constant Matrix: (Units=GPa)
#
#
# Indices 1 2 3 4 5 6 
#
# 1 103.5630 42.7149 62.9330 0.0000 -9.9742 0.0000
# 2 42.7149 52.4284 25.4260 0.0000 0.1409 0.0000
# 3 62.9330 25.4260 116.1707 0.0001 6.0150 0.0000
# 4 0.0000 0.0000 0.0001 19.2869 0.0000 -3.2184
# 5 -9.9742 0.1409 6.0150 0.0000 30.5254 0.0000
# 6 0.0000 0.0000 0.0000 -3.2184 0.0000 23.7550
#
#
#
# Elastic Compliance Matrix: (Units=1/GPa)
#
#
# Indices 1 2 3 4 5 6 
#
# 1 0.021544 -0.013081 -0.009270 0.000000 0.008927 0.000000
# 2 -0.013081 0.029302 0.000911 0.000000 -0.004589 0.000000
# 3 -0.009270 0.000911 0.013728 0.000000 -0.005738 0.000000
# 4 0.000000 0.000000 0.000000 0.053048 0.000000 0.007187
# 5 0.008927 -0.004589 -0.005738 0.000000 0.036828 0.000000
# 6 0.000000 0.000000 0.000000 0.007187 0.000000 0.043070
#
#
# Mechanical properties :
#
#
# Convention : Reuss Voigt Hill
#
# Bulk Modulus (GPa) = 46.09851 59.36777 52.73314
# Shear Modulus (GPa) = 20.19121 24.11936 22.15528
#
# Velocity S-wave (km/s) = 3.26788 3.57164 3.42313
# Velocity P-wave (km/s) = 6.21450 6.95760 6.59653
#
# Compressibility (1/GPa) = 0.02169267
#
# Stress axis : x y z
#
# Youngs Moduli (GPa) = 46.41567 34.12770 72.84455
#
# Poissons Ratio (x) = 0.44642 0.67530
# Poissons Ratio (y) = 0.60716 -0.06634
# Poissons Ratio (z) = 0.43029 -0.03108
#
# Static dielectric constant tensor:
#      x y z
#    x 1.611950 0.000000 0.011200 
#    y 0.000000 1.710670 0.000000 
#    z 0.011200 0.000000 1.709460 
# 
# From -- ./inp_files/58957.got.cif
#   From: 2010.05.17/outbox.cif.g08.bks.cpg/sg12_30_cif.got.tgz:58957.got - 2010.06.03 13:09:07.
