data_PCOD9206400
_publ_section_title
;
Structure prediction by ZEFSAII (Michael W. Deem and Ramdas Pophale) SiO2 
 PCOD9206400
Probable space group: C 2/M
;
_chemical_formula_sum "Si O2"
_cell_formula_units_Z 56
_cell_length_a 21.722144
_cell_length_b 13.602726
_cell_length_c 18.963213
_cell_angle_alpha 90.000000
_cell_angle_beta 32.420578
_cell_angle_gamma 90.000000
_cell_volume 3004.074332
_symmetry_space_group_name_H-M "C 2/M"
_symmetry_group_IT_number 12
_symmetry_cell_setting 'monoclinic'
loop_
_space_group_symop_operation_xyz
x,y,z
-x,y,-z
-x,-y,-z
x,-y,z
1/2+x,1/2+y,z
1/2-x,1/2+y,-z
1/2-x,1/2-y,-z
1/2+x,1/2-y,z
loop_
_atom_site_type_symbol
_atom_site_label
_atom_site_fract_x
_atom_site_fract_y
_atom_site_fract_z
Si Si1 0.556570 0.892355 0.369241
Si Si2 0.460511 0.385157 0.956246
Si Si3 0.244739 0.746972 0.820019
Si Si4 0.457539 0.384184 0.620175
Si Si5 0.887181 0.387532 0.158522
Si Si6 0.397033 0.250674 0.433241
Si Si7 0.624986 0.740981 0.710059
O O1 0.500000 0.898684 0.500000
O O2 0.675922 0.840154 0.270259
O O3 0.476055 0.829502 0.395704
O O4 0.574179 0.000000 0.321753
O O5 0.427598 0.500000 0.975808
O O6 0.565947 0.351254 0.805576
O O7 0.500000 0.377342 0.000000
O O8 0.363689 0.300136 0.038053
O O9 0.339785 0.670197 0.758353
O O10 0.198551 0.686667 0.797939
O O11 0.500000 0.352595 0.500000
O O12 0.439134 0.500000 0.636277
O O13 0.558475 0.351862 0.575104
O O14 0.845143 0.500000 0.204265
O O15 0.909423 0.338108 0.212262
O O16 0.000000 0.388514 0.000000
O O17 0.413204 0.251474 0.333858
O O18 0.263005 0.233508 0.577523
#
# Coordination Sequence:
#
# PCOD9206400 Si02
#       7
#     8   8   8   8   8   8   8
#     4  10  21  36  58  85 117 155 198 246 288 341
#     4  11  23  37  60  90 121 159 200 243 293 352
#     4  11  18  37  59  87 116 147 195 248 290 341
#     4  10  21  37  61  89 119 156 201 249 295 347
#     4  11  21  35  60  89 116 148 191 239 292 348
#     4  10  23  37  62  85 122 156 200 238 299 351
#     4  11  21  41  58  87 122 162 190 245 293 357
#
# _framework density 18.641351
#
# number of rings (size 3 to 8) (size 9 to 14) (size 15 to 20)
#    0.000    1.429    2.857    4.286    0.000    3.429 
#    0.000    5.714    0.000    1.714    0.000    0.000 
#    0.000    0.000    0.000    0.000    0.000    0.000 
#
# Total GULP energy -156039.982368 kJ/mol
# GULP energy per Si atom -5572.856513 kJ/mol
# Density = 1.859892 g / cm^3
# Si number density = 18.641351 Si / 1000 Ang^3
#
#
#
# Elastic Constant Matrix: (Units=GPa)
#
#
# Indices 1 2 3 4 5 6 
#
# 1 100.5304 30.0883 43.9038 0.0000 7.7512 0.0000
# 2 30.0883 116.3620 35.0378 0.0000 2.8004 0.0000
# 3 43.9038 35.0378 86.6501 0.0000 4.1407 0.0000
# 4 0.0000 0.0000 0.0000 55.1829 0.0000 -56.4096
# 5 7.7512 2.8004 4.1407 0.0000 27.6969 0.0000
# 6 0.0000 0.0000 0.0000 -56.4096 0.0000 82.3701
#
#
#
# Elastic Compliance Matrix: (Units=1/GPa)
#
#
# Indices 1 2 3 4 5 6 
#
# 1 0.013212 -0.001566 -0.005934 0.000000 -0.002652 0.000000
# 2 -0.001566 0.009975 -0.003236 0.000000 -0.000087 0.000000
# 3 -0.005934 -0.003236 0.015875 0.000000 -0.000385 0.000000
# 4 0.000000 0.000000 0.000000 0.060416 0.000000 0.041375
# 5 -0.002652 -0.000087 -0.000385 0.000000 0.036914 0.000000
# 6 0.000000 0.000000 0.000000 0.041375 0.000000 0.040475
#
#
# Mechanical properties :
#
#
# Convention : Reuss Voigt Hill
#
# Bulk Modulus (GPa) = 56.85270 57.95581 57.40425
# Shear Modulus (GPa) = 24.48552 46.01750 35.25151
#
# Velocity S-wave (km/s) = 3.62816 4.97386 4.35332
# Velocity P-wave (km/s) = 6.93656 8.00894 7.49196
#
# Compressibility (1/GPa) = 0.01758932
#
# Stress axis : x y z
#
# Youngs Moduli (GPa) = 75.68896 100.24842 62.99401
#
# Poissons Ratio (x) = 0.15694 0.37384
# Poissons Ratio (y) = 0.11849 0.20386
# Poissons Ratio (z) = 0.44917 0.32443
#
# Static dielectric constant tensor:
#      x y z
#    x 1.643080 0.000000 -0.023410 
#    y 0.000000 1.673040 0.000000 
#    z -0.023410 0.000000 1.699140 
# 
# From -- ./inp_files/284500.got.cif
#   From: 2010.05.17/outbox.cif.g08.bks.cpg/sg12_143_cif.got.tgz:284500.got - 2010.06.03 13:09:07.
