data_PCOD9206608
_publ_section_title
;
Structure prediction by ZEFSAII (Michael W. Deem and Ramdas Pophale) SiO2 
 PCOD9206608
Probable space group: C 2/M
;
_chemical_formula_sum "Si O2"
_cell_formula_units_Z 48
_cell_length_a 9.582684
_cell_length_b 16.566920
_cell_length_c 30.134778
_cell_angle_alpha 90.000000
_cell_angle_beta 148.774644
_cell_angle_gamma 90.000000
_cell_volume 2480.084831
_symmetry_space_group_name_H-M "C 2/M"
_symmetry_group_IT_number 12
_symmetry_cell_setting 'monoclinic'
loop_
_space_group_symop_operation_xyz
x,y,z
-x,y,-z
-x,-y,-z
x,-y,z
1/2+x,1/2+y,z
1/2-x,1/2+y,-z
1/2-x,1/2-y,-z
1/2+x,1/2-y,z
loop_
_atom_site_type_symbol
_atom_site_label
_atom_site_fract_x
_atom_site_fract_y
_atom_site_fract_z
Si Si1 0.148517 0.315652 0.772795
Si Si2 0.104699 0.328387 0.478988
Si Si3 0.894958 0.093392 0.158359
Si Si4 0.982152 0.862216 0.708754
Si Si5 0.621550 0.411572 0.648361
Si Si6 0.954725 0.753185 0.939565
O O1 0.343518 0.372448 0.796862
O O2 0.269877 0.302473 0.855066
O O3 0.122229 0.225966 0.745538
O O4 0.848341 0.349367 0.695165
O O5 0.250000 0.250000 0.500000
O O6 0.336960 0.394838 0.547390
O O7 0.000000 0.310545 0.500000
O O8 0.841439 0.352543 0.380115
O O9 0.940814 0.097134 0.223955
O O10 0.672683 0.163497 0.089491
O O11 0.835616 0.000000 0.129703
O O12 0.068046 0.904631 0.686562
O O13 0.723035 0.500000 0.665112
O O14 0.000000 0.791112 0.000000
O O15 0.250000 0.750000 0.000000
#
# Coordination Sequence:
#
# PCOD9206608 Si02
#       6
#     8   8   8   8   8   8
#     4  11  22  40  65  88 122 161 200 245 298 369
#     4  10  21  36  60  85 119 164 211 246 290 352
#     4  11  24  40  63  94 126 156 193 251 310 354
#     4  10  21  38  63  85 121 166 210 242 293 364
#     4  11  23  38  59  91 124 158 203 259 303 343
#     4  11  23  44  67  91 117 158 202 242 293 373
#
# _framework density 19.354175999999999
#
# number of rings (size 3 to 8) (size 9 to 14) (size 15 to 20)
#    0.000    1.333    3.333    3.000    4.667    4.000 
#    0.000    0.000    0.000    5.000    0.000    0.000 
#    0.000    0.000    0.000    0.000    0.000    0.000 
#
# Total GULP energy -133981.392205 kJ/mol
# GULP energy per Si atom -5582.558009 kJ/mol
# Density = 1.931013 g / cm^3
# Si number density = 19.354176 Si / 1000 Ang^3
#
#
#
# Elastic Constant Matrix: (Units=GPa)
#
#
# Indices 1 2 3 4 5 6 
#
# 1 46.7201 5.2383 2.4946 0.0000 17.3185 0.0000
# 2 5.2383 77.7901 -9.0417 -0.0003 3.7259 0.0001
# 3 2.4946 -9.0417 60.2521 -0.0003 4.8452 0.0005
# 4 0.0000 -0.0003 -0.0003 8.6164 0.0003 6.7149
# 5 17.3185 3.7259 4.8452 0.0003 38.0180 0.0001
# 6 0.0000 0.0001 0.0005 6.7149 0.0001 20.3087
#
#
#
# Elastic Compliance Matrix: (Units=1/GPa)
#
#
# Indices 1 2 3 4 5 6 
#
# 1 0.025867 -0.001222 -0.000320 0.000001 -0.011623 0.000000
# 2 -0.001222 0.013232 0.002117 0.000001 -0.001010 0.000000
# 3 -0.000320 0.002117 0.017108 0.000001 -0.002242 -0.000001
# 4 0.000001 0.000001 0.000001 0.156342 -0.000001 -0.051693
# 5 -0.011623 -0.001010 -0.002242 -0.000001 0.031983 0.000000
# 6 0.000000 0.000000 -0.000001 -0.051693 0.000000 0.066332
#
#
# Mechanical properties :
#
#
# Convention : Reuss Voigt Hill
#
# Bulk Modulus (GPa) = 17.43450 20.23830 18.83640
# Shear Modulus (GPa) = 15.20536 25.79337 20.49936
#
# Velocity S-wave (km/s) = 2.80596 3.65458 3.25802
# Velocity P-wave (km/s) = 4.41878 5.31860 4.88943
#
# Compressibility (1/GPa) = 0.05735753
#
# Stress axis : x y z
#
# Youngs Moduli (GPa) = 38.65997 75.57497 58.45136
#
# Poissons Ratio (x) = 0.09237 0.01869
# Poissons Ratio (y) = 0.04725 -0.12377
# Poissons Ratio (z) = 0.01236 -0.16003
#
# Static dielectric constant tensor:
#      x y z
#    x 1.702160 0.000000 0.008300 
#    y 0.000000 1.681690 0.000000 
#    z 0.008300 0.000000 1.701910 
# 
# From -- ./inp_files/251386.got.cif
#   From: 2010.05.17/outbox.cif.g08.bks.cpg/sg12_126_cif.got.tgz:251386.got - 2010.06.03 13:09:07.
