data_PCOD9206068
_publ_section_title
;
Structure prediction by ZEFSAII (Michael W. Deem and Ramdas Pophale) SiO2 
 PCOD9206068
Probable space group: C 2/M
;
_chemical_formula_sum "Si O2"
_cell_formula_units_Z 48
_cell_length_a 15.004790
_cell_length_b 18.552756
_cell_length_c 13.339037
_cell_angle_alpha 90.000000
_cell_angle_beta 37.380034
_cell_angle_gamma 90.000000
_cell_volume 2254.355114
_symmetry_space_group_name_H-M "C 2/M"
_symmetry_group_IT_number 12
_symmetry_cell_setting 'monoclinic'
loop_
_space_group_symop_operation_xyz
x,y,z
-x,y,-z
-x,-y,-z
x,-y,z
1/2+x,1/2+y,z
1/2-x,1/2+y,-z
1/2-x,1/2-y,-z
1/2+x,1/2-y,z
loop_
_atom_site_type_symbol
_atom_site_label
_atom_site_fract_x
_atom_site_fract_y
_atom_site_fract_z
Si Si1 0.946798 0.582732 0.707893
Si Si2 0.753838 0.824310 0.240635
Si Si3 0.671241 0.659712 0.340013
Si Si4 0.517068 0.315773 0.145020
Si Si5 0.646905 0.186732 0.633589
Si Si6 0.288415 0.415482 0.899185
O O1 0.984548 0.500000 0.659530
O O2 0.857304 0.614643 0.694542
O O3 0.085126 0.632630 0.607349
O O4 0.841498 0.587894 0.901622
O O5 0.678781 0.746698 0.322070
O O6 0.864197 0.841243 0.232685
O O7 0.862433 0.814679 0.049119
O O8 0.500000 0.638381 0.500000
O O9 0.766146 0.646860 0.355440
O O10 0.743124 0.620401 0.180179
O O11 0.490226 0.234093 0.204026
O O12 0.577105 0.368382 0.176526
O O13 0.750000 0.250000 0.500000
O O14 0.324986 0.500000 0.854770
#
# Coordination Sequence:
#
# PCOD9206068 Si02
#       6
#     8   8   8   8   8   8
#     4  10  21  37  58  84 115 148 183 229 283 336
#     4   9  18  34  58  84 109 143 190 235 277 324
#     4  11  22  36  57  81 109 147 190 236 281 332
#     4   9  18  34  57  83 110 146 190 233 273 325
#     4  11  22  37  58  81 108 146 190 234 281 332
#     4  10  21  36  55  83 118 152 185 226 278 335
#
# _framework density 21.292120000000001
#
# number of rings (size 3 to 8) (size 9 to 14) (size 15 to 20)
#    0.000    2.000    0.000    4.000    0.000    6.333 
#    0.000    7.500    0.000    9.500    0.000    0.000 
#    0.000    0.000    0.000    0.000    0.000    0.000 
#
# Total GULP energy -134146.268601 kJ/mol
# GULP energy per Si atom -5589.427858 kJ/mol
# Density = 2.124366 g / cm^3
# Si number density = 21.292120 Si / 1000 Ang^3
#
#
#
# Elastic Constant Matrix: (Units=GPa)
#
#
# Indices 1 2 3 4 5 6 
#
# 1 82.1870 40.5448 -1.6205 -0.0003 -3.7758 0.0000
# 2 40.5448 79.4119 2.1095 0.0003 -24.3337 -0.0003
# 3 -1.6205 2.1095 54.3895 0.0002 -6.7711 -0.0003
# 4 -0.0003 0.0003 0.0002 20.7090 -0.0002 7.1251
# 5 -3.7758 -24.3337 -6.7711 -0.0002 23.4111 0.0003
# 6 0.0000 -0.0003 -0.0003 7.1251 0.0003 9.4893
#
#
#
# Elastic Compliance Matrix: (Units=1/GPa)
#
#
# Indices 1 2 3 4 5 6 
#
# 1 0.017608 -0.011934 -0.000211 0.000001 -0.009625 0.000000
# 2 -0.011934 0.026726 0.001895 0.000000 0.026402 0.000000
# 3 -0.000211 0.001895 0.019240 0.000000 0.007500 0.000001
# 4 0.000001 0.000000 0.000000 0.065108 0.000001 -0.048887
# 5 -0.009625 0.026402 0.007500 0.000001 0.070774 -0.000002
# 6 0.000000 0.000000 0.000001 -0.048887 -0.000002 0.142089
#
#
# Mechanical properties :
#
#
# Convention : Reuss Voigt Hill
#
# Bulk Modulus (GPa) = 23.21612 33.11734 28.16673
# Shear Modulus (GPa) = 13.28362 22.38553 17.83457
#
# Velocity S-wave (km/s) = 2.50046 3.24597 2.89730
# Velocity P-wave (km/s) = 4.38904 5.44390 4.94468
#
# Compressibility (1/GPa) = 0.04307352
#
# Stress axis : x y z
#
# Youngs Moduli (GPa) = 56.79116 37.41729 51.97554
#
# Poissons Ratio (x) = 0.44654 0.01096
# Poissons Ratio (y) = 0.67775 -0.09848
# Poissons Ratio (z) = 0.01197 -0.07090
#
# Static dielectric constant tensor:
#      x y z
#    x 1.764720 0.000000 0.022040 
#    y 0.000000 1.710790 0.000000 
#    z 0.022040 0.000000 1.851680 
# 
# From -- ./inp_files/216240.got.cif
#   From: 2010.05.17/outbox.cif.g08.bks.cpg/sg12_109_cif.got.tgz:216240.got - 2010.06.03 13:09:07.
