data_PCOD9206816
_publ_section_title
;
Structure prediction by ZEFSAII (Michael W. Deem and Ramdas Pophale) SiO2 
 PCOD9206816
Probable space group: C 2/M
;
_chemical_formula_sum "Si O2"
_cell_formula_units_Z 36
_cell_length_a 17.669302
_cell_length_b 7.357101
_cell_length_c 11.748881
_cell_angle_alpha 90.000000
_cell_angle_beta 68.408883
_cell_angle_gamma 90.000000
_cell_volume 1420.129105
_symmetry_space_group_name_H-M "C 2/M"
_symmetry_group_IT_number 12
_symmetry_cell_setting 'monoclinic'
loop_
_space_group_symop_operation_xyz
x,y,z
-x,y,-z
-x,-y,-z
x,-y,z
1/2+x,1/2+y,z
1/2-x,1/2+y,-z
1/2-x,1/2-y,-z
1/2+x,1/2-y,z
loop_
_atom_site_type_symbol
_atom_site_label
_atom_site_fract_x
_atom_site_fract_y
_atom_site_fract_z
Si Si1 0.532309 0.000000 0.698622
Si Si2 0.653622 0.715511 0.053382
Si Si3 0.897173 0.793871 0.163082
Si Si4 0.574024 0.280886 0.335855
Si Si5 0.734898 0.714771 0.375756
O O1 0.558562 0.158668 0.777049
O O2 0.505827 0.161426 0.622459
O O3 0.643913 0.500000 0.058675
O O4 0.614046 0.780537 0.191967
O O5 0.750000 0.750000 0.000000
O O6 0.610392 0.778137 0.961776
O O7 0.804481 0.803851 0.261192
O O8 0.931327 0.000000 0.146275
O O9 0.559958 0.500000 0.346403
O O10 0.644996 0.235756 0.385712
O O11 0.743850 0.500000 0.350677
O O12 0.750000 0.750000 0.500000
#
# Coordination Sequence:
#
# PCOD9206816 Si02
#       5
#     4   8   8   8   8
#     4  12  26  43  69 100 146 184 217 269 354 402
#     4  10  21  36  65  98 137 171 224 278 321 393
#     4  11  24  42  66 102 137 177 224 274 331 402
#     4  10  24  43  65 101 136 177 226 274 331 401
#     4  11  23  43  71 100 130 172 231 285 332 397
#
# _framework density 25.349806000000001
#
# number of rings (size 3 to 8) (size 9 to 14) (size 15 to 20)
#    0.000    1.333    3.333    1.333    6.222    1.778 
#    0.000    5.556    0.000    4.000    0.000    0.000 
#    0.000    0.000    0.000    0.000    0.000    0.000 
#
# Total GULP energy -100355.646583 kJ/mol
# GULP energy per Si atom -5575.313699 kJ/mol
# Density = 2.529211 g / cm^3
# Si number density = 25.349806 Si / 1000 Ang^3
#
#
#
# Elastic Constant Matrix: (Units=GPa)
#
#
# Indices 1 2 3 4 5 6 
#
# 1 149.7724 62.3931 68.4196 0.0000 54.7385 0.0000
# 2 62.3931 155.3170 7.3712 0.0000 23.2132 0.0000
# 3 68.4196 7.3712 132.5542 0.0000 20.2100 0.0000
# 4 0.0000 0.0000 0.0000 4.2948 0.0000 21.6787
# 5 54.7385 23.2132 20.2100 0.0000 65.3117 0.0000
# 6 0.0000 0.0000 0.0000 21.6787 0.0000 50.0724
#
#
#
# Elastic Compliance Matrix: (Units=1/GPa)
#
#
# Indices 1 2 3 4 5 6 
#
# 1 0.014201 -0.004139 -0.005782 0.000000 -0.008641 0.000000
# 2 -0.004139 0.008006 0.001675 0.000000 0.000105 0.000000
# 3 -0.005782 0.001675 0.010272 0.000000 0.001072 0.000000
# 4 0.000000 0.000000 0.000000 -0.196428 0.000000 0.085043
# 5 -0.008641 0.000105 0.001072 0.000000 0.022185 0.000000
# 6 0.000000 0.000000 0.000000 0.085043 0.000000 -0.016848
#
#
# Mechanical properties :
#
#
# Convention : Reuss Voigt Hill
#
# Bulk Modulus (GPa) = 62.55119 79.33459 70.94289
# Shear Modulus (GPa) = -36.55181 43.89976 3.67398
#
# Velocity S-wave (km/s) = -3.80135 4.16596 1.20518
# Velocity P-wave (km/s) = 2.33704 7.38269 5.47567
#
# Compressibility (1/GPa) = 0.01598691
#
# Stress axis : x y z
#
# Youngs Moduli (GPa) = 70.41961 124.90906 97.35202
#
# Poissons Ratio (x) = 0.51695 0.56290
# Poissons Ratio (y) = 0.29144 -0.16307
# Poissons Ratio (z) = 0.40718 -0.20923
#
# Static dielectric constant tensor:
#      x y z
#    x 2.024370 0.000000 -0.106830 
#    y 0.000000 1.861770 0.000000 
#    z -0.106830 0.000000 2.016860 
# 
# From -- ./inp_files/151509.got.cif
#   From: 2010.05.17/outbox.cif.g08.bks.cpg/sg12_76_cif.got.tgz:151509.got - 2010.06.03 13:09:07.
