data_PCOD9206870
_publ_section_title
;
Structure prediction by ZEFSAII (Michael W. Deem and Ramdas Pophale) SiO2 
 PCOD9206870
Probable space group: C 2/M
;
_chemical_formula_sum "Si O2"
_cell_formula_units_Z 48
_cell_length_a 24.206921
_cell_length_b 7.516945
_cell_length_c 12.098259
_cell_angle_alpha 90.000000
_cell_angle_beta 112.226233
_cell_angle_gamma 90.000000
_cell_volume 2037.853175
_symmetry_space_group_name_H-M "C 2/M"
_symmetry_group_IT_number 12
_symmetry_cell_setting 'monoclinic'
loop_
_space_group_symop_operation_xyz
x,y,z
-x,y,-z
-x,-y,-z
x,-y,z
1/2+x,1/2+y,z
1/2-x,1/2+y,-z
1/2-x,1/2-y,-z
1/2+x,1/2-y,z
loop_
_atom_site_type_symbol
_atom_site_label
_atom_site_fract_x
_atom_site_fract_y
_atom_site_fract_z
Si Si1 0.970702 0.293723 0.124246
Si Si2 0.270429 0.787188 0.638633
Si Si3 0.780440 0.215840 0.181297
Si Si4 0.343689 0.206104 0.016066
Si Si5 0.512947 0.287645 0.386563
Si Si6 0.096235 0.286857 0.265439
O O1 0.971037 0.500000 0.090558
O O2 0.908141 0.213228 0.039560
O O3 0.970433 0.288563 0.258630
O O4 0.037416 0.219047 0.154269
O O5 0.250000 0.750000 0.500000
O O6 0.222888 0.727371 0.694279
O O7 0.337965 0.718310 0.709646
O O8 0.274412 0.000000 0.654383
O O9 0.830163 0.285860 0.136429
O O10 0.783977 0.000000 0.176732
O O11 0.716099 0.278256 0.084834
O O12 0.346215 0.000000 0.982910
O O13 0.500000 0.221961 0.500000
O O14 0.505184 0.500000 0.381368
O O15 0.577495 0.248476 0.379477
O O16 0.096476 0.500000 0.250172
#
# Coordination Sequence:
#
# PCOD9206870 Si02
#       6
#     8   8   8   8   8   8
#     4   8  16  30  49  70  96 127 160 200 247 301
#     4  10  21  37  54  74 103 139 176 210 252 303
#     4   9  19  34  53  77 105 135 170 215 255 297
#     4   9  17  33  55  79 104 132 170 211 257 307
#     4   9  17  28  44  68  96 126 161 203 249 293
#     4   8  17  33  49  67  96 129 163 202 245 297
#
# _framework density 23.554199000000001
#
# number of rings (size 3 to 8) (size 9 to 14) (size 15 to 20)
#    1.000    2.167    0.000    0.000    0.000    4.667 
#    0.000    7.500    0.000    5.000    0.000    1.167 
#    0.000    0.000    0.000    0.000    0.000    0.000 
#
# Total GULP energy -133650.985580 kJ/mol
# GULP energy per Si atom -5568.791066 kJ/mol
# Density = 2.350059 g / cm^3
# Si number density = 23.554199 Si / 1000 Ang^3
#
#
#
# Elastic Constant Matrix: (Units=GPa)
#
#
# Indices 1 2 3 4 5 6 
#
# 1 100.3878 -0.7013 45.3501 0.0000 -2.2270 0.0000
# 2 -0.7013 70.7507 -2.1830 0.0000 2.3306 0.0000
# 3 45.3501 -2.1830 56.8825 0.0000 -17.5796 0.0000
# 4 0.0000 0.0000 0.0000 -68.4513 0.0000 -106.0718
# 5 -2.2270 2.3306 -17.5796 0.0000 47.4580 0.0000
# 6 0.0000 0.0000 0.0000 -106.0718 0.0000 -176.2838
#
#
#
# Elastic Compliance Matrix: (Units=1/GPa)
#
#
# Indices 1 2 3 4 5 6 
#
# 1 0.016415 -0.000134 -0.014513 0.000000 -0.004599 0.000000
# 2 -0.000134 0.014165 0.000489 0.000000 -0.000521 0.000000
# 3 -0.014513 0.000489 0.032695 0.000000 0.011406 0.000000
# 4 0.000000 0.000000 0.000000 -0.216132 0.000000 0.130049
# 5 -0.004599 -0.000521 0.011406 0.000000 0.025106 0.000000
# 6 0.000000 0.000000 0.000000 0.130049 0.000000 -0.083925
#
#
# Mechanical properties :
#
#
# Convention : Reuss Voigt Hill
#
# Bulk Modulus (GPa) = 28.60484 34.77250 31.68867
# Shear Modulus (GPa) = -29.11932 -27.08508 -28.10220
#
# Velocity S-wave (km/s) = -3.51988 -3.39470 -3.45786
# Velocity P-wave (km/s) = 2.08536 0.75534 1.56832
#
# Compressibility (1/GPa) = 0.03495912
#
# Stress axis : x y z
#
# Youngs Moduli (GPa) = 60.92045 70.59630 30.58584
#
# Poissons Ratio (x) = 0.00943 0.44391
# Poissons Ratio (y) = 0.00814 -0.01496
# Poissons Ratio (z) = 0.88417 -0.03454
#
# Static dielectric constant tensor:
#      x y z
#    x 1.948440 0.000000 -0.032010 
#    y 0.000000 1.894780 0.000000 
#    z -0.032010 0.000000 1.944760 
# 
# From -- ./inp_files/181688.got.cif
#   From: 2010.05.17/outbox.cif.g08.bks.cpg/sg12_91_cif.got.tgz:181688.got - 2010.06.03 13:09:07.
