data_PCOD9206669
_publ_section_title
;
Structure prediction by ZEFSAII (Michael W. Deem and Ramdas Pophale) SiO2 
 PCOD9206669
Probable space group: C 2/M
;
_chemical_formula_sum "Si O2"
_cell_formula_units_Z 44
_cell_length_a 14.375525
_cell_length_b 9.058029
_cell_length_c 15.647663
_cell_angle_alpha 90.000000
_cell_angle_beta 112.725753
_cell_angle_gamma 90.000000
_cell_volume 1879.357945
_symmetry_space_group_name_H-M "C 2/M"
_symmetry_group_IT_number 12
_symmetry_cell_setting 'monoclinic'
loop_
_space_group_symop_operation_xyz
x,y,z
-x,y,-z
-x,-y,-z
x,-y,z
1/2+x,1/2+y,z
1/2-x,1/2+y,-z
1/2-x,1/2-y,-z
1/2+x,1/2-y,z
loop_
_atom_site_type_symbol
_atom_site_label
_atom_site_fract_x
_atom_site_fract_y
_atom_site_fract_z
Si Si1 0.773520 0.500000 0.975782
Si Si2 0.087757 0.178326 0.294545
Si Si3 0.776440 0.293538 0.137008
Si Si4 0.044576 0.834327 0.097997
Si Si5 0.782333 0.177018 0.422056
Si Si6 0.929660 0.328039 0.350065
O O1 0.804644 0.375894 0.059657
O O2 0.736353 0.626401 0.895164
O O3 0.028610 0.221995 0.187086
O O4 0.190033 0.270996 0.329273
O O5 0.023729 0.231135 0.352189
O O6 0.104338 0.000000 0.300076
O O7 0.663688 0.344283 0.124572
O O8 0.850291 0.320911 0.242658
O O9 0.997884 0.000000 0.082279
O O10 0.000000 0.752031 0.000000
O O11 0.750000 0.250000 0.500000
O O12 0.878903 0.254140 0.414411
O O13 0.791227 0.000000 0.431140
O O14 0.955546 0.500000 0.373411
#
# Coordination Sequence:
#
# PCOD9206669 Si02
#       6
#     4   8   8   8   8   8
#     4  10  24  34  60  90 128 182 244 292 340 418
#     4  11  25  44  71 107 145 188 242 294 357 429
#     4  11  22  40  60  92 137 187 241 294 359 413
#     4  10  21  36  60  92 136 187 236 288 343 409
#     4  12  27  51  80 108 141 182 234 298 369 437
#     4  12  25  44  71 104 147 190 235 297 361 425
#
# _framework density 23.412251000000001
#
# number of rings (size 3 to 8) (size 9 to 14) (size 15 to 20)
#    0.000    0.909    3.636    2.727    7.636    0.727 
#    1.636    4.091    0.000    0.000    0.000    0.000 
#    0.000    0.000    0.000    0.000    0.000    0.000 
#
# Total GULP energy -122528.561965 kJ/mol
# GULP energy per Si atom -5569.480089 kJ/mol
# Density = 2.335896 g / cm^3
# Si number density = 23.412251 Si / 1000 Ang^3
#
#
#
# Elastic Constant Matrix: (Units=GPa)
#
#
# Indices 1 2 3 4 5 6 
#
# 1 69.9528 -0.2496 -3.2495 0.0000 -19.6039 0.0000
# 2 -0.2496 187.6944 19.2625 0.0000 -21.3990 0.0000
# 3 -3.2495 19.2625 91.5971 0.0000 -20.1947 0.0000
# 4 0.0000 0.0000 0.0000 37.2020 0.0000 -13.1066
# 5 -19.6039 -21.3990 -20.1947 0.0000 35.2307 0.0000
# 6 0.0000 0.0000 0.0000 -13.1066 0.0000 36.8928
#
#
#
# Elastic Compliance Matrix: (Units=1/GPa)
#
#
# Indices 1 2 3 4 5 6 
#
# 1 0.017940 0.001122 0.003150 0.000000 0.012470 0.000000
# 2 0.001122 0.005815 -0.000305 0.000000 0.003981 0.000000
# 3 0.003150 -0.000305 0.013094 0.000000 0.009073 0.000000
# 4 0.000000 0.000000 0.000000 0.030726 0.000000 0.010916
# 5 0.012470 0.003981 0.009073 0.000000 0.042942 0.000000
# 6 0.000000 0.000000 0.000000 0.010916 0.000000 0.030983
#
#
# Mechanical properties :
#
#
# Convention : Reuss Voigt Hill
#
# Bulk Modulus (GPa) = 22.33038 42.30791 32.31915
# Shear Modulus (GPa) = 33.67151 44.09716 38.88433
#
# Velocity S-wave (km/s) = 3.79648 4.34465 4.07978
# Velocity P-wave (km/s) = 5.36435 6.57860 6.00226
#
# Compressibility (1/GPa) = 0.04478204
#
# Stress axis : x y z
#
# Youngs Moduli (GPa) = 55.74044 171.98295 76.37329
#
# Poissons Ratio (x) = -0.19302 -0.24055
# Poissons Ratio (y) = -0.06256 0.02331
# Poissons Ratio (z) = -0.17557 0.05249
#
# Static dielectric constant tensor:
#      x y z
#    x 1.953980 0.000000 0.035010 
#    y 0.000000 1.914220 0.000000 
#    z 0.035010 0.000000 1.962530 
# 
# From -- ./inp_files/273753.got.cif
#   From: 2010.05.17/outbox.cif.g08.bks.cpg/sg12_137_cif.got.tgz:273753.got - 2010.06.03 13:09:07.
