data_PCOD9206915
_publ_section_title
;
Structure prediction by ZEFSAII (Michael W. Deem and Ramdas Pophale) SiO2 
 PCOD9206915
Probable space group: C 2/M
;
_chemical_formula_sum "Si O2"
_cell_formula_units_Z 64
_cell_length_a 28.826304
_cell_length_b 9.005761
_cell_length_c 16.209001
_cell_angle_alpha 90.000000
_cell_angle_beta 116.944036
_cell_angle_gamma 90.000000
_cell_volume 3751.132392
_symmetry_space_group_name_H-M "C 2/M"
_symmetry_group_IT_number 12
_symmetry_cell_setting 'monoclinic'
loop_
_space_group_symop_operation_xyz
x,y,z
-x,y,-z
-x,-y,-z
x,-y,z
1/2+x,1/2+y,z
1/2-x,1/2+y,-z
1/2-x,1/2-y,-z
1/2+x,1/2-y,z
loop_
_atom_site_type_symbol
_atom_site_label
_atom_site_fract_x
_atom_site_fract_y
_atom_site_fract_z
Si Si1 0.850508 0.677731 0.403880
Si Si2 0.395588 0.322364 0.603511
Si Si3 0.635369 0.822867 0.250955
Si Si4 0.112025 0.321198 0.746406
Si Si5 0.512169 0.677004 0.748068
Si Si6 0.969906 0.178434 0.891875
Si Si7 0.265417 0.677278 0.752330
Si Si8 0.275291 0.178642 0.100327
O O1 0.856768 0.500000 0.420253
O O2 0.871805 0.762937 0.499840
O O3 0.880166 0.720785 0.343282
O O4 0.789372 0.705447 0.337897
O O5 0.390078 0.500000 0.606078
O O6 0.368851 0.245645 0.660707
O O7 0.457186 0.287059 0.660081
O O8 0.584924 0.760612 0.162000
O O9 0.687429 0.765835 0.249162
O O10 0.633843 0.000000 0.253561
O O11 0.110252 0.500000 0.747324
O O12 0.164770 0.274841 0.836457
O O13 0.060709 0.256241 0.745784
O O14 0.519738 0.500000 0.748979
O O15 0.503649 0.715402 0.837628
O O16 0.960586 0.000000 0.882249
O O17 0.000000 0.214467 0.000000
O O18 0.275564 0.500000 0.755504
O O19 0.255574 0.715414 0.840363
O O20 0.274777 0.000000 0.092514
O O21 0.250000 0.250000 0.000000
#
# Coordination Sequence:
#
# PCOD9206915 Si02
#       8
#     8   8   8   8   8   8   8   8
#     4   9  19  36  56  77 101 134 176 215 255 307
#     4  10  21  37  55  76 105 138 172 212 259 311
#     4  11  22  35  54  80 107 135 173 218 260 306
#     4   9  19  35  53  75 105 137 169 211 260 305
#     4   9  19  34  52  76 103 135 174 210 250 306
#     4   9  19  37  57  76 104 141 177 213 258 311
#     4   9  19  37  56  74 104 142 175 211 259 313
#     4   9  19  35  54  77 105 138 174 212 256 305
#
# _framework density 17.061513999999999
#
# number of rings (size 3 to 8) (size 9 to 14) (size 15 to 20)
#    0.000    2.625    0.000    3.750    0.000    6.750 
#    0.000    8.750    0.000    0.000    0.000    0.000 
#    0.000    0.000    0.000    0.000    0.000    0.000 
#
# Total GULP energy -178522.795238 kJ/mol
# GULP energy per Si atom -5578.837351 kJ/mol
# Density = 1.702268 g / cm^3
# Si number density = 17.061514 Si / 1000 Ang^3
#
#
#
# Elastic Constant Matrix: (Units=GPa)
#
#
# Indices 1 2 3 4 5 6 
#
# 1 161.6580 74.1252 89.5143 0.0000 -9.6482 0.0000
# 2 74.1252 59.9887 71.7115 0.0000 -1.9142 0.0000
# 3 89.5143 71.7115 177.2522 0.0000 -1.6664 0.0000
# 4 0.0000 0.0000 0.0000 33.4472 0.0000 0.2619
# 5 -9.6482 -1.9142 -1.6664 0.0000 5.1546 0.0000
# 6 0.0000 0.0000 0.0000 0.2619 0.0000 35.4672
#
#
#
# Elastic Compliance Matrix: (Units=1/GPa)
#
#
# Indices 1 2 3 4 5 6 
#
# 1 0.016774 -0.019567 -0.000329 0.000000 0.024024 0.000000
# 2 -0.019567 0.055423 -0.012731 0.000000 -0.020159 0.000000
# 3 -0.000329 -0.012731 0.010941 0.000000 -0.001806 0.000000
# 4 0.000000 0.000000 0.000000 0.029900 0.000000 -0.000221
# 5 0.024024 -0.020159 -0.001806 0.000000 0.230896 0.000000
# 6 0.000000 0.000000 0.000000 -0.000221 0.000000 0.028197
#
#
# Mechanical properties :
#
#
# Convention : Reuss Voigt Hill
#
# Bulk Modulus (GPa) = 55.91230 96.62234 76.26732
# Shear Modulus (GPa) = 11.27789 25.71701 18.49745
#
# Velocity S-wave (km/s) = 2.57381 3.88662 3.29623
# Velocity P-wave (km/s) = 6.45560 8.76903 7.69969
#
# Compressibility (1/GPa) = 0.01788515
#
# Stress axis : x y z
#
# Youngs Moduli (GPa) = 59.61661 18.04306 91.39721
#
# Poissons Ratio (x) = 0.35305 0.03006
# Poissons Ratio (y) = 1.16652 1.16355
# Poissons Ratio (z) = 0.01960 0.22970
#
# Static dielectric constant tensor:
#      x y z
#    x 1.554080 0.000000 -0.000400 
#    y 0.000000 1.568550 0.000000 
#    z -0.000400 0.000000 1.560680 
# 
# From -- ./inp_files/244199.got.cif
#   From: 2010.05.17/outbox.cif.g08.bks.cpg/sg12_123_cif.got.tgz:244199.got - 2010.06.03 13:09:07.
