data_PCOD9206264
_publ_section_title
;
Structure prediction by ZEFSAII (Michael W. Deem and Ramdas Pophale) SiO2 
 PCOD9206264
Probable space group: C 2/M
;
_chemical_formula_sum "Si O2"
_cell_formula_units_Z 56
_cell_length_a 20.849148
_cell_length_b 7.717651
_cell_length_c 29.316810
_cell_angle_alpha 90.000000
_cell_angle_beta 30.856550
_cell_angle_gamma 90.000000
_cell_volume 2419.439273
_symmetry_space_group_name_H-M "C 2/M"
_symmetry_group_IT_number 12
_symmetry_cell_setting 'monoclinic'
loop_
_space_group_symop_operation_xyz
x,y,z
-x,y,-z
-x,-y,-z
x,-y,z
1/2+x,1/2+y,z
1/2-x,1/2+y,-z
1/2-x,1/2-y,-z
1/2+x,1/2-y,z
loop_
_atom_site_type_symbol
_atom_site_label
_atom_site_fract_x
_atom_site_fract_y
_atom_site_fract_z
Si Si1 0.364134 0.290594 0.094684
Si Si2 0.367574 0.696989 0.596040
Si Si3 0.894903 0.291290 0.898931
Si Si4 0.288551 0.799393 0.550152
Si Si5 0.871223 0.708536 0.811939
Si Si6 0.430062 0.295849 0.383115
Si Si7 0.648541 0.207122 0.792905
O O1 0.365240 0.500000 0.092836
O O2 0.268418 0.232654 0.114266
O O3 0.332409 0.239205 0.165424
O O4 0.500000 0.223048 0.000000
O O5 0.500000 0.780756 0.500000
O O6 0.397553 0.500000 0.593410
O O7 0.295311 0.695086 0.592151
O O8 0.269429 0.776491 0.691469
O O9 0.901048 0.500000 0.895718
O O10 0.916451 0.228627 0.833582
O O11 0.011633 0.228304 0.858919
O O12 0.750000 0.250000 0.000000
O O13 0.412963 0.787164 0.443045
O O14 0.180034 0.731141 0.583248
O O15 0.263433 0.000000 0.576155
O O16 0.875115 0.500000 0.811375
O O17 0.948129 0.763437 0.720649
O O18 0.413716 0.500000 0.399945
O O19 0.648739 0.000000 0.784548
#
# Coordination Sequence:
#
# PCOD9206264 Si02
#       7
#     8   8   8   8   8   8   8
#     4  10  22  40  61  86 118 157 197 241 297 356
#     4  10  22  39  59  84 117 158 200 241 290 352
#     4  10  21  38  61  87 117 153 196 247 301 358
#     4  10  21  37  57  83 115 150 192 239 288 341
#     4  10  21  37  59  86 115 149 194 244 293 348
#     4  10  21  36  57  84 114 150 189 237 292 347
#     4  10  22  39  60  88 122 159 197 243 301 356
#
# _framework density 23.145858
#
# number of rings (size 3 to 8) (size 9 to 14) (size 15 to 20)
#    0.000    2.000    0.000    2.571    2.000    6.857 
#    0.000    0.000    0.000    0.000    0.000    0.000 
#    0.000    0.000    0.000    0.000    0.000    0.000 
#
# Total GULP energy -156349.043842 kJ/mol
# GULP energy per Si atom -5583.894423 kJ/mol
# Density = 2.309318 g / cm^3
# Si number density = 23.145858 Si / 1000 Ang^3
#
#
#
# Elastic Constant Matrix: (Units=GPa)
#
#
# Indices 1 2 3 4 5 6 
#
# 1 65.7090 0.6978 -9.5059 -0.0003 7.0692 0.0146
# 2 0.6978 42.7794 -4.9874 -0.0054 -4.0133 0.0074
# 3 -9.5059 -4.9874 74.8187 -0.0002 5.8822 0.0061
# 4 -0.0003 -0.0054 -0.0002 14.6580 -0.0012 1.4790
# 5 7.0692 -4.0133 5.8822 -0.0012 38.1593 -0.0012
# 6 0.0146 0.0074 0.0061 1.4790 -0.0012 14.3413
#
#
#
# Elastic Compliance Matrix: (Units=1/GPa)
#
#
# Indices 1 2 3 4 5 6 
#
# 1 0.015907 -0.000308 0.002262 0.000002 -0.003328 -0.000017
# 2 -0.000308 0.023759 0.001360 0.000010 0.002346 -0.000013
# 3 0.002262 0.001360 0.013934 0.000001 -0.002424 -0.000009
# 4 0.000002 0.000010 0.000001 0.068939 0.000003 -0.007110
# 5 -0.003328 0.002346 -0.002424 0.000003 0.027443 0.000005
# 6 -0.000017 -0.000013 -0.000009 -0.007110 0.000005 0.070462
#
#
# Mechanical properties :
#
#
# Convention : Reuss Voigt Hill
#
# Bulk Modulus (GPa) = 16.60308 17.30179 16.95243
# Shear Modulus (GPa) = 21.37731 26.57190 23.97461
#
# Velocity S-wave (km/s) = 3.04236 3.39192 3.22188
# Velocity P-wave (km/s) = 4.41929 4.77823 4.60226
#
# Compressibility (1/GPa) = 0.06022980
#
# Stress axis : x y z
#
# Youngs Moduli (GPa) = 62.86470 42.08847 71.76531
#
# Poissons Ratio (x) = 0.01296 -0.16234
# Poissons Ratio (y) = 0.01936 -0.09762
# Poissons Ratio (z) = -0.14221 -0.05725
#
# Static dielectric constant tensor:
#      x y z
#    x 1.850010 0.000000 -0.052340 
#    y 0.000000 1.877520 0.000000 
#    z -0.052340 0.000000 1.943610 
# 
# From -- ./inp_files/380651.got.cif
#   From: 2010.05.17/outbox.cif.g08.bks.cpg/sg12_191_cif.got.tgz:380651.got - 2010.06.03 13:09:07.
