data_PCOD9206714
_publ_section_title
;
Structure prediction by ZEFSAII (Michael W. Deem and Ramdas Pophale) SiO2 
 PCOD9206714
Probable space group: C 2/M
;
_chemical_formula_sum "Si O2"
_cell_formula_units_Z 50
_cell_length_a 12.887565
_cell_length_b 14.463484
_cell_length_c 16.619512
_cell_angle_alpha 90.000000
_cell_angle_beta 120.698178
_cell_angle_gamma 90.000000
_cell_volume 2663.753899
_symmetry_space_group_name_H-M "C 2/M"
_symmetry_group_IT_number 12
_symmetry_cell_setting 'monoclinic'
loop_
_space_group_symop_operation_xyz
x,y,z
-x,y,-z
-x,-y,-z
x,-y,z
1/2+x,1/2+y,z
1/2-x,1/2+y,-z
1/2-x,1/2-y,-z
1/2+x,1/2-y,z
loop_
_atom_site_type_symbol
_atom_site_label
_atom_site_fract_x
_atom_site_fract_y
_atom_site_fract_z
Si Si1 0.879263 0.611710 0.243874
Si Si2 0.655419 0.139766 0.957091
Si Si3 0.500000 0.000000 0.000000
Si Si4 0.630359 0.608221 0.232978
Si Si5 0.824153 0.108946 0.558697
Si Si6 0.580653 0.341518 0.955379
Si Si7 0.563968 0.200262 0.440468
O O1 0.894880 0.500000 0.257715
O O2 0.879407 0.638618 0.150721
O O3 0.748785 0.635978 0.230044
O O4 0.979014 0.665249 0.335003
O O5 0.634897 0.239750 0.989014
O O6 0.566212 0.077454 0.971027
O O7 0.795002 0.106163 0.014518
O O8 0.608633 0.500000 0.207285
O O9 0.656298 0.617368 0.337502
O O10 0.511943 0.659399 0.155244
O O11 0.688170 0.142137 0.486003
O O12 0.906945 0.189896 0.553592
O O13 0.843256 0.000000 0.544478
O O14 0.500000 0.372087 0.000000
O O15 0.500000 0.180554 0.500000
#
# Coordination Sequence:
#
# PCOD9206714 Si02
#       7
#     8   8   2   8   8   8   8
#     4  11  21  36  62  94 121 162 207 260 311 373
#     4  11  24  40  62  88 129 167 208 261 313 375
#     4  12  24  44  62  88 124 170 200 260 314 376
#     4  10  21  36  61  90 120 156 210 259 304 366
#     4  10  22  41  61  88 125 163 205 259 303 369
#     4  11  22  39  61  89 121 167 212 256 312 374
#     4  11  22  38  65  92 123 164 204 250 316 369
#
# _framework density 18.770503000000001
#
# number of rings (size 3 to 8) (size 9 to 14) (size 15 to 20)
#    0.000    1.280    4.800    1.440    1.120    1.280 
#    0.000    0.000    0.000    0.000    0.000    0.000 
#    0.000    0.000    0.000    0.000    0.000    0.000 
#
# Total GULP energy -139199.102930 kJ/mol
# GULP energy per Si atom -5567.964117 kJ/mol
# Density = 1.872778 g / cm^3
# Si number density = 18.770503 Si / 1000 Ang^3
#
#
#
# Elastic Constant Matrix: (Units=GPa)
#
#
# Indices 1 2 3 4 5 6 
#
# 1 70.3187 -4.0110 48.1629 0.0000 2.9453 0.0000
# 2 -4.0110 62.7475 9.5524 0.0000 6.9187 0.0000
# 3 48.1629 9.5524 88.3828 0.0000 22.5443 0.0000
# 4 0.0000 0.0000 0.0000 33.2142 0.0000 -4.7775
# 5 2.9453 6.9187 22.5443 0.0000 24.1874 0.0000
# 6 0.0000 0.0000 0.0000 -4.7775 0.0000 -6.5314
#
#
#
# Elastic Compliance Matrix: (Units=1/GPa)
#
#
# Indices 1 2 3 4 5 6 
#
# 1 0.025943 0.002972 -0.017627 0.000000 0.012420 0.000000
# 2 0.002972 0.016835 -0.002779 0.000000 -0.002587 0.000000
# 3 -0.017627 -0.002779 0.026854 0.000000 -0.022089 0.000000
# 4 0.000000 0.000000 0.000000 0.027241 0.000000 -0.019926
# 5 0.012420 -0.002587 -0.022089 0.000000 0.061160 0.000000
# 6 0.000000 0.000000 0.000000 -0.019926 0.000000 -0.138531
#
#
# Mechanical properties :
#
#
# Convention : Reuss Voigt Hill
#
# Bulk Modulus (GPa) = 28.76411 36.53976 32.65194
# Shear Modulus (GPa) = 75.80488 21.35701 48.58094
#
# Velocity S-wave (km/s) = 6.36182 3.37678 5.09291
# Velocity P-wave (km/s) = 8.32593 5.89172 7.21226
#
# Compressibility (1/GPa) = 0.03476554
#
# Stress axis : x y z
#
# Youngs Moduli (GPa) = 38.54578 59.39919 37.23776
#
# Poissons Ratio (x) = -0.17655 0.65638
# Poissons Ratio (y) = -0.11457 0.10350
# Poissons Ratio (z) = 0.67943 0.16509
#
# Static dielectric constant tensor:
#      x y z
#    x 1.614090 0.000000 0.013370 
#    y 0.000000 1.665120 0.000000 
#    z 0.013370 0.000000 1.628400 
# 
# From -- ./inp_files/263027.got.cif
#   From: 2010.05.17/outbox.cif.g08.bks.cpg/sg12_132_cif.got.tgz:263027.got - 2010.06.03 13:09:07.
