data_PCOD9206472
_publ_section_title
;
Structure prediction by ZEFSAII (Michael W. Deem and Ramdas Pophale) SiO2 
 PCOD9206472
Probable space group: C 2/M
;
_chemical_formula_sum "Si O2"
_cell_formula_units_Z 64
_cell_length_a 19.684209
_cell_length_b 14.325670
_cell_length_c 26.239768
_cell_angle_alpha 90.000000
_cell_angle_beta 26.248963
_cell_angle_gamma 90.000000
_cell_volume 3272.523665
_symmetry_space_group_name_H-M "C 2/M"
_symmetry_group_IT_number 12
_symmetry_cell_setting 'monoclinic'
loop_
_space_group_symop_operation_xyz
x,y,z
-x,y,-z
-x,-y,-z
x,-y,z
1/2+x,1/2+y,z
1/2-x,1/2+y,-z
1/2-x,1/2-y,-z
1/2+x,1/2-y,z
loop_
_atom_site_type_symbol
_atom_site_label
_atom_site_fract_x
_atom_site_fract_y
_atom_site_fract_z
Si Si1 0.856993 0.726835 0.476830
Si Si2 0.509052 0.606789 0.432732
Si Si3 0.412637 0.610295 0.308469
Si Si4 0.924194 0.733367 0.750946
Si Si5 0.887872 0.889199 0.925397
Si Si6 0.033940 0.389005 0.178467
Si Si7 0.131186 0.609685 0.815004
Si Si8 0.936083 0.772359 0.991741
O O1 0.750000 0.750000 0.500000
O O2 0.757435 0.654047 0.576219
O O3 0.900031 0.817680 0.480119
O O4 0.013015 0.692572 0.344328
O O5 0.500000 0.613485 0.500000
O O6 0.468176 0.500000 0.446164
O O7 0.687676 0.623807 0.298393
O O8 0.407931 0.500000 0.318397
O O9 0.507662 0.662816 0.288480
O O10 0.509281 0.633122 0.192627
O O11 0.985382 0.670837 0.757241
O O12 0.743662 0.741258 0.877853
O O13 0.896184 0.000000 0.927952
O O14 0.706159 0.866981 0.041328
O O15 0.949157 0.835548 0.933076
O O16 0.028383 0.500000 0.193847
O O17 0.914646 0.370560 0.213284
O O18 0.096145 0.500000 0.847093
O O19 0.028624 0.677415 0.918325
O O20 0.000000 0.817693 0.000000
#
# Coordination Sequence:
#
# PCOD9206472 Si02
#       8
#     8   8   8   8   8   8   8   8
#     4  10  23  39  59  87 120 162 206 249 298 353
#     4  10  23  41  62  90 123 162 203 251 308 365
#     4  10  21  38  61  86 113 153 199 246 299 351
#     4  10  21  37  56  89 122 157 199 246 306 357
#     4   9  19  36  58  85 115 149 198 252 299 352
#     4   9  18  34  60  92 121 151 195 252 306 361
#     4  10  21  36  58  90 122 156 194 237 303 369
#     4  11  22  35  57  85 120 158 194 240 302 362
#
# _framework density 19.556771999999999
#
# number of rings (size 3 to 8) (size 9 to 14) (size 15 to 20)
#    0.000    2.125    0.000    2.250    5.250    6.500 
#    0.000    0.000    0.000    2.625    0.000    0.000 
#    0.000    0.000    0.000    0.000    0.000    0.000 
#
# Total GULP energy -178664.919202 kJ/mol
# GULP energy per Si atom -5583.278725 kJ/mol
# Density = 1.951226 g / cm^3
# Si number density = 19.556772 Si / 1000 Ang^3
#
#
#
# Elastic Constant Matrix: (Units=GPa)
#
#
# Indices 1 2 3 4 5 6 
#
# 1 59.6513 29.1703 5.3923 0.0004 -9.7864 -0.0004
# 2 29.1703 59.2286 30.9536 0.0034 -4.4221 -0.0017
# 3 5.3923 30.9536 92.6255 0.0033 8.4858 -0.0033
# 4 0.0004 0.0034 0.0033 24.2339 0.0000 -11.5811
# 5 -9.7864 -4.4221 8.4858 0.0000 19.7382 0.0002
# 6 -0.0004 -0.0017 -0.0033 -11.5811 0.0002 18.5089
#
#
#
# Elastic Compliance Matrix: (Units=1/GPa)
#
#
# Indices 1 2 3 4 5 6 
#
# 1 0.023893 -0.012143 0.001906 0.000001 0.008306 0.000000
# 2 -0.012143 0.027861 -0.008977 -0.000003 0.004081 -0.000001
# 3 0.001906 -0.008977 0.014348 0.000000 -0.007235 0.000002
# 4 0.000001 -0.000003 0.000000 0.058867 -0.000001 0.036833
# 5 0.008306 0.004081 -0.007235 -0.000001 0.058806 -0.000002
# 6 0.000000 -0.000001 0.000002 0.036833 -0.000002 0.077075
#
#
# Mechanical properties :
#
#
# Convention : Reuss Voigt Hill
#
# Bulk Modulus (GPa) = 36.13706 38.05976 37.09841
# Shear Modulus (GPa) = 16.20732 22.22880 19.21806
#
# Velocity S-wave (km/s) = 2.88189 3.37505 3.13817
# Velocity P-wave (km/s) = 5.43984 5.88994 5.66936
#
# Compressibility (1/GPa) = 0.02767242
#
# Stress axis : x y z
#
# Youngs Moduli (GPa) = 41.85369 35.89282 69.69575
#
# Poissons Ratio (x) = 0.43586 -0.13285
# Poissons Ratio (y) = 0.50824 0.62569
# Poissons Ratio (z) = -0.07978 0.32223
#
# Static dielectric constant tensor:
#      x y z
#    x 1.686930 0.000000 0.012510 
#    y 0.000000 1.678300 0.000000 
#    z 0.012510 0.000000 1.753570 
# 
# From -- ./inp_files/343994.got.cif
#   From: 2010.05.17/outbox.cif.g08.bks.cpg/sg12_172_cif.got.tgz:343994.got - 2010.06.03 13:09:07.
