data_PCOD9206423
_publ_section_title
;
Structure prediction by ZEFSAII (Michael W. Deem and Ramdas Pophale) SiO2 
 PCOD9206423
Probable space group: C 2/M
;
_chemical_formula_sum "Si O2"
_cell_formula_units_Z 56
_cell_length_a 19.461179
_cell_length_b 7.632616
_cell_length_c 19.366351
_cell_angle_alpha 90.000000
_cell_angle_beta 59.051865
_cell_angle_gamma 90.000000
_cell_volume 2467.129401
_symmetry_space_group_name_H-M "C 2/M"
_symmetry_group_IT_number 12
_symmetry_cell_setting 'monoclinic'
loop_
_space_group_symop_operation_xyz
x,y,z
-x,y,-z
-x,-y,-z
x,-y,z
1/2+x,1/2+y,z
1/2-x,1/2+y,-z
1/2-x,1/2-y,-z
1/2+x,1/2-y,z
loop_
_atom_site_type_symbol
_atom_site_label
_atom_site_fract_x
_atom_site_fract_y
_atom_site_fract_z
Si Si1 0.751890 0.785959 0.680598
Si Si2 0.998225 0.799713 0.312377
Si Si3 0.835246 0.709854 0.991617
Si Si4 0.569596 0.714963 0.412546
Si Si5 0.671823 0.791934 0.584397
Si Si6 0.847750 0.293725 0.141579
Si Si7 0.004350 0.203505 0.840011
O O1 0.840993 0.731028 0.614289
O O2 0.691595 0.732656 0.651804
O O3 0.718466 0.722771 0.770894
O O4 0.751980 0.000000 0.681450
O O5 0.910752 0.797742 0.393079
O O6 0.054835 0.722996 0.341752
O O7 0.991038 0.718160 0.239999
O O8 0.024971 0.000000 0.287293
O O9 0.844028 0.500000 0.987891
O O10 0.912666 0.780641 0.911411
O O11 0.750000 0.750000 0.000000
O O12 0.841676 0.777776 0.067332
O O13 0.500000 0.774648 0.500000
O O14 0.566864 0.500000 0.413451
O O15 0.750000 0.750000 0.500000
O O16 0.658875 0.000000 0.589548
O O17 0.831112 0.500000 0.143427
O O18 0.933724 0.278619 0.135516
O O19 0.027193 0.000000 0.823693
#
# Coordination Sequence:
#
# PCOD9206423 Si02
#       7
#     8   8   8   8   8   8   8
#     4   9  18  33  57  84 111 150 198 245 289 343
#     4  10  21  36  58  87 117 152 197 245 296 353
#     4  11  25  42  65  93 123 157 200 248 298 362
#     4   9  17  31  54  82 112 149 197 246 290 341
#     4  11  21  35  58  85 117 153 195 245 294 349
#     4  10  21  40  64  88 117 158 207 248 293 360
#     4  11  23  39  62  91 126 160 198 249 305 362
#
# _framework density 22.698443999999999
#
# number of rings (size 3 to 8) (size 9 to 14) (size 15 to 20)
#    0.000    1.857    1.429    2.571    2.000    5.714 
#    0.000    0.000    0.000    4.714    0.000    0.000 
#    0.000    0.000    0.000    0.000    0.000    0.000 
#
# Total GULP energy -156411.191070 kJ/mol
# GULP energy per Si atom -5586.113967 kJ/mol
# Density = 2.264678 g / cm^3
# Si number density = 22.698444 Si / 1000 Ang^3
#
#
#
# Elastic Constant Matrix: (Units=GPa)
#
#
# Indices 1 2 3 4 5 6 
#
# 1 92.9137 -15.0549 19.4296 -0.0002 -1.4964 -0.0005
# 2 -15.0549 55.5709 -5.2507 -0.0005 6.2783 -0.0008
# 3 19.4296 -5.2507 105.4975 0.0000 -0.9624 -0.0001
# 4 -0.0002 -0.0005 0.0000 11.7692 0.0000 -5.0560
# 5 -1.4964 6.2783 -0.9624 0.0000 43.3793 -0.0001
# 6 -0.0005 -0.0008 -0.0001 -5.0560 -0.0001 18.8667
#
#
#
# Elastic Compliance Matrix: (Units=1/GPa)
#
#
# Indices 1 2 3 4 5 6 
#
# 1 0.011662 0.002979 -0.002000 0.000001 -0.000073 0.000001
# 2 0.002979 0.019138 0.000380 0.000001 -0.002659 0.000001
# 3 -0.002000 0.000380 0.009867 0.000000 0.000095 0.000000
# 4 0.000001 0.000001 0.000000 0.096022 0.000000 0.025733
# 5 -0.000073 -0.002659 0.000095 0.000000 0.023437 0.000000
# 6 0.000001 0.000001 0.000000 0.025733 0.000000 0.059900
#
#
# Mechanical properties :
#
#
# Convention : Reuss Voigt Hill
#
# Bulk Modulus (GPa) = 23.04994 28.02557 25.53776
# Shear Modulus (GPa) = 21.57298 31.79357 26.68327
#
# Velocity S-wave (km/s) = 3.08623 3.74664 3.43236
# Velocity P-wave (km/s) = 4.78295 5.57586 5.19456
#
# Compressibility (1/GPa) = 0.04338406
#
# Stress axis : x y z
#
# Youngs Moduli (GPa) = 85.74531 52.25135 101.34731
#
# Poissons Ratio (x) = -0.15565 0.20272
# Poissons Ratio (y) = -0.25542 -0.03848
# Poissons Ratio (z) = 0.17152 -0.01984
#
# Static dielectric constant tensor:
#      x y z
#    x 1.789050 0.000000 0.026710 
#    y 0.000000 1.871250 0.000000 
#    z 0.026710 0.000000 1.869390 
# 
# From -- ./inp_files/275261.got.cif
#   From: 2010.05.17/outbox.cif.g08.bks.cpg/sg12_138_cif.got.tgz:275261.got - 2010.06.03 13:09:07.
