data_PCOD9206679
_publ_section_title
;
Structure prediction by ZEFSAII (Michael W. Deem and Ramdas Pophale) SiO2 
 PCOD9206679
Probable space group: C 2/M
;
_chemical_formula_sum "Si O2"
_cell_formula_units_Z 48
_cell_length_a 15.005921
_cell_length_b 17.143253
_cell_length_c 29.007012
_cell_angle_alpha 90.000000
_cell_angle_beta 160.662175
_cell_angle_gamma 90.000000
_cell_volume 2470.967919
_symmetry_space_group_name_H-M "C 2/M"
_symmetry_group_IT_number 12
_symmetry_cell_setting 'monoclinic'
loop_
_space_group_symop_operation_xyz
x,y,z
-x,y,-z
-x,-y,-z
x,-y,z
1/2+x,1/2+y,z
1/2-x,1/2+y,-z
1/2-x,1/2-y,-z
1/2+x,1/2-y,z
loop_
_atom_site_type_symbol
_atom_site_label
_atom_site_fract_x
_atom_site_fract_y
_atom_site_fract_z
Si Si1 0.741549 0.909640 0.906783
Si Si2 0.260511 0.369575 0.599002
Si Si3 0.763696 0.705075 0.648705
Si Si4 0.577760 0.669921 0.912471
Si Si5 0.504958 0.797987 0.607503
Si Si6 0.269031 0.589172 0.109053
O O1 0.510623 0.850939 0.777191
O O2 0.656684 0.000000 0.863413
O O3 0.816159 0.886030 0.995446
O O4 0.000000 0.900187 0.000000
O O5 0.317163 0.278412 0.640629
O O6 0.515732 0.411598 0.744361
O O7 0.000000 0.395587 0.500000
O O8 0.146935 0.369853 0.491969
O O9 0.500000 0.662741 0.500000
O O10 0.665443 0.746576 0.647710
O O11 0.254600 0.680221 0.761856
O O12 0.625725 0.634723 0.884532
O O13 0.750000 0.750000 0.000000
O O14 0.250000 0.750000 0.500000
O O15 0.212591 0.500000 0.067328
O O16 0.000000 0.624732 0.000000
#
# Coordination Sequence:
#
# PCOD9206679 Si02
#       6
#     8   8   8   8   8   8
#     4  11  25  41  60  89 125 166 204 245 303 365
#     4   9  18  38  57  87 117 150 199 245 300 349
#     4   9  19  38  60  85 115 153 198 253 295 348
#     4  12  23  41  64  92 120 160 206 258 304 350
#     4  10  21  36  60  94 117 149 202 258 296 355
#     4  11  24  40  61  91 128 164 199 245 308 377
#
# _framework density 19.425585999999999
#
# number of rings (size 3 to 8) (size 9 to 14) (size 15 to 20)
#    0.000    2.000    5.000    0.500    7.000    2.000 
#    0.000    0.000    0.000    0.000    0.000    0.000 
#    0.000    0.000    0.000    0.000    0.000    0.000 
#
# Total GULP energy -133678.000962 kJ/mol
# GULP energy per Si atom -5569.916707 kJ/mol
# Density = 1.938137 g / cm^3
# Si number density = 19.425586 Si / 1000 Ang^3
#
#
#
# Elastic Constant Matrix: (Units=GPa)
#
#
# Indices 1 2 3 4 5 6 
#
# 1 35.2483 14.6610 12.6750 0.0162 5.9036 0.0013
# 2 14.6610 66.7397 31.5995 -0.0136 5.6878 0.0035
# 3 12.6750 31.5995 133.7380 0.0452 -3.0611 -0.0223
# 4 0.0162 -0.0136 0.0452 58.3909 0.0546 -13.9831
# 5 5.9036 5.6878 -3.0611 0.0546 23.8852 -0.0160
# 6 0.0013 0.0035 -0.0223 -13.9831 -0.0160 21.8673
#
#
#
# Elastic Compliance Matrix: (Units=1/GPa)
#
#
# Indices 1 2 3 4 5 6 
#
# 1 0.032574 -0.005660 -0.001909 -0.000005 -0.006948 -0.000011
# 2 -0.005660 0.018360 -0.003881 0.000012 -0.003471 -0.000002
# 3 -0.001909 -0.003881 0.008633 -0.000008 0.002502 0.000006
# 4 -0.000005 0.000012 -0.000008 0.020223 -0.000040 0.012931
# 5 -0.006948 -0.003471 0.002502 -0.000040 0.044732 0.000011
# 6 -0.000011 -0.000002 0.000006 0.012931 0.000011 0.053999
#
#
# Mechanical properties :
#
#
# Convention : Reuss Voigt Hill
#
# Bulk Modulus (GPa) = 27.27216 39.28854 33.28035
# Shear Modulus (GPa) = 23.40348 32.61472 28.00910
#
# Velocity S-wave (km/s) = 3.47475 4.10195 3.80131
# Velocity P-wave (km/s) = 5.49257 6.53481 6.03623
#
# Compressibility (1/GPa) = 0.03666743
#
# Stress axis : x y z
#
# Youngs Moduli (GPa) = 30.69893 54.46528 115.84053
#
# Poissons Ratio (x) = 0.30826 0.22114
# Poissons Ratio (y) = 0.17375 0.44960
# Poissons Ratio (z) = 0.05860 0.21139
#
# Static dielectric constant tensor:
#      x y z
#    x 1.407510 0.000220 0.008200 
#    y 0.000220 1.684630 -0.000050 
#    z 0.008200 -0.000050 1.719800 
# 
# From -- ./inp_files/376628.got.cif
#   From: 2010.05.17/outbox.cif.g08.bks.cpg/sg12_189_cif.got.tgz:376628.got - 2010.06.03 13:09:07.
