data_PCOD9206637
_publ_section_title
;
Structure prediction by ZEFSAII (Michael W. Deem and Ramdas Pophale) SiO2 
 PCOD9206637
Probable space group: C 2/M
;
_chemical_formula_sum "Si O2"
_cell_formula_units_Z 44
_cell_length_a 28.000705
_cell_length_b 15.500955
_cell_length_c 5.011225
_cell_angle_alpha 90.000000
_cell_angle_beta 79.640438
_cell_angle_gamma 90.000000
_cell_volume 2139.603953
_symmetry_space_group_name_H-M "C 2/M"
_symmetry_group_IT_number 12
_symmetry_cell_setting 'monoclinic'
loop_
_space_group_symop_operation_xyz
x,y,z
-x,y,-z
-x,-y,-z
x,-y,z
1/2+x,1/2+y,z
1/2-x,1/2+y,-z
1/2-x,1/2-y,-z
1/2+x,1/2-y,z
loop_
_atom_site_type_symbol
_atom_site_label
_atom_site_fract_x
_atom_site_fract_y
_atom_site_fract_z
Si Si1 0.346601 0.400323 0.172961
Si Si2 0.867141 0.500000 0.635742
Si Si3 0.053887 0.653748 0.365225
Si Si4 0.310061 0.157721 0.450082
Si Si5 0.710793 0.338510 0.268183
Si Si6 0.092508 0.741607 0.827033
O O1 0.356101 0.500000 0.109260
O O2 0.324841 0.386912 0.489657
O O3 0.393309 0.338332 0.109240
O O4 0.306115 0.364251 0.008034
O O5 0.908370 0.575508 0.650716
O O6 0.827764 0.575368 0.592707
O O7 0.071166 0.727526 0.555311
O O8 0.000000 0.626353 0.500000
O O9 0.058002 0.694303 0.069561
O O10 0.296136 0.236967 0.659472
O O11 0.265216 0.138893 0.300223
O O12 0.355940 0.190889 0.231264
#
# Coordination Sequence:
#
# PCOD9206637 Si02
#       6
#     8   4   8   8   8   8
#     4  11  22  37  61  87 117 154 206 246 290 348
#     4  10  21  36  60  90 118 156 196 250 287 348
#     4  11  23  41  63  88 118 153 197 247 312 370
#     4   9  21  38  57  83 124 160 203 240 288 346
#     4  10  22  38  56  84 121 167 199 241 288 342
#     4  10  22  41  61  85 116 160 193 244 308 360
#
# _framework density 20.564553
#
# number of rings (size 3 to 8) (size 9 to 14) (size 15 to 20)
#    0.000    1.818    0.000    4.636    2.545   12.364 
#    0.000    4.545    0.000    3.273    0.000    0.000 
#    0.000    0.000    0.000    0.000    0.000    0.000 
#
# Total GULP energy -122483.859352 kJ/mol
# GULP energy per Si atom -5567.448152 kJ/mol
# Density = 2.051775 g / cm^3
# Si number density = 20.564553 Si / 1000 Ang^3
#
#
#
# Elastic Constant Matrix: (Units=GPa)
#
#
# Indices 1 2 3 4 5 6 
#
# 1 60.4243 18.0267 -3.4517 0.0000 4.3052 0.0000
# 2 18.0267 127.9593 -1.6925 0.0000 10.8093 0.0000
# 3 -3.4517 -1.6925 44.3922 0.0000 -1.9590 0.0000
# 4 0.0000 0.0000 0.0000 -4.3842 0.0000 3.4744
# 5 4.3052 10.8093 -1.9590 0.0000 26.8931 0.0000
# 6 0.0000 0.0000 0.0000 3.4744 0.0000 21.4005
#
#
#
# Elastic Compliance Matrix: (Units=1/GPa)
#
#
# Indices 1 2 3 4 5 6 
#
# 1 0.017427 -0.002289 0.001189 0.000000 -0.001783 0.000000
# 2 -0.002289 0.008391 0.000009 0.000000 -0.003006 0.000000
# 3 0.001189 0.000009 0.022684 0.000000 0.001458 0.000000
# 4 0.000000 0.000000 0.000000 -0.202092 0.000000 0.032810
# 5 -0.001783 -0.003006 0.001458 0.000000 0.038784 0.000000
# 6 0.000000 0.000000 0.000000 0.032810 0.000000 0.041401
#
#
# Mechanical properties :
#
#
# Convention : Reuss Voigt Hill
#
# Bulk Modulus (GPa) = 21.58807 28.72675 25.15741
# Shear Modulus (GPa) = -89.63258 23.44146 -33.09556
#
# Velocity S-wave (km/s) = -6.60913 3.37990 -4.01602
# Velocity P-wave (km/s) = 6.90799 5.40657 3.04050
#
# Compressibility (1/GPa) = 0.04632189
#
# Stress axis : x y z
#
# Youngs Moduli (GPa) = 57.38078 119.16885 44.08459
#
# Poissons Ratio (x) = 0.27275 -0.05242
# Poissons Ratio (y) = 0.13133 -0.00041
# Poissons Ratio (z) = -0.06823 -0.00111
#
# Static dielectric constant tensor:
#      x y z
#    x 1.733930 0.000000 -0.018800 
#    y 0.000000 1.717250 0.000000 
#    z -0.018800 0.000000 1.760700 
# 
# From -- ./inp_files/27905.got.cif
#   From: 2010.05.17/outbox.cif.g08.bks.cpg/sg12_14_cif.got.tgz:27905.got - 2010.06.03 13:09:07.
