data_PCOD9206934
_publ_section_title
;
Structure prediction by ZEFSAII (Michael W. Deem and Ramdas Pophale) SiO2 
 PCOD9206934
Probable space group: C 2/M
;
_chemical_formula_sum "Si O2"
_cell_formula_units_Z 56
_cell_length_a 16.753401
_cell_length_b 29.357331
_cell_length_c 7.663836
_cell_angle_alpha 90.000000
_cell_angle_beta 117.616461
_cell_angle_gamma 90.000000
_cell_volume 3339.904149
_symmetry_space_group_name_H-M "C 2/M"
_symmetry_group_IT_number 12
_symmetry_cell_setting 'monoclinic'
loop_
_space_group_symop_operation_xyz
x,y,z
-x,y,-z
-x,-y,-z
x,-y,z
1/2+x,1/2+y,z
1/2-x,1/2+y,-z
1/2-x,1/2-y,-z
1/2+x,1/2-y,z
loop_
_atom_site_type_symbol
_atom_site_label
_atom_site_fract_x
_atom_site_fract_y
_atom_site_fract_z
Si Si1 0.498573 0.321777 0.290461
Si Si2 0.994028 0.721069 0.702831
Si Si3 0.320851 0.622649 0.104556
Si Si4 0.293663 0.200389 0.588126
Si Si5 0.301105 0.797583 0.002828
Si Si6 0.609000 0.445797 0.108716
Si Si7 0.670519 0.382273 0.464444
O O1 0.500000 0.315794 0.500000
O O2 0.514698 0.272226 0.231302
O O3 0.403383 0.342901 0.152020
O O4 0.577320 0.356263 0.332191
O O5 0.000000 0.721348 0.500000
O O6 0.899442 0.698117 0.653263
O O7 0.091860 0.704570 0.862409
O O8 0.237299 0.654634 0.962737
O O9 0.320158 0.611042 0.314067
O O10 0.343755 0.579627 0.007094
O O11 0.250000 0.250000 0.500000
O O12 0.280310 0.198065 0.779652
O O13 0.243632 0.154816 0.472203
O O14 0.250000 0.750000 0.000000
O O15 0.618549 0.500000 0.105433
O O16 0.658597 0.426826 0.333548
O O17 0.500000 0.436251 0.000000
#
# Coordination Sequence:
#
# PCOD9206934 Si02
#       7
#     8   8   8   8   8   8   8
#     4   9  16  30  48  73 111 151 185 220 267 327
#     4  11  21  33  49  77 114 150 194 230 262 322
#     4  10  21  37  55  77 112 153 187 227 281 333
#     4  11  22  34  51  78 112 152 192 228 273 333
#     4  11  22  34  51  78 112 152 192 228 273 333
#     4  11  24  38  58  87 111 143 195 240 283 341
#     4  10  21  37  55  77 112 153 187 227 281 333
#
# _framework density 16.766947999999999
#
# number of rings (size 3 to 8) (size 9 to 14) (size 15 to 20)
#    0.000    1.571    4.286    1.286    4.000    0.571 
#    2.571    1.429    0.000    0.000    0.000    2.000 
#    0.000    4.571    0.000    0.000    0.000    0.000 
#
# Total GULP energy -155900.056817 kJ/mol
# GULP energy per Si atom -5567.859172 kJ/mol
# Density = 1.672879 g / cm^3
# Si number density = 16.766948 Si / 1000 Ang^3
#
#
#
# Elastic Constant Matrix: (Units=GPa)
#
#
# Indices 1 2 3 4 5 6 
#
# 1 70.5976 39.5912 10.3197 0.0000 3.7906 0.0000
# 2 39.5912 98.8881 29.8022 0.0000 -4.0202 0.0000
# 3 10.3197 29.8022 46.5830 0.0000 -5.4567 0.0000
# 4 0.0000 0.0000 0.0000 53.3375 0.0000 -34.0289
# 5 3.7906 -4.0202 -5.4567 0.0000 30.4264 0.0000
# 6 0.0000 0.0000 0.0000 -34.0289 0.0000 83.3685
#
#
#
# Elastic Compliance Matrix: (Units=1/GPa)
#
#
# Indices 1 2 3 4 5 6 
#
# 1 0.018600 -0.007709 0.000429 0.000000 -0.003259 0.000000
# 2 -0.007709 0.015724 -0.008168 0.000000 0.001573 0.000000
# 3 0.000429 -0.008168 0.027033 0.000000 0.003715 0.000000
# 4 0.000000 0.000000 0.000000 0.025350 0.000000 0.010347
# 5 -0.003259 0.001573 0.003715 0.000000 0.034146 0.000000
# 6 0.000000 0.000000 0.000000 0.010347 0.000000 0.016218
#
#
# Mechanical properties :
#
#
# Convention : Reuss Voigt Hill
#
# Bulk Modulus (GPa) = 32.82689 41.72167 37.27428
# Shear Modulus (GPa) = 28.07099 42.51686 35.29392
#
# Velocity S-wave (km/s) = 4.09612 5.04109 4.59297
# Velocity P-wave (km/s) = 6.48011 7.66947 7.09974
#
# Compressibility (1/GPa) = 0.03046283
#
# Stress axis : x y z
#
# Youngs Moduli (GPa) = 53.76341 63.59612 36.99242
#
# Poissons Ratio (x) = 0.49024 -0.01589
# Poissons Ratio (y) = 0.41445 0.30215
# Poissons Ratio (z) = -0.02309 0.51944
#
# Static dielectric constant tensor:
#      x y z
#    x 1.817460 0.000000 -0.008010 
#    y 0.000000 1.579950 0.000000 
#    z -0.008010 0.000000 1.574210 
# 
# From -- ./inp_files/67063.got.cif
#   From: 2010.05.17/outbox.cif.g08.bks.cpg/sg12_34_cif.got.tgz:67063.got - 2010.06.03 13:09:07.
