data_PCOD9206610
_publ_section_title
;
Structure prediction by ZEFSAII (Michael W. Deem and Ramdas Pophale) SiO2 
 PCOD9206610
Probable space group: C 2/M
;
_chemical_formula_sum "Si O2"
_cell_formula_units_Z 40
_cell_length_a 22.215724
_cell_length_b 13.786702
_cell_length_c 22.010072
_cell_angle_alpha 90.000000
_cell_angle_beta 18.498248
_cell_angle_gamma 90.000000
_cell_volume 2138.843837
_symmetry_space_group_name_H-M "C 2/M"
_symmetry_group_IT_number 12
_symmetry_cell_setting 'monoclinic'
loop_
_space_group_symop_operation_xyz
x,y,z
-x,y,-z
-x,-y,-z
x,-y,z
1/2+x,1/2+y,z
1/2-x,1/2+y,-z
1/2-x,1/2-y,-z
1/2+x,1/2-y,z
loop_
_atom_site_type_symbol
_atom_site_label
_atom_site_fract_x
_atom_site_fract_y
_atom_site_fract_z
Si Si1 0.784108 0.000000 0.599777
Si Si2 0.317959 0.000000 0.443294
Si Si3 0.217116 0.000000 0.144446
Si Si4 0.040992 0.707431 0.688014
Si Si5 0.509759 0.848279 0.918476
Si Si6 0.885512 0.000000 0.899155
Si Si7 0.166917 0.213205 0.995758
O O1 0.700163 0.000000 0.612154
O O2 0.698882 0.904449 0.714525
O O3 0.008889 0.000000 0.373872
O O4 0.425087 0.903869 0.358725
O O5 0.109739 0.000000 0.670715
O O6 0.203770 0.000000 0.083662
O O7 0.339454 0.089686 0.051756
O O8 0.250000 0.750000 0.500000
O O9 0.931530 0.727184 0.855332
O O10 0.890014 0.744296 0.782449
O O11 0.461087 0.741784 0.939227
O O12 0.500000 0.852430 0.000000
O O13 0.841903 0.100040 0.976252
#
# Coordination Sequence:
#
# PCOD9206610 Si02
#       7
#     4   4   4   8   8   4   8
#     4  10  21  36  60  85 122 148 182 240 294 341
#     4  11  20  34  59  90 119 143 179 235 307 359
#     4  10  21  38  60  92 115 150 187 235 303 355
#     4  11  21  35  57  87 118 148 184 238 301 356
#     4  11  24  39  56  84 119 159 203 232 271 344
#     4  11  22  38  60  89 117 148 189 239 301 353
#     4  11  23  36  57  83 118 154 189 238 293 338
#
# _framework density 18.701692000000001
#
# number of rings (size 3 to 8) (size 9 to 14) (size 15 to 20)
#    0.000    1.200    4.000    4.200    5.600    1.600 
#    0.000    0.500    0.000    0.000    0.000    1.400 
#    0.000    0.000    0.000    0.000    0.000    0.000 
#
# Total GULP energy -111562.268760 kJ/mol
# GULP energy per Si atom -5578.113438 kJ/mol
# Density = 1.865913 g / cm^3
# Si number density = 18.701692 Si / 1000 Ang^3
#
#
#
# Elastic Constant Matrix: (Units=GPa)
#
#
# Indices 1 2 3 4 5 6 
#
# 1 56.4396 36.2911 12.7333 -0.0030 6.3593 -0.0010
# 2 36.2911 101.2941 35.3541 -0.0040 -13.4360 0.0027
# 3 12.7333 35.3541 103.6741 -0.0145 -9.1136 0.0064
# 4 -0.0030 -0.0040 -0.0145 10.9071 0.0011 -14.0786
# 5 6.3593 -13.4360 -9.1136 0.0011 16.2790 -0.0001
# 6 -0.0010 0.0027 0.0064 -14.0786 -0.0001 12.3271
#
#
#
# Elastic Compliance Matrix: (Units=1/GPa)
#
#
# Indices 1 2 3 4 5 6 
#
# 1 0.028825 -0.012931 -0.001114 -0.000024 -0.022556 -0.000022
# 2 -0.012931 0.017944 -0.002929 0.000015 0.018222 0.000014
# 3 -0.001114 -0.002929 0.011156 -0.000013 0.004263 -0.000020
# 4 -0.000024 0.000015 -0.000013 -0.193355 0.000026 -0.220827
# 5 -0.022556 0.018222 0.004263 0.000026 0.087666 0.000022
# 6 -0.000022 0.000014 -0.000020 -0.220827 0.000022 -0.171082
#
#
# Mechanical properties :
#
#
# Convention : Reuss Voigt Hill
#
# Bulk Modulus (GPa) = 41.70394 47.79608 44.75001
# Shear Modulus (GPa) = -28.26381 19.70460 -4.27961
#
# Velocity S-wave (km/s) = -3.89176 3.24948 -1.51437
# Velocity P-wave (km/s) = 1.46751 6.30011 4.57411
#
# Compressibility (1/GPa) = 0.02397855
#
# Stress axis : x y z
#
# Youngs Moduli (GPa) = 34.69185 55.72799 89.63739
#
# Poissons Ratio (x) = 0.72059 0.09983
# Poissons Ratio (y) = 0.44858 0.26257
# Poissons Ratio (z) = 0.03864 0.16324
#
# Static dielectric constant tensor:
#      x y z
#    x 1.635220 -0.000030 -0.026480 
#    y -0.000030 1.633590 0.000000 
#    z -0.026480 0.000000 1.692390 
# 
# From -- ./inp_files/322082.got.cif
#   From: 2010.05.17/outbox.cif.g08.bks.cpg/sg12_162_cif.got.tgz:322082.got - 2010.06.03 13:09:07.
