data_PCOD9206661
_publ_section_title
;
Structure prediction by ZEFSAII (Michael W. Deem and Ramdas Pophale) SiO2 
 PCOD9206661
Probable space group: C 2/M
;
_chemical_formula_sum "Si O2"
_cell_formula_units_Z 28
_cell_length_a 23.429096
_cell_length_b 7.590249
_cell_length_c 19.992946
_cell_angle_alpha 90.000000
_cell_angle_beta 162.201673
_cell_angle_gamma 90.000000
_cell_volume 1086.769941
_symmetry_space_group_name_H-M "C 2/M"
_symmetry_group_IT_number 12
_symmetry_cell_setting 'monoclinic'
loop_
_space_group_symop_operation_xyz
x,y,z
-x,y,-z
-x,-y,-z
x,-y,z
1/2+x,1/2+y,z
1/2-x,1/2+y,-z
1/2-x,1/2-y,-z
1/2+x,1/2-y,z
loop_
_atom_site_type_symbol
_atom_site_label
_atom_site_fract_x
_atom_site_fract_y
_atom_site_fract_z
Si Si1 0.097132 0.205598 0.517131
Si Si2 0.945741 0.711047 0.683082
Si Si3 0.500000 0.263552 0.000000
Si Si4 0.195288 0.296292 0.079696
O O1 0.059850 0.207534 0.396211
O O2 0.284737 0.312801 0.742058
O O3 0.900032 0.274068 0.325567
O O4 0.137381 0.000000 0.583202
O O5 0.966428 0.500000 0.699090
O O6 0.750000 0.750000 0.500000
O O7 0.102253 0.780669 0.909312
O O8 0.446320 0.203488 0.016011
O O9 0.232882 0.500000 0.106368
#
# Coordination Sequence:
#
# PCOD9206661 Si02
#       4
#     8   8   4   8
#     4  11  22  38  63  92 121 157 200 247 298 353
#     4  11  22  40  64  90 120 157 201 249 300 354
#     4  12  21  36  61  92 127 158 197 248 295 352
#     4  10  21  36  60  92 120 155 202 248 296 351
#
# _framework density 25.764422
#
# number of rings (size 3 to 8) (size 9 to 14) (size 15 to 20)
#    0.000    1.143    2.857    5.143    0.000    2.286 
#    0.000    2.143    0.000    1.714    0.000    0.000 
#    0.000    0.000    0.000    0.000    0.000    0.000 
#
# Total GULP energy -78025.149179 kJ/mol
# GULP energy per Si atom -5573.224941 kJ/mol
# Density = 2.570578 g / cm^3
# Si number density = 25.764422 Si / 1000 Ang^3
#
#
#
# Elastic Constant Matrix: (Units=GPa)
#
#
# Indices 1 2 3 4 5 6 
#
# 1 125.1110 6.9518 51.8518 0.0006 3.2367 0.0004
# 2 6.9518 96.7422 24.3897 0.0007 1.7445 0.0006
# 3 51.8518 24.3897 249.8639 0.0011 1.9216 0.0010
# 4 0.0006 0.0007 0.0011 11.5738 0.0007 -33.0131
# 5 3.2367 1.7445 1.9216 0.0007 74.3930 0.0005
# 6 0.0004 0.0006 0.0010 -33.0131 0.0005 55.0811
#
#
#
# Elastic Compliance Matrix: (Units=1/GPa)
#
#
# Indices 1 2 3 4 5 6 
#
# 1 0.008756 -0.000170 -0.001798 0.000001 -0.000331 0.000000
# 2 -0.000170 0.010605 -0.000998 0.000001 -0.000215 0.000001
# 3 -0.001798 -0.000998 0.004473 0.000001 -0.000014 0.000000
# 4 0.000001 0.000001 0.000001 -0.121761 0.000002 -0.072978
# 5 -0.000331 -0.000215 -0.000014 0.000002 0.013462 0.000001
# 6 0.000000 0.000001 0.000000 -0.072978 0.000001 -0.025585
#
#
# Mechanical properties :
#
#
# Convention : Reuss Voigt Hill
#
# Bulk Modulus (GPa) = 55.86217 70.90040 63.38128
# Shear Modulus (GPa) = -50.94205 54.11116 1.58455
#
# Velocity S-wave (km/s) = -4.45142 4.58780 0.78508
# Velocity P-wave (km/s) = 2.16593 7.45938 5.04733
#
# Compressibility (1/GPa) = 0.01790120
#
# Stress axis : x y z
#
# Youngs Moduli (GPa) = 114.20693 94.29956 223.57223
#
# Poissons Ratio (x) = 0.01603 0.40197
# Poissons Ratio (y) = 0.01941 0.22317
# Poissons Ratio (z) = 0.20534 0.09413
#
# Static dielectric constant tensor:
#      x y z
#    x 2.025930 0.000000 0.023360 
#    y 0.000000 1.947570 0.000000 
#    z 0.023360 0.000000 2.090180 
# 
# From -- ./inp_files/83081.got.cif
#   From: 2010.05.17/outbox.cif.g08.bks.cpg/sg12_42_cif.got.tgz:83081.got - 2010.06.03 13:09:07.
