data_PCOD9206805
_publ_section_title
;
Structure prediction by ZEFSAII (Michael W. Deem and Ramdas Pophale) SiO2 
 PCOD9206805
Probable space group: C 2/M
;
_chemical_formula_sum "Si O2"
_cell_formula_units_Z 48
_cell_length_a 12.344972
_cell_length_b 19.896719
_cell_length_c 11.357914
_cell_angle_alpha 90.000000
_cell_angle_beta 122.074424
_cell_angle_gamma 90.000000
_cell_volume 2363.946381
_symmetry_space_group_name_H-M "C 2/M"
_symmetry_group_IT_number 12
_symmetry_cell_setting 'monoclinic'
loop_
_space_group_symop_operation_xyz
x,y,z
-x,y,-z
-x,-y,-z
x,-y,z
1/2+x,1/2+y,z
1/2-x,1/2+y,-z
1/2-x,1/2-y,-z
1/2+x,1/2-y,z
loop_
_atom_site_type_symbol
_atom_site_label
_atom_site_fract_x
_atom_site_fract_y
_atom_site_fract_z
Si Si1 0.904074 0.500000 0.559880
Si Si2 0.348724 0.144456 0.047013
Si Si3 0.770400 0.361812 0.414218
Si Si4 0.870051 0.786373 0.484989
Si Si5 0.116633 0.698461 0.191751
Si Si6 0.944406 0.500000 0.104256
Si Si7 0.863526 0.845996 0.894885
O O1 0.825383 0.429977 0.501136
O O2 0.000000 0.500000 0.500000
O O3 0.962034 0.500000 0.726843
O O4 0.483312 0.175023 0.171421
O O5 0.222564 0.168570 0.040198
O O6 0.359419 0.065537 0.068729
O O7 0.355081 0.159048 0.912212
O O8 0.862000 0.295578 0.480100
O O9 0.645711 0.329222 0.405402
O O10 0.730852 0.377815 0.256946
O O11 0.742049 0.807340 0.342054
O O12 0.000000 0.805834 0.500000
O O13 0.101936 0.774804 0.143205
O O14 0.000000 0.500000 0.000000
O O15 0.000000 0.880291 0.000000
#
# Coordination Sequence:
#
# PCOD9206805 Si02
#       7
#     4   8   8   8   8   4   8
#     4  12  24  44  69  93 134 175 217 274 328 396
#     4  11  22  40  62  98 129 159 220 267 324 378
#     4  10  24  40  61  94 125 173 222 260 330 389
#     4  10  22  40  64  93 131 169 215 270 325 393
#     4  10  21  36  64  94 125 163 211 272 321 376
#     4  12  24  42  68  97 126 173 225 274 317 383
#     4  11  23  38  63  95 129 170 211 268 331 391
#
# _framework density 20.305029999999999
#
# number of rings (size 3 to 8) (size 9 to 14) (size 15 to 20)
#    0.000    1.333    3.333    3.000    2.333    8.000 
#    0.000    2.083    0.000    0.000    0.000    0.000 
#    0.000    0.000    0.000    0.000    0.000    0.000 
#
# Total GULP energy -133763.972904 kJ/mol
# GULP energy per Si atom -5573.498871 kJ/mol
# Density = 2.025881 g / cm^3
# Si number density = 20.305030 Si / 1000 Ang^3
#
#
#
# Elastic Constant Matrix: (Units=GPa)
#
#
# Indices 1 2 3 4 5 6 
#
# 1 152.2473 7.2062 23.0963 0.0000 -0.3203 0.0000
# 2 7.2062 96.7265 20.4684 0.0000 2.5417 0.0000
# 3 23.0963 20.4684 105.7035 0.0000 -5.4783 0.0000
# 4 0.0000 0.0000 0.0000 75.6745 0.0000 -37.7305
# 5 -0.3203 2.5417 -5.4783 0.0000 22.7025 0.0000
# 6 0.0000 0.0000 0.0000 -37.7305 0.0000 31.2559
#
#
#
# Elastic Compliance Matrix: (Units=1/GPa)
#
#
# Indices 1 2 3 4 5 6 
#
# 1 0.006798 -0.000191 -0.001461 0.000000 -0.000235 0.000000
# 2 -0.000191 0.010853 -0.002150 0.000000 -0.001737 0.000000
# 3 -0.001461 -0.002150 0.010337 0.000000 0.002714 0.000000
# 4 0.000000 0.000000 0.000000 0.033191 0.000000 0.040067
# 5 -0.000235 -0.001737 0.002714 0.000000 0.044894 0.000000
# 6 0.000000 0.000000 0.000000 0.040067 0.000000 0.080361
#
#
# Mechanical properties :
#
#
# Convention : Reuss Voigt Hill
#
# Bulk Modulus (GPa) = 49.05607 50.69099 49.87353
# Shear Modulus (GPa) = 24.89631 46.18699 35.54165
#
# Velocity S-wave (km/s) = 3.50539 4.77451 4.18830
# Velocity P-wave (km/s) = 6.37148 7.44403 6.92854
#
# Compressibility (1/GPa) = 0.02038484
#
# Stress axis : x y z
#
# Youngs Moduli (GPa) = 147.09352 92.13838 96.74413
#
# Poissons Ratio (x) = 0.01762 0.14131
# Poissons Ratio (y) = 0.02813 0.20798
# Poissons Ratio (z) = 0.21485 0.19808
#
# Static dielectric constant tensor:
#      x y z
#    x 1.747660 0.000000 -0.051360 
#    y 0.000000 1.709490 0.000000 
#    z -0.051360 0.000000 1.926000 
# 
# From -- ./inp_files/133459.got.cif
#   From: 2010.05.17/outbox.cif.g08.bks.cpg/sg12_67_cif.got.tgz:133459.got - 2010.06.03 13:09:07.
