data_PCOD9206375
_publ_section_title
;
Structure prediction by ZEFSAII (Michael W. Deem and Ramdas Pophale) SiO2 
 PCOD9206375
Probable space group: C 2/M
;
_chemical_formula_sum "Si O2"
_cell_formula_units_Z 42
_cell_length_a 25.052492
_cell_length_b 10.289790
_cell_length_c 9.192859
_cell_angle_alpha 90.000000
_cell_angle_beta 111.527259
_cell_angle_gamma 90.000000
_cell_volume 2204.471549
_symmetry_space_group_name_H-M "C 2/M"
_symmetry_group_IT_number 12
_symmetry_cell_setting 'monoclinic'
loop_
_space_group_symop_operation_xyz
x,y,z
-x,y,-z
-x,-y,-z
x,-y,z
1/2+x,1/2+y,z
1/2-x,1/2+y,-z
1/2-x,1/2-y,-z
1/2+x,1/2-y,z
loop_
_atom_site_type_symbol
_atom_site_label
_atom_site_fract_x
_atom_site_fract_y
_atom_site_fract_z
Si Si1 0.116439 0.273350 0.790935
Si Si2 0.705236 0.000000 0.531166
Si Si3 0.171764 0.000000 0.846787
Si Si4 1.000000 0.727613 0.840371
Si Si5 0.205236 0.500000 0.879306
Si Si6 0.500000 0.500000 0.000000
Si Si7 0.171764 0.000000 0.496742
Si Si8 0.616439 0.773350 0.441943
O O1 0.166763 0.374632 0.877444
O O2 0.108208 0.276889 0.608208
O O3 0.057288 0.305843 0.810406
O O4 0.137498 0.129537 0.854841
O O5 0.666763 0.874632 0.456083
O O6 0.715054 0.000000 0.715054
O O7 0.765621 0.000000 0.511122
O O8 0.177623 0.000000 0.677623
O O9 0.234379 0.000000 0.979879
O O10 0.942712 0.694156 0.695831
O O11 1.000000 0.882780 0.875555
O O12 0.000000 0.664714 0.000000
O O13 0.137498 0.129537 0.420154
#
# Coordination Sequence:
#
# PCOD9206375 Si02
#       8
#     8   4   4   8   4   2   4   8
#     4  10  21  38  59  84 116 153 189 234 285 343
#     4  10  22  38  57  84 117 153 192 230 286 343
#     4  10  21  36  58  83 112 151 199 237 279 330
#     4  10  21  36  58  86 114 145 190 235 287 336
#     4  10  22  38  57  84 117 153 192 230 286 343
#     4   8  20  36  54  82 120 132 190 230 284 330
#     4  10  21  36  58  83 112 151 199 237 279 330
#     4  10  21  38  59  84 116 153 189 234 285 343
#
# _framework density 19.052184
#
# number of rings (size 3 to 8) (size 9 to 14) (size 15 to 20)
#    0.571    1.524    0.000    2.857    0.000    3.810 
#    0.000    7.619    0.000    0.000    0.000    0.000 
#    0.000    0.000    0.000    0.000    0.000    0.000 
#
# Total GULP energy -116978.153549 kJ/mol
# GULP energy per Si atom -5570.388264 kJ/mol
# Density = 1.900882 g / cm^3
# Si number density = 19.052184 Si / 1000 Ang^3
#
#
#
# Elastic Constant Matrix: (Units=GPa)
#
#
# Indices 1 2 3 4 5 6 
#
# 1 163.6118 26.9243 52.6159 0.0000 12.5313 0.0000
# 2 26.9243 74.9991 20.9390 0.0000 2.9814 0.0000
# 3 52.6159 20.9390 67.4510 0.0000 35.3681 0.0000
# 4 0.0000 0.0000 0.0000 4.3358 0.0000 4.0116
# 5 12.5313 2.9814 35.3681 0.0000 31.5439 0.0000
# 6 0.0000 0.0000 0.0000 4.0116 0.0000 12.3887
#
#
#
# Elastic Compliance Matrix: (Units=1/GPa)
#
#
# Indices 1 2 3 4 5 6 
#
# 1 0.009515 -0.000198 -0.013076 0.000000 0.010901 0.000000
# 2 -0.000198 0.015733 -0.009685 0.000000 0.009451 0.000000
# 3 -0.013076 -0.009685 0.060252 0.000000 -0.061447 0.000000
# 4 0.000000 0.000000 0.000000 0.329288 0.000000 -0.106626
# 5 0.010901 0.009451 -0.061447 0.000000 0.095375 0.000000
# 6 0.000000 0.000000 0.000000 -0.106626 0.000000 0.115245
#
#
# Mechanical properties :
#
#
# Convention : Reuss Voigt Hill
#
# Bulk Modulus (GPa) = 25.26462 56.33560 40.80011
# Shear Modulus (GPa) = 7.30439 23.35921 15.33180
#
# Velocity S-wave (km/s) = 1.96016 3.50532 2.83985
# Velocity P-wave (km/s) = 4.29098 6.78353 5.67577
#
# Compressibility (1/GPa) = 0.03958104
#
# Stress axis : x y z
#
# Youngs Moduli (GPa) = 105.09695 63.56104 16.59687
#
# Poissons Ratio (x) = 0.01261 0.21703
# Poissons Ratio (y) = 0.02085 0.16074
# Poissons Ratio (z) = 1.37429 0.61558
#
# Static dielectric constant tensor:
#      x y z
#    x 1.608790 0.000000 -0.015840 
#    y 0.000000 1.674060 0.000000 
#    z -0.015840 0.000000 1.640600 
# 
# From -- ./inp_files/84299.got.cif
#   From: 2010.05.17/outbox.cif.g08.bks.cpg/sg12_43_cif.got.tgz:84299.got - 2010.06.03 13:09:07.
