data_PCOD9206031
_publ_section_title
;
Structure prediction by ZEFSAII (Michael W. Deem and Ramdas Pophale) SiO2 
 PCOD9206031
Probable space group: C 2/M
;
_chemical_formula_sum "Si O2"
_cell_formula_units_Z 40
_cell_length_a 18.697288
_cell_length_b 15.693228
_cell_length_c 9.574481
_cell_angle_alpha 90.000000
_cell_angle_beta 41.269717
_cell_angle_gamma 90.000000
_cell_volume 1853.061173
_symmetry_space_group_name_H-M "C 2/M"
_symmetry_group_IT_number 12
_symmetry_cell_setting 'monoclinic'
loop_
_space_group_symop_operation_xyz
x,y,z
-x,y,-z
-x,-y,-z
x,-y,z
1/2+x,1/2+y,z
1/2-x,1/2+y,-z
1/2-x,1/2-y,-z
1/2+x,1/2-y,z
loop_
_atom_site_type_symbol
_atom_site_label
_atom_site_fract_x
_atom_site_fract_y
_atom_site_fract_z
Si Si1 0.083243 0.200867 0.153583
Si Si2 0.611880 0.904348 0.374405
Si Si3 0.722790 0.143537 0.936374
Si Si4 0.808795 0.102044 0.249766
Si Si5 0.873996 0.901828 0.471526
O O1 0.170491 0.186041 0.149225
O O2 0.965963 0.167894 0.371629
O O3 0.121749 0.294589 0.049262
O O4 0.108694 0.142110 0.981323
O O5 0.500000 0.858803 0.500000
O O6 0.691031 0.864076 0.372235
O O7 0.584559 0.000000 0.465170
O O8 0.678307 0.909649 0.132826
O O9 0.772636 0.102272 0.725760
O O10 0.835366 0.117288 0.370871
O O11 0.808327 0.000000 0.229279
O O12 0.917179 0.000000 0.413514
#
# Coordination Sequence:
#
# PCOD9206031 Si02
#       5
#     8   8   8   8   8
#     4  10  21  36  55  81 117 158 191 231 292 351
#     4   9  18  36  60  81 109 154 198 237 290 354
#     4  10  22  36  55  85 117 149 196 246 284 337
#     4   9  19  36  58  85 115 150 196 242 288 351
#     4  11  22  38  62  90 119 152 195 247 295 342
#
# _framework density 21.585902999999998
#
# number of rings (size 3 to 8) (size 9 to 14) (size 15 to 20)
#    0.000    2.200    0.000    2.400    0.000   10.400 
#    0.000    3.000    0.000    4.800    0.000    0.000 
#    0.000    0.000    0.000    0.000    0.000    0.000 
#
# Total GULP energy -111447.576565 kJ/mol
# GULP energy per Si atom -5572.378828 kJ/mol
# Density = 2.153677 g / cm^3
# Si number density = 21.585903 Si / 1000 Ang^3
#
#
#
# Elastic Constant Matrix: (Units=GPa)
#
#
# Indices 1 2 3 4 5 6 
#
# 1 83.4419 36.7755 43.3850 0.0000 -3.9121 0.0000
# 2 36.7755 62.5705 19.5879 0.0000 -7.4306 0.0000
# 3 43.3850 19.5879 91.3366 0.0000 -0.4416 0.0000
# 4 0.0000 0.0000 0.0000 14.8426 0.0000 -2.9631
# 5 -3.9121 -7.4306 -0.4416 0.0000 38.1065 0.0000
# 6 0.0000 0.0000 0.0000 -2.9631 0.0000 13.3986
#
#
#
# Elastic Compliance Matrix: (Units=1/GPa)
#
#
# Indices 1 2 3 4 5 6 
#
# 1 0.020039 -0.009414 -0.007499 0.000000 0.000135 0.000000
# 2 -0.009414 0.021980 -0.000226 0.000000 0.003317 0.000000
# 3 -0.007499 -0.000226 0.014556 0.000000 -0.000645 0.000000
# 4 0.000000 0.000000 0.000000 0.070486 0.000000 0.015588
# 5 0.000135 0.003317 -0.000645 0.000000 0.026895 0.000000
# 6 0.000000 0.000000 0.000000 0.015588 0.000000 0.078082
#
#
# Mechanical properties :
#
#
# Convention : Reuss Voigt Hill
#
# Bulk Modulus (GPa) = 44.85033 48.53843 46.69438
# Shear Modulus (GPa) = 18.26502 22.44290 20.35396
#
# Velocity S-wave (km/s) = 2.91203 3.22794 3.07405
# Velocity P-wave (km/s) = 5.66827 6.03554 5.85479
#
# Compressibility (1/GPa) = 0.02229638
#
# Stress axis : x y z
#
# Youngs Moduli (GPa) = 49.90317 45.49646 68.70105
#
# Poissons Ratio (x) = 0.42831 0.51518
# Poissons Ratio (y) = 0.46980 0.01552
# Poissons Ratio (z) = 0.37422 0.01028
#
# Static dielectric constant tensor:
#      x y z
#    x 1.806830 0.000000 -0.046620 
#    y 0.000000 1.884860 0.000000 
#    z -0.046620 0.000000 1.796110 
# 
# From -- ./inp_files/87632.got.cif
#   From: 2010.05.17/outbox.cif.g08.bks.cpg/sg12_44_cif.got.tgz:87632.got - 2010.06.03 13:09:07.
