data_PCOD9206689
_publ_section_title
;
Structure prediction by ZEFSAII (Michael W. Deem and Ramdas Pophale) SiO2 
 PCOD9206689
Probable space group: C 2/M
;
_chemical_formula_sum "Si O2"
_cell_formula_units_Z 48
_cell_length_a 14.726243
_cell_length_b 17.897734
_cell_length_c 17.459235
_cell_angle_alpha 90.000000
_cell_angle_beta 29.913757
_cell_angle_gamma 90.000000
_cell_volume 2294.832518
_symmetry_space_group_name_H-M "C 2/M"
_symmetry_group_IT_number 12
_symmetry_cell_setting 'monoclinic'
loop_
_space_group_symop_operation_xyz
x,y,z
-x,y,-z
-x,-y,-z
x,-y,z
1/2+x,1/2+y,z
1/2-x,1/2+y,-z
1/2-x,1/2-y,-z
1/2+x,1/2-y,z
loop_
_atom_site_type_symbol
_atom_site_label
_atom_site_fract_x
_atom_site_fract_y
_atom_site_fract_z
Si Si1 0.831013 0.654058 0.390187
Si Si2 0.514266 0.694852 0.801956
Si Si3 0.851381 0.410359 0.541258
Si Si4 0.066808 0.817947 0.371836
Si Si5 0.322135 0.794490 0.057011
Si Si6 0.385329 0.083990 0.193315
O O1 0.900525 0.733508 0.305980
O O2 0.895710 0.629571 0.426838
O O3 0.611096 0.660247 0.546118
O O4 0.888880 0.595842 0.282400
O O5 0.662573 0.630641 0.701732
O O6 0.335366 0.676141 0.884447
O O7 0.432180 0.725764 0.941123
O O8 0.829710 0.500000 0.545363
O O9 0.000000 0.400001 0.500000
O O10 0.212531 0.774631 0.213841
O O11 0.185754 0.888807 0.312242
O O12 0.000000 0.780608 0.500000
O O13 0.465590 0.861239 0.950591
O O14 0.419068 0.000000 0.147280
#
# Coordination Sequence:
#
# PCOD9206689 Si02
#       6
#     8   8   8   8   8   8
#     4  10  21  42  66  94 129 169 220 273 320 373
#     4  10  22  42  66  92 128 168 222 268 323 377
#     4  11  24  41  65  99 131 174 228 273 322 376
#     4  10  21  36  60  97 132 160 208 256 319 393
#     4  10  21  39  60  92 132 169 213 257 317 393
#     4  10  22  38  60  94 138 175 203 248 320 401
#
# _framework density 20.916557999999998
#
# number of rings (size 3 to 8) (size 9 to 14) (size 15 to 20)
#    0.000    1.833    1.667    1.500    0.000    9.000 
#    3.000    0.000    0.000    0.000    0.000   22.167 
#    0.000    0.667    0.000    0.000    0.000    0.000 
#
# Total GULP energy -133995.600047 kJ/mol
# GULP energy per Si atom -5583.150002 kJ/mol
# Density = 2.086895 g / cm^3
# Si number density = 20.916558 Si / 1000 Ang^3
#
#
#
# Elastic Constant Matrix: (Units=GPa)
#
#
# Indices 1 2 3 4 5 6 
#
# 1 136.7425 27.0571 60.5752 0.0000 2.2846 0.0015
# 2 27.0571 62.5646 46.1786 -0.0034 1.6983 0.0018
# 3 60.5752 46.1786 155.4104 -0.0009 18.3447 0.0013
# 4 0.0000 -0.0034 -0.0009 -20.5445 0.0040 -16.4169
# 5 2.2846 1.6983 18.3447 0.0040 52.7714 -0.0007
# 6 0.0015 0.0018 0.0013 -16.4169 -0.0007 19.5009
#
#
#
# Elastic Compliance Matrix: (Units=1/GPa)
#
#
# Indices 1 2 3 4 5 6 
#
# 1 0.009000 -0.001612 -0.003117 0.000000 0.000746 0.000000
# 2 -0.001612 0.020880 -0.005740 -0.000001 0.001393 -0.000002
# 3 -0.003117 -0.005740 0.009716 0.000000 -0.003058 0.000000
# 4 0.000000 -0.000001 0.000000 -0.029099 0.000002 -0.024497
# 5 0.000746 0.001393 -0.003058 0.000002 0.019936 0.000002
# 6 0.000000 -0.000002 0.000000 -0.024497 0.000002 0.030656
#
#
# Mechanical properties :
#
#
# Convention : Reuss Voigt Hill
#
# Bulk Modulus (GPa) = 53.59796 69.14881 61.37338
# Shear Modulus (GPa) = 56.65911 25.07267 40.86589
#
# Velocity S-wave (km/s) = 5.21028 3.46598 4.42493
# Velocity P-wave (km/s) = 7.86615 7.01060 7.45066
#
# Compressibility (1/GPa) = 0.01865743
#
# Stress axis : x y z
#
# Youngs Moduli (GPa) = 111.10642 47.89351 102.92014
#
# Poissons Ratio (x) = 0.07719 0.32083
# Poissons Ratio (y) = 0.17908 0.59080
# Poissons Ratio (z) = 0.34635 0.27493
#
# Static dielectric constant tensor:
#      x y z
#    x 1.839090 0.000000 0.045490 
#    y 0.000000 1.716440 0.000000 
#    z 0.045490 0.000000 1.780690 
# 
# From -- ./inp_files/271577.got.cif
#   From: 2010.05.17/outbox.cif.g08.bks.cpg/sg12_136_cif.got.tgz:271577.got - 2010.06.03 13:09:07.
