data_PCOD9206748
_publ_section_title
;
Structure prediction by ZEFSAII (Michael W. Deem and Ramdas Pophale) SiO2 
 PCOD9206748
Probable space group: C 2/M
;
_chemical_formula_sum "Si O2"
_cell_formula_units_Z 52
_cell_length_a 8.485385
_cell_length_b 11.709313
_cell_length_c 25.819503
_cell_angle_alpha 90.000000
_cell_angle_beta 70.018779
_cell_angle_gamma 90.000000
_cell_volume 2410.951333
_symmetry_space_group_name_H-M "C 2/M"
_symmetry_group_IT_number 12
_symmetry_cell_setting 'monoclinic'
loop_
_space_group_symop_operation_xyz
x,y,z
-x,y,-z
-x,-y,-z
x,-y,z
1/2+x,1/2+y,z
1/2-x,1/2+y,-z
1/2-x,1/2-y,-z
1/2+x,1/2-y,z
loop_
_atom_site_type_symbol
_atom_site_label
_atom_site_fract_x
_atom_site_fract_y
_atom_site_fract_z
Si Si1 0.395932 0.624948 0.849042
Si Si2 0.822596 0.290144 0.217520
Si Si3 0.141173 0.189964 0.440879
Si Si4 0.396081 0.000000 0.395037
Si Si5 0.395407 0.630626 0.376354
Si Si6 0.489207 0.175492 0.705572
Si Si7 0.700816 0.129282 0.978818
O O1 0.478283 0.500000 0.841076
O O2 0.281513 0.635778 0.810960
O O3 0.528902 0.726211 0.829157
O O4 0.282092 0.635193 0.912657
O O5 0.698279 0.193109 0.254100
O O6 0.896972 0.357173 0.258288
O O7 0.287747 0.100533 0.437450
O O8 0.231897 0.308766 0.418543
O O9 0.000000 0.198175 0.500000
O O10 0.049056 0.142735 0.399701
O O11 0.480662 0.098076 0.347490
O O12 0.360126 0.500000 0.369998
O O13 0.449156 0.699540 0.319825
O O14 0.750469 0.000000 0.994225
O O15 0.500000 0.128363 0.000000
O O16 0.750000 0.250000 0.000000
#
# Coordination Sequence:
#
# PCOD9206748 Si02
#       7
#     8   8   8   4   8   8   8
#     4  10  22  40  62  92 128 166 211 262 315 365
#     4  10  22  39  59  89 122 161 207 259 306 372
#     4  11  23  44  65  92 121 157 200 251 315 371
#     4  10  21  36  62  86 120 156 193 248 297 374
#     4  11  24  43  64  90 124 158 202 256 305 380
#     4  10  22  39  60  91 119 163 210 246 316 374
#     4  10  21  39  65  95 132 176 221 269 322 381
#
# _framework density 21.568249000000002
#
# number of rings (size 3 to 8) (size 9 to 14) (size 15 to 20)
#    0.000    1.692    0.769    3.462    2.154    3.077 
#   11.077    0.769    0.000    0.000    0.000    0.000 
#    0.000    0.000    0.000    0.000    0.000    0.000 
#
# Total GULP energy -144768.050938 kJ/mol
# GULP energy per Si atom -5568.001959 kJ/mol
# Density = 2.151916 g / cm^3
# Si number density = 21.568249 Si / 1000 Ang^3
#
#
#
# Elastic Constant Matrix: (Units=GPa)
#
#
# Indices 1 2 3 4 5 6 
#
# 1 35.1856 8.9871 10.2905 0.0000 -9.6506 0.0000
# 2 8.9871 154.7838 26.7751 0.0000 -9.9931 0.0000
# 3 10.2905 26.7751 75.1321 0.0000 -24.6810 0.0000
# 4 0.0000 0.0000 0.0000 -9.7799 0.0000 -0.8523
# 5 -9.6506 -9.9931 -24.6810 0.0000 40.0280 0.0000
# 6 0.0000 0.0000 0.0000 -0.8523 0.0000 10.4337
#
#
#
# Elastic Compliance Matrix: (Units=1/GPa)
#
#
# Indices 1 2 3 4 5 6 
#
# 1 0.030896 -0.001082 -0.001866 0.000000 0.006028 0.000000
# 2 -0.001082 0.006925 -0.002304 0.000000 0.000047 0.000000
# 3 -0.001866 -0.002304 0.017619 0.000000 0.009838 0.000000
# 4 0.000000 0.000000 0.000000 -0.101527 0.000000 -0.008293
# 5 0.006028 0.000047 0.009838 0.000000 0.032514 0.000000
# 6 0.000000 0.000000 0.000000 -0.008293 0.000000 0.095166
#
#
# Mechanical properties :
#
#
# Convention : Reuss Voigt Hill
#
# Bulk Modulus (GPa) = 22.25393 39.68966 30.97180
# Shear Modulus (GPa) = 46.69643 22.73961 34.71802
#
# Velocity S-wave (km/s) = 4.65806 3.25054 4.01644
# Velocity P-wave (km/s) = 6.26661 5.70349 5.99167
#
# Compressibility (1/GPa) = 0.04493587
#
# Stress axis : x y z
#
# Youngs Moduli (GPa) = 32.36648 144.40250 56.75845
#
# Poissons Ratio (x) = 0.15623 0.10590
# Poissons Ratio (y) = 0.03502 0.13078
# Poissons Ratio (z) = 0.06039 0.33273
#
# Static dielectric constant tensor:
#      x y z
#    x 1.842650 0.000000 0.022440 
#    y 0.000000 1.808850 0.000000 
#    z 0.022440 0.000000 1.741380 
# 
# From -- ./inp_files/355503.got.cif
#   From: 2010.05.17/outbox.cif.g08.bks.cpg/sg12_178_cif.got.tgz:355503.got - 2010.06.03 13:09:07.
