data_PCOD9206422
_publ_section_title
;
Structure prediction by ZEFSAII (Michael W. Deem and Ramdas Pophale) SiO2 
 PCOD9206422
Probable space group: C 2/M
;
_chemical_formula_sum "Si O2"
_cell_formula_units_Z 64
_cell_length_a 9.720159
_cell_length_b 16.964424
_cell_length_c 19.302559
_cell_angle_alpha 90.000000
_cell_angle_beta 83.633807
_cell_angle_gamma 90.000000
_cell_volume 3163.304620
_symmetry_space_group_name_H-M "C 2/M"
_symmetry_group_IT_number 12
_symmetry_cell_setting 'monoclinic'
loop_
_space_group_symop_operation_xyz
x,y,z
-x,y,-z
-x,-y,-z
x,-y,z
1/2+x,1/2+y,z
1/2-x,1/2+y,-z
1/2-x,1/2-y,-z
1/2+x,1/2-y,z
loop_
_atom_site_type_symbol
_atom_site_label
_atom_site_fract_x
_atom_site_fract_y
_atom_site_fract_z
Si Si1 0.544297 0.912193 0.077970
Si Si2 0.282097 0.138232 0.335916
Si Si3 0.233014 0.089206 0.108756
Si Si4 0.697040 0.763549 0.124921
Si Si5 0.954503 0.917341 0.744987
Si Si6 0.035841 0.585277 0.415918
Si Si7 0.636811 0.752546 0.447273
Si Si8 0.073590 0.238193 0.774725
O O1 0.394141 0.905394 0.123998
O O2 0.648745 0.841055 0.086497
O O3 0.600297 0.000000 0.090057
O O4 0.500000 0.909117 0.000000
O O5 0.175934 0.086003 0.298831
O O6 0.398671 0.097939 0.377117
O O7 0.180411 0.187803 0.390364
O O8 0.359108 0.196113 0.277547
O O9 0.204642 0.179419 0.082963
O O10 0.120962 0.085370 0.175996
O O11 0.225282 0.000000 0.074544
O O12 0.838319 0.773435 0.159864
O O13 0.580369 0.758467 0.191343
O O14 0.055064 0.843235 0.734441
O O15 0.029988 0.000000 0.732889
O O16 0.097991 0.500000 0.394442
O O17 0.125124 0.664581 0.407246
O O18 0.000000 0.582974 0.500000
O O19 0.500000 0.738612 0.500000
O O20 0.750000 0.750000 0.500000
#
# Coordination Sequence:
#
# PCOD9206422 Si02
#       8
#     8   8   8   8   8   8   8   8
#     4  10  21  37  60  90 123 162 206 244 284 346
#     4  12  20  38  64  81 113 152 196 235 291 364
#     4   9  18  36  58  81 119 158 193 237 291 351
#     4  11  20  39  61  89 119 160 196 244 299 350
#     4  10  21  36  58  87 117 150 190 244 302 348
#     4  10  21  37  57  82 111 147 192 236 280 347
#     4  11  22  39  60  82 109 150 189 232 291 349
#     4  11  22  37  62  89 117 151 198 242 297 353
#
# _framework density 20.232006999999999
#
# number of rings (size 3 to 8) (size 9 to 14) (size 15 to 20)
#    0.000    1.500    6.250    1.125    0.000    1.000 
#    0.000    1.250    0.000    2.250    0.000    0.000 
#    0.000    0.000    0.000    0.000    0.000    0.000 
#
# Total GULP energy -178189.324304 kJ/mol
# GULP energy per Si atom -5568.416384 kJ/mol
# Density = 2.018596 g / cm^3
# Si number density = 20.232007 Si / 1000 Ang^3
#
#
#
# Elastic Constant Matrix: (Units=GPa)
#
#
# Indices 1 2 3 4 5 6 
#
# 1 48.5463 21.3842 -3.6388 0.0000 2.3976 0.0000
# 2 21.3842 165.3327 23.8947 0.0000 13.5900 0.0000
# 3 -3.6388 23.8947 27.8835 0.0000 1.9383 0.0000
# 4 0.0000 0.0000 0.0000 59.6688 0.0000 4.1957
# 5 2.3976 13.5900 1.9383 0.0000 28.5158 0.0000
# 6 0.0000 0.0000 0.0000 4.1957 0.0000 18.6639
#
#
#
# Elastic Compliance Matrix: (Units=1/GPa)
#
#
# Indices 1 2 3 4 5 6 
#
# 1 0.022773 -0.003809 0.006272 0.000000 -0.000526 0.000000
# 2 -0.003809 0.007788 -0.006968 0.000000 -0.002918 0.000000
# 3 0.006272 -0.006968 0.042661 0.000000 -0.000106 0.000000
# 4 0.000000 0.000000 0.000000 0.017028 0.000000 -0.003828
# 5 -0.000526 -0.002918 -0.000106 0.000000 0.036510 0.000000
# 6 0.000000 0.000000 0.000000 -0.003828 0.000000 0.054440
#
#
# Mechanical properties :
#
#
# Convention : Reuss Voigt Hill
#
# Bulk Modulus (GPa) = 15.57336 36.11587 25.84461
# Shear Modulus (GPa) = 23.62805 34.71120 29.16962
#
# Velocity S-wave (km/s) = 3.42110 4.14654 3.80117
# Velocity P-wave (km/s) = 4.82901 6.38864 5.66277
#
# Compressibility (1/GPa) = 0.06421221
#
# Stress axis : x y z
#
# Youngs Moduli (GPa) = 43.91226 128.40411 23.44080
#
# Poissons Ratio (x) = 0.48905 -0.14703
# Poissons Ratio (y) = 0.16725 0.16334
# Poissons Ratio (z) = -0.27543 0.89473
#
# Static dielectric constant tensor:
#      x y z
#    x 1.686670 0.000000 -0.023660 
#    y 0.000000 1.794290 0.000000 
#    z -0.023660 0.000000 1.700280 
# 
# From -- ./inp_files/300820.got.cif
#   From: 2010.05.17/outbox.cif.g08.bks.cpg/sg12_151_cif.got.tgz:300820.got - 2010.06.03 13:09:07.
