data_PCOD9206605
_publ_section_title
;
Structure prediction by ZEFSAII (Michael W. Deem and Ramdas Pophale) SiO2 
 PCOD9206605
Probable space group: C 2/M
;
_chemical_formula_sum "Si O2"
_cell_formula_units_Z 56
_cell_length_a 9.993842
_cell_length_b 16.608680
_cell_length_c 20.671192
_cell_angle_alpha 90.000000
_cell_angle_beta 140.395250
_cell_angle_gamma 90.000000
_cell_volume 2187.283315
_symmetry_space_group_name_H-M "C 2/M"
_symmetry_group_IT_number 12
_symmetry_cell_setting 'monoclinic'
loop_
_space_group_symop_operation_xyz
x,y,z
-x,y,-z
-x,-y,-z
x,-y,z
1/2+x,1/2+y,z
1/2-x,1/2+y,-z
1/2-x,1/2-y,-z
1/2+x,1/2-y,z
loop_
_atom_site_type_symbol
_atom_site_label
_atom_site_fract_x
_atom_site_fract_y
_atom_site_fract_z
Si Si1 0.227547 0.695656 0.292146
Si Si2 0.734197 0.905605 0.019276
Si Si3 0.192878 0.126975 0.343210
Si Si4 0.742832 0.141643 0.160568
Si Si5 0.428108 0.088521 0.305140
Si Si6 0.298536 0.903681 0.130728
Si Si7 0.697131 0.342634 0.487038
O O1 0.193314 0.778620 0.318684
O O2 0.247775 0.707592 0.220704
O O3 0.029717 0.636338 0.221316
O O4 0.445493 0.655222 0.396728
O O5 0.478583 0.903705 0.917628
O O6 0.806864 0.875084 0.975306
O O7 0.795886 0.000000 0.054800
O O8 0.772706 0.845816 0.094185
O O9 0.324402 0.087310 0.336411
O O10 0.265349 0.119512 0.443777
O O11 0.955653 0.095107 0.255314
O O12 0.245249 0.112050 0.185920
O O13 0.649881 0.131273 0.398976
O O14 0.489479 0.000000 0.306962
O O15 0.293172 0.000000 0.118269
O O16 0.750000 0.250000 0.500000
#
# Coordination Sequence:
#
# PCOD9206605 Si02
#       7
#     8   8   8   8   8   8   8
#     4  10  21  36  60  85 115 151 199 246 288 352
#     4   9  17  37  64  85 113 152 195 243 295 352
#     4  11  23  37  57  85 120 157 190 240 300 354
#     4   9  19  34  57  89 109 142 199 240 291 342
#     4  11  24  39  57  86 123 157 195 243 296 349
#     4   9  20  38  60  84 114 154 196 244 293 344
#     4  11  22  38  60  84 110 156 205 234 287 354
#
# _framework density 25.602536000000001
#
# number of rings (size 3 to 8) (size 9 to 14) (size 15 to 20)
#    0.000    2.000    1.429    2.143    2.000    5.143 
#    0.000   12.857    0.000    2.571    0.000    0.000 
#    0.000    0.000    0.000    0.000    0.000    0.000 
#
# Total GULP energy -155992.236687 kJ/mol
# GULP energy per Si atom -5571.151310 kJ/mol
# Density = 2.554426 g / cm^3
# Si number density = 25.602536 Si / 1000 Ang^3
#
#
#
# Elastic Constant Matrix: (Units=GPa)
#
#
# Indices 1 2 3 4 5 6 
#
# 1 63.4162 0.6305 30.0169 0.0001 -24.7010 0.0000
# 2 0.6305 41.0896 10.9210 0.0001 -3.1934 0.0000
# 3 30.0169 10.9210 180.2167 0.0002 -28.7386 0.0000
# 4 0.0001 0.0001 0.0002 9.7046 0.0001 -6.9329
# 5 -24.7010 -3.1934 -28.7386 0.0001 57.2684 0.0000
# 6 0.0000 0.0000 0.0000 -6.9329 0.0000 17.5015
#
#
#
# Elastic Compliance Matrix: (Units=1/GPa)
#
#
# Indices 1 2 3 4 5 6 
#
# 1 0.019679 0.000847 -0.002139 0.000000 0.007462 0.000000
# 2 0.000847 0.024796 -0.001484 0.000000 0.001003 0.000000
# 3 -0.002139 -0.001484 0.006342 0.000000 0.002177 0.000000
# 4 0.000000 0.000000 0.000000 0.143716 -0.000001 0.056931
# 5 0.007462 0.001003 0.002177 -0.000001 0.021829 0.000000
# 6 0.000000 0.000000 0.000000 0.056931 0.000000 0.079690
#
#
# Mechanical properties :
#
#
# Convention : Reuss Voigt Hill
#
# Bulk Modulus (GPa) = 22.09187 40.87323 31.48255
# Shear Modulus (GPa) = 15.78813 33.10515 24.44664
#
# Velocity S-wave (km/s) = 2.48596 3.59979 3.09342
# Velocity P-wave (km/s) = 4.10944 5.76864 5.00823
#
# Compressibility (1/GPa) = 0.04526553
#
# Stress axis : x y z
#
# Youngs Moduli (GPa) = 50.81454 40.32843 157.67162
#
# Poissons Ratio (x) = -0.03414 0.33729
# Poissons Ratio (y) = -0.04302 0.23393
# Poissons Ratio (z) = 0.10870 0.05983
#
# Static dielectric constant tensor:
#      x y z
#    x 2.195650 0.000000 -0.065050 
#    y 0.000000 1.977300 0.000000 
#    z -0.065050 0.000000 2.105460 
# 
# From -- ./inp_files/306662.got.cif
#   From: 2010.05.17/outbox.cif.g08.bks.cpg/sg12_154_cif.got.tgz:306662.got - 2010.06.03 13:09:07.
