data_PCOD9206171
_publ_section_title
;
Structure prediction by ZEFSAII (Michael W. Deem and Ramdas Pophale) SiO2 
 PCOD9206171
Probable space group: C 2/M
;
_chemical_formula_sum "Si O2"
_cell_formula_units_Z 44
_cell_length_a 18.410402
_cell_length_b 20.331311
_cell_length_c 5.148281
_cell_angle_alpha 90.000000
_cell_angle_beta 106.952719
_cell_angle_gamma 90.000000
_cell_volume 1843.302540
_symmetry_space_group_name_H-M "C 2/M"
_symmetry_group_IT_number 12
_symmetry_cell_setting 'monoclinic'
loop_
_space_group_symop_operation_xyz
x,y,z
-x,y,-z
-x,-y,-z
x,-y,z
1/2+x,1/2+y,z
1/2-x,1/2+y,-z
1/2-x,1/2-y,-z
1/2+x,1/2-y,z
loop_
_atom_site_type_symbol
_atom_site_label
_atom_site_fract_x
_atom_site_fract_y
_atom_site_fract_z
Si Si1 0.000000 0.862884 0.000000
Si Si2 0.157448 0.075251 0.281425
Si Si3 0.356868 0.844297 0.921787
Si Si4 0.443711 0.756511 0.626597
Si Si5 0.671808 0.075187 0.638284
Si Si6 0.206271 0.202508 0.656813
O O1 0.921786 0.904630 0.941895
O O2 0.982572 0.811840 0.750850
O O3 0.236901 0.075156 0.205594
O O4 0.175142 0.133611 0.504937
O O5 0.149238 0.000000 0.374589
O O6 0.414370 0.791656 0.857606
O O7 0.339629 0.888106 0.646668
O O8 0.275145 0.813218 0.917417
O O9 0.374746 0.890394 0.181100
O O10 0.500000 0.795326 0.500000
O O11 0.370662 0.740997 0.372219
O O12 0.649090 0.000000 0.586245
O O13 0.250000 0.250000 0.500000
#
# Coordination Sequence:
#
# PCOD9206171 Si02
#       6
#     4   8   8   8   8   8
#     4  10  21  36  56  84 125 164 202 246 301 378
#     4   9  18  34  58  88 124 166 205 250 309 376
#     4  10  21  38  62  89 120 157 206 260 309 363
#     4  10  22  36  57  84 119 161 204 254 309 365
#     4  10  21  38  64  91 119 157 206 257 312 371
#     4   8  17  36  54  86 117 160 206 258 299 356
#
# _framework density 23.870201000000002
#
# number of rings (size 3 to 8) (size 9 to 14) (size 15 to 20)
#    0.000    2.545    0.000    0.818    5.091    0.727 
#    0.000    5.455    0.000    6.000    0.000    0.000 
#    0.000    0.000    0.000    0.000    0.000    0.000 
#
# Total GULP energy -122714.152762 kJ/mol
# GULP energy per Si atom -5577.916035 kJ/mol
# Density = 2.381587 g / cm^3
# Si number density = 23.870201 Si / 1000 Ang^3
#
#
#
# Elastic Constant Matrix: (Units=GPa)
#
#
# Indices 1 2 3 4 5 6 
#
# 1 125.5109 57.0308 37.1180 0.0000 0.1704 0.0000
# 2 57.0308 155.3368 39.7495 0.0000 2.6644 0.0000
# 3 37.1180 39.7495 87.3189 0.0000 -3.3196 0.0000
# 4 0.0000 0.0000 0.0000 28.8515 0.0000 8.5474
# 5 0.1704 2.6644 -3.3196 0.0000 38.0440 0.0000
# 6 0.0000 0.0000 0.0000 8.5474 0.0000 40.2456
#
#
#
# Elastic Compliance Matrix: (Units=1/GPa)
#
#
# Indices 1 2 3 4 5 6 
#
# 1 0.010205 -0.002981 -0.002984 0.000000 -0.000097 0.000000
# 2 -0.002981 0.008182 -0.002487 0.000000 -0.000777 0.000000
# 3 -0.002984 -0.002487 0.013906 0.000000 0.001401 0.000000
# 4 0.000000 0.000000 0.000000 0.036987 0.000000 -0.007855
# 5 -0.000097 -0.000777 0.001401 0.000000 0.026462 0.000000
# 6 0.000000 0.000000 0.000000 -0.007855 0.000000 0.026516
#
#
# Mechanical properties :
#
#
# Convention : Reuss Voigt Hill
#
# Bulk Modulus (GPa) = 64.98639 70.66257 67.82448
# Shear Modulus (GPa) = 34.65175 37.04612 35.84893
#
# Velocity S-wave (km/s) = 3.81422 3.94379 3.87955
# Velocity P-wave (km/s) = 6.83240 7.09966 6.96731
#
# Compressibility (1/GPa) = 0.01538784
#
# Stress axis : x y z
#
# Youngs Moduli (GPa) = 97.99280 122.22189 71.91019
#
# Poissons Ratio (x) = 0.36437 0.21462
# Poissons Ratio (y) = 0.29214 0.17883
# Poissons Ratio (z) = 0.29246 0.30394
#
# Static dielectric constant tensor:
#      x y z
#    x 1.965730 0.000000 0.048700 
#    y 0.000000 1.977910 0.000000 
#    z 0.048700 0.000000 1.956480 
# 
# From -- ./inp_files/16153.got.cif
#   From: 2010.05.17/outbox.cif.g08.bks.cpg/sg12_9_cif.got.tgz:16153.got - 2010.06.03 13:09:07.
