data_PCOD9206696
_publ_section_title
;
Structure prediction by ZEFSAII (Michael W. Deem and Ramdas Pophale) SiO2 
 PCOD9206696
Probable space group: C 2/M
;
_chemical_formula_sum "Si O2"
_cell_formula_units_Z 48
_cell_length_a 8.924513
_cell_length_b 24.113351
_cell_length_c 21.909131
_cell_angle_alpha 90.000000
_cell_angle_beta 150.740126
_cell_angle_gamma 90.000000
_cell_volume 2304.481390
_symmetry_space_group_name_H-M "C 2/M"
_symmetry_group_IT_number 12
_symmetry_cell_setting 'monoclinic'
loop_
_space_group_symop_operation_xyz
x,y,z
-x,y,-z
-x,-y,-z
x,-y,z
1/2+x,1/2+y,z
1/2-x,1/2+y,-z
1/2-x,1/2-y,-z
1/2+x,1/2-y,z
loop_
_atom_site_type_symbol
_atom_site_label
_atom_site_fract_x
_atom_site_fract_y
_atom_site_fract_z
Si Si1 0.586490 0.675395 0.440735
Si Si2 0.025877 0.437751 0.075607
Si Si3 0.234060 0.936014 0.710790
Si Si4 0.768212 0.318681 0.260029
Si Si5 0.903099 0.768383 0.684554
Si Si6 0.610856 0.405965 0.102693
O O1 0.449809 0.613598 0.387078
O O2 0.341834 0.720572 0.380317
O O3 0.674443 0.697748 0.404526
O O4 0.891596 0.674101 0.589874
O O5 0.146339 0.500000 0.107259
O O6 0.682744 0.440454 0.980605
O O7 0.000000 0.409771 0.000000
O O8 0.226309 0.417291 0.204106
O O9 0.574440 0.936122 0.802738
O O10 0.117155 0.000000 0.666429
O O11 0.560229 0.307856 0.244605
O O12 0.681289 0.367089 0.184466
O O13 0.793466 0.264387 0.226824
O O14 0.500000 0.377097 0.000000
#
# Coordination Sequence:
#
# PCOD9206696 Si02
#       6
#     8   8   8   8   8   8
#     4  11  20  36  61  91 116 151 194 239 290 340
#     4   9  19  37  60  80 105 152 203 236 275 342
#     4  10  21  37  59  86 122 154 186 239 292 347
#     4  11  20  36  59  86 114 152 192 241 289 337
#     4  10  21  36  61  87 113 152 201 240 277 342
#     4  10  21  37  57  81 116 152 194 234 283 346
#
# _framework density 20.828980999999999
#
# number of rings (size 3 to 8) (size 9 to 14) (size 15 to 20)
#    0.000    1.833    1.667    4.500    2.333    2.000 
#    0.000    3.333    0.000    2.000    0.000    0.000 
#    0.000    0.000    0.000    0.000    0.000    0.000 
#
# Total GULP energy -133710.462679 kJ/mol
# GULP energy per Si atom -5571.269278 kJ/mol
# Density = 2.078157 g / cm^3
# Si number density = 20.828981 Si / 1000 Ang^3
#
#
#
# Elastic Constant Matrix: (Units=GPa)
#
#
# Indices 1 2 3 4 5 6 
#
# 1 129.9115 31.5446 19.0338 -0.0025 -31.2925 -0.0031
# 2 31.5446 100.3662 38.5238 -0.0011 -17.6705 -0.0014
# 3 19.0338 38.5238 37.5019 -0.0011 -20.9920 -0.0103
# 4 -0.0025 -0.0011 -0.0011 0.8000 -0.0028 -11.8618
# 5 -31.2925 -17.6705 -20.9920 -0.0028 34.4038 -0.0023
# 6 -0.0031 -0.0014 -0.0103 -11.8618 -0.0023 17.3598
#
#
#
# Elastic Compliance Matrix: (Units=1/GPa)
#
#
# Indices 1 2 3 4 5 6 
#
# 1 0.010264 -0.002653 0.003005 -0.000015 0.009806 -0.000006
# 2 -0.002653 0.017318 -0.019463 0.000022 -0.005393 0.000003
# 3 0.003005 -0.019463 0.062369 -0.000084 0.030792 -0.000017
# 4 -0.000015 0.000022 -0.000084 -0.136892 -0.000071 -0.093537
# 5 0.009806 -0.005393 0.030792 -0.000071 0.054004 -0.000022
# 6 -0.000006 0.000003 -0.000017 -0.093537 -0.000022 -0.006309
#
#
# Mechanical properties :
#
#
# Convention : Reuss Voigt Hill
#
# Bulk Modulus (GPa) = 19.33095 49.55377 34.44236
# Shear Modulus (GPa) = 88.93864 22.42455 55.68160
#
# Velocity S-wave (km/s) = 6.54157 3.28472 5.17598
# Velocity P-wave (km/s) = 8.14599 6.18290 7.23137
#
# Compressibility (1/GPa) = 0.05173051
#
# Stress axis : x y z
#
# Youngs Moduli (GPa) = 97.43250 57.74315 16.03353
#
# Poissons Ratio (x) = 0.15317 -0.04818
# Poissons Ratio (y) = 0.25846 0.31205
# Poissons Ratio (z) = -0.29279 1.12383
#
# Static dielectric constant tensor:
#      x y z
#    x 1.807060 0.000000 -0.013910 
#    y 0.000000 1.758410 0.000000 
#    z -0.013910 0.000000 1.760460 
# 
# From -- ./inp_files/302788.got.cif
#   From: 2010.05.17/outbox.cif.g08.bks.cpg/sg12_152_cif.got.tgz:302788.got - 2010.06.03 13:09:07.
