data_PCOD9206923
_publ_section_title
;
Structure prediction by ZEFSAII (Michael W. Deem and Ramdas Pophale) SiO2 
 PCOD9206923
Probable space group: C 2/M
;
_chemical_formula_sum "Si O2"
_cell_formula_units_Z 56
_cell_length_a 30.683774
_cell_length_b 8.893247
_cell_length_c 17.234088
_cell_angle_alpha 90.000000
_cell_angle_beta 133.796391
_cell_angle_gamma 90.000000
_cell_volume 3394.506265
_symmetry_space_group_name_H-M "C 2/M"
_symmetry_group_IT_number 12
_symmetry_cell_setting 'monoclinic'
loop_
_space_group_symop_operation_xyz
x,y,z
-x,y,-z
-x,-y,-z
x,-y,z
1/2+x,1/2+y,z
1/2-x,1/2+y,-z
1/2-x,1/2-y,-z
1/2+x,1/2-y,z
loop_
_atom_site_type_symbol
_atom_site_label
_atom_site_fract_x
_atom_site_fract_y
_atom_site_fract_z
Si Si1 0.125344 0.319522 0.365653
Si Si2 0.530898 0.819735 0.659319
Si Si3 0.904649 0.319628 0.418084
Si Si4 0.057416 0.819080 0.018558
Si Si5 0.668264 0.180547 0.245420
Si Si6 0.991801 0.820005 0.209240
Si Si7 0.306576 0.319684 0.403816
O O1 0.123582 0.500000 0.371335
O O2 0.152688 0.279795 0.315374
O O3 0.164908 0.250961 0.483411
O O4 0.057803 0.255048 0.287296
O O5 0.463839 0.785171 0.543366
O O6 0.577225 0.779850 0.647601
O O7 0.539365 0.736503 0.750572
O O8 0.533427 0.000000 0.673498
O O9 0.896195 0.500000 0.411323
O O10 0.847498 0.237135 0.383331
O O11 0.118129 0.751394 0.128271
O O12 0.060765 0.000000 0.027583
O O13 0.043903 0.777974 0.912925
O O14 0.000000 0.770488 0.000000
O O15 0.736672 0.226064 0.310656
O O16 0.664449 0.000000 0.234785
O O17 0.998757 0.000000 0.219108
O O18 0.309475 0.500000 0.412948
#
# Coordination Sequence:
#
# PCOD9206923 Si02
#       7
#     8   8   8   8   8   8   8
#     4  11  21  34  52  76 107 145 180 210 256 316
#     4   9  18  33  53  78 108 138 173 215 260 316
#     4   9  18  33  53  78 107 139 174 212 260 318
#     4  10  21  37  55  77 106 139 177 222 266 306
#     4  10  23  38  53  76 106 143 184 219 257 309
#     4  11  21  33  53  81 110 137 172 220 266 308
#     4  11  22  35  52  79 111 140 175 220 263 310
#
# _framework density 16.497243999999998
#
# number of rings (size 3 to 8) (size 9 to 14) (size 15 to 20)
#    0.000    1.857    2.857    2.571    0.000    3.714 
#    0.000    1.429    0.000    0.857    0.000    0.000 
#    0.000    0.000    0.000    0.000    0.000    0.000 
#
# Total GULP energy -156327.606253 kJ/mol
# GULP energy per Si atom -5583.128795 kJ/mol
# Density = 1.645970 g / cm^3
# Si number density = 16.497244 Si / 1000 Ang^3
#
#
#
# Elastic Constant Matrix: (Units=GPa)
#
#
# Indices 1 2 3 4 5 6 
#
# 1 145.4245 52.6291 96.6759 0.0000 -10.5975 0.0000
# 2 52.6291 36.8908 46.7356 0.0000 -3.3964 0.0000
# 3 96.6759 46.7356 133.8012 0.0000 2.8550 0.0000
# 4 0.0000 0.0000 0.0000 29.4770 0.0000 -2.0865
# 5 -10.5975 -3.3964 2.8550 0.0000 26.6084 0.0000
# 6 0.0000 0.0000 0.0000 -2.0865 0.0000 29.1867
#
#
#
# Elastic Compliance Matrix: (Units=1/GPa)
#
#
# Indices 1 2 3 4 5 6 
#
# 1 0.018061 -0.015263 -0.007848 0.000000 0.006087 0.000000
# 2 -0.015263 0.063304 -0.011151 0.000000 0.003198 0.000000
# 3 -0.007848 -0.011151 0.017176 0.000000 -0.006392 0.000000
# 4 0.000000 0.000000 0.000000 0.034097 0.000000 0.002438
# 5 0.006087 0.003198 -0.006392 0.000000 0.041101 0.000000
# 6 0.000000 0.000000 0.000000 0.002438 0.000000 0.034436
#
#
# Mechanical properties :
#
#
# Convention : Reuss Voigt Hill
#
# Bulk Modulus (GPa) = 33.31700 78.68862 56.00281
# Shear Modulus (GPa) = 17.43944 25.05949 21.24946
#
# Velocity S-wave (km/s) = 3.25485 3.90168 3.59285
# Velocity P-wave (km/s) = 5.86215 8.25221 7.15765
#
# Compressibility (1/GPa) = 0.03001471
#
# Stress axis : x y z
#
# Youngs Moduli (GPa) = 55.36699 15.79688 58.22048
#
# Poissons Ratio (x) = 0.24111 0.45694
# Poissons Ratio (y) = 0.84508 0.64924
# Poissons Ratio (z) = 0.43455 0.17616
#
# Static dielectric constant tensor:
#      x y z
#    x 1.558930 0.000000 -0.010500 
#    y 0.000000 1.552600 0.000000 
#    z -0.010500 0.000000 1.522100 
# 
# From -- ./inp_files/237785.got.cif
#   From: 2010.05.17/outbox.cif.g08.bks.cpg/sg12_119_cif.got.tgz:237785.got - 2010.06.03 13:09:07.
