data_PCOD9206635
_publ_section_title
;
Structure prediction by ZEFSAII (Michael W. Deem and Ramdas Pophale) SiO2 
 PCOD9206635
Probable space group: C 2/M
;
_chemical_formula_sum "Si O2"
_cell_formula_units_Z 40
_cell_length_a 12.866196
_cell_length_b 16.539757
_cell_length_c 19.430587
_cell_angle_alpha 90.000000
_cell_angle_beta 154.608109
_cell_angle_gamma 90.000000
_cell_volume 1773.076034
_symmetry_space_group_name_H-M "C 2/M"
_symmetry_group_IT_number 12
_symmetry_cell_setting 'monoclinic'
loop_
_space_group_symop_operation_xyz
x,y,z
-x,y,-z
-x,-y,-z
x,-y,z
1/2+x,1/2+y,z
1/2-x,1/2+y,-z
1/2-x,1/2-y,-z
1/2+x,1/2-y,z
loop_
_atom_site_type_symbol
_atom_site_label
_atom_site_fract_x
_atom_site_fract_y
_atom_site_fract_z
Si Si1 0.931218 0.809926 0.648643
Si Si2 0.823055 0.866068 0.331508
Si Si3 0.157940 0.821316 0.253329
Si Si4 0.680115 0.087925 0.931304
Si Si5 0.781500 0.654825 0.182738
O O1 0.750000 0.750000 0.500000
O O2 0.819731 0.841444 0.652824
O O3 0.029919 0.871478 0.651495
O O4 0.150201 0.747143 0.794748
O O5 0.738264 0.772423 0.294698
O O6 0.565638 0.909194 0.173019
O O7 0.000000 0.889386 0.500000
O O8 0.307363 0.861266 0.279466
O O9 0.877490 0.844487 0.069354
O O10 0.591890 0.102009 0.799698
O O11 0.798776 0.000000 0.008204
O O12 0.500000 0.641183 0.000000
#
# Coordination Sequence:
#
# PCOD9206635 Si02
#       5
#     8   8   8   8   8
#     4  11  20  34  58  90 122 151 197 266 311 355
#     4  11  21  37  62  94 120 155 207 257 312 355
#     4  10  21  36  60  89 122 156 210 257 302 355
#     4  11  23  40  60  88 129 168 203 243 302 377
#     4   9  20  33  56  86 115 155 201 248 298 350
#
# _framework density 22.559664000000001
#
# number of rings (size 3 to 8) (size 9 to 14) (size 15 to 20)
#    0.000    1.600    4.000    0.600    5.600    4.000 
#    0.000    2.000    0.000    1.800    0.000    0.000 
#    0.000    0.000    0.000    0.000    0.000    0.000 
#
# Total GULP energy -111465.470036 kJ/mol
# GULP energy per Si atom -5573.273502 kJ/mol
# Density = 2.250832 g / cm^3
# Si number density = 22.559664 Si / 1000 Ang^3
#
#
#
# Elastic Constant Matrix: (Units=GPa)
#
#
# Indices 1 2 3 4 5 6 
#
# 1 141.3396 0.0904 43.3422 -0.0013 -36.9612 -0.0004
# 2 0.0904 20.3743 2.5179 0.0097 -6.7677 0.0017
# 3 43.3422 2.5179 68.7546 0.0136 -9.0597 0.0043
# 4 -0.0013 0.0097 0.0136 2.0737 0.0020 6.6391
# 5 -36.9612 -6.7677 -9.0597 0.0020 32.4491 0.0006
# 6 -0.0004 0.0017 0.0043 6.6391 0.0006 -1.9113
#
#
#
# Elastic Compliance Matrix: (Units=1/GPa)
#
#
# Indices 1 2 3 4 5 6 
#
# 1 0.012586 0.005266 -0.006326 0.000003 0.013668 0.000003
# 2 0.005266 0.054955 -0.003147 -0.000033 0.016581 -0.000068
# 3 -0.006326 -0.003147 0.018284 -0.000019 -0.002757 -0.000027
# 4 0.000003 -0.000033 -0.000019 0.039784 -0.000014 0.138197
# 5 0.013668 0.016581 -0.002757 -0.000014 0.049075 -0.000027
# 6 0.000003 -0.000068 -0.000027 0.138197 -0.000027 -0.043166
#
#
# Mechanical properties :
#
#
# Convention : Reuss Voigt Hill
#
# Bulk Modulus (GPa) = 12.91810 35.81882 24.36846
# Shear Modulus (GPa) = 30.16854 18.82350 24.49602
#
# Velocity S-wave (km/s) = 3.66085 2.89171 3.29877
# Velocity P-wave (km/s) = 4.85878 5.20203 5.03333
#
# Compressibility (1/GPa) = 0.07741074
#
# Stress axis : x y z
#
# Youngs Moduli (GPa) = 79.45366 18.19678 54.69192
#
# Poissons Ratio (x) = -0.09582 0.34597
# Poissons Ratio (y) = -0.41840 0.17213
# Poissons Ratio (z) = 0.50261 0.05727
#
# Static dielectric constant tensor:
#      x y z
#    x 1.921670 0.000000 -0.015430 
#    y 0.000000 1.906160 -0.000010 
#    z -0.015430 -0.000010 1.931650 
# 
# From -- ./inp_files/264455.got.cif
#   From: 2010.05.17/outbox.cif.g08.bks.cpg/sg12_133_cif.got.tgz:264455.got - 2010.06.03 13:09:07.
