data_PCOD9206177
_publ_section_title
;
Structure prediction by ZEFSAII (Michael W. Deem and Ramdas Pophale) SiO2 
 PCOD9206177
Probable space group: C 2/M
;
_chemical_formula_sum "Si O2"
_cell_formula_units_Z 64
_cell_length_a 30.510559
_cell_length_b 9.120911
_cell_length_c 16.450158
_cell_angle_alpha 90.000000
_cell_angle_beta 46.440420
_cell_angle_gamma 90.000000
_cell_volume 3317.352762
_symmetry_space_group_name_H-M "C 2/M"
_symmetry_group_IT_number 12
_symmetry_cell_setting 'monoclinic'
loop_
_space_group_symop_operation_xyz
x,y,z
-x,y,-z
-x,-y,-z
x,-y,z
1/2+x,1/2+y,z
1/2-x,1/2+y,-z
1/2-x,1/2-y,-z
1/2+x,1/2-y,z
loop_
_atom_site_type_symbol
_atom_site_label
_atom_site_fract_x
_atom_site_fract_y
_atom_site_fract_z
Si Si1 0.495440 0.675749 0.764660
Si Si2 0.349314 0.175310 0.708868
Si Si3 0.274643 0.328685 0.547942
Si Si4 0.207978 0.824902 0.909119
Si Si5 0.892698 0.823657 0.491538
Si Si6 0.374349 0.175354 0.861112
Si Si7 0.661801 0.170865 0.811772
Si Si8 0.552734 0.671072 0.865592
O O1 0.483867 0.500000 0.779609
O O2 0.543837 0.709676 0.632255
O O3 0.433919 0.761383 0.827655
O O4 0.525771 0.712096 0.812498
O O5 0.277874 0.212598 0.802039
O O6 0.382366 0.254175 0.592572
O O7 0.375085 0.212936 0.764655
O O8 0.354005 0.000000 0.691970
O O9 0.282666 0.500000 0.517959
O O10 0.250000 0.250000 0.500000
O O11 0.338163 0.272493 0.502087
O O12 0.224326 0.316075 0.682313
O O13 0.168221 0.765768 0.884910
O O14 0.202906 0.000000 0.922756
O O15 0.182988 0.747862 0.021538
O O16 0.887519 0.000000 0.504816
O O17 0.370935 0.000000 0.873068
O O18 0.608374 0.231313 0.823696
O O19 0.652168 0.000000 0.844224
O O20 0.572056 0.500000 0.836328
O O21 0.500000 0.681977 0.000000
#
# Coordination Sequence:
#
# PCOD9206177 Si02
#       8
#     8   8   8   8   8   8   8   8
#     4  10  22  40  61  88 122 162 208 250 296 358
#     4  10  23  41  62  90 120 156 200 249 307 363
#     4  10  21  36  56  85 117 152 193 239 292 347
#     4  11  22  39  63  90 121 157 200 246 300 368
#     4  10  21  39  61  85 121 162 201 249 297 353
#     4  11  24  41  62  89 121 155 197 254 311 359
#     4  11  22  36  58  89 121 152 193 244 300 354
#     4  10  21  38  60  85 118 161 205 247 294 354
#
# _framework density 19.292490999999998
#
# number of rings (size 3 to 8) (size 9 to 14) (size 15 to 20)
#    0.000    1.625    1.250    3.000    0.000    6.750 
#    0.000    2.500    0.000    0.000    0.000    0.000 
#    0.000    0.000    0.000    0.000    0.000    0.000 
#
# Total GULP energy -178887.748345 kJ/mol
# GULP energy per Si atom -5590.242136 kJ/mol
# Density = 1.924858 g / cm^3
# Si number density = 19.292491 Si / 1000 Ang^3
#
#
#
# Elastic Constant Matrix: (Units=GPa)
#
#
# Indices 1 2 3 4 5 6 
#
# 1 64.4520 21.4394 14.6211 0.0000 7.0659 0.0000
# 2 21.4394 36.8369 30.8884 -0.0001 1.3741 0.0000
# 3 14.6211 30.8884 87.7040 0.0000 14.9563 0.0000
# 4 0.0000 -0.0001 0.0000 30.8432 0.0000 5.4744
# 5 7.0659 1.3741 14.9563 0.0000 32.1760 0.0000
# 6 0.0000 0.0000 0.0000 5.4744 0.0000 27.6374
#
#
#
# Elastic Compliance Matrix: (Units=1/GPa)
#
#
# Indices 1 2 3 4 5 6 
#
# 1 0.019961 -0.013250 0.002161 0.000000 -0.004822 0.000000
# 2 -0.013250 0.048093 -0.016155 0.000000 0.008365 0.000000
# 3 0.002161 -0.016155 0.018132 0.000000 -0.008213 0.000000
# 4 0.000000 0.000000 0.000000 0.033603 0.000000 -0.006656
# 5 -0.004822 0.008365 -0.008213 0.000000 0.035598 0.000000
# 6 0.000000 0.000000 0.000000 -0.006656 0.000000 0.037501
#
#
# Mechanical properties :
#
#
# Convention : Reuss Voigt Hill
#
# Bulk Modulus (GPa) = 31.54803 35.87672 33.71237
# Shear Modulus (GPa) = 19.38408 26.26759 22.82583
#
# Velocity S-wave (km/s) = 3.17321 3.69391 3.44342
# Velocity P-wave (km/s) = 5.46019 6.06877 5.77250
#
# Compressibility (1/GPa) = 0.03169770
#
# Stress axis : x y z
#
# Youngs Moduli (GPa) = 50.09700 20.79313 55.15090
#
# Poissons Ratio (x) = 0.27551 -0.11918
# Poissons Ratio (y) = 0.66378 0.89099
# Poissons Ratio (z) = -0.10826 0.33592
#
# Static dielectric constant tensor:
#      x y z
#    x 1.655910 0.000000 -0.002290 
#    y 0.000000 1.647430 0.000000 
#    z -0.002290 0.000000 1.665290 
# 
# From -- ./inp_files/249857.got.cif
#   From: 2010.05.17/outbox.cif.g08.bks.cpg/sg12_125_cif.got.tgz:249857.got - 2010.06.03 13:09:07.
