data_PCOD9206855
_publ_section_title
;
Structure prediction by ZEFSAII (Michael W. Deem and Ramdas Pophale) SiO2 
 PCOD9206855
Probable space group: C 2/M
;
_chemical_formula_sum "Si O2"
_cell_formula_units_Z 42
_cell_length_a 13.968574
_cell_length_b 14.536384
_cell_length_c 12.274904
_cell_angle_alpha 90.000000
_cell_angle_beta 129.518099
_cell_angle_gamma 90.000000
_cell_volume 1922.735275
_symmetry_space_group_name_H-M "C 2/M"
_symmetry_group_IT_number 12
_symmetry_cell_setting 'monoclinic'
loop_
_space_group_symop_operation_xyz
x,y,z
-x,y,-z
-x,-y,-z
x,-y,z
1/2+x,1/2+y,z
1/2-x,1/2+y,-z
1/2-x,1/2-y,-z
1/2+x,1/2-y,z
loop_
_atom_site_type_symbol
_atom_site_label
_atom_site_fract_x
_atom_site_fract_y
_atom_site_fract_z
Si Si1 0.503953 0.685222 0.649010
Si Si2 0.859095 0.892087 0.857210
Si Si3 0.711730 0.746516 0.631768
Si Si4 0.136371 0.608252 0.128659
Si Si5 0.500000 0.500000 0.500000
Si Si6 0.826112 0.891611 0.067299
O O1 0.604877 0.739369 0.648802
O O2 0.371149 0.732753 0.535802
O O3 0.498298 0.582571 0.592095
O O4 0.560364 0.670291 0.808681
O O5 0.795273 0.834727 0.715855
O O6 0.852633 0.000000 0.827651
O O7 0.785037 0.869670 0.915709
O O8 0.000000 0.873010 0.000000
O O9 0.799286 0.660373 0.725430
O O10 0.130691 0.500000 0.150074
O O11 0.221109 0.618890 0.082710
O O12 0.000000 0.642318 0.000000
O O13 0.861545 0.000000 0.090447
#
# Coordination Sequence:
#
# PCOD9206855 Si02
#       6
#     8   8   8   8   2   8
#     4   9  17  27  51  80 105 129 165 199 260 324
#     4  10  21  37  54  70  96 140 188 226 250 281
#     4   9  18  30  49  75 105 132 171 207 258 310
#     4   9  17  27  45  76 110 135 154 194 265 327
#     4   8  12  24  44  72 106 128 148 184 240 318
#     4   9  17  31  53  77 102 134 174 211 251 309
#
# _framework density 21.843879999999999
#
# number of rings (size 3 to 8) (size 9 to 14) (size 15 to 20)
#    0.000    3.048    0.952    0.571    8.000    3.048 
#    0.000    2.857    0.000    2.286    0.000   21.333 
#    0.000    0.000    0.000    0.000    0.000    0.000 
#
# Total GULP energy -116934.393887 kJ/mol
# GULP energy per Si atom -5568.304471 kJ/mol
# Density = 2.179416 g / cm^3
# Si number density = 21.843880 Si / 1000 Ang^3
#
#
#
# Elastic Constant Matrix: (Units=GPa)
#
#
# Indices 1 2 3 4 5 6 
#
# 1 34.9539 15.7945 26.2242 0.0000 11.6733 0.0000
# 2 15.7945 93.1935 52.2047 0.0000 15.4970 0.0000
# 3 26.2242 52.2047 140.0474 0.0000 21.9110 0.0000
# 4 0.0000 0.0000 0.0000 31.7098 0.0000 3.7437
# 5 11.6733 15.4970 21.9110 0.0000 39.2936 0.0000
# 6 0.0000 0.0000 0.0000 3.7437 0.0000 9.1644
#
#
#
# Elastic Compliance Matrix: (Units=1/GPa)
#
#
# Indices 1 2 3 4 5 6 
#
# 1 0.035501 -0.002198 -0.004726 0.000000 -0.007044 0.000000
# 2 -0.002198 0.013980 -0.004425 0.000000 -0.002393 0.000000
# 3 -0.004726 -0.004425 0.010060 0.000000 -0.002460 0.000000
# 4 0.000000 0.000000 0.000000 0.033134 0.000000 -0.013535
# 5 -0.007044 -0.002393 -0.002460 0.000000 0.029858 0.000000
# 6 0.000000 0.000000 0.000000 -0.013535 0.000000 0.114647
#
#
# Mechanical properties :
#
#
# Convention : Reuss Voigt Hill
#
# Bulk Modulus (GPa) = 27.14314 50.73799 38.94057
# Shear Modulus (GPa) = 18.37171 27.63165 23.00168
#
# Velocity S-wave (km/s) = 2.90323 3.56049 3.24852
# Velocity P-wave (km/s) = 4.86736 6.33883 5.65119
#
# Compressibility (1/GPa) = 0.03684172
#
# Stress axis : x y z
#
# Youngs Moduli (GPa) = 28.16859 71.53258 99.40441
#
# Poissons Ratio (x) = 0.15721 0.46980
# Poissons Ratio (y) = 0.06191 0.43988
# Poissons Ratio (z) = 0.13313 0.31655
#
# Static dielectric constant tensor:
#      x y z
#    x 1.871690 0.000000 0.012280 
#    y 0.000000 1.776120 0.000000 
#    z 0.012280 0.000000 1.831080 
# 
# From -- ./inp_files/224968.got.cif
#   From: 2010.05.17/outbox.cif.g08.bks.cpg/sg12_113_cif.got.tgz:224968.got - 2010.06.03 13:09:07.
