data_PCOD9206973
_publ_section_title
;
Structure prediction by ZEFSAII (Michael W. Deem and Ramdas Pophale) SiO2 
 PCOD9206973
Probable space group: C 2/M
;
_chemical_formula_sum "Si O2"
_cell_formula_units_Z 64
_cell_length_a 32.565472
_cell_length_b 8.147436
_cell_length_c 15.335084
_cell_angle_alpha 90.000000
_cell_angle_beta 131.559265
_cell_angle_gamma 90.000000
_cell_volume 3044.547716
_symmetry_space_group_name_H-M "C 2/M"
_symmetry_group_IT_number 12
_symmetry_cell_setting 'monoclinic'
loop_
_space_group_symop_operation_xyz
x,y,z
-x,y,-z
-x,-y,-z
x,-y,z
1/2+x,1/2+y,z
1/2-x,1/2+y,-z
1/2-x,1/2-y,-z
1/2+x,1/2-y,z
loop_
_atom_site_type_symbol
_atom_site_label
_atom_site_fract_x
_atom_site_fract_y
_atom_site_fract_z
Si Si1 0.464442 0.697050 0.868711
Si Si2 0.862456 0.302241 0.818604
Si Si3 0.255779 0.696092 0.407327
Si Si4 0.881158 0.301617 0.037020
Si Si5 0.169598 0.694884 0.643074
Si Si6 0.742507 0.803690 0.088883
Si Si7 0.547674 0.808603 0.505304
Si Si8 0.507887 0.305852 0.743463
O O1 0.469076 0.500000 0.875717
O O2 0.401753 0.744335 0.797203
O O3 0.486535 0.753995 0.807306
O O4 0.500000 0.763255 0.000000
O O5 0.861422 0.500000 0.819081
O O6 0.800250 0.244651 0.718719
O O7 0.888048 0.246138 0.946389
O O8 0.255698 0.500000 0.407296
O O9 0.250000 0.750000 0.500000
O O10 0.306465 0.747863 0.417022
O O11 0.886131 0.500000 0.048618
O O12 0.927007 0.224100 0.162654
O O13 0.819300 0.255585 0.973053
O O14 0.164005 0.500000 0.628274
O O15 0.213403 0.734914 0.780586
O O16 0.109447 0.762196 0.586196
O O17 0.745934 0.000000 0.099984
O O18 0.750000 0.750000 0.000000
O O19 0.500000 0.734097 0.500000
O O20 0.522286 0.792450 0.373892
O O21 0.553575 0.000000 0.540145
O O22 0.496616 0.500000 0.717769
#
# Coordination Sequence:
#
# PCOD9206973 Si02
#       8
#     8   8   8   8   8   8   8   8
#     4  10  21  37  55  85 127 162 195 246 306 362
#     4  10  21  38  60  86 119 162 209 252 304 373
#     4  11  24  43  64  93 129 169 216 266 323 387
#     4  10  21  40  63  89 125 167 206 254 316 380
#     4  11  24  44  69  98 130 170 219 268 326 390
#     4  11  24  43  67  97 131 166 207 263 325 385
#     4  10  25  48  69  89 122 170 217 267 324 386
#     4  11  24  40  62  94 127 164 212 265 316 369
#
# _framework density 21.021183000000001
#
# number of rings (size 3 to 8) (size 9 to 14) (size 15 to 20)
#    0.000    1.500    2.500    1.500    3.500    4.500 
#    0.000    0.000    0.000    0.000    0.000    0.000 
#    0.000    0.000    0.000    0.000    0.000    0.000 
#
# Total GULP energy -178731.535485 kJ/mol
# GULP energy per Si atom -5585.360484 kJ/mol
# Density = 2.097334 g / cm^3
# Si number density = 21.021183 Si / 1000 Ang^3
#
#
#
# Elastic Constant Matrix: (Units=GPa)
#
#
# Indices 1 2 3 4 5 6 
#
# 1 158.5375 10.2419 44.4048 0.0000 12.2641 0.0000
# 2 10.2419 13.6939 -5.9844 0.0000 0.4634 0.0000
# 3 44.4048 -5.9844 58.3086 0.0000 8.0968 0.0000
# 4 0.0000 0.0000 0.0000 29.1304 0.0000 -1.9206
# 5 12.2641 0.4634 8.0968 0.0000 38.7338 0.0000
# 6 0.0000 0.0000 0.0000 -1.9206 0.0000 26.4673
#
#
#
# Elastic Compliance Matrix: (Units=1/GPa)
#
#
# Indices 1 2 3 4 5 6 
#
# 1 0.009311 -0.010421 -0.008000 0.000000 -0.001151 0.000000
# 2 -0.010421 0.088379 0.017194 0.000000 -0.001352 0.000000
# 3 -0.008000 0.017194 0.025422 0.000000 -0.002987 0.000000
# 4 0.000000 0.000000 0.000000 0.034493 0.000000 0.002503
# 5 -0.001151 -0.001352 -0.002987 0.000000 0.026822 0.000000
# 6 0.000000 0.000000 0.000000 0.002503 0.000000 0.037964
#
#
# Mechanical properties :
#
#
# Convention : Reuss Voigt Hill
#
# Bulk Modulus (GPa) = 8.28786 36.42939 22.35862
# Shear Modulus (GPa) = 18.86333 30.99149 24.92741
#
# Velocity S-wave (km/s) = 2.99883 3.84382 3.44731
# Velocity P-wave (km/s) = 3.99272 6.08830 5.14826
#
# Compressibility (1/GPa) = 0.12065841
#
# Stress axis : x y z
#
# Youngs Moduli (GPa) = 107.40339 11.31491 39.33573
#
# Poissons Ratio (x) = 0.11791 0.31470
# Poissons Ratio (y) = 1.11923 -0.67635
# Poissons Ratio (z) = 0.85925 -0.19455
#
# Static dielectric constant tensor:
#      x y z
#    x 1.803080 0.000000 0.014160 
#    y 0.000000 1.742060 0.000000 
#    z 0.014160 0.000000 1.732280 
# 
# From -- ./inp_files/249959.got.cif
#   From: 2010.05.17/outbox.cif.g08.bks.cpg/sg12_125_cif.got.tgz:249959.got - 2010.06.03 13:09:07.
