data_PCOD9206531
_publ_section_title
;
Structure prediction by ZEFSAII (Michael W. Deem and Ramdas Pophale) SiO2 
 PCOD9206531
Probable space group: C 2/M
;
_chemical_formula_sum "Si O2"
_cell_formula_units_Z 56
_cell_length_a 15.571239
_cell_length_b 13.334356
_cell_length_c 11.081805
_cell_angle_alpha 90.000000
_cell_angle_beta 68.823864
_cell_angle_gamma 90.000000
_cell_volume 2145.569611
_symmetry_space_group_name_H-M "C 2/M"
_symmetry_group_IT_number 12
_symmetry_cell_setting 'monoclinic'
loop_
_space_group_symop_operation_xyz
x,y,z
-x,y,-z
-x,-y,-z
x,-y,z
1/2+x,1/2+y,z
1/2-x,1/2+y,-z
1/2-x,1/2-y,-z
1/2+x,1/2-y,z
loop_
_atom_site_type_symbol
_atom_site_label
_atom_site_fract_x
_atom_site_fract_y
_atom_site_fract_z
Si Si1 0.353464 0.615422 0.873168
Si Si2 0.471154 0.320817 0.322917
Si Si3 0.622294 0.319596 0.875689
Si Si4 0.296698 0.169476 0.644935
Si Si5 0.969015 0.386815 0.708162
Si Si6 0.635862 0.115641 0.980185
Si Si7 0.804683 0.890655 0.545510
O O1 0.361998 0.500000 0.841101
O O2 0.419388 0.668101 0.742820
O O3 0.245209 0.638653 0.933494
O O4 0.393667 0.635888 0.985332
O O5 0.432321 0.354501 0.213467
O O6 0.456480 0.201420 0.343025
O O7 0.411559 0.378619 0.450647
O O8 0.726505 0.348673 0.790123
O O9 0.603186 0.200891 0.904664
O O10 0.394804 0.130129 0.639073
O O11 0.255881 0.117911 0.546011
O O12 0.285360 0.288781 0.626605
O O13 0.005112 0.500000 0.686351
O O14 0.914607 0.374200 0.864412
O O15 0.623026 0.000000 0.947663
O O16 0.788696 0.000000 0.610092
#
# Coordination Sequence:
#
# PCOD9206531 Si02
#       7
#     8   8   8   8   8   8   8
#     4  11  21  35  58  89 122 161 202 248 305 368
#     4  11  24  38  59  92 131 165 200 250 311 370
#     4  11  21  37  59  89 126 157 200 255 301 367
#     4  10  22  41  69  91 118 162 212 262 303 362
#     4  11  22  40  63  88 123 165 210 258 308 368
#     4  10  21  36  59  87 120 164 208 249 299 364
#     4  10  23  45  67  93 123 160 207 260 315 366
#
# _framework density 26.100294999999999
#
# number of rings (size 3 to 8) (size 9 to 14) (size 15 to 20)
#    0.000    1.429    2.857    2.571    0.000    5.143 
#    0.000   10.714    0.000    0.000    0.000    0.000 
#    0.000    0.000    0.000    0.000    0.000    0.000 
#
# Total GULP energy -156852.209514 kJ/mol
# GULP energy per Si atom -5601.864626 kJ/mol
# Density = 2.604089 g / cm^3
# Si number density = 26.100295 Si / 1000 Ang^3
#
#
#
# Elastic Constant Matrix: (Units=GPa)
#
#
# Indices 1 2 3 4 5 6 
#
# 1 66.1370 -4.1951 14.0409 0.0000 8.5089 0.0000
# 2 -4.1951 102.9748 -11.3783 0.0000 -4.1685 0.0000
# 3 14.0409 -11.3783 73.2125 0.0000 3.1803 0.0000
# 4 0.0000 0.0000 0.0000 6.9886 0.0000 -23.5611
# 5 8.5089 -4.1685 3.1803 0.0000 35.8298 0.0000
# 6 0.0000 0.0000 0.0000 -23.5611 0.0000 -15.3126
#
#
#
# Elastic Compliance Matrix: (Units=1/GPa)
#
#
# Indices 1 2 3 4 5 6 
#
# 1 0.016212 0.000193 -0.002924 0.000000 -0.003568 0.000000
# 2 0.000193 0.009920 0.001462 0.000000 0.000979 0.000000
# 3 -0.002924 0.001462 0.014465 0.000000 -0.000419 0.000000
# 4 0.000000 0.000000 0.000000 0.023126 0.000000 -0.035583
# 5 -0.003568 0.000979 -0.000419 0.000000 0.028908 0.000000
# 6 0.000000 0.000000 0.000000 -0.035583 0.000000 -0.010555
#
#
# Mechanical properties :
#
#
# Convention : Reuss Voigt Hill
#
# Bulk Modulus (GPa) = 26.27475 26.58437 26.42956
# Shear Modulus (GPa) = 51.38654 21.75828 36.57241
#
# Velocity S-wave (km/s) = 4.44194 2.89042 3.74736
# Velocity P-wave (km/s) = 6.03295 4.62027 5.37324
#
# Compressibility (1/GPa) = 0.03805936
#
# Stress axis : x y z
#
# Youngs Moduli (GPa) = 61.68174 100.80484 69.13165
#
# Poissons Ratio (x) = -0.01945 0.20216
# Poissons Ratio (y) = -0.01190 -0.10109
# Poissons Ratio (z) = 0.18037 -0.14740
#
# Static dielectric constant tensor:
#      x y z
#    x 2.096320 0.000000 -0.047620 
#    y 0.000000 2.034180 0.000000 
#    z -0.047620 0.000000 2.032260 
# 
# From -- ./inp_files/156535.got.cif
#   From: 2010.05.17/outbox.cif.g08.bks.cpg/sg12_79_cif.got.tgz:156535.got - 2010.06.03 13:09:07.
