data_PCOD9206806
_publ_section_title
;
Structure prediction by ZEFSAII (Michael W. Deem and Ramdas Pophale) SiO2 
 PCOD9206806
Probable space group: C 2/M
;
_chemical_formula_sum "Si O2"
_cell_formula_units_Z 40
_cell_length_a 11.993709
_cell_length_b 18.368001
_cell_length_c 9.869060
_cell_angle_alpha 90.000000
_cell_angle_beta 75.148537
_cell_angle_gamma 90.000000
_cell_volume 2101.527548
_symmetry_space_group_name_H-M "C 2/M"
_symmetry_group_IT_number 12
_symmetry_cell_setting 'monoclinic'
loop_
_space_group_symop_operation_xyz
x,y,z
-x,y,-z
-x,-y,-z
x,-y,z
1/2+x,1/2+y,z
1/2-x,1/2+y,-z
1/2-x,1/2-y,-z
1/2+x,1/2-y,z
loop_
_atom_site_type_symbol
_atom_site_label
_atom_site_fract_x
_atom_site_fract_y
_atom_site_fract_z
Si Si1 0.034728 0.826242 0.838238
Si Si2 0.609932 0.671697 0.370290
Si Si3 0.800147 0.333337 0.702142
Si Si4 0.997716 0.651790 0.844481
Si Si5 0.820696 0.414060 0.420358
O O1 0.164983 0.847941 0.762854
O O2 0.028951 0.737859 0.832815
O O3 0.943254 0.853074 0.755973
O O4 0.000000 0.848170 0.000000
O O5 0.500000 0.686482 0.500000
O O6 0.678319 0.747356 0.328852
O O7 0.696125 0.614607 0.409950
O O8 0.845294 0.374827 0.555486
O O9 0.873435 0.354653 0.811514
O O10 0.088296 0.610586 0.721615
O O11 0.000000 0.627872 0.000000
O O12 0.822472 0.500000 0.437212
#
# Coordination Sequence:
#
# PCOD9206806 Si02
#       5
#     8   8   8   8   8
#     4  10  21  36  64  97 121 150 196 258 306 348
#     4  11  21  38  65  90 119 155 206 253 297 351
#     4  11  21  40  65  91 121 155 204 252 299 352
#     4  10  23  38  63  94 121 154 196 252 307 357
#     4  12  25  41  61  87 125 164 203 244 296 361
#
# _framework density 19.033774000000001
#
# number of rings (size 3 to 8) (size 9 to 14) (size 15 to 20)
#    0.000    1.200    4.000    3.600    2.800    4.800 
#    0.000    0.000    0.000    1.200    0.000    0.000 
#    0.000    0.000    0.000    0.000    0.000    0.000 
#
# Total GULP energy -111792.108200 kJ/mol
# GULP energy per Si atom -5589.605410 kJ/mol
# Density = 1.899045 g / cm^3
# Si number density = 19.033774 Si / 1000 Ang^3
#
#
#
# Elastic Constant Matrix: (Units=GPa)
#
#
# Indices 1 2 3 4 5 6 
#
# 1 71.5217 16.5130 31.3319 0.0000 14.3747 0.0000
# 2 16.5130 22.2084 19.2952 0.0000 9.8763 0.0000
# 3 31.3319 19.2952 137.4809 0.0000 25.5659 0.0000
# 4 0.0000 0.0000 0.0000 2.2240 0.0000 -7.8459
# 5 14.3747 9.8763 25.5659 0.0000 38.6742 0.0000
# 6 0.0000 0.0000 0.0000 -7.8459 0.0000 -0.0125
#
#
#
# Elastic Compliance Matrix: (Units=1/GPa)
#
#
# Indices 1 2 3 4 5 6 
#
# 1 0.017801 -0.010224 -0.002140 0.000000 -0.002591 0.000000
# 2 -0.010224 0.060414 -0.004545 0.000000 -0.008623 0.000000
# 3 -0.002140 -0.004545 0.009162 0.000000 -0.004100 0.000000
# 4 0.000000 0.000000 0.000000 0.000202 0.000000 -0.127397
# 5 -0.002591 -0.008623 -0.004100 0.000000 0.031733 0.000000
# 6 0.000000 0.000000 0.000000 -0.127397 0.000000 -0.036112
#
#
# Mechanical properties :
#
#
# Convention : Reuss Voigt Hill
#
# Bulk Modulus (GPa) = 18.67159 40.61014 29.64087
# Shear Modulus (GPa) = 37.07239 19.11520 28.09380
#
# Velocity S-wave (km/s) = 4.41808 3.17247 3.84604
# Velocity P-wave (km/s) = 5.98807 5.89929 5.94384
#
# Compressibility (1/GPa) = 0.05355731
#
# Stress axis : x y z
#
# Youngs Moduli (GPa) = 56.17818 16.55244 109.14767
#
# Poissons Ratio (x) = 0.16923 0.23358
# Poissons Ratio (y) = 0.57437 0.49612
# Poissons Ratio (z) = 0.12022 0.07524
#
# Static dielectric constant tensor:
#      x y z
#    x 1.657000 0.000000 0.017630 
#    y 0.000000 1.619320 0.000000 
#    z 0.017630 0.000000 1.660940 
# 
# From -- ./inp_files/46891.got.cif
#   From: 2010.05.17/outbox.cif.g08.bks.cpg/sg12_24_cif.got.tgz:46891.got - 2010.06.03 13:09:07.
