data_PCOD9206021
_publ_section_title
;
Structure prediction by ZEFSAII (Michael W. Deem and Ramdas Pophale) SiO2 
 PCOD9206021
Probable space group: C 2/M
;
_chemical_formula_sum "Si O2"
_cell_formula_units_Z 40
_cell_length_a 8.188565
_cell_length_b 29.198769
_cell_length_c 9.805579
_cell_angle_alpha 90.000000
_cell_angle_beta 46.550827
_cell_angle_gamma 90.000000
_cell_volume 1702.052957
_symmetry_space_group_name_H-M "C 2/M"
_symmetry_group_IT_number 12
_symmetry_cell_setting 'monoclinic'
loop_
_space_group_symop_operation_xyz
x,y,z
-x,y,-z
-x,-y,-z
x,-y,z
1/2+x,1/2+y,z
1/2-x,1/2+y,-z
1/2-x,1/2-y,-z
1/2+x,1/2-y,z
loop_
_atom_site_type_symbol
_atom_site_label
_atom_site_fract_x
_atom_site_fract_y
_atom_site_fract_z
Si Si1 0.826431 0.088032 0.752033
Si Si2 0.005245 0.773912 0.147426
Si Si3 0.266188 0.813161 0.219190
Si Si4 0.796707 0.551327 0.451575
Si Si5 0.746678 0.444879 0.914857
O O1 0.767319 0.135708 0.710913
O O2 0.752248 0.050655 0.684135
O O3 0.092590 0.081255 0.623925
O O4 0.719295 0.081416 0.961835
O O5 0.817243 0.734143 0.270696
O O6 0.044441 0.805861 0.253197
O O7 0.000000 0.796503 0.000000
O O8 0.250000 0.750000 0.000000
O O9 0.500000 0.816324 0.000000
O O10 0.775601 0.500000 0.520491
O O11 0.055494 0.566684 0.305698
O O12 0.758645 0.500000 0.931795
O O13 0.500000 0.434578 0.000000
#
# Coordination Sequence:
#
# PCOD9206021 Si02
#       5
#     8   8   8   8   8
#     4  11  20  33  56  85 111 142 188 230 263 317
#     4   7  13  26  44  69 100 135 173 215 269 321
#     4   9  16  28  49  75 105 141 179 222 269 323
#     4  10  21  37  57  80 111 149 184 225 271 316
#     4  10  21  36  55  81 114 149 181 220 274 327
#
# _framework density 23.50103
#
# number of rings (size 3 to 8) (size 9 to 14) (size 15 to 20)
#    0.000    3.000    0.000    4.200    0.000    3.200 
#    0.000    5.000    0.000    4.800    0.000    2.800 
#    0.000    0.000    0.000    0.000    0.000    0.000 
#
# Total GULP energy -111398.422341 kJ/mol
# GULP energy per Si atom -5569.921117 kJ/mol
# Density = 2.344754 g / cm^3
# Si number density = 23.501030 Si / 1000 Ang^3
#
#
#
# Elastic Constant Matrix: (Units=GPa)
#
#
# Indices 1 2 3 4 5 6 
#
# 1 87.4286 20.9946 -0.2152 0.0000 -17.7455 0.0000
# 2 20.9946 86.8501 13.1498 0.0000 -3.4383 0.0000
# 3 -0.2152 13.1498 90.5830 0.0000 -24.3895 0.0000
# 4 0.0000 0.0000 0.0000 16.3279 0.0000 -5.7609
# 5 -17.7455 -3.4383 -24.3895 0.0000 37.2027 0.0000
# 6 0.0000 0.0000 0.0000 -5.7609 0.0000 17.6637
#
#
#
# Elastic Compliance Matrix: (Units=1/GPa)
#
#
# Indices 1 2 3 4 5 6 
#
# 1 0.013918 -0.003455 0.002716 0.000000 0.008100 0.000000
# 2 -0.003455 0.012631 -0.002394 0.000000 -0.002050 0.000000
# 3 0.002716 -0.002394 0.014187 0.000000 0.010375 0.000000
# 4 0.000000 0.000000 0.000000 0.069209 0.000000 0.022572
# 5 0.008100 -0.002050 0.010375 0.000000 0.037355 0.000000
# 6 0.000000 0.000000 0.000000 0.022572 0.000000 0.063975
#
#
# Mechanical properties :
#
#
# Convention : Reuss Voigt Hill
#
# Bulk Modulus (GPa) = 29.01127 36.96891 32.99009
# Shear Modulus (GPa) = 21.83108 29.63436 25.73272
#
# Velocity S-wave (km/s) = 3.05116 3.55488 3.31261
# Velocity P-wave (km/s) = 4.97838 5.71091 5.35718
#
# Compressibility (1/GPa) = 0.03446936
#
# Stress axis : x y z
#
# Youngs Moduli (GPa) = 71.84786 79.17306 70.48730
#
# Poissons Ratio (x) = 0.27354 -0.19141
# Poissons Ratio (y) = 0.24824 0.16873
# Poissons Ratio (z) = -0.19510 0.18952
#
# Static dielectric constant tensor:
#      x y z
#    x 2.005510 0.000000 0.016150 
#    y 0.000000 1.946830 0.000000 
#    z 0.016150 0.000000 1.957870 
# 
# From -- ./inp_files/125006.got.cif
#   From: 2010.05.17/outbox.cif.g08.bks.cpg/sg12_63_cif.got.tgz:125006.got - 2010.06.03 13:09:07.
