data_PCOD9206473
_publ_section_title
;
Structure prediction by ZEFSAII (Michael W. Deem and Ramdas Pophale) SiO2 
 PCOD9206473
Probable space group: C 2/M
;
_chemical_formula_sum "Si O2"
_cell_formula_units_Z 58
_cell_length_a 14.686229
_cell_length_b 17.543193
_cell_length_c 23.219683
_cell_angle_alpha 90.000000
_cell_angle_beta 149.415833
_cell_angle_gamma 90.000000
_cell_volume 3043.864729
_symmetry_space_group_name_H-M "C 2/M"
_symmetry_group_IT_number 12
_symmetry_cell_setting 'monoclinic'
loop_
_space_group_symop_operation_xyz
x,y,z
-x,y,-z
-x,-y,-z
x,-y,z
1/2+x,1/2+y,z
1/2-x,1/2+y,-z
1/2-x,1/2-y,-z
1/2+x,1/2-y,z
loop_
_atom_site_type_symbol
_atom_site_label
_atom_site_fract_x
_atom_site_fract_y
_atom_site_fract_z
Si Si1 0.814802 0.791759 0.865949
Si Si2 0.217505 0.187587 0.284003
Si Si3 0.748730 0.615105 0.801040
Si Si4 0.307603 0.361207 0.363328
Si Si5 0.446625 0.912325 0.558409
Si Si6 0.514250 0.088178 0.729888
Si Si7 0.422660 0.584604 0.704336
Si Si8 0.500000 0.000000 0.000000
O O1 0.838610 0.817512 0.812871
O O2 0.760780 0.703466 0.827296
O O3 0.668095 0.846833 0.816270
O O4 0.000000 0.796072 0.000000
O O5 0.261395 0.271728 0.330064
O O6 0.401498 0.140003 0.385812
O O7 0.069313 0.147387 0.242194
O O8 0.700431 0.608722 0.707043
O O9 0.590037 0.583151 0.753841
O O10 0.922176 0.567010 0.913487
O O11 0.500000 0.371122 0.500000
O O12 0.148786 0.396844 0.315229
O O13 0.444789 0.904152 0.626323
O O14 0.252158 0.895490 0.427897
O O15 0.489841 0.000000 0.568597
O O16 0.578130 0.000000 0.771664
O O17 0.399520 0.500000 0.717074
#
# Coordination Sequence:
#
# PCOD9206473 Si02
#       8
#     8   8   8   8   8   8   8   2
#     4  10  22  44  63  84 117 159 207 256 296 354
#     4  10  21  36  58  90 123 157 198 246 308 357
#     4  11  24  42  65  88 121 162 204 252 297 351
#     4  11  23  40  63  94 126 158 198 248 307 369
#     4   9  18  34  58  85 125 158 192 246 301 363
#     4  10  22  39  60  89 121 160 200 245 305 362
#     4  11  20  34  58  92 118 157 201 244 303 362
#     4  12  24  48  62  84 124 162 212 250 288 344
#
# _framework density 19.054722999999999
#
# number of rings (size 3 to 8) (size 9 to 14) (size 15 to 20)
#    0.000    1.655    1.379    3.310    0.966    2.207 
#    2.483    7.586    0.000    0.000    0.000    0.000 
#    0.000    0.000    0.000    0.000    0.000    0.000 
#
# Total GULP energy -161559.596448 kJ/mol
# GULP energy per Si atom -5571.020567 kJ/mol
# Density = 1.901135 g / cm^3
# Si number density = 19.054723 Si / 1000 Ang^3
#
#
#
# Elastic Constant Matrix: (Units=GPa)
#
#
# Indices 1 2 3 4 5 6 
#
# 1 91.7615 42.8938 26.2262 -0.0004 2.5676 -0.0003
# 2 42.8938 77.9272 35.2643 0.0025 -3.8402 0.0000
# 3 26.2262 35.2643 93.9868 0.0047 -20.3704 0.0000
# 4 -0.0004 0.0025 0.0047 29.0921 0.0008 -3.2449
# 5 2.5676 -3.8402 -20.3704 0.0008 15.9017 -0.0002
# 6 -0.0003 0.0000 0.0000 -3.2449 -0.0002 34.8650
#
#
#
# Elastic Compliance Matrix: (Units=1/GPa)
#
#
# Indices 1 2 3 4 5 6 
#
# 1 0.015620 -0.007466 -0.003454 0.000002 -0.008749 0.000000
# 2 -0.007466 0.019332 -0.005395 -0.000001 -0.001037 0.000000
# 3 -0.003454 -0.005395 0.018642 -0.000003 0.023136 0.000000
# 4 0.000002 -0.000001 -0.000003 0.034734 -0.000006 0.003233
# 5 -0.008749 -0.001037 0.023136 -0.000006 0.093686 0.000000
# 6 0.000000 0.000000 0.000000 0.003233 0.000000 0.028983
#
#
# Mechanical properties :
#
#
# Convention : Reuss Voigt Hill
#
# Bulk Modulus (GPa) = 47.69840 52.49378 50.09609
# Shear Modulus (GPa) = 19.95099 26.59115 23.27107
#
# Velocity S-wave (km/s) = 3.23930 3.73971 3.49847
# Velocity P-wave (km/s) = 6.25120 6.80118 6.53198
#
# Compressibility (1/GPa) = 0.02096506
#
# Stress axis : x y z
#
# Youngs Moduli (GPa) = 64.02219 51.72695 53.64218
#
# Poissons Ratio (x) = 0.38619 0.18525
# Poissons Ratio (y) = 0.47798 0.28940
# Poissons Ratio (z) = 0.22110 0.27907
#
# Static dielectric constant tensor:
#      x y z
#    x 1.661970 0.000000 -0.007340 
#    y 0.000000 1.706820 0.000000 
#    z -0.007340 0.000000 1.644700 
# 
# From -- ./inp_files/168940.got.cif
#   From: 2010.05.17/outbox.cif.g08.bks.cpg/sg12_85_cif.got.tgz:168940.got - 2010.06.03 13:09:07.
