data_PCOD9206331
_publ_section_title
;
Structure prediction by ZEFSAII (Michael W. Deem and Ramdas Pophale) SiO2 
 PCOD9206331
Probable space group: C 2/M
;
_chemical_formula_sum "Si O2"
_cell_formula_units_Z 64
_cell_length_a 19.055897
_cell_length_b 16.636487
_cell_length_c 9.365191
_cell_angle_alpha 90.000000
_cell_angle_beta 90.108096
_cell_angle_gamma 90.000000
_cell_volume 2968.977374
_symmetry_space_group_name_H-M "C 2/M"
_symmetry_group_IT_number 12
_symmetry_cell_setting 'monoclinic'
loop_
_space_group_symop_operation_xyz
x,y,z
-x,y,-z
-x,-y,-z
x,-y,z
1/2+x,1/2+y,z
1/2-x,1/2+y,-z
1/2-x,1/2-y,-z
1/2+x,1/2-y,z
loop_
_atom_site_type_symbol
_atom_site_label
_atom_site_fract_x
_atom_site_fract_y
_atom_site_fract_z
Si Si1 0.826305 0.832768 0.188588
Si Si2 0.333109 0.149328 0.295878
Si Si3 0.430640 0.906221 0.921121
Si Si4 0.971926 0.164517 0.287123
Si Si5 0.093040 0.906386 0.426736
Si Si6 0.221648 0.593129 0.982783
Si Si7 0.257630 0.405579 0.470843
Si Si8 0.508863 0.851185 0.668479
O O1 0.828320 0.740101 0.237726
O O2 0.908656 0.856830 0.180446
O O3 0.783564 0.853284 0.046859
O O4 0.784563 0.878662 0.315672
O O5 0.305265 0.142950 0.457039
O O6 0.413191 0.119347 0.290659
O O7 0.286797 0.097689 0.187123
O O8 0.353920 0.874444 0.959883
O O9 0.449043 0.896259 0.755627
O O10 0.427454 0.000000 0.961101
O O11 0.500000 0.870968 0.000000
O O12 0.934746 0.145705 0.439820
O O13 0.991840 0.257732 0.285443
O O14 0.044204 0.115353 0.292990
O O15 0.175496 0.892155 0.424288
O O16 0.082948 0.000000 0.463035
O O17 0.231331 0.500000 0.027320
O O18 0.240577 0.500000 0.467217
O O19 0.500000 0.857002 0.500000
#
# Coordination Sequence:
#
# PCOD9206331 Si02
#       8
#     8   8   8   8   8   8   8   8
#     4  10  22  37  58  86 117 148 194 241 287 343
#     4  11  23  39  59  84 118 156 192 238 294 343
#     4  10  22  41  59  79 111 154 199 236 282 342
#     4   9  17  33  55  83 119 139 183 229 284 336
#     4   9  16  30  55  82 113 150 180 221 284 342
#     4  11  23  41  62  82 113 158 198 239 288 347
#     4  10  21  36  57  88 118 151 194 238 288 345
#     4  11  22  36  60  88 116 148 188 241 288 335
#
# _framework density 21.556245000000001
#
# number of rings (size 3 to 8) (size 9 to 14) (size 15 to 20)
#    0.000    1.875    2.500    2.250    1.750    3.250 
#    0.000    0.000    0.000    0.000    0.000    2.625 
#    0.000    0.000    0.000    0.000    0.000    0.000 
#
# Total GULP energy -178577.074687 kJ/mol
# GULP energy per Si atom -5580.533584 kJ/mol
# Density = 2.150718 g / cm^3
# Si number density = 21.556245 Si / 1000 Ang^3
#
#
#
# Elastic Constant Matrix: (Units=GPa)
#
#
# Indices 1 2 3 4 5 6 
#
# 1 40.4757 -2.6440 9.2306 0.0000 15.8620 0.0000
# 2 -2.6440 41.5458 -4.0561 0.0000 6.2394 0.0000
# 3 9.2306 -4.0561 49.2660 0.0000 13.1407 0.0000
# 4 0.0000 0.0000 0.0000 33.0203 0.0000 3.4361
# 5 15.8620 6.2394 13.1407 0.0000 33.7831 0.0000
# 6 0.0000 0.0000 0.0000 3.4361 0.0000 11.3406
#
#
#
# Elastic Compliance Matrix: (Units=1/GPa)
#
#
# Indices 1 2 3 4 5 6 
#
# 1 0.031104 0.004041 -0.001563 0.000000 -0.014743 0.000000
# 2 0.004041 0.025879 0.003520 0.000000 -0.008046 0.000000
# 3 -0.001563 0.003520 0.023273 0.000000 -0.008969 0.000000
# 4 0.000000 0.000000 0.000000 0.031270 0.000000 -0.009475
# 5 -0.014743 -0.008046 -0.008969 0.000000 0.041497 0.000000
# 6 0.000000 0.000000 0.000000 -0.009475 0.000000 0.091049
#
#
# Mechanical properties :
#
#
# Convention : Reuss Voigt Hill
#
# Bulk Modulus (GPa) = 10.83995 15.14983 12.99489
# Shear Modulus (GPa) = 19.02389 24.21261 21.61825
#
# Velocity S-wave (km/s) = 2.97395 3.35510 3.17026
# Velocity P-wave (km/s) = 4.10270 4.69598 4.40933
#
# Compressibility (1/GPa) = 0.09225133
#
# Stress axis : x y z
#
# Youngs Moduli (GPa) = 32.15022 38.64143 42.96865
#
# Poissons Ratio (x) = -0.15615 0.06715
# Poissons Ratio (y) = -0.12992 -0.15123
# Poissons Ratio (z) = 0.05024 -0.13600
#
# Static dielectric constant tensor:
#      x y z
#    x 1.821480 0.000000 0.031380 
#    y 0.000000 1.768760 0.000000 
#    z 0.031380 0.000000 1.801440 
# 
# From -- ./inp_files/87967.got.cif
#   From: 2010.05.17/outbox.cif.g08.bks.cpg/sg12_44_cif.got.tgz:87967.got - 2010.06.03 13:09:07.
