data_PCOD9206468
_publ_section_title
;
Structure prediction by ZEFSAII (Michael W. Deem and Ramdas Pophale) SiO2 
 PCOD9206468
Probable space group: C 2/M
;
_chemical_formula_sum "Si O2"
_cell_formula_units_Z 48
_cell_length_a 27.512727
_cell_length_b 8.724053
_cell_length_c 19.223332
_cell_angle_alpha 90.000000
_cell_angle_beta 150.290956
_cell_angle_gamma 90.000000
_cell_volume 2286.694751
_symmetry_space_group_name_H-M "C 2/M"
_symmetry_group_IT_number 12
_symmetry_cell_setting 'monoclinic'
loop_
_space_group_symop_operation_xyz
x,y,z
-x,y,-z
-x,-y,-z
x,-y,z
1/2+x,1/2+y,z
1/2-x,1/2+y,-z
1/2-x,1/2-y,-z
1/2+x,1/2-y,z
loop_
_atom_site_type_symbol
_atom_site_label
_atom_site_fract_x
_atom_site_fract_y
_atom_site_fract_z
Si Si1 0.304527 0.177775 0.169345
Si Si2 0.199873 0.816841 0.572637
Si Si3 0.899496 0.184382 0.411749
Si Si4 0.417669 0.179874 0.694827
Si Si5 0.905436 0.176840 0.165494
Si Si6 0.590185 0.683468 0.162149
O O1 0.314538 0.247534 0.257858
O O2 0.374079 0.271908 0.203471
O O3 0.333683 0.000000 0.205201
O O4 0.194587 0.186794 0.003320
O O5 0.121023 0.772768 0.534190
O O6 0.170034 0.741257 0.462748
O O7 0.306629 0.760926 0.729113
O O8 0.199602 0.000000 0.564835
O O9 0.000000 0.237661 0.500000
O O10 0.897844 0.000000 0.406484
O O11 0.514286 0.216872 0.769894
O O12 0.427447 0.266481 0.780104
O O13 0.405862 0.000000 0.693010
O O14 0.939922 0.000000 0.209178
O O15 0.600016 0.500000 0.170475
O O16 0.500000 0.729273 0.000000
#
# Coordination Sequence:
#
# PCOD9206468 Si02
#       6
#     8   8   8   8   8   8
#     4  10  21  36  58  89 125 167 215 267 319 379
#     4  11  24  43  68  98 133 174 219 269 325 386
#     4  10  22  39  61  90 128 172 213 260 319 382
#     4  12  25  42  68  97 129 168 216 269 325 390
#     4  10  21  38  60  89 127 169 213 263 324 386
#     4  11  26  47  70  96 130 171 216 270 329 388
#
# _framework density 20.990995000000002
#
# number of rings (size 3 to 8) (size 9 to 14) (size 15 to 20)
#    0.000    1.333    0.000    5.000    2.333    6.333 
#    0.000    0.000    0.000    0.000    0.000    0.000 
#    0.000    0.000    0.000    0.000    0.000    0.000 
#
# Total GULP energy -134271.021862 kJ/mol
# GULP energy per Si atom -5594.625911 kJ/mol
# Density = 2.094322 g / cm^3
# Si number density = 20.990995 Si / 1000 Ang^3
#
#
#
# Elastic Constant Matrix: (Units=GPa)
#
#
# Indices 1 2 3 4 5 6 
#
# 1 78.7155 15.7933 38.4595 0.0000 -11.1427 0.0000
# 2 15.7933 33.5059 22.8879 0.0000 -0.4933 0.0000
# 3 38.4595 22.8879 102.7146 0.0000 -12.3902 0.0000
# 4 0.0000 0.0000 0.0000 33.1580 0.0000 0.7596
# 5 -11.1427 -0.4933 -12.3902 0.0000 37.5122 0.0000
# 6 0.0000 0.0000 0.0000 0.7596 0.0000 30.4729
#
#
#
# Elastic Compliance Matrix: (Units=1/GPa)
#
#
# Indices 1 2 3 4 5 6 
#
# 1 0.016372 -0.004422 -0.004755 0.000000 0.003235 0.000000
# 2 -0.004422 0.036576 -0.006869 0.000000 -0.003101 0.000000
# 3 -0.004755 -0.006869 0.013399 0.000000 0.002923 0.000000
# 4 0.000000 0.000000 0.000000 0.030176 0.000000 -0.000752
# 5 0.003235 -0.003101 0.002923 0.000000 0.028544 0.000000
# 6 0.000000 0.000000 0.000000 -0.000752 0.000000 0.032835
#
#
# Mechanical properties :
#
#
# Convention : Reuss Voigt Hill
#
# Bulk Modulus (GPa) = 29.19095 41.02416 35.10755
# Shear Modulus (GPa) = 24.82489 29.41497 27.11993
#
# Velocity S-wave (km/s) = 3.44269 3.74747 3.59831
# Velocity P-wave (km/s) = 5.45339 6.18958 5.83311
#
# Compressibility (1/GPa) = 0.03425719
#
# Stress axis : x y z
#
# Youngs Moduli (GPa) = 61.07951 27.34030 74.63123
#
# Poissons Ratio (x) = 0.12089 0.35486
# Poissons Ratio (y) = 0.27007 0.51262
# Poissons Ratio (z) = 0.29042 0.18779
#
# Static dielectric constant tensor:
#      x y z
#    x 1.744670 0.000000 0.021890 
#    y 0.000000 1.699900 0.000000 
#    z 0.021890 0.000000 1.769720 
# 
# From -- ./inp_files/329121.got.cif
#   From: 2010.05.17/outbox.cif.g08.bks.cpg/sg12_165_cif.got.tgz:329121.got - 2010.06.03 13:09:07.
