data_PCOD9206017
_publ_section_title
;
Structure prediction by ZEFSAII (Michael W. Deem and Ramdas Pophale) SiO2 
 PCOD9206017
Probable space group: C 2/M
;
_chemical_formula_sum "Si O2"
_cell_formula_units_Z 48
_cell_length_a 27.552072
_cell_length_b 8.671897
_cell_length_c 20.823685
_cell_angle_alpha 90.000000
_cell_angle_beta 147.834379
_cell_angle_gamma 90.000000
_cell_volume 2648.733499
_symmetry_space_group_name_H-M "C 2/M"
_symmetry_group_IT_number 12
_symmetry_cell_setting 'monoclinic'
loop_
_space_group_symop_operation_xyz
x,y,z
-x,y,-z
-x,-y,-z
x,-y,z
1/2+x,1/2+y,z
1/2-x,1/2+y,-z
1/2-x,1/2-y,-z
1/2+x,1/2-y,z
loop_
_atom_site_type_symbol
_atom_site_label
_atom_site_fract_x
_atom_site_fract_y
_atom_site_fract_z
Si Si1 0.679265 0.316384 0.111800
Si Si2 0.219250 0.675133 0.285276
Si Si3 0.193282 0.684591 0.995892
Si Si4 0.482420 0.732862 0.908792
Si Si5 0.491678 0.675010 0.771640
Si Si6 0.686924 0.183617 0.485731
O O1 0.655727 0.500000 0.080534
O O2 0.729639 0.281790 0.234324
O O3 0.726945 0.260588 0.100569
O O4 0.586428 0.212401 0.013306
O O5 0.244737 0.500000 0.299280
O O6 0.111544 0.677499 0.184575
O O7 0.277601 0.741452 0.408956
O O8 0.197876 0.500000 0.003583
O O9 0.088797 0.742409 0.873470
O O10 0.250000 0.750000 0.000000
O O11 0.465911 0.664763 0.819039
O O12 0.500000 0.658706 0.000000
O O13 0.498053 0.500000 0.755067
O O14 0.414639 0.766752 0.647386
O O15 0.750000 0.250000 0.500000
O O16 0.695630 0.000000 0.498460
#
# Coordination Sequence:
#
# PCOD9206017 Si02
#       6
#     8   8   8   8   8   8
#     4  10  21  36  55  81 113 147 189 234 288 339
#     4  11  22  35  53  78 113 152 194 234 280 335
#     4  11  22  39  63  89 116 146 188 236 292 342
#     4   9  19  30  50  75 112 146 190 222 281 328
#     4  11  22  37  57  82 116 149 191 238 286 338
#     4  12  24  37  55  78 113 157 200 237 279 333
#
# _framework density 18.121869
#
# number of rings (size 3 to 8) (size 9 to 14) (size 15 to 20)
#    0.000    1.333    1.667    6.000    0.000   12.333 
#    0.000    0.000    0.000    1.000    0.000    7.000 
#    0.000    0.000    0.000    0.000    0.000    0.000 
#
# Total GULP energy -133602.715962 kJ/mol
# GULP energy per Si atom -5566.779832 kJ/mol
# Density = 1.808062 g / cm^3
# Si number density = 18.121869 Si / 1000 Ang^3
#
#
#
# Elastic Constant Matrix: (Units=GPa)
#
#
# Indices 1 2 3 4 5 6 
#
# 1 131.1261 33.0980 37.5444 0.0000 -14.7576 0.0000
# 2 33.0980 110.5993 23.5567 0.0000 -1.2604 0.0000
# 3 37.5444 23.5567 89.4578 0.0000 -20.7669 0.0000
# 4 0.0000 0.0000 0.0000 8.6736 0.0000 1.0294
# 5 -14.7576 -1.2604 -20.7669 0.0000 25.0883 0.0000
# 6 0.0000 0.0000 0.0000 1.0294 0.0000 21.8942
#
#
#
# Elastic Compliance Matrix: (Units=1/GPa)
#
#
# Indices 1 2 3 4 5 6 
#
# 1 0.009278 -0.002193 -0.002569 0.000000 0.003221 0.000000
# 2 -0.002193 0.010178 -0.002402 0.000000 -0.002767 0.000000
# 3 -0.002569 -0.002402 0.015486 0.000000 0.011187 0.000000
# 4 0.000000 0.000000 0.000000 0.115939 0.000000 -0.005451
# 5 0.003221 -0.002767 0.011187 0.000000 0.050875 0.000000
# 6 0.000000 0.000000 0.000000 -0.005451 0.000000 0.045931
#
#
# Mechanical properties :
#
#
# Convention : Reuss Voigt Hill
#
# Bulk Modulus (GPa) = 48.50914 57.73126 53.12020
# Shear Modulus (GPa) = 18.59536 26.93017 22.76276
#
# Velocity S-wave (km/s) = 3.20680 3.85913 3.54799
# Velocity P-wave (km/s) = 6.36693 7.19608 6.79416
#
# Compressibility (1/GPa) = 0.02061467
#
# Stress axis : x y z
#
# Youngs Moduli (GPa) = 107.78580 98.25169 64.57451
#
# Poissons Ratio (x) = 0.21543 0.16587
# Poissons Ratio (y) = 0.23634 0.15512
# Poissons Ratio (z) = 0.27686 0.23602
#
# Static dielectric constant tensor:
#      x y z
#    x 1.624200 0.000000 -0.021270 
#    y 0.000000 1.734810 0.000000 
#    z -0.021270 0.000000 1.629190 
# 
# From -- ./inp_files/327344.got.cif
#   From: 2010.05.17/outbox.cif.g08.bks.cpg/sg12_164_cif.got.tgz:327344.got - 2010.06.03 13:09:07.
