data_PCOD9206207
_publ_section_title
;
Structure prediction by ZEFSAII (Michael W. Deem and Ramdas Pophale) SiO2 
 PCOD9206207
Probable space group: C 2/M
;
_chemical_formula_sum "Si O2"
_cell_formula_units_Z 56
_cell_length_a 17.545015
_cell_length_b 14.905736
_cell_length_c 10.146798
_cell_angle_alpha 90.000000
_cell_angle_beta 65.610461
_cell_angle_gamma 90.000000
_cell_volume 2416.794302
_symmetry_space_group_name_H-M "C 2/M"
_symmetry_group_IT_number 12
_symmetry_cell_setting 'monoclinic'
loop_
_space_group_symop_operation_xyz
x,y,z
-x,y,-z
-x,-y,-z
x,-y,z
1/2+x,1/2+y,z
1/2-x,1/2+y,-z
1/2-x,1/2-y,-z
1/2+x,1/2-y,z
loop_
_atom_site_type_symbol
_atom_site_label
_atom_site_fract_x
_atom_site_fract_y
_atom_site_fract_z
Si Si1 0.147367 0.891864 0.173956
Si Si2 0.241345 0.651265 0.667892
Si Si3 0.208238 0.864077 0.653367
Si Si4 0.711987 0.899020 0.127400
Si Si5 0.038133 0.602800 0.340810
Si Si6 0.440060 0.866793 0.157329
Si Si7 0.477001 0.344796 0.160874
O O1 0.180142 0.864866 0.294174
O O2 0.056746 0.856548 0.196811
O O3 0.143653 0.000000 0.167299
O O4 0.218506 0.858374 0.019191
O O5 0.225420 0.757277 0.658857
O O6 0.253183 0.610629 0.514441
O O7 0.157182 0.614925 0.796409
O O8 0.248336 0.903678 0.755826
O O9 0.109514 0.884046 0.723646
O O10 0.621172 0.854706 0.215575
O O11 0.696160 0.000000 0.087456
O O12 0.062615 0.500000 0.359551
O O13 0.000000 0.645839 0.500000
O O14 0.968146 0.599480 0.279504
O O15 0.455857 0.759977 0.155129
O O16 0.500000 0.901128 0.000000
O O17 0.500000 0.382501 0.000000
#
# Coordination Sequence:
#
# PCOD9206207 Si02
#       7
#     8   8   8   8   8   8   8
#     4  11  24  40  62  92 124 160 204 254 305 358
#     4  10  23  39  58  90 120 155 201 247 304 357
#     4  10  21  40  61  84 121 159 199 247 299 359
#     4  10  21  36  59  89 115 156 204 243 299 359
#     4  10  21  36  56  87 121 154 196 246 302 360
#     4  10  21  38  59  86 117 158 199 242 300 357
#     4  10  21  40  60  89 118 156 207 247 300 356
#
# _framework density 23.171189999999999
#
# number of rings (size 3 to 8) (size 9 to 14) (size 15 to 20)
#    0.000    1.857    1.429    1.714    2.000    3.429 
#    0.000    0.714    0.000    0.000    0.000    0.000 
#    0.000    0.000    0.000    0.000    0.000    0.000 
#
# Total GULP energy -156521.262635 kJ/mol
# GULP energy per Si atom -5590.045094 kJ/mol
# Density = 2.311845 g / cm^3
# Si number density = 23.171190 Si / 1000 Ang^3
#
#
#
# Elastic Constant Matrix: (Units=GPa)
#
#
# Indices 1 2 3 4 5 6 
#
# 1 129.7784 -2.1928 4.5475 0.0000 1.0325 0.0000
# 2 -2.1928 51.5504 6.1012 0.0000 -9.3555 0.0000
# 3 4.5475 6.1012 67.6613 0.0000 9.2631 0.0000
# 4 0.0000 0.0000 0.0000 6.6239 0.0000 13.2897
# 5 1.0325 -9.3555 9.2631 0.0000 43.9836 0.0000
# 6 0.0000 0.0000 0.0000 13.2897 0.0000 18.0720
#
#
#
# Elastic Compliance Matrix: (Units=1/GPa)
#
#
# Indices 1 2 3 4 5 6 
#
# 1 0.007732 0.000399 -0.000558 0.000000 0.000021 0.000000
# 2 0.000399 0.020610 -0.002558 0.000000 0.004913 0.000000
# 3 -0.000558 -0.002558 0.015569 0.000000 -0.003810 0.000000
# 4 0.000000 0.000000 0.000000 -0.317560 0.000000 0.233526
# 5 0.000021 0.004913 -0.003810 0.000000 0.024583 0.000000
# 6 0.000000 0.000000 0.000000 0.233526 0.000000 -0.116395
#
#
# Mechanical properties :
#
#
# Convention : Reuss Voigt Hill
#
# Bulk Modulus (GPa) = 25.99052 29.54464 27.76758
# Shear Modulus (GPa) = -14.40088 29.77151 7.68531
#
# Velocity S-wave (km/s) = -2.49569 3.58837 1.82317
# Velocity P-wave (km/s) = 1.71360 5.47237 4.05483
#
# Compressibility (1/GPa) = 0.03847557
#
# Stress axis : x y z
#
# Youngs Moduli (GPa) = 129.33958 48.52051 64.22899
#
# Poissons Ratio (x) = -0.01935 0.03587
# Poissons Ratio (y) = -0.05158 0.16429
# Poissons Ratio (z) = 0.07223 0.12411
#
# Static dielectric constant tensor:
#      x y z
#    x 1.818020 0.000000 -0.045650 
#    y 0.000000 1.912560 0.000000 
#    z -0.045650 0.000000 1.866080 
# 
# From -- ./inp_files/77341.got.cif
#   From: 2010.05.17/outbox.cif.g08.bks.cpg/sg12_39_cif.got.tgz:77341.got - 2010.06.03 13:09:07.
