data_PCOD9206153
_publ_section_title
;
Structure prediction by ZEFSAII (Michael W. Deem and Ramdas Pophale) SiO2 
 PCOD9206153
Probable space group: C 2/M
;
_chemical_formula_sum "Si O2"
_cell_formula_units_Z 56
_cell_length_a 27.624214
_cell_length_b 17.483494
_cell_length_c 9.939967
_cell_angle_alpha 90.000000
_cell_angle_beta 145.178414
_cell_angle_gamma 90.000000
_cell_volume 2741.300345
_symmetry_space_group_name_H-M "C 2/M"
_symmetry_group_IT_number 12
_symmetry_cell_setting 'monoclinic'
loop_
_space_group_symop_operation_xyz
x,y,z
-x,y,-z
-x,-y,-z
x,-y,z
1/2+x,1/2+y,z
1/2-x,1/2+y,-z
1/2-x,1/2-y,-z
1/2+x,1/2-y,z
loop_
_atom_site_type_symbol
_atom_site_label
_atom_site_fract_x
_atom_site_fract_y
_atom_site_fract_z
Si Si1 0.302601 0.671382 0.602658
Si Si2 0.777576 0.584531 0.360289
Si Si3 0.959460 0.086076 0.056039
Si Si4 0.874584 0.153375 0.466079
Si Si5 0.020125 0.412756 0.192717
Si Si6 0.445313 0.808908 0.501835
Si Si7 0.761322 0.339669 0.053118
O O1 0.250000 0.750000 0.500000
O O2 0.242184 0.608448 0.532949
O O3 0.330086 0.659766 0.511019
O O4 0.388453 0.652768 0.885350
O O5 0.746466 0.500000 0.259080
O O6 0.878218 0.584594 0.572619
O O7 0.742178 0.640470 0.164489
O O8 0.039662 0.104236 0.331989
O O9 0.925836 0.000000 0.004552
O O10 0.000000 0.084935 0.000000
O O11 0.907678 0.237629 0.498962
O O12 0.805461 0.123604 0.201691
O O13 0.986953 0.500000 0.125018
O O14 0.998334 0.360168 0.269167
O O15 0.000000 0.379741 0.000000
O O16 0.500000 0.783254 0.500000
O O17 0.361442 0.855134 0.260409
O O18 0.750000 0.250000 0.000000
#
# Coordination Sequence:
#
# PCOD9206153 Si02
#       7
#     8   8   8   8   8   8   8
#     4  11  21  36  60  88 117 153 198 250 308 369
#     4  10  21  37  58  85 119 157 194 246 314 369
#     4   9  20  38  57  82 118 154 194 249 304 356
#     4  10  22  37  58  86 116 156 204 253 302 360
#     4   9  19  36  56  81 115 151 192 245 303 365
#     4  10  21  36  56  83 118 157 200 254 310 365
#     4   9  19  38  56  81 119 156 201 255 307 363
#
# _framework density 20.428260999999999
#
# number of rings (size 3 to 8) (size 9 to 14) (size 15 to 20)
#    0.000    2.286    0.000    3.000    0.000    8.857 
#    0.000    0.000    0.000    2.143    0.000    0.000 
#    0.000    0.000    0.000    0.000    0.000    0.000 
#
# Total GULP energy -155922.310943 kJ/mol
# GULP energy per Si atom -5568.653962 kJ/mol
# Density = 2.038176 g / cm^3
# Si number density = 20.428261 Si / 1000 Ang^3
#
#
#
# Elastic Constant Matrix: (Units=GPa)
#
#
# Indices 1 2 3 4 5 6 
#
# 1 100.5148 26.0811 8.9027 0.0000 -16.5938 0.0000
# 2 26.0811 73.3413 29.8743 0.0000 -10.1512 0.0000
# 3 8.9027 29.8743 111.1596 0.0000 -8.4706 0.0000
# 4 0.0000 0.0000 0.0000 27.1247 0.0000 -0.2733
# 5 -16.5938 -10.1512 -8.4706 0.0000 29.3856 0.0000
# 6 0.0000 0.0000 0.0000 -0.2733 0.0000 10.9128
#
#
#
# Elastic Compliance Matrix: (Units=1/GPa)
#
#
# Indices 1 2 3 4 5 6 
#
# 1 0.011755 -0.003597 0.000446 0.000000 0.005524 0.000000
# 2 -0.003597 0.016935 -0.004061 0.000000 0.002648 0.000000
# 3 0.000446 -0.004061 0.010188 0.000000 0.001786 0.000000
# 4 0.000000 0.000000 0.000000 0.036876 0.000000 0.000923
# 5 0.005524 0.002648 0.001786 0.000000 0.038579 0.000000
# 6 0.000000 0.000000 0.000000 0.000923 0.000000 0.091659
#
#
# Mechanical properties :
#
#
# Convention : Reuss Voigt Hill
#
# Bulk Modulus (GPa) = 40.89549 46.08135 43.48842
# Shear Modulus (GPa) = 21.87542 28.16180 25.01861
#
# Velocity S-wave (km/s) = 3.27592 3.71694 3.50338
# Velocity P-wave (km/s) = 5.86271 6.40527 6.13999
#
# Compressibility (1/GPa) = 0.02445257
#
# Stress axis : x y z
#
# Youngs Moduli (GPa) = 85.07332 59.04932 98.15546
#
# Poissons Ratio (x) = 0.21242 -0.04381
# Poissons Ratio (y) = 0.30604 0.39865
# Poissons Ratio (z) = -0.03797 0.23982
#
# Static dielectric constant tensor:
#      x y z
#    x 1.731580 0.000000 0.025760 
#    y 0.000000 1.765350 0.000000 
#    z 0.025760 0.000000 1.797590 
# 
# From -- ./inp_files/106036.got.cif
#   From: 2010.05.17/outbox.cif.g08.bks.cpg/sg12_54_cif.got.tgz:106036.got - 2010.06.03 13:09:07.
