data_PCOD9206890
_publ_section_title
;
Structure prediction by ZEFSAII (Michael W. Deem and Ramdas Pophale) SiO2 
 PCOD9206890
Probable space group: C 2/M
;
_chemical_formula_sum "Si O2"
_cell_formula_units_Z 44
_cell_length_a 7.340619
_cell_length_b 33.481952
_cell_length_c 7.722455
_cell_angle_alpha 90.000000
_cell_angle_beta 78.405684
_cell_angle_gamma 90.000000
_cell_volume 1859.282940
_symmetry_space_group_name_H-M "C 2/M"
_symmetry_group_IT_number 12
_symmetry_cell_setting 'monoclinic'
loop_
_space_group_symop_operation_xyz
x,y,z
-x,y,-z
-x,-y,-z
x,-y,z
1/2+x,1/2+y,z
1/2-x,1/2+y,-z
1/2-x,1/2-y,-z
1/2+x,1/2-y,z
loop_
_atom_site_type_symbol
_atom_site_label
_atom_site_fract_x
_atom_site_fract_y
_atom_site_fract_z
Si Si1 0.591149 0.457500 0.670137
Si Si2 0.410663 0.630452 0.204371
Si Si3 0.870438 0.784799 0.191025
Si Si4 0.519787 0.881232 0.797734
Si Si5 0.000000 0.436848 0.500000
Si Si6 0.539746 0.798494 0.695685
O O1 0.500000 0.459734 0.500000
O O2 0.538412 0.500000 0.770146
O O3 0.527507 0.413605 0.747465
O O4 0.817062 0.457336 0.614244
O O5 0.433751 0.674917 0.281762
O O6 0.189226 0.625891 0.230022
O O7 0.500000 0.635552 0.000000
O O8 0.659600 0.792881 0.173330
O O9 0.860983 0.743524 0.296933
O O10 0.000000 0.779444 0.000000
O O11 0.591143 0.911815 0.641311
O O12 0.624106 0.838810 0.760579
O O13 0.500000 0.894298 0.000000
O O14 0.500000 0.805353 0.500000
#
# Coordination Sequence:
#
# PCOD9206890 Si02
#       6
#     8   8   8   8   4   8
#     4  10  22  40  65  92 121 161 200 252 322 373
#     4   9  21  38  57  87 120 152 206 253 304 373
#     4  10  21  37  54  80 118 161 205 253 309 363
#     4  10  21  37  61  86 120 166 205 251 310 363
#     4  10  21  42  64  92 130 158 210 256 301 378
#     4  11  21  36  54  84 120 160 210 259 305 362
#
# _framework density 23.665037999999999
#
# number of rings (size 3 to 8) (size 9 to 14) (size 15 to 20)
#    0.000    2.000    0.909    1.909    2.545    4.000 
#    0.000    0.000    0.000    2.727    0.000    0.000 
#    0.000    0.000    0.000    0.000    0.000    0.000 
#
# Total GULP energy -122609.460237 kJ/mol
# GULP energy per Si atom -5573.157284 kJ/mol
# Density = 2.361118 g / cm^3
# Si number density = 23.665038 Si / 1000 Ang^3
#
#
#
# Elastic Constant Matrix: (Units=GPa)
#
#
# Indices 1 2 3 4 5 6 
#
# 1 37.2490 -18.0961 -22.8963 0.0000 -1.4019 0.0000
# 2 -18.0961 202.1053 37.4288 0.0000 20.9344 0.0000
# 3 -22.8963 37.4288 78.5253 0.0000 7.5474 0.0000
# 4 0.0000 0.0000 0.0000 32.3887 0.0000 12.2073
# 5 -1.4019 20.9344 7.5474 0.0000 25.3913 0.0000
# 6 0.0000 0.0000 0.0000 12.2073 0.0000 13.5744
#
#
#
# Elastic Compliance Matrix: (Units=1/GPa)
#
#
# Indices 1 2 3 4 5 6 
#
# 1 0.033114 0.001490 0.009149 0.000000 -0.002120 0.000000
# 2 0.001490 0.005878 -0.001966 0.000000 -0.004180 0.000000
# 3 0.009149 -0.001966 0.016609 0.000000 -0.002811 0.000000
# 4 0.000000 0.000000 0.000000 0.046705 0.000000 -0.042002
# 5 -0.002120 -0.004180 -0.002811 0.000000 0.043549 0.000000
# 6 0.000000 0.000000 0.000000 -0.042002 0.000000 0.111440
#
#
# Mechanical properties :
#
#
# Convention : Reuss Voigt Hill
#
# Bulk Modulus (GPa) = 13.70824 34.52804 24.11814
# Shear Modulus (GPa) = 18.92039 35.70042 27.31041
#
# Velocity S-wave (km/s) = 2.83063 3.88825 3.40080
# Velocity P-wave (km/s) = 4.06060 5.89745 5.06302
#
# Compressibility (1/GPa) = 0.07294884
#
# Stress axis : x y z
#
# Youngs Moduli (GPa) = 30.19856 170.11602 60.20667
#
# Poissons Ratio (x) = -0.25351 -0.55082
# Poissons Ratio (y) = -0.04500 0.11834
# Poissons Ratio (z) = -0.27628 0.33438
#
# Static dielectric constant tensor:
#      x y z
#    x 2.248550 0.000000 -0.425670 
#    y 0.000000 2.089430 0.000000 
#    z -0.425670 0.000000 2.546000 
# 
# From -- ./inp_files/41603.got.cif
#   From: 2010.05.17/outbox.cif.g08.bks.cpg/sg12_21_cif.got.tgz:41603.got - 2010.06.03 13:09:07.
