data_PCOD9206234
_publ_section_title
;
Structure prediction by ZEFSAII (Michael W. Deem and Ramdas Pophale) SiO2 
 PCOD9206234
Probable space group: C 2/M
;
_chemical_formula_sum "Si O2"
_cell_formula_units_Z 52
_cell_length_a 17.650195
_cell_length_b 12.353782
_cell_length_c 23.250107
_cell_angle_alpha 90.000000
_cell_angle_beta 30.595655
_cell_angle_gamma 90.000000
_cell_volume 2580.309617
_symmetry_space_group_name_H-M "C 2/M"
_symmetry_group_IT_number 12
_symmetry_cell_setting 'monoclinic'
loop_
_space_group_symop_operation_xyz
x,y,z
-x,y,-z
-x,-y,-z
x,-y,z
1/2+x,1/2+y,z
1/2-x,1/2+y,-z
1/2-x,1/2-y,-z
1/2+x,1/2-y,z
loop_
_atom_site_type_symbol
_atom_site_label
_atom_site_fract_x
_atom_site_fract_y
_atom_site_fract_z
Si Si1 0.407411 0.000000 0.139756
Si Si2 0.922483 0.224856 0.836487
Si Si3 0.086116 0.256643 0.847549
Si Si4 0.734758 0.500000 0.081538
Si Si5 0.152461 0.376492 0.289404
Si Si6 0.683957 0.377684 0.940852
Si Si7 0.904962 0.000000 0.698533
Si Si8 0.423233 0.278316 0.388061
O O1 0.409931 0.871665 0.122737
O O2 0.221448 0.000000 0.269176
O O3 0.585816 0.000000 0.045343
O O4 0.847587 0.106355 0.888648
O O5 0.790290 0.308323 0.911697
O O6 0.017177 0.263070 0.828950
O O7 0.019986 0.225863 0.714833
O O8 0.245328 0.199859 0.738662
O O9 0.974906 0.177699 0.953347
O O10 0.697742 0.500000 0.175278
O O11 0.137796 0.500000 0.318935
O O12 0.240407 0.377365 0.170967
O O13 0.000515 0.316195 0.374610
O O14 0.671170 0.500000 0.968912
O O15 0.010507 0.893355 0.631933
O O16 0.250000 0.250000 0.500000
#
# Coordination Sequence:
#
# PCOD9206234 Si02
#       8
#     4   8   8   4   8   8   4   8
#     4  12  23  34  59  86 124 161 184 231 292 352
#     4  10  23  37  56  88 116 153 195 239 283 346
#     4  12  23  35  56  83 126 154 187 233 289 342
#     4  10  21  36  58  85 122 159 192 227 289 348
#     4  10  22  39  58  85 113 153 198 234 280 347
#     4  10  21  36  57  81 117 160 199 224 269 346
#     4  10  21  40  61  91 113 143 204 247 280 353
#     4  10  22  43  66  82 108 148 199 250 296 340
#
# _framework density 20.152619999999999
#
# number of rings (size 3 to 8) (size 9 to 14) (size 15 to 20)
#    0.000    1.538    3.077    1.615    4.308    2.462 
#    0.000    0.769    0.000    1.846    0.000    0.000 
#    0.000    0.000    0.000    0.000    0.000    0.000 
#
# Total GULP energy -144800.332187 kJ/mol
# GULP energy per Si atom -5569.243546 kJ/mol
# Density = 2.010675 g / cm^3
# Si number density = 20.152620 Si / 1000 Ang^3
#
#
#
# Elastic Constant Matrix: (Units=GPa)
#
#
# Indices 1 2 3 4 5 6 
#
# 1 70.0229 22.0763 24.9892 0.0000 -27.6009 0.0001
# 2 22.0763 172.7448 46.4440 0.0005 -24.0575 0.0002
# 3 24.9892 46.4440 107.2989 0.0022 -46.6792 0.0003
# 4 0.0000 0.0005 0.0022 21.6163 0.0004 -9.5645
# 5 -27.6009 -24.0575 -46.6792 0.0004 38.0125 -0.0001
# 6 0.0001 0.0002 0.0003 -9.5645 -0.0001 18.1241
#
#
#
# Elastic Compliance Matrix: (Units=1/GPa)
#
#
# Indices 1 2 3 4 5 6 
#
# 1 0.020828 -0.001045 0.004065 -0.000001 0.019453 -0.000001
# 2 -0.001045 0.006640 -0.002432 0.000000 0.000457 0.000000
# 3 0.004065 -0.002432 0.021556 -0.000003 0.027883 -0.000002
# 4 -0.000001 0.000000 -0.000003 0.060354 -0.000005 0.031850
# 5 0.019453 0.000457 0.027883 -0.000005 0.074961 -0.000003
# 6 -0.000001 0.000000 -0.000002 0.031850 -0.000003 0.071983
#
#
# Mechanical properties :
#
#
# Convention : Reuss Voigt Hill
#
# Bulk Modulus (GPa) = 19.92109 59.67618 39.79864
# Shear Modulus (GPa) = 18.39052 32.65439 25.52245
#
# Velocity S-wave (km/s) = 3.02414 4.02973 3.56259
# Velocity P-wave (km/s) = 4.70112 7.16436 6.05923
#
# Compressibility (1/GPa) = 0.05019805
#
# Stress axis : x y z
#
# Youngs Moduli (GPa) = 48.01278 150.60376 46.39135
#
# Poissons Ratio (x) = 0.15744 -0.18856
# Poissons Ratio (y) = 0.05019 0.11281
# Poissons Ratio (z) = -0.19515 0.36624
#
# Static dielectric constant tensor:
#      x y z
#    x 1.886340 0.000000 -0.088180 
#    y 0.000000 1.705200 0.000000 
#    z -0.088180 0.000000 1.844250 
# 
# From -- ./inp_files/315814.got.cif
#   From: 2010.05.17/outbox.cif.g08.bks.cpg/sg12_158_cif.got.tgz:315814.got - 2010.06.03 13:09:07.
