data_PCOD9206979
_publ_section_title
;
Structure prediction by ZEFSAII (Michael W. Deem and Ramdas Pophale) SiO2 
 PCOD9206979
Probable space group: C 2/M
;
_chemical_formula_sum "Si O2"
_cell_formula_units_Z 64
_cell_length_a 11.235904
_cell_length_b 19.581614
_cell_length_c 20.783734
_cell_angle_alpha 90.000000
_cell_angle_beta 136.686653
_cell_angle_gamma 90.000000
_cell_volume 3136.869965
_symmetry_space_group_name_H-M "C 2/M"
_symmetry_group_IT_number 12
_symmetry_cell_setting 'monoclinic'
loop_
_space_group_symop_operation_xyz
x,y,z
-x,y,-z
-x,-y,-z
x,-y,z
1/2+x,1/2+y,z
1/2-x,1/2+y,-z
1/2-x,1/2-y,-z
1/2+x,1/2-y,z
loop_
_atom_site_type_symbol
_atom_site_label
_atom_site_fract_x
_atom_site_fract_y
_atom_site_fract_z
Si Si1 0.969172 0.312145 0.115768
Si Si2 0.934103 0.837812 0.047021
Si Si3 0.639966 0.614786 0.602074
Si Si4 0.398423 0.704378 0.588604
Si Si5 0.493633 0.821606 0.717097
Si Si6 0.283789 0.419892 0.774061
Si Si7 0.859824 0.077951 0.658298
Si Si8 0.253712 0.925405 0.787445
O O1 0.987745 0.238231 0.091035
O O2 0.995522 0.306638 0.202913
O O3 0.112274 0.365214 0.147047
O O4 0.773773 0.339412 0.029250
O O5 0.030311 0.893314 0.128468
O O6 0.000000 0.847346 0.000000
O O7 0.500000 0.580259 0.500000
O O8 0.535968 0.679489 0.590115
O O9 0.810896 0.640064 0.633231
O O10 0.702816 0.576659 0.691181
O O11 0.250000 0.750000 0.500000
O O12 0.495148 0.751047 0.679061
O O13 0.320143 0.636869 0.591639
O O14 0.644789 0.872075 0.754504
O O15 0.260000 0.500000 0.779261
O O16 0.272133 0.410856 0.692562
O O17 0.068800 0.082699 0.749310
O O18 0.823520 0.000000 0.622069
O O19 0.327088 0.000000 0.831221
#
# Coordination Sequence:
#
# PCOD9206979 Si02
#       8
#     8   8   8   8   8   8   8   8
#     4  10  23  39  63  94 127 164 208 265 325 378
#     4  11  23  41  62  95 129 163 212 263 320 378
#     4  10  21  37  55  92 123 157 205 259 321 358
#     4  11  22  37  66  95 121 165 216 263 314 375
#     4  11  23  38  61  93 126 165 212 262 309 379
#     4  11  25  43  65  93 127 175 215 255 321 388
#     4   9  21  42  65  91 128 171 211 258 320 382
#     4   9  20  38  63  89 117 163 208 254 316 375
#
# _framework density 20.402504
#
# number of rings (size 3 to 8) (size 9 to 14) (size 15 to 20)
#    0.000    1.750    2.500    0.750    7.000    5.000 
#    0.000    0.625    0.000    4.125    0.000    0.000 
#    0.000    0.000    0.000    0.000    0.000    0.000 
#
# Total GULP energy -178781.612352 kJ/mol
# GULP energy per Si atom -5586.925386 kJ/mol
# Density = 2.035607 g / cm^3
# Si number density = 20.402504 Si / 1000 Ang^3
#
#
#
# Elastic Constant Matrix: (Units=GPa)
#
#
# Indices 1 2 3 4 5 6 
#
# 1 37.4326 10.0866 -5.2710 0.0000 -5.3067 0.0000
# 2 10.0866 90.5009 26.8573 0.0000 -0.8523 0.0000
# 3 -5.2710 26.8573 60.4565 0.0000 6.3724 0.0000
# 4 0.0000 0.0000 0.0000 22.4534 0.0000 -2.3406
# 5 -5.3067 -0.8523 6.3724 0.0000 21.2213 0.0000
# 6 0.0000 0.0000 0.0000 -2.3406 0.0000 9.7388
#
#
#
# Elastic Compliance Matrix: (Units=1/GPa)
#
#
# Indices 1 2 3 4 5 6 
#
# 1 0.029279 -0.004351 0.003854 0.000000 0.005990 0.000000
# 2 -0.004351 0.013482 -0.006517 0.000000 0.001411 0.000000
# 3 0.003854 -0.006517 0.020342 0.000000 -0.005406 0.000000
# 4 0.000000 0.000000 0.000000 0.045681 0.000000 0.010979
# 5 0.005990 0.001411 -0.005406 0.000000 0.050300 0.000000
# 6 0.000000 0.000000 0.000000 0.010979 0.000000 0.105321
#
#
# Mechanical properties :
#
#
# Convention : Reuss Voigt Hill
#
# Bulk Modulus (GPa) = 20.37683 27.97062 24.17373
# Shear Modulus (GPa) = 16.96118 21.13050 19.04584
#
# Velocity S-wave (km/s) = 2.88640 3.22169 3.05865
# Velocity P-wave (km/s) = 4.59538 5.25150 4.93436
#
# Compressibility (1/GPa) = 0.04907534
#
# Stress axis : x y z
#
# Youngs Moduli (GPa) = 34.15433 74.17385 49.15963
#
# Poissons Ratio (x) = 0.32270 -0.18947
# Poissons Ratio (y) = 0.14859 0.32038
# Poissons Ratio (z) = -0.13163 0.48340
#
# Static dielectric constant tensor:
#      x y z
#    x 1.705960 0.000000 -0.004770 
#    y 0.000000 1.701670 0.000000 
#    z -0.004770 0.000000 1.756660 
# 
# From -- ./inp_files/306818.got.cif
#   From: 2010.05.17/outbox.cif.g08.bks.cpg/sg12_154_cif.got.tgz:306818.got - 2010.06.03 13:09:07.
