data_PCOD9206713
_publ_section_title
;
Structure prediction by ZEFSAII (Michael W. Deem and Ramdas Pophale) SiO2 
 PCOD9206713
Probable space group: C 2/M
;
_chemical_formula_sum "Si O2"
_cell_formula_units_Z 50
_cell_length_a 14.354153
_cell_length_b 10.248656
_cell_length_c 16.372431
_cell_angle_alpha 90.000000
_cell_angle_beta 113.831375
_cell_angle_gamma 90.000000
_cell_volume 2203.203629
_symmetry_space_group_name_H-M "C 2/M"
_symmetry_group_IT_number 12
_symmetry_cell_setting 'monoclinic'
loop_
_space_group_symop_operation_xyz
x,y,z
-x,y,-z
-x,-y,-z
x,-y,z
1/2+x,1/2+y,z
1/2-x,1/2+y,-z
1/2-x,1/2-y,-z
1/2+x,1/2-y,z
loop_
_atom_site_type_symbol
_atom_site_label
_atom_site_fract_x
_atom_site_fract_y
_atom_site_fract_z
Si Si1 0.368147 0.749338 0.015910
Si Si2 0.500000 0.500000 0.000000
Si Si3 0.305730 0.140317 0.829920
Si Si4 0.622035 0.352927 0.539959
Si Si5 0.498249 0.854837 0.212382
Si Si6 0.416215 0.355846 0.653905
Si Si7 0.721056 0.851353 0.697597
O O1 0.429232 0.801476 0.115260
O O2 0.250000 0.750000 0.000000
O O3 0.421097 0.614787 0.006555
O O4 0.367012 0.839525 0.935127
O O5 0.388963 0.135495 0.787445
O O6 0.237993 0.267539 0.786085
O O7 0.250839 0.000000 0.812985
O O8 0.500000 0.356014 0.500000
O O9 0.661094 0.500000 0.573190
O O10 0.640808 0.325434 0.450895
O O11 0.661123 0.242765 0.614412
O O12 0.506554 0.755325 0.290642
O O13 0.467516 0.000000 0.225343
O O14 0.464096 0.500000 0.661420
O O15 0.332045 0.365561 0.694612
O O16 0.683270 0.000000 0.692807
#
# Coordination Sequence:
#
# PCOD9206713 Si02
#       7
#     8   2   8   8   8   8   8
#     4  12  27  43  70 103 140 193 240 289 369 432
#     4  12  28  48  74 106 156 188 242 332 352 438
#     4  10  21  41  64  89 129 177 222 283 347 415
#     4  10  21  38  57  82 119 161 205 264 334 408
#     4  10  21  40  63  91 129 173 222 286 346 409
#     4   9  20  37  61  88 118 161 214 264 334 416
#     4  10  21  36  61  90 119 159 213 270 339 412
#
# _framework density 22.694223999999998
#
# number of rings (size 3 to 8) (size 9 to 14) (size 15 to 20)
#    0.000    1.760    1.600    1.440    4.480    4.160 
#    0.000    3.200    0.000    0.000    0.000    0.000 
#    0.000    0.000    0.000    0.000    0.000    0.000 
#
# Total GULP energy -139340.500831 kJ/mol
# GULP energy per Si atom -5573.620033 kJ/mol
# Density = 2.264257 g / cm^3
# Si number density = 22.694224 Si / 1000 Ang^3
#
#
#
# Elastic Constant Matrix: (Units=GPa)
#
#
# Indices 1 2 3 4 5 6 
#
# 1 66.6771 34.4803 -3.7219 0.0000 -5.9616 0.0000
# 2 34.4803 252.1559 113.7643 0.0000 25.2944 0.0000
# 3 -3.7219 113.7643 109.9756 0.0000 9.8057 0.0000
# 4 0.0000 0.0000 0.0000 1.0579 0.0000 -2.2009
# 5 -5.9616 25.2944 9.8057 0.0000 33.8048 0.0000
# 6 0.0000 0.0000 0.0000 -2.2009 0.0000 -13.4694
#
#
#
# Elastic Compliance Matrix: (Units=1/GPa)
#
#
# Indices 1 2 3 4 5 6 
#
# 1 0.019064 -0.006118 0.006433 0.000000 0.006074 0.000000
# 2 -0.006118 0.009807 -0.009856 0.000000 -0.005558 0.000000
# 3 0.006433 -0.009856 0.019245 0.000000 0.002927 0.000000
# 4 0.000000 0.000000 0.000000 0.705443 0.000000 -0.115269
# 5 0.006074 -0.005558 0.002927 0.000000 0.033962 0.000000
# 6 0.000000 0.000000 0.000000 -0.115269 0.000000 -0.055408
#
#
# Mechanical properties :
#
#
# Convention : Reuss Voigt Hill
#
# Bulk Modulus (GPa) = 34.44436 79.76155 57.10296
# Shear Modulus (GPa) = 6.57139 23.23107 14.90123
#
# Velocity S-wave (km/s) = 1.70350 3.20293 2.56522
# Velocity P-wave (km/s) = 4.36804 6.99292 5.83012
#
# Compressibility (1/GPa) = 0.02903233
#
# Stress axis : x y z
#
# Youngs Moduli (GPa) = 52.45564 101.97158 51.96099
#
# Poissons Ratio (x) = 0.62390 -0.33425
# Poissons Ratio (y) = 0.32094 0.51213
# Poissons Ratio (z) = -0.33743 1.00503
#
# Static dielectric constant tensor:
#      x y z
#    x 1.889690 0.000000 -0.046040 
#    y 0.000000 1.902290 0.000000 
#    z -0.046040 0.000000 1.846540 
# 
# From -- ./inp_files/274516.got.cif
#   From: 2010.05.17/outbox.cif.g08.bks.cpg/sg12_138_cif.got.tgz:274516.got - 2010.06.03 13:09:07.
