data_PCOD9206775
_publ_section_title
;
Structure prediction by ZEFSAII (Michael W. Deem and Ramdas Pophale) SiO2 
 PCOD9206775
Probable space group: C 2/M
;
_chemical_formula_sum "Si O2"
_cell_formula_units_Z 56
_cell_length_a 21.257901
_cell_length_b 16.606548
_cell_length_c 18.341672
_cell_angle_alpha 90.000000
_cell_angle_beta 24.145488
_cell_angle_gamma 90.000000
_cell_volume 2648.624677
_symmetry_space_group_name_H-M "C 2/M"
_symmetry_group_IT_number 12
_symmetry_cell_setting 'monoclinic'
loop_
_space_group_symop_operation_xyz
x,y,z
-x,y,-z
-x,-y,-z
x,-y,z
1/2+x,1/2+y,z
1/2-x,1/2+y,-z
1/2-x,1/2-y,-z
1/2+x,1/2-y,z
loop_
_atom_site_type_symbol
_atom_site_label
_atom_site_fract_x
_atom_site_fract_y
_atom_site_fract_z
Si Si1 0.628182 0.787574 0.683252
Si Si2 0.851670 0.671303 0.871765
Si Si3 0.140186 0.823089 0.805151
Si Si4 0.465316 0.904832 0.450794
Si Si5 0.171065 0.343770 0.848472
Si Si6 0.655063 0.407498 0.460791
Si Si7 0.810886 0.092877 0.840476
O O1 0.750000 0.750000 0.500000
O O2 0.498237 0.820535 0.768648
O O3 0.580573 0.721428 0.794518
O O4 0.717134 0.857545 0.631848
O O5 0.919253 0.649011 0.721033
O O6 0.750000 0.750000 0.000000
O O7 0.748922 0.600361 0.014207
O O8 0.287749 0.876330 0.629369
O O9 0.195374 0.748199 0.797660
O O10 0.000000 0.861313 0.000000
O O11 0.500000 0.895520 0.500000
O O12 0.480845 0.000000 0.415575
O O13 0.295682 0.397663 0.674878
O O14 0.201010 0.359276 0.901138
O O15 0.000000 0.365203 0.000000
O O16 0.656239 0.500000 0.482251
O O17 0.484205 0.374001 0.652841
O O18 0.812548 0.000000 0.815980
#
# Coordination Sequence:
#
# PCOD9206775 Si02
#       7
#     8   8   8   8   8   8   8
#     4  11  22  42  63  98 127 164 223 280 338 403
#     4  12  26  43  72  99 130 175 223 281 345 402
#     4  10  22  41  69  97 132 171 225 276 329 397
#     4  11  27  48  69  98 137 181 229 280 335 403
#     4  10  21  36  62  97 134 176 221 268 323 399
#     4  10  22  38  59  90 133 176 213 263 330 405
#     4  11  23  39  61  97 137 174 217 272 339 404
#
# _framework density 21.143048
#
# number of rings (size 3 to 8) (size 9 to 14) (size 15 to 20)
#    0.000    1.286    1.429    4.714    6.000    4.857 
#    0.000    0.000    0.000    0.000    0.000    0.000 
#    0.000    0.000    0.000    0.000    0.000    0.000 
#
# Total GULP energy -156322.629869 kJ/mol
# GULP energy per Si atom -5582.951067 kJ/mol
# Density = 2.109493 g / cm^3
# Si number density = 21.143048 Si / 1000 Ang^3
#
#
#
# Elastic Constant Matrix: (Units=GPa)
#
#
# Indices 1 2 3 4 5 6 
#
# 1 76.0461 22.5906 34.5399 -0.0056 16.9392 0.0018
# 2 22.5906 59.6287 28.3968 -0.0084 6.0386 0.0033
# 3 34.5399 28.3968 148.0630 -0.0113 21.4107 0.0056
# 4 -0.0056 -0.0084 -0.0113 22.9657 0.0060 4.5970
# 5 16.9392 6.0386 21.4107 0.0060 42.5692 -0.0022
# 6 0.0018 0.0033 0.0056 4.5970 -0.0022 23.1479
#
#
#
# Elastic Compliance Matrix: (Units=1/GPa)
#
#
# Indices 1 2 3 4 5 6 
#
# 1 0.016667 -0.004740 -0.002283 0.000003 -0.004811 -0.000001
# 2 -0.004740 0.019836 -0.002766 0.000005 0.000463 -0.000003
# 3 -0.002283 -0.002766 0.008227 0.000004 -0.002837 -0.000002
# 4 0.000003 0.000005 0.000004 0.045346 -0.000011 -0.009005
# 5 -0.004811 0.000463 -0.002837 -0.000011 0.026767 0.000006
# 6 -0.000001 -0.000003 -0.000002 -0.009005 0.000006 0.044989
#
#
# Mechanical properties :
#
#
# Convention : Reuss Voigt Hill
#
# Bulk Modulus (GPa) = 39.75672 50.53249 45.14461
# Shear Modulus (GPa) = 26.34447 30.95060 28.64753
#
# Velocity S-wave (km/s) = 3.53372 3.83020 3.68494
# Velocity P-wave (km/s) = 5.95769 6.59642 6.28517
#
# Compressibility (1/GPa) = 0.02515298
#
# Stress axis : x y z
#
# Youngs Moduli (GPa) = 60.00005 50.41265 121.54810
#
# Poissons Ratio (x) = 0.23894 0.27752
# Poissons Ratio (y) = 0.28438 0.33617
# Poissons Ratio (z) = 0.13699 0.13943
#
# Static dielectric constant tensor:
#      x y z
#    x 1.793440 0.000000 0.030600 
#    y 0.000000 1.771920 0.000000 
#    z 0.030600 0.000000 1.835640 
# 
# From -- ./inp_files/325982.got.cif
#   From: 2010.05.17/outbox.cif.g08.bks.cpg/sg12_163_cif.got.tgz:325982.got - 2010.06.03 13:09:07.
