data_PCOD9206335
_publ_section_title
;
Structure prediction by ZEFSAII (Michael W. Deem and Ramdas Pophale) SiO2 
 PCOD9206335
Probable space group: C 2/M
;
_chemical_formula_sum "Si O2"
_cell_formula_units_Z 64
_cell_length_a 14.606280
_cell_length_b 8.623794
_cell_length_c 33.609969
_cell_angle_alpha 90.000000
_cell_angle_beta 131.495771
_cell_angle_gamma 90.000000
_cell_volume 3170.958862
_symmetry_space_group_name_H-M "C 2/M"
_symmetry_group_IT_number 12
_symmetry_cell_setting 'monoclinic'
loop_
_space_group_symop_operation_xyz
x,y,z
-x,y,-z
-x,-y,-z
x,-y,z
1/2+x,1/2+y,z
1/2-x,1/2+y,-z
1/2-x,1/2-y,-z
1/2+x,1/2-y,z
loop_
_atom_site_type_symbol
_atom_site_label
_atom_site_fract_x
_atom_site_fract_y
_atom_site_fract_z
Si Si1 0.625530 0.184542 0.917670
Si Si2 0.091009 0.185040 0.288066
Si Si3 0.367182 0.816181 0.271875
Si Si4 0.002474 0.180016 0.618585
Si Si5 0.251004 0.681091 0.456100
Si Si6 0.347803 0.816321 0.406436
Si Si7 0.097072 0.815397 0.195790
Si Si8 0.886939 0.687018 0.994200
O O1 0.513209 0.231770 0.857763
O O2 0.754672 0.256287 0.941619
O O3 0.638297 0.000000 0.921800
O O4 0.601416 0.237496 0.956332
O O5 0.217562 0.219395 0.347509
O O6 0.100927 0.217917 0.244101
O O7 0.976344 0.274123 0.273646
O O8 0.070487 0.000000 0.287287
O O9 0.393943 0.721466 0.319792
O O10 0.231630 0.776025 0.217766
O O11 0.367212 0.000000 0.281202
O O12 0.050560 0.223791 0.588871
O O13 0.888080 0.286137 0.597353
O O14 0.967457 0.000000 0.610970
O O15 0.278790 0.500000 0.464730
O O16 0.250000 0.750000 0.500000
O O17 0.335895 0.767496 0.448786
O O18 0.370201 0.000000 0.409227
O O19 0.079120 0.000000 0.186194
O O20 0.887504 0.500000 0.993685
O O21 0.000000 0.742209 0.000000
#
# Coordination Sequence:
#
# PCOD9206335 Si02
#       8
#     8   8   8   8   8   8   8   8
#     4  10  21  36  57  88 119 150 197 252 297 349
#     4  10  21  38  60  86 118 158 202 244 298 364
#     4  11  22  38  60  88 120 159 205 250 300 359
#     4  12  24  40  64  93 124 162 204 249 301 364
#     4  12  26  45  67  94 125 160 202 254 311 368
#     4  11  22  41  66  93 123 158 203 252 304 364
#     4  10  22  40  58  82 123 165 198 242 300 360
#     4   9  19  38  62  84 113 157 200 240 298 363
#
# _framework density 20.18317
#
# number of rings (size 3 to 8) (size 9 to 14) (size 15 to 20)
#    0.000    1.375    2.500    3.375    0.000    4.250 
#    0.000    6.250    0.000    0.000    0.000    0.000 
#    0.000    0.000    0.000    0.000    0.000    0.000 
#
# Total GULP energy -178908.601323 kJ/mol
# GULP energy per Si atom -5590.893791 kJ/mol
# Density = 2.013723 g / cm^3
# Si number density = 20.183170 Si / 1000 Ang^3
#
#
#
# Elastic Constant Matrix: (Units=GPa)
#
#
# Indices 1 2 3 4 5 6 
#
# 1 78.3028 8.6255 -10.4636 0.0000 0.5933 0.0000
# 2 8.6255 34.7618 6.0076 0.0000 -1.5467 0.0000
# 3 -10.4636 6.0076 46.0060 0.0000 7.4231 0.0000
# 4 0.0000 0.0000 0.0000 29.7283 0.0000 -0.5716
# 5 0.5933 -1.5467 7.4231 0.0000 19.5206 0.0000
# 6 0.0000 0.0000 0.0000 -0.5716 0.0000 30.3754
#
#
#
# Elastic Compliance Matrix: (Units=1/GPa)
#
#
# Indices 1 2 3 4 5 6 
#
# 1 0.013797 -0.004227 0.004061 0.000000 -0.002298 0.000000
# 2 -0.004227 0.031029 -0.005786 0.000000 0.004787 0.000000
# 3 0.004061 -0.005786 0.025046 0.000000 -0.010106 0.000000
# 4 0.000000 0.000000 0.000000 0.033650 0.000000 0.000633
# 5 -0.002298 0.004787 -0.010106 0.000000 0.055520 0.000000
# 6 0.000000 0.000000 0.000000 0.000633 0.000000 0.032933
#
#
# Mechanical properties :
#
#
# Convention : Reuss Voigt Hill
#
# Bulk Modulus (GPa) = 17.25119 18.60105 17.92612
# Shear Modulus (GPa) = 22.40120 26.25162 24.32641
#
# Velocity S-wave (km/s) = 3.33512 3.61039 3.47548
# Velocity P-wave (km/s) = 4.83700 5.15907 5.00063
#
# Compressibility (1/GPa) = 0.05796701
#
# Stress axis : x y z
#
# Youngs Moduli (GPa) = 72.48129 32.22783 39.92651
#
# Poissons Ratio (x) = 0.13624 -0.16213
# Poissons Ratio (y) = 0.30641 0.23100
# Poissons Ratio (z) = -0.29433 0.18646
#
# Static dielectric constant tensor:
#      x y z
#    x 1.719160 0.000000 0.005220 
#    y 0.000000 1.679440 0.000000 
#    z 0.005220 0.000000 1.734990 
# 
# From -- ./inp_files/375691.got.cif
#   From: 2010.05.17/outbox.cif.g08.bks.cpg/sg12_188_cif.got.tgz:375691.got - 2010.06.03 13:09:07.
