data_PCOD9206878
_publ_section_title
;
Structure prediction by ZEFSAII (Michael W. Deem and Ramdas Pophale) SiO2 
 PCOD9206878
Probable space group: C 2/M
;
_chemical_formula_sum "Si O2"
_cell_formula_units_Z 42
_cell_length_a 26.802423
_cell_length_b 14.682940
_cell_length_c 6.892558
_cell_angle_alpha 90.000000
_cell_angle_beta 47.351158
_cell_angle_gamma 90.000000
_cell_volume 1995.087223
_symmetry_space_group_name_H-M "C 2/M"
_symmetry_group_IT_number 12
_symmetry_cell_setting 'monoclinic'
loop_
_space_group_symop_operation_xyz
x,y,z
-x,y,-z
-x,-y,-z
x,-y,z
1/2+x,1/2+y,z
1/2-x,1/2+y,-z
1/2-x,1/2-y,-z
1/2+x,1/2-y,z
loop_
_atom_site_type_symbol
_atom_site_label
_atom_site_fract_x
_atom_site_fract_y
_atom_site_fract_z
Si Si1 0.517509 0.323848 0.224035
Si Si2 0.263459 0.395992 0.732081
Si Si3 0.500000 0.500000 0.000000
Si Si4 0.124484 0.754317 0.490455
Si Si5 0.660739 0.255623 0.937680
Si Si6 0.726311 0.896301 0.290380
O O1 0.500000 0.336718 0.500000
O O2 0.455348 0.266860 0.297546
O O3 0.589601 0.272696 0.021327
O O4 0.517792 0.419702 0.114184
O O5 0.269875 0.500000 0.651104
O O6 0.333830 0.340644 0.536036
O O7 0.204192 0.335971 0.789949
O O8 0.244450 0.398060 0.011874
O O9 0.143605 0.753188 0.211707
O O10 0.158775 0.664241 0.486219
O O11 0.711464 0.340998 0.778857
O O12 0.719198 0.000000 0.372436
#
# Coordination Sequence:
#
# PCOD9206878 Si02
#       6
#     8   8   2   8   8   8
#     4  10  21  37  54  76 107 138 174 216 259 313
#     4   8  13  23  43  73 104 135 175 216 256 305
#     4  12  26  36  52  82 106 140 174 210 272 318
#     4   8  15  27  45  72 104 136 172 216 259 303
#     4   8  15  27  45  72 104 136 172 216 259 303
#     4   8  13  23  43  73 104 135 175 216 256 305
#
# _framework density 21.051711000000001
#
# number of rings (size 3 to 8) (size 9 to 14) (size 15 to 20)
#    0.000    3.429    0.000    2.571    2.667    0.000 
#    0.000    0.952    0.000   10.286    0.000    1.333 
#    0.000    0.000    0.000    0.000    0.000    0.381 
#
# Total GULP energy -117055.809112 kJ/mol
# GULP energy per Si atom -5574.086148 kJ/mol
# Density = 2.100380 g / cm^3
# Si number density = 21.051711 Si / 1000 Ang^3
#
#
#
# Elastic Constant Matrix: (Units=GPa)
#
#
# Indices 1 2 3 4 5 6 
#
# 1 159.4271 67.9949 61.4573 0.0000 -31.9392 0.0000
# 2 67.9949 190.5969 55.9227 0.0000 -48.7182 0.0000
# 3 61.4573 55.9227 100.7162 0.0000 -25.1313 0.0000
# 4 0.0000 0.0000 0.0000 0.0939 0.0000 3.4279
# 5 -31.9392 -48.7182 -25.1313 0.0000 59.7210 0.0000
# 6 0.0000 0.0000 0.0000 3.4279 0.0000 11.1738
#
#
#
# Elastic Compliance Matrix: (Units=1/GPa)
#
#
# Indices 1 2 3 4 5 6 
#
# 1 0.008859 -0.001493 -0.004133 0.000000 0.001781 0.000000
# 2 -0.001493 0.007554 -0.002173 0.000000 0.004450 0.000000
# 3 -0.004133 -0.002173 0.014149 0.000000 0.001971 0.000000
# 4 0.000000 0.000000 0.000000 -1.044141 0.000000 0.320324
# 5 0.001781 0.004450 0.001971 0.000000 0.022156 0.000000
# 6 0.000000 0.000000 0.000000 0.320324 0.000000 -0.008775
#
#
# Mechanical properties :
#
#
# Convention : Reuss Voigt Hill
#
# Bulk Modulus (GPa) = 66.82137 91.27667 79.04902
# Shear Modulus (GPa) = -5.10407 31.88876 13.39235
#
# Velocity S-wave (km/s) = -1.55878 3.89624 2.52497
# Velocity P-wave (km/s) = 5.34516 7.98081 6.79206
#
# Compressibility (1/GPa) = 0.01496527
#
# Stress axis : x y z
#
# Youngs Moduli (GPa) = 112.88064 132.37668 70.67557
#
# Poissons Ratio (x) = 0.19758 0.29207
# Poissons Ratio (y) = 0.16848 0.15361
# Poissons Ratio (z) = 0.46648 0.28771
#
# Static dielectric constant tensor:
#      x y z
#    x 1.795420 0.000000 0.061320 
#    y 0.000000 1.695950 0.000000 
#    z 0.061320 0.000000 1.783090 
# 
# From -- ./inp_files/85259.got.cif
#   From: 2010.05.17/outbox.cif.g08.bks.cpg/sg12_43_cif.got.tgz:85259.got - 2010.06.03 13:09:07.
