data_PCOD9206697
_publ_section_title
;
Structure prediction by ZEFSAII (Michael W. Deem and Ramdas Pophale) SiO2 
 PCOD9206697
Probable space group: C 2/M
;
_chemical_formula_sum "Si O2"
_cell_formula_units_Z 56
_cell_length_a 18.066367
_cell_length_b 16.588886
_cell_length_c 20.462558
_cell_angle_alpha 90.000000
_cell_angle_beta 150.465549
_cell_angle_gamma 90.000000
_cell_volume 3023.068774
_symmetry_space_group_name_H-M "C 2/M"
_symmetry_group_IT_number 12
_symmetry_cell_setting 'monoclinic'
loop_
_space_group_symop_operation_xyz
x,y,z
-x,y,-z
-x,-y,-z
x,-y,z
1/2+x,1/2+y,z
1/2-x,1/2+y,-z
1/2-x,1/2-y,-z
1/2+x,1/2-y,z
loop_
_atom_site_type_symbol
_atom_site_label
_atom_site_fract_x
_atom_site_fract_y
_atom_site_fract_z
Si Si1 0.824357 0.712843 0.156525
Si Si2 0.949448 0.866513 0.394976
Si Si3 0.755632 0.500000 0.803988
Si Si4 0.754921 0.225581 0.698740
Si Si5 0.991310 0.500000 0.101607
Si Si6 0.869038 0.249173 0.533543
Si Si7 0.565913 0.818381 0.906156
Si Si8 0.680036 0.407003 0.142924
O O1 0.884593 0.701054 0.129575
O O2 0.743271 0.635983 0.126429
O O3 0.970600 0.726999 0.313264
O O4 0.700149 0.784498 0.055847
O O5 0.846068 0.921580 0.272016
O O6 0.854924 0.789298 0.349096
O O7 0.000000 0.909468 0.500000
O O8 0.096239 0.839184 0.468669
O O9 0.843807 0.500000 0.803170
O O10 0.875316 0.500000 0.952618
O O11 0.687373 0.205104 0.575088
O O12 0.773740 0.148796 0.760066
O O13 0.914374 0.270385 0.809423
O O14 0.963525 0.414048 0.113847
O O15 0.750000 0.250000 0.500000
O O16 0.729464 0.500000 0.186855
O O17 0.500000 0.405881 0.000000
#
# Coordination Sequence:
#
# PCOD9206697 Si02
#       8
#     8   8   4   8   4   8   8   8
#     4  11  23  41  66  90 124 167 212 253 318 372
#     4  10  21  36  61  87 120 161 199 245 302 366
#     4  11  21  36  56  92 123 157 200 249 307 368
#     4  11  21  40  66  92 123 157 209 258 308 374
#     4  11  24  34  60  94 129 153 199 262 309 367
#     4  11  22  39  64  90 122 165 208 250 307 375
#     4  11  23  40  63  96 124 166 207 259 311 379
#     4  11  24  41  67  96 123 162 211 267 315 370
#
# _framework density 18.524224
#
# number of rings (size 3 to 8) (size 9 to 14) (size 15 to 20)
#    0.000    1.143    5.714    1.071    1.000    0.000 
#    0.000    1.429    3.143    0.000    0.000    0.000 
#    0.000    0.000    0.000    0.000    0.000    0.000 
#
# Total GULP energy -156154.179909 kJ/mol
# GULP energy per Si atom -5576.934997 kJ/mol
# Density = 1.848206 g / cm^3
# Si number density = 18.524224 Si / 1000 Ang^3
#
#
#
# Elastic Constant Matrix: (Units=GPa)
#
#
# Indices 1 2 3 4 5 6 
#
# 1 106.6065 32.5481 23.9988 0.0005 7.4268 0.0002
# 2 32.5481 100.1118 24.6849 -0.0002 -5.5766 0.0000
# 3 23.9988 24.6849 92.5889 -0.0002 -3.0641 0.0003
# 4 0.0005 -0.0002 -0.0002 56.6604 0.0004 3.0681
# 5 7.4268 -5.5766 -3.0641 0.0004 31.2495 0.0004
# 6 0.0002 0.0000 0.0003 3.0681 0.0004 14.9891
#
#
#
# Elastic Compliance Matrix: (Units=1/GPa)
#
#
# Indices 1 2 3 4 5 6 
#
# 1 0.011096 -0.003277 -0.002116 0.000000 -0.003429 0.000000
# 2 -0.003277 0.011743 -0.002193 0.000000 0.002659 0.000000
# 3 -0.002116 -0.002193 0.011976 0.000000 0.001286 0.000000
# 4 0.000000 0.000000 0.000000 0.017847 0.000000 -0.003653
# 5 -0.003429 0.002659 0.001286 0.000000 0.033416 -0.000001
# 6 0.000000 0.000000 0.000000 -0.003653 -0.000001 0.067463
#
#
# Mechanical properties :
#
#
# Convention : Reuss Voigt Hill
#
# Bulk Modulus (GPa) = 50.90878 51.30788 51.10833
# Shear Modulus (GPa) = 28.52882 35.11815 31.82348
#
# Velocity S-wave (km/s) = 3.92864 4.35880 4.14930
# Velocity P-wave (km/s) = 6.93693 7.28629 7.11375
#
# Compressibility (1/GPa) = 0.01964298
#
# Stress axis : x y z
#
# Youngs Moduli (GPa) = 90.12289 85.15597 83.49879
#
# Poissons Ratio (x) = 0.27904 0.17668
# Poissons Ratio (y) = 0.29531 0.18315
# Poissons Ratio (z) = 0.19069 0.18679
#
# Static dielectric constant tensor:
#      x y z
#    x 1.636210 0.000000 -0.010900 
#    y 0.000000 1.642280 0.000000 
#    z -0.010900 0.000000 1.688610 
# 
# From -- ./inp_files/316809.got.cif
#   From: 2010.05.17/outbox.cif.g08.bks.cpg/sg12_159_cif.got.tgz:316809.got - 2010.06.03 13:09:07.
