data_PCOD9206241
_publ_section_title
;
Structure prediction by ZEFSAII (Michael W. Deem and Ramdas Pophale) SiO2 
 PCOD9206241
Probable space group: C 2/M
;
_chemical_formula_sum "Si O2"
_cell_formula_units_Z 56
_cell_length_a 19.348415
_cell_length_b 8.971208
_cell_length_c 26.356594
_cell_angle_alpha 90.000000
_cell_angle_beta 40.035460
_cell_angle_gamma 90.000000
_cell_volume 2942.884545
_symmetry_space_group_name_H-M "C 2/M"
_symmetry_group_IT_number 12
_symmetry_cell_setting 'monoclinic'
loop_
_space_group_symop_operation_xyz
x,y,z
-x,y,-z
-x,-y,-z
x,-y,z
1/2+x,1/2+y,z
1/2-x,1/2+y,-z
1/2-x,1/2-y,-z
1/2+x,1/2-y,z
loop_
_atom_site_type_symbol
_atom_site_label
_atom_site_fract_x
_atom_site_fract_y
_atom_site_fract_z
Si Si1 0.827880 0.173727 0.825782
Si Si2 0.425318 0.174615 0.493352
Si Si3 0.167532 0.320484 0.774165
Si Si4 0.885063 0.178188 0.088639
Si Si5 0.964891 0.679568 0.251874
Si Si6 0.222227 0.677633 0.569525
Si Si7 0.096204 0.826661 0.333541
O O1 0.713404 0.254988 0.888449
O O2 0.873150 0.184557 0.742662
O O3 0.918598 0.247793 0.809401
O O4 0.814037 0.000000 0.845542
O O5 0.500000 0.202052 0.500000
O O6 0.318297 0.271788 0.552505
O O7 0.498552 0.223315 0.404668
O O8 0.398293 0.000000 0.506023
O O9 0.163210 0.500000 0.783145
O O10 0.124962 0.244650 0.849207
O O11 0.098791 0.279847 0.763596
O O12 0.294190 0.283472 0.698673
O O13 0.874326 0.000000 0.096882
O O14 0.000000 0.216066 0.000000
O O15 0.974516 0.500000 0.247789
O O16 0.889454 0.725233 0.341778
O O17 0.221154 0.500000 0.564883
O O18 0.250000 0.750000 0.500000
O O19 0.069830 0.000000 0.359627
#
# Coordination Sequence:
#
# PCOD9206241 Si02
#       7
#     8   8   8   8   8   8   8
#     4  10  21  36  57  83 109 141 179 218 263 319
#     4  11  23  35  49  74 106 140 182 231 278 323
#     4   9  19  36  58  83 110 143 182 224 272 323
#     4  10  21  38  61  88 115 142 175 216 263 319
#     4  10  21  37  56  80 111 145 183 228 275 323
#     4  11  23  38  56  77 106 146 188 232 281 327
#     4   9  18  34  54  75 101 138 185 229 271 323
#
# _framework density 19.028948
#
# number of rings (size 3 to 8) (size 9 to 14) (size 15 to 20)
#    0.000    2.000    0.000    4.286    0.000   10.286 
#    0.000    0.714    0.000    0.000    0.000    0.000 
#    0.000    0.000    0.000    0.000    0.000    0.000 
#
# Total GULP energy -156429.147181 kJ/mol
# GULP energy per Si atom -5586.755256 kJ/mol
# Density = 1.898564 g / cm^3
# Si number density = 19.028948 Si / 1000 Ang^3
#
#
#
# Elastic Constant Matrix: (Units=GPa)
#
#
# Indices 1 2 3 4 5 6 
#
# 1 100.1496 25.1596 23.8420 0.0000 -22.3876 -0.0001
# 2 25.1596 29.9844 25.7749 0.0000 -11.2305 -0.0002
# 3 23.8420 25.7749 79.2594 0.0000 -21.7345 0.0000
# 4 0.0000 0.0000 0.0000 23.9714 0.0000 -1.8320
# 5 -22.3876 -11.2305 -21.7345 0.0000 27.4182 0.0000
# 6 -0.0001 -0.0002 0.0000 -1.8320 0.0000 33.6679
#
#
#
# Elastic Compliance Matrix: (Units=1/GPa)
#
#
# Indices 1 2 3 4 5 6 
#
# 1 0.014007 -0.009653 0.001249 0.000000 0.008473 0.000000
# 2 -0.009653 0.054741 -0.013941 0.000000 0.003489 0.000000
# 3 0.001249 -0.013941 0.019790 0.000000 0.010998 0.000000
# 4 0.000000 0.000000 0.000000 0.041891 0.000000 0.002279
# 5 0.008473 0.003489 0.010998 0.000000 0.053538 0.000000
# 6 0.000000 0.000000 0.000000 0.002279 0.000000 0.029826
#
#
# Mechanical properties :
#
#
# Convention : Reuss Voigt Hill
#
# Bulk Modulus (GPa) = 22.80596 39.88292 31.34444
# Shear Modulus (GPa) = 18.30835 25.98596 22.14715
#
# Velocity S-wave (km/s) = 3.10519 3.69941 3.41525
# Velocity P-wave (km/s) = 4.98670 6.26515 5.66212
#
# Compressibility (1/GPa) = 0.04384819
#
# Stress axis : x y z
#
# Youngs Moduli (GPa) = 71.39344 18.26771 50.52947
#
# Poissons Ratio (x) = 0.17635 -0.06313
# Poissons Ratio (y) = 0.68919 0.70445
# Poissons Ratio (z) = -0.08920 0.25468
#
# Static dielectric constant tensor:
#      x y z
#    x 1.689360 0.000000 -0.000090 
#    y 0.000000 1.637080 0.000000 
#    z -0.000090 0.000000 1.642790 
# 
# From -- ./inp_files/362976.got.cif
#   From: 2010.05.17/outbox.cif.g08.bks.cpg/sg12_182_cif.got.tgz:362976.got - 2010.06.03 13:09:07.
