data_PCOD9206470
_publ_section_title
;
Structure prediction by ZEFSAII (Michael W. Deem and Ramdas Pophale) SiO2 
 PCOD9206470
Probable space group: C 2/M
;
_chemical_formula_sum "Si O2"
_cell_formula_units_Z 48
_cell_length_a 21.839668
_cell_length_b 17.219087
_cell_length_c 18.188343
_cell_angle_alpha 90.000000
_cell_angle_beta 161.899149
_cell_angle_gamma 90.000000
_cell_volume 2125.090003
_symmetry_space_group_name_H-M "C 2/M"
_symmetry_group_IT_number 12
_symmetry_cell_setting 'monoclinic'
loop_
_space_group_symop_operation_xyz
x,y,z
-x,y,-z
-x,-y,-z
x,-y,z
1/2+x,1/2+y,z
1/2-x,1/2+y,-z
1/2-x,1/2-y,-z
1/2+x,1/2-y,z
loop_
_atom_site_type_symbol
_atom_site_label
_atom_site_fract_x
_atom_site_fract_y
_atom_site_fract_z
Si Si1 0.989550 0.412442 0.567602
Si Si2 0.924724 0.591779 0.028921
Si Si3 0.868907 0.831933 0.782296
Si Si4 0.062258 0.085929 0.870667
Si Si5 0.761598 0.161510 0.332010
Si Si6 0.320446 0.677518 0.132207
O O1 0.909069 0.500000 0.465936
O O2 0.000000 0.372824 0.500000
O O3 0.846463 0.368466 0.458090
O O4 0.210297 0.417262 0.845946
O O5 0.885261 0.500000 0.993848
O O6 0.798636 0.625305 0.815495
O O7 0.856220 0.640717 0.021940
O O8 0.153590 0.604097 0.267293
O O9 0.848484 0.741450 0.773265
O O10 0.960395 0.854173 0.809245
O O11 0.000000 0.864698 0.000000
O O12 0.081565 0.115445 0.810789
O O13 0.974436 0.000000 0.778401
O O14 0.990674 0.186757 0.598448
O O15 0.250000 0.750000 0.000000
#
# Coordination Sequence:
#
# PCOD9206470 Si02
#       6
#     8   8   8   8   8   8
#     4  10  21  36  58  89 127 174 224 272 319 384
#     4  11  25  48  76 105 135 178 236 297 350 406
#     4  12  22  38  67  94 130 171 220 271 333 391
#     4  11  25  42  61  96 136 176 223 270 334 408
#     4  11  25  45  71 104 134 173 234 291 343 408
#     4  12  27  45  69 101 142 184 224 280 350 418
#
# _framework density 22.587278999999999
#
# number of rings (size 3 to 8) (size 9 to 14) (size 15 to 20)
#    0.000    0.833    3.333    4.500    0.000    9.333 
#    0.000    0.000    0.000    0.000    0.000    0.000 
#    0.000    0.000    0.000    0.000    0.000    0.000 
#
# Total GULP energy -134017.746019 kJ/mol
# GULP energy per Si atom -5584.072751 kJ/mol
# Density = 2.253587 g / cm^3
# Si number density = 22.587279 Si / 1000 Ang^3
#
#
#
# Elastic Constant Matrix: (Units=GPa)
#
#
# Indices 1 2 3 4 5 6 
#
# 1 122.3034 38.8065 5.9868 -0.0035 19.6056 0.0050
# 2 38.8065 121.3415 17.0223 0.0034 6.8449 0.0202
# 3 5.9868 17.0223 61.1762 0.0028 9.8101 0.0241
# 4 -0.0035 0.0034 0.0028 12.2535 0.0003 6.2409
# 5 19.6056 6.8449 9.8101 0.0003 27.7952 0.0102
# 6 0.0050 0.0202 0.0241 6.2409 0.0102 37.5390
#
#
#
# Elastic Compliance Matrix: (Units=1/GPa)
#
#
# Indices 1 2 3 4 5 6 
#
# 1 0.010166 -0.003000 0.000923 0.000003 -0.006758 0.000001
# 2 -0.003000 0.009509 -0.002455 -0.000001 0.000641 -0.000003
# 3 0.000923 -0.002455 0.017963 0.000002 -0.006387 -0.000009
# 4 0.000003 -0.000001 0.000002 0.089159 0.000002 -0.014823
# 5 -0.006758 0.000641 -0.006387 0.000002 0.042841 -0.000007
# 6 0.000001 -0.000003 -0.000009 -0.014823 -0.000007 0.029103
#
#
# Mechanical properties :
#
#
# Convention : Reuss Voigt Hill
#
# Bulk Modulus (GPa) = 34.99453 47.60583 41.30018
# Shear Modulus (GPa) = 23.00664 31.71792 27.36228
#
# Velocity S-wave (km/s) = 3.19496 3.75138 3.48430
# Velocity P-wave (km/s) = 5.39787 6.31553 5.87465
#
# Compressibility (1/GPa) = 0.02857589
#
# Stress axis : x y z
#
# Youngs Moduli (GPa) = 98.36414 105.16591 55.66958
#
# Poissons Ratio (x) = 0.31546 -0.05141
# Poissons Ratio (y) = 0.29506 0.13667
# Poissons Ratio (z) = -0.09084 0.25818
#
# Static dielectric constant tensor:
#      x y z
#    x 1.893390 -0.000020 -0.017270 
#    y -0.000020 1.894620 -0.000040 
#    z -0.017270 -0.000040 1.873660 
# 
# From -- ./inp_files/285414.got.cif
#   From: 2010.05.17/outbox.cif.g08.bks.cpg/sg12_143_cif.got.tgz:285414.got - 2010.06.03 13:09:07.
