data_PCOD9206271
_publ_section_title
;
Structure prediction by ZEFSAII (Michael W. Deem and Ramdas Pophale) SiO2 
 PCOD9206271
Probable space group: C 2/M
;
_chemical_formula_sum "Si O2"
_cell_formula_units_Z 56
_cell_length_a 8.325441
_cell_length_b 13.388835
_cell_length_c 19.752991
_cell_angle_alpha 90.000000
_cell_angle_beta 100.839120
_cell_angle_gamma 90.000000
_cell_volume 2162.542942
_symmetry_space_group_name_H-M "C 2/M"
_symmetry_group_IT_number 12
_symmetry_cell_setting 'monoclinic'
loop_
_space_group_symop_operation_xyz
x,y,z
-x,y,-z
-x,-y,-z
x,-y,z
1/2+x,1/2+y,z
1/2-x,1/2+y,-z
1/2-x,1/2-y,-z
1/2+x,1/2-y,z
loop_
_atom_site_type_symbol
_atom_site_label
_atom_site_fract_x
_atom_site_fract_y
_atom_site_fract_z
Si Si1 0.563190 0.783910 0.581024
Si Si2 0.911046 0.117064 0.639766
Si Si3 0.789468 0.114839 0.776779
Si Si4 0.599482 0.150290 0.942889
Si Si5 0.666183 0.827920 0.171207
Si Si6 0.416504 0.886424 0.692332
Si Si7 0.877662 0.887018 0.059414
O O1 0.500000 0.782598 0.500000
O O2 0.735825 0.840184 0.600187
O O3 0.556123 0.673403 0.612757
O O4 0.432194 0.836356 0.620735
O O5 0.907202 0.132767 0.720830
O O6 0.915737 0.000000 0.628222
O O7 0.820275 0.206497 0.830204
O O8 0.605742 0.122010 0.733151
O O9 0.812956 0.000000 0.801343
O O10 0.507763 0.124753 0.866691
O O11 0.574122 0.269765 0.941335
O O12 0.500000 0.111781 0.000000
O O13 0.776510 0.114834 0.979282
O O14 0.687762 0.848432 0.252075
O O15 0.784606 0.876273 0.125066
O O16 0.372067 0.000000 0.679266
O O17 0.945574 0.000000 0.067608
#
# Coordination Sequence:
#
# PCOD9206271 Si02
#       7
#     8   8   8   8   8   8   8
#     4  11  22  41  67  95 131 174 220 277 329 387
#     4  10  22  42  66  94 130 173 220 273 333 395
#     4   9  19  36  57  80 113 156 196 243 306 369
#     4   9  21  37  55  80 108 147 185 232 291 356
#     4  11  19  35  58  82 114 144 191 245 298 360
#     4  10  21  36  57  84 116 158 202 247 308 376
#     4  10  21  37  55  80 112 144 185 238 293 351
#
# _framework density 25.895437999999999
#
# number of rings (size 3 to 8) (size 9 to 14) (size 15 to 20)
#    0.000    2.000    1.429    3.000    0.000    5.429 
#    0.000   10.000    0.000    0.000    0.000    0.000 
#    0.000    0.000    0.000    0.000    0.000    0.000 
#
# Total GULP energy -156272.103628 kJ/mol
# GULP energy per Si atom -5581.146558 kJ/mol
# Density = 2.583650 g / cm^3
# Si number density = 25.895438 Si / 1000 Ang^3
#
#
#
# Elastic Constant Matrix: (Units=GPa)
#
#
# Indices 1 2 3 4 5 6 
#
# 1 44.1521 25.1541 39.2329 0.0000 -13.4405 0.0000
# 2 25.1541 187.1334 64.4559 0.0000 -5.3808 0.0000
# 3 39.2329 64.4559 157.2812 0.0000 -34.2682 0.0000
# 4 0.0000 0.0000 0.0000 13.6575 0.0000 -7.4033
# 5 -13.4405 -5.3808 -34.2682 0.0000 29.4831 0.0000
# 6 0.0000 0.0000 0.0000 -7.4033 0.0000 25.6774
#
#
#
# Elastic Compliance Matrix: (Units=1/GPa)
#
#
# Indices 1 2 3 4 5 6 
#
# 1 0.030761 -0.002151 -0.005118 0.000000 0.007682 0.000000
# 2 -0.002151 0.006507 -0.002792 0.000000 -0.003038 0.000000
# 3 -0.005118 -0.002792 0.010927 0.000000 0.009857 0.000000
# 4 0.000000 0.000000 0.000000 0.086783 0.000000 0.025021
# 5 0.007682 -0.003038 0.009857 0.000000 0.048322 0.000000
# 6 0.000000 0.000000 0.000000 0.025021 0.000000 0.046159
#
#
# Mechanical properties :
#
#
# Convention : Reuss Voigt Hill
#
# Bulk Modulus (GPa) = 35.62228 71.80584 53.71406
# Shear Modulus (GPa) = 19.30960 31.07852 25.19406
#
# Velocity S-wave (km/s) = 2.73367 3.46808 3.12254
# Velocity P-wave (km/s) = 4.87340 6.62013 5.81275
#
# Compressibility (1/GPa) = 0.02807232
#
# Stress axis : x y z
#
# Youngs Moduli (GPa) = 32.50913 153.67333 91.51952
#
# Poissons Ratio (x) = 0.33057 0.46838
# Poissons Ratio (y) = 0.06993 0.25554
# Poissons Ratio (z) = 0.16637 0.42909
#
# Static dielectric constant tensor:
#      x y z
#    x 2.208550 0.000000 0.028840 
#    y 0.000000 2.026570 0.000000 
#    z 0.028840 0.000000 1.971310 
# 
# From -- ./inp_files/304303.got.cif
#   From: 2010.05.17/outbox.cif.g08.bks.cpg/sg12_153_cif.got.tgz:304303.got - 2010.06.03 13:09:07.
