data_PCOD9206151
_publ_section_title
;
Structure prediction by ZEFSAII (Michael W. Deem and Ramdas Pophale) SiO2 
 PCOD9206151
Probable space group: C 2/M
;
_chemical_formula_sum "Si O2"
_cell_formula_units_Z 52
_cell_length_a 13.525126
_cell_length_b 10.939389
_cell_length_c 16.452646
_cell_angle_alpha 90.000000
_cell_angle_beta 78.475549
_cell_angle_gamma 90.000000
_cell_volume 2385.201631
_symmetry_space_group_name_H-M "C 2/M"
_symmetry_group_IT_number 12
_symmetry_cell_setting 'monoclinic'
loop_
_space_group_symop_operation_xyz
x,y,z
-x,y,-z
-x,-y,-z
x,-y,z
1/2+x,1/2+y,z
1/2-x,1/2+y,-z
1/2-x,1/2-y,-z
1/2+x,1/2-y,z
loop_
_atom_site_type_symbol
_atom_site_label
_atom_site_fract_x
_atom_site_fract_y
_atom_site_fract_z
Si Si1 0.629716 0.218998 0.100759
Si Si2 0.668858 0.864377 0.357224
Si Si3 0.300789 0.365223 0.764426
Si Si4 0.923960 0.281327 0.199445
Si Si5 0.000000 0.729463 0.500000
Si Si6 0.601123 0.359930 0.633062
Si Si7 0.853738 0.864837 0.061721
O O1 0.654014 0.335568 0.154630
O O2 0.527760 0.160259 0.151706
O O3 0.732174 0.142137 0.089459
O O4 0.617489 0.266103 0.011117
O O5 0.666958 0.749292 0.296651
O O6 0.579680 0.849230 0.436053
O O7 0.777274 0.856095 0.383399
O O8 0.663792 0.000000 0.318926
O O9 0.330681 0.500000 0.730571
O O10 0.178654 0.358893 0.787854
O O11 0.934804 0.226381 0.287437
O O12 0.901359 0.171495 0.139835
O O13 0.059191 0.811872 0.555265
O O14 0.570759 0.500000 0.652449
O O15 0.883329 0.000000 0.031922
#
# Coordination Sequence:
#
# PCOD9206151 Si02
#       7
#     8   8   8   8   4   8   8
#     4  10  21  36  56  86 121 156 198 248 298 345
#     4  10  23  43  63  88 124 159 195 242 298 359
#     4  10  22  40  62  90 123 158 201 249 295 349
#     4  10  21  38  58  84 116 156 200 244 297 354
#     4  12  22  38  64  92 115 154 201 244 297 360
#     4  10  22  39  59  88 123 156 195 248 302 356
#     4  10  21  36  56  83 117 158 202 245 290 347
#
# _framework density 21.801091
#
# number of rings (size 3 to 8) (size 9 to 14) (size 15 to 20)
#    0.000    1.846    0.000    3.231    0.000    9.846 
#    0.000   10.769    0.000    5.538    0.000    0.000 
#    0.000    0.000    0.000    0.000    0.000    0.000 
#
# Total GULP energy -145328.997633 kJ/mol
# GULP energy per Si atom -5589.576832 kJ/mol
# Density = 2.175147 g / cm^3
# Si number density = 21.801091 Si / 1000 Ang^3
#
#
#
# Elastic Constant Matrix: (Units=GPa)
#
#
# Indices 1 2 3 4 5 6 
#
# 1 105.1845 18.5536 32.7162 0.0000 -21.5673 0.0000
# 2 18.5536 96.3283 28.9923 0.0000 1.9463 0.0000
# 3 32.7162 28.9923 87.1974 0.0000 -2.0312 0.0000
# 4 0.0000 0.0000 0.0000 -22.9055 0.0000 38.2568
# 5 -21.5673 1.9463 -2.0312 0.0000 58.2038 0.0000
# 6 0.0000 0.0000 0.0000 38.2568 0.0000 -39.0707
#
#
#
# Elastic Compliance Matrix: (Units=1/GPa)
#
#
# Indices 1 2 3 4 5 6 
#
# 1 0.011819 -0.001176 -0.003944 0.000000 0.004281 0.000000
# 2 -0.001176 0.011668 -0.003460 0.000000 -0.000947 0.000000
# 3 -0.003944 -0.003460 0.014079 0.000000 -0.000854 0.000000
# 4 0.000000 0.000000 0.000000 0.068708 0.000000 0.067277
# 5 0.004281 -0.000947 -0.000854 0.000000 0.018769 0.000000
# 6 0.000000 0.000000 0.000000 0.067277 0.000000 0.040280
#
#
# Mechanical properties :
#
#
# Convention : Reuss Voigt Hill
#
# Bulk Modulus (GPa) = 49.00617 49.91496 49.46056
# Shear Modulus (GPa) = 26.41510 13.14206 19.77858
#
# Velocity S-wave (km/s) = 3.48464 2.45790 3.01529
# Velocity P-wave (km/s) = 6.22237 5.56779 5.90416
#
# Compressibility (1/GPa) = 0.02040560
#
# Stress axis : x y z
#
# Youngs Moduli (GPa) = 84.60944 85.70229 71.02991
#
# Poissons Ratio (x) = 0.10078 0.28012
# Poissons Ratio (y) = 0.09950 0.24579
# Poissons Ratio (z) = 0.33368 0.29657
#
# Static dielectric constant tensor:
#      x y z
#    x 1.818890 0.000000 -0.042060 
#    y 0.000000 1.769060 0.000000 
#    z -0.042060 0.000000 1.767950 
# 
# From -- ./inp_files/213338.got.cif
#   From: 2010.05.17/outbox.cif.g08.bks.cpg/sg12_107_cif.got.tgz:213338.got - 2010.06.03 13:09:07.
