data_PCOD9206561
_publ_section_title
;
Structure prediction by ZEFSAII (Michael W. Deem and Ramdas Pophale) SiO2 
 PCOD9206561
Probable space group: C 2/M
;
_chemical_formula_sum "Si O2"
_cell_formula_units_Z 52
_cell_length_a 5.157946
_cell_length_b 30.612393
_cell_length_c 20.884666
_cell_angle_alpha 90.000000
_cell_angle_beta 58.305201
_cell_angle_gamma 90.000000
_cell_volume 2805.815455
_symmetry_space_group_name_H-M "C 2/M"
_symmetry_group_IT_number 12
_symmetry_cell_setting 'monoclinic'
loop_
_space_group_symop_operation_xyz
x,y,z
-x,y,-z
-x,-y,-z
x,-y,z
1/2+x,1/2+y,z
1/2-x,1/2+y,-z
1/2-x,1/2-y,-z
1/2+x,1/2-y,z
loop_
_atom_site_type_symbol
_atom_site_label
_atom_site_fract_x
_atom_site_fract_y
_atom_site_fract_z
Si Si1 0.171338 0.500000 0.307994
Si Si2 0.713151 0.630538 0.280979
Si Si3 0.351854 0.411472 0.214658
Si Si4 0.397067 0.719799 0.332619
Si Si5 0.462212 0.500000 0.409013
Si Si6 0.862359 0.948355 0.949093
Si Si7 0.152665 0.901873 0.546215
Si Si8 0.000000 0.719282 0.500000
O O1 0.224844 0.456961 0.259247
O O2 0.382877 0.500000 0.343520
O O3 0.822091 0.500000 0.374236
O O4 0.600672 0.603809 0.233879
O O5 0.603319 0.679896 0.282392
O O6 0.538188 0.612782 0.366999
O O7 0.070152 0.622217 0.246558
O O8 0.495988 0.421028 0.127076
O O9 0.635693 0.757412 0.323768
O O10 0.199372 0.699231 0.417242
O O11 0.341978 0.454716 0.452781
O O12 0.927832 0.000000 0.929127
O O13 0.500000 0.943245 0.000000
O O14 0.000000 0.936619 0.000000
O O15 0.500000 0.886742 0.500000
O O16 0.000000 0.886622 0.500000
O O17 0.750000 0.750000 0.500000
#
# Coordination Sequence:
#
# PCOD9206561 Si02
#       8
#     4   8   8   8   4   8   8   4
#     4  12  20  37  56  77 112 156 186 244 274 337
#     4  12  25  39  60  85 113 154 198 246 299 350
#     4  12  22  40  59  86 121 155 198 232 281 345
#     4  10  21  40  59  82 112 144 189 247 310 372
#     4  12  22  39  54  71 106 154 214 236 296 321
#     4  10  21  36  59  90 122 160 195 229 278 338
#     4  12  24  38  52  76 109 149 199 260 288 323
#     4   8  16  32  54  76  98 135 174 227 302 360
#
# _framework density 18.532938000000001
#
# number of rings (size 3 to 8) (size 9 to 14) (size 15 to 20)
#    0.000    0.923    3.846    4.154    1.077    0.000 
#    5.538    0.000    0.000    0.000    0.000    0.000 
#    0.000   43.077    0.000    0.000    0.000    0.000 
#
# Total GULP energy -145258.170977 kJ/mol
# GULP energy per Si atom -5586.852730 kJ/mol
# Density = 1.849076 g / cm^3
# Si number density = 18.532938 Si / 1000 Ang^3
#
#
#
# Elastic Constant Matrix: (Units=GPa)
#
#
# Indices 1 2 3 4 5 6 
#
# 1 96.1234 -5.6924 24.5599 0.0000 15.4287 0.0000
# 2 -5.6924 45.7303 6.0183 0.0000 0.4676 0.0000
# 3 24.5599 6.0183 92.9128 0.0000 18.9552 0.0000
# 4 0.0000 0.0000 0.0000 -84.6381 0.0000 111.3790
# 5 15.4287 0.4676 18.9552 0.0000 20.6347 0.0000
# 6 0.0000 0.0000 0.0000 111.3790 0.0000 -117.0664
#
#
#
# Elastic Compliance Matrix: (Units=1/GPa)
#
#
# Indices 1 2 3 4 5 6 
#
# 1 0.012175 0.001830 -0.001810 0.000000 -0.007482 0.000000
# 2 0.001830 0.022347 -0.001906 0.000000 -0.000124 0.000000
# 3 -0.001810 -0.001906 0.013635 0.000000 -0.011128 0.000000
# 4 0.000000 0.000000 0.000000 0.046883 0.000000 0.044605
# 5 -0.007482 -0.000124 -0.011128 0.000000 0.064282 0.000000
# 6 0.000000 0.000000 0.000000 0.044605 0.000000 0.033896
#
#
# Mechanical properties :
#
#
# Convention : Reuss Voigt Hill
#
# Bulk Modulus (GPa) = 22.53002 31.61534 27.07268
# Shear Modulus (GPa) = 23.60875 -22.22192 0.69342
#
# Velocity S-wave (km/s) = 3.57302 -3.46649 0.61234
# Velocity P-wave (km/s) = 5.40417 1.03634 3.89096
#
# Compressibility (1/GPa) = 0.04438522
#
# Stress axis : x y z
#
# Youngs Moduli (GPa) = 82.13433 44.74814 73.33990
#
# Poissons Ratio (x) = -0.08190 0.13278
# Poissons Ratio (y) = -0.15033 0.13979
# Poissons Ratio (z) = 0.14870 0.08529
#
# Static dielectric constant tensor:
#      x y z
#    x 1.636180 0.000000 0.009640 
#    y 0.000000 1.667710 0.000000 
#    z 0.009640 0.000000 1.613050 
# 
# From -- ./inp_files/298513.got.cif
#   From: 2010.05.17/outbox.cif.g08.bks.cpg/sg12_150_cif.got.tgz:298513.got - 2010.06.03 13:09:07.
