data_PCOD9206109
_publ_section_title
;
Structure prediction by ZEFSAII (Michael W. Deem and Ramdas Pophale) SiO2 
 PCOD9206109
Probable space group: C 2/M
;
_chemical_formula_sum "Si O2"
_cell_formula_units_Z 48
_cell_length_a 22.620283
_cell_length_b 14.067539
_cell_length_c 12.591527
_cell_angle_alpha 90.000000
_cell_angle_beta 40.644996
_cell_angle_gamma 90.000000
_cell_volume 2609.891851
_symmetry_space_group_name_H-M "C 2/M"
_symmetry_group_IT_number 12
_symmetry_cell_setting 'monoclinic'
loop_
_space_group_symop_operation_xyz
x,y,z
-x,y,-z
-x,-y,-z
x,-y,z
1/2+x,1/2+y,z
1/2-x,1/2+y,-z
1/2-x,1/2-y,-z
1/2+x,1/2-y,z
loop_
_atom_site_type_symbol
_atom_site_label
_atom_site_fract_x
_atom_site_fract_y
_atom_site_fract_z
Si Si1 0.965229 0.392391 0.227588
Si Si2 0.959837 0.804812 0.940273
Si Si3 0.925417 0.695336 0.512328
Si Si4 0.232966 0.108109 0.769030
Si Si5 0.258580 0.136895 0.485456
Si Si6 0.915864 0.893713 0.413067
O O1 0.999556 0.500000 0.170431
O O2 0.952421 0.361870 0.368342
O O3 0.862773 0.388308 0.320254
O O4 0.023633 0.307774 0.097758
O O5 0.016460 0.860503 0.773351
O O6 0.855274 0.833259 0.078197
O O7 0.000000 0.832272 0.000000
O O8 0.826086 0.657251 0.678012
O O9 0.919396 0.807096 0.491185
O O10 0.000000 0.679419 0.500000
O O11 0.236371 0.104821 0.635470
O O12 0.227244 0.000000 0.815767
O O13 0.250000 0.250000 0.500000
O O14 0.184143 0.103908 0.503307
O O15 0.938387 0.000000 0.420342
#
# Coordination Sequence:
#
# PCOD9206109 Si02
#       6
#     8   8   8   8   8   8
#     4  10  21  36  56  81 114 149 184 226 275 329
#     4  11  21  34  52  84 123 145 174 217 275 344
#     4  10  22  40  60  80 105 143 195 240 267 312
#     4  11  21  34  56  85 112 141 181 226 276 330
#     4  11  16  33  54  82 114 144 181 227 275 324
#     4  11  21  34  56  82 114 150 182 224 277 326
#
# _framework density 18.391566999999998
#
# number of rings (size 3 to 8) (size 9 to 14) (size 15 to 20)
#    0.000    1.333    6.667    3.500    0.000    2.667 
#    0.000    4.167    0.000    2.000    0.000    0.000 
#    0.000    0.000    0.000    0.000    0.000    0.000 
#
# Total GULP energy -134004.476698 kJ/mol
# GULP energy per Si atom -5583.519862 kJ/mol
# Density = 1.834971 g / cm^3
# Si number density = 18.391567 Si / 1000 Ang^3
#
#
#
# Elastic Constant Matrix: (Units=GPa)
#
#
# Indices 1 2 3 4 5 6 
#
# 1 96.2492 9.8006 42.0254 0.0000 -28.5616 0.0000
# 2 9.8006 146.1739 47.7899 0.0000 -21.0259 0.0000
# 3 42.0254 47.7899 87.7948 0.0000 -31.2861 0.0000
# 4 0.0000 0.0000 0.0000-1549.6490 0.0000 -717.0488
# 5 -28.5616 -21.0259 -31.2861 0.0000 20.2751 0.0000
# 6 0.0000 0.0000 0.0000 -717.0488 0.0000 -321.6115
#
#
#
# Elastic Compliance Matrix: (Units=1/GPa)
#
#
# Indices 1 2 3 4 5 6 
#
# 1 0.018921 0.003040 -0.000200 0.000000 0.029497 0.000000
# 2 0.003040 0.008934 -0.003312 0.000000 0.008436 0.000000
# 3 -0.000200 -0.003312 0.026581 0.000000 0.037300 0.000000
# 4 0.000000 0.000000 0.000000 0.020389 0.000000 -0.045457
# 5 0.029497 0.008436 0.037300 0.000000 0.157180 0.000000
# 6 0.000000 0.000000 0.000000 -0.045457 0.000000 0.098240
#
#
# Mechanical properties :
#
#
# Convention : Reuss Voigt Hill
#
# Bulk Modulus (GPa) = 18.69465 58.82772 38.76118
# Shear Modulus (GPa) = 14.32590 -354.82362 -170.24886
#
# Velocity S-wave (km/s) = 2.79397 -13.90490 -9.63172
# Velocity P-wave (km/s) = 4.53820 15.02462 10.12778
#
# Compressibility (1/GPa) = 0.05349125
#
# Stress axis : x y z
#
# Youngs Moduli (GPa) = 52.85205 111.93773 37.62134
#
# Poissons Ratio (x) = -0.34026 0.00753
# Poissons Ratio (y) = -0.16066 0.12458
# Poissons Ratio (z) = 0.01057 0.37068
#
# Static dielectric constant tensor:
#      x y z
#    x 1.607850 0.000000 0.003900 
#    y 0.000000 1.673460 0.000000 
#    z 0.003900 0.000000 1.634070 
# 
# From -- ./inp_files/143529.got.cif
#   From: 2010.05.17/outbox.cif.g08.bks.cpg/sg12_72_cif.got.tgz:143529.got - 2010.06.03 13:09:07.
