data_PCOD9206115
_publ_section_title
;
Structure prediction by ZEFSAII (Michael W. Deem and Ramdas Pophale) SiO2 
 PCOD9206115
Probable space group: C 2/M
;
_chemical_formula_sum "Si O2"
_cell_formula_units_Z 48
_cell_length_a 32.436782
_cell_length_b 8.701317
_cell_length_c 16.229899
_cell_angle_alpha 90.000000
_cell_angle_beta 143.262480
_cell_angle_gamma 90.000000
_cell_volume 2739.988376
_symmetry_space_group_name_H-M "C 2/M"
_symmetry_group_IT_number 12
_symmetry_cell_setting 'monoclinic'
loop_
_space_group_symop_operation_xyz
x,y,z
-x,y,-z
-x,-y,-z
x,-y,z
1/2+x,1/2+y,z
1/2-x,1/2+y,-z
1/2-x,1/2-y,-z
1/2+x,1/2-y,z
loop_
_atom_site_type_symbol
_atom_site_label
_atom_site_fract_x
_atom_site_fract_y
_atom_site_fract_z
Si Si1 0.217597 0.315631 0.865631
Si Si2 0.233645 0.815396 0.236138
Si Si3 0.069047 0.685811 0.562775
Si Si4 0.121145 0.815989 0.478125
Si Si5 0.046587 0.815358 0.188099
Si Si6 0.096236 0.316409 0.096474
O O1 0.219380 0.500000 0.873002
O O2 0.257676 0.270365 0.846209
O O3 0.137942 0.269950 0.723462
O O4 0.250000 0.250000 0.000000
O O5 0.303809 0.760423 0.392441
O O6 0.166828 0.741049 0.169556
O O7 0.229249 0.000000 0.233574
O O8 0.069629 0.500000 0.554875
O O9 0.076920 0.758736 0.485341
O O10 0.000000 0.730502 0.500000
O O11 0.084274 0.775437 0.333476
O O12 0.128621 0.000000 0.493786
O O13 0.086936 0.749213 0.173848
O O14 0.042940 0.000000 0.175238
O O15 0.969678 0.747609 0.059005
O O16 0.093511 0.500000 0.094344
#
# Coordination Sequence:
#
# PCOD9206115 Si02
#       6
#     8   8   8   8   8   8
#     4   9  19  34  53  77 104 137 174 215 263 313
#     4  10  21  38  57  78 109 145 178 218 271 321
#     4   9  19  36  55  76 105 141 179 218 265 317
#     4  10  21  36  56  82 108 139 181 224 266 315
#     4  10  21  38  57  79 111 144 175 218 271 320
#     4  11  22  36  57  83 108 139 182 223 262 315
#
# _framework density 17.518322000000001
#
# number of rings (size 3 to 8) (size 9 to 14) (size 15 to 20)
#    0.000    2.167    0.000    5.000    0.000    8.333 
#    0.000    3.333    0.000    0.000    0.000    0.000 
#    0.000    0.000    0.000    0.000    0.000    0.000 
#
# Total GULP energy -133985.442192 kJ/mol
# GULP energy per Si atom -5582.726758 kJ/mol
# Density = 1.747845 g / cm^3
# Si number density = 17.518322 Si / 1000 Ang^3
#
#
#
# Elastic Constant Matrix: (Units=GPa)
#
#
# Indices 1 2 3 4 5 6 
#
# 1 162.3523 60.1880 119.6654 0.0000 16.7496 0.0000
# 2 60.1880 71.9354 62.7575 0.0000 -3.3972 0.0000
# 3 119.6654 62.7575 158.5554 0.0000 -21.9521 0.0000
# 4 0.0000 0.0000 0.0000 30.1147 0.0000 0.1807
# 5 16.7496 -3.3972 -21.9521 0.0000 27.3824 0.0000
# 6 0.0000 0.0000 0.0000 0.1807 0.0000 30.2312
#
#
#
# Elastic Compliance Matrix: (Units=1/GPa)
#
#
# Indices 1 2 3 4 5 6 
#
# 1 0.038820 -0.004716 -0.034646 0.000000 -0.052106 0.000000
# 2 -0.004716 0.022338 -0.005061 0.000000 0.001598 0.000000
# 3 -0.034646 -0.005061 0.041963 0.000000 0.054206 0.000000
# 4 0.000000 0.000000 0.000000 0.033208 0.000000 -0.000198
# 5 -0.052106 0.001598 0.054206 0.000000 0.112047 0.000000
# 6 0.000000 0.000000 0.000000 -0.000198 0.000000 0.033080
#
#
# Mechanical properties :
#
#
# Convention : Reuss Voigt Hill
#
# Bulk Modulus (GPa) = 70.05054 97.56275 83.80664
# Shear Modulus (GPa) = 13.33126 27.56115 20.44620
#
# Velocity S-wave (km/s) = 2.76160 3.97076 3.42004
# Velocity P-wave (km/s) = 7.08819 8.76557 7.97112
#
# Compressibility (1/GPa) = 0.01427541
#
# Stress axis : x y z
#
# Youngs Moduli (GPa) = 25.76010 44.76704 23.83052
#
# Poissons Ratio (x) = 0.21110 0.82563
# Poissons Ratio (y) = 0.12147 0.12061
# Poissons Ratio (z) = 0.89248 0.22658
#
# Static dielectric constant tensor:
#      x y z
#    x 1.573550 0.000000 0.000190 
#    y 0.000000 1.589510 0.000000 
#    z 0.000190 0.000000 1.575360 
# 
# From -- ./inp_files/249341.got.cif
#   From: 2010.05.17/outbox.cif.g08.bks.cpg/sg12_125_cif.got.tgz:249341.got - 2010.06.03 13:09:07.
