data_PCOD9206035
_publ_section_title
;
Structure prediction by ZEFSAII (Michael W. Deem and Ramdas Pophale) SiO2 
 PCOD9206035
Probable space group: C 2/M
;
_chemical_formula_sum "Si O2"
_cell_formula_units_Z 44
_cell_length_a 8.260671
_cell_length_b 33.583351
_cell_length_c 7.945806
_cell_angle_alpha 90.000000
_cell_angle_beta 83.336263
_cell_angle_gamma 90.000000
_cell_volume 2189.441722
_symmetry_space_group_name_H-M "C 2/M"
_symmetry_group_IT_number 12
_symmetry_cell_setting 'monoclinic'
loop_
_space_group_symop_operation_xyz
x,y,z
-x,y,-z
-x,-y,-z
x,-y,z
1/2+x,1/2+y,z
1/2-x,1/2+y,-z
1/2-x,1/2-y,-z
1/2+x,1/2-y,z
loop_
_atom_site_type_symbol
_atom_site_label
_atom_site_fract_x
_atom_site_fract_y
_atom_site_fract_z
Si Si1 0.500000 0.432428 0.000000
Si Si2 0.185365 0.706234 0.541703
Si Si3 0.188480 0.707871 0.939103
Si Si4 0.631967 0.457164 0.632415
Si Si5 0.309597 0.879675 0.477791
Si Si6 0.193350 0.620206 0.929412
O O1 0.458060 0.454846 0.177717
O O2 0.667813 0.408411 0.015185
O O3 0.250000 0.750000 0.500000
O O4 0.205015 0.704483 0.738502
O O5 0.259311 0.664458 0.464891
O O6 0.000000 0.706169 0.500000
O O7 0.243790 0.664283 0.993049
O O8 0.250000 0.750000 0.000000
O O9 0.000000 0.708538 0.000000
O O10 0.500000 0.457511 0.500000
O O11 0.722862 0.500000 0.613866
O O12 0.732419 0.416965 0.583443
O O13 0.500000 0.879125 0.500000
O O14 0.295032 0.882935 0.276254
O O15 0.000000 0.613497 0.000000
#
# Coordination Sequence:
#
# PCOD9206035 Si02
#       6
#     4   8   8   8   8   8
#     4  12  23  42  72  96 130 172 216 266 336 390
#     4  10  21  37  58  86 120 163 207 259 311 374
#     4  10  21  36  55  81 122 160 208 261 314 374
#     4  11  24  43  67  97 132 168 214 272 328 392
#     4  10  21  42  66  90 130 172 214 270 329 386
#     4  10  22  40  62  95 126 169 221 268 324 392
#
# _framework density 20.096447000000001
#
# number of rings (size 3 to 8) (size 9 to 14) (size 15 to 20)
#    0.000    1.636    1.818    2.455    1.273    5.455 
#    0.000    0.000    0.000    2.727    0.000    0.000 
#    0.000    0.000    0.000    0.000    0.000    0.000 
#
# Total GULP energy -122484.106964 kJ/mol
# GULP energy per Si atom -5567.459407 kJ/mol
# Density = 2.005071 g / cm^3
# Si number density = 20.096447 Si / 1000 Ang^3
#
#
#
# Elastic Constant Matrix: (Units=GPa)
#
#
# Indices 1 2 3 4 5 6 
#
# 1 52.5043 54.0978 17.0501 0.0000 8.3714 0.0000
# 2 54.0978 204.2985 52.4189 0.0000 -15.5771 0.0000
# 3 17.0501 52.4189 94.7598 0.0000 3.9198 0.0000
# 4 0.0000 0.0000 0.0000 39.8707 0.0000 5.7366
# 5 8.3714 -15.5771 3.9198 0.0000 33.8924 0.0000
# 6 0.0000 0.0000 0.0000 5.7366 0.0000 34.1632
#
#
#
# Elastic Compliance Matrix: (Units=1/GPa)
#
#
# Indices 1 2 3 4 5 6 
#
# 1 0.029936 -0.008784 -0.000055 0.000000 -0.011425 0.000000
# 2 -0.008784 0.008603 -0.003448 0.000000 0.006522 0.000000
# 3 -0.000055 -0.003448 0.012596 0.000000 -0.003028 0.000000
# 4 0.000000 0.000000 0.000000 0.025702 0.000000 -0.004316
# 5 -0.011425 0.006522 -0.003028 0.000000 0.035675 0.000000
# 6 0.000000 0.000000 0.000000 -0.004316 0.000000 0.029996
#
#
# Mechanical properties :
#
#
# Convention : Reuss Voigt Hill
#
# Bulk Modulus (GPa) = 37.64961 66.52181 52.08571
# Shear Modulus (GPa) = 28.41959 36.78498 32.60228
#
# Velocity S-wave (km/s) = 3.76461 4.28298 4.03214
# Velocity P-wave (km/s) = 6.13771 7.59156 6.90302
#
# Compressibility (1/GPa) = 0.02656070
#
# Stress axis : x y z
#
# Youngs Moduli (GPa) = 33.40440 116.24027 79.39326
#
# Poissons Ratio (x) = 1.02107 0.00434
# Poissons Ratio (y) = 0.29343 0.27376
# Poissons Ratio (z) = 0.00182 0.40082
#
# Static dielectric constant tensor:
#      x y z
#    x 1.663480 0.000000 -0.014260 
#    y 0.000000 1.868690 0.000000 
#    z -0.014260 0.000000 1.717520 
# 
# From -- ./inp_files/41602.got.cif
#   From: 2010.05.17/outbox.cif.g08.bks.cpg/sg12_21_cif.got.tgz:41602.got - 2010.06.03 13:09:07.
