data_PCOD9206811
_publ_section_title
;
Structure prediction by ZEFSAII (Michael W. Deem and Ramdas Pophale) SiO2 
 PCOD9206811
Probable space group: C 2/M
;
_chemical_formula_sum "Si O2"
_cell_formula_units_Z 52
_cell_length_a 21.332664
_cell_length_b 18.383306
_cell_length_c 14.991151
_cell_angle_alpha 90.000000
_cell_angle_beta 26.650530
_cell_angle_gamma 90.000000
_cell_volume 2637.012027
_symmetry_space_group_name_H-M "C 2/M"
_symmetry_group_IT_number 12
_symmetry_cell_setting 'monoclinic'
loop_
_space_group_symop_operation_xyz
x,y,z
-x,y,-z
-x,-y,-z
x,-y,z
1/2+x,1/2+y,z
1/2-x,1/2+y,-z
1/2-x,1/2-y,-z
1/2+x,1/2-y,z
loop_
_atom_site_type_symbol
_atom_site_label
_atom_site_fract_x
_atom_site_fract_y
_atom_site_fract_z
Si Si1 0.676990 0.081529 0.021373
Si Si2 0.946440 0.415388 0.467940
Si Si3 0.500000 0.694011 0.500000
Si Si4 0.993588 0.918665 0.359006
Si Si5 0.752456 0.208429 0.354615
Si Si6 0.700827 0.228531 0.890811
Si Si7 0.557163 0.313323 0.721447
O O1 0.573448 0.091985 0.236117
O O2 0.652037 0.000000 0.016186
O O3 0.837938 0.083287 0.848918
O O4 0.659834 0.147448 0.974053
O O5 0.899214 0.500000 0.524755
O O6 0.827844 0.359226 0.588010
O O7 0.000000 0.401479 0.500000
O O8 0.554731 0.640006 0.506853
O O9 0.365693 0.737783 0.703500
O O10 0.944254 0.890072 0.326642
O O11 0.946496 0.000000 0.440070
O O12 0.812821 0.255960 0.196738
O O13 0.642639 0.256425 0.551242
O O14 0.869702 0.184599 0.275716
O O15 0.599863 0.283852 0.069644
#
# Coordination Sequence:
#
# PCOD9206811 Si02
#       7
#     8   8   4   8   8   8   8
#     4   9  20  38  63  92 122 155 198 257 317 366
#     4  10  22  40  64  91 121 159 205 259 309 360
#     4  10  21  36  64  98 117 156 200 256 317 362
#     4  10  21  38  60  89 124 157 198 250 310 368
#     4  11  24  41  61  88 121 163 213 251 302 370
#     4  11  22  40  62  90 125 159 203 257 308 362
#     4  11  24  41  60  86 124 169 205 250 305 368
#
# _framework density 19.719287999999999
#
# number of rings (size 3 to 8) (size 9 to 14) (size 15 to 20)
#    0.000    1.692    3.077    0.692    3.231    3.692 
#    0.000    0.000    0.000    3.692    0.000    0.000 
#    0.000    0.000    0.000    0.000    0.000    0.000 
#
# Total GULP energy -145216.197960 kJ/mol
# GULP energy per Si atom -5585.238383 kJ/mol
# Density = 1.967441 g / cm^3
# Si number density = 19.719288 Si / 1000 Ang^3
#
#
#
# Elastic Constant Matrix: (Units=GPa)
#
#
# Indices 1 2 3 4 5 6 
#
# 1 92.9737 51.0784 3.6299 0.0004 15.2290 -0.0002
# 2 51.0784 79.8795 13.9466 0.0002 1.2403 -0.0001
# 3 3.6299 13.9466 65.7572 0.0005 5.6826 -0.0004
# 4 0.0004 0.0002 0.0005 19.5150 -0.0003 5.7081
# 5 15.2290 1.2403 5.6826 -0.0003 26.2677 0.0003
# 6 -0.0002 -0.0001 -0.0004 5.7081 0.0003 29.2406
#
#
#
# Elastic Compliance Matrix: (Units=1/GPa)
#
#
# Indices 1 2 3 4 5 6 
#
# 1 0.019506 -0.012752 0.002602 -0.000001 -0.011270 0.000000
# 2 -0.012752 0.021337 -0.004457 0.000000 0.007350 0.000000
# 3 0.002602 -0.004457 0.016428 -0.000001 -0.004852 0.000000
# 4 -0.000001 0.000000 -0.000001 0.054346 0.000001 -0.010609
# 5 -0.011270 0.007350 -0.004852 0.000001 0.045306 -0.000001
# 6 0.000000 0.000000 0.000000 -0.010609 -0.000001 0.036270
#
#
# Mechanical properties :
#
#
# Convention : Reuss Voigt Hill
#
# Bulk Modulus (GPa) = 35.64140 41.76892 38.70516
# Shear Modulus (GPa) = 21.57405 26.33502 23.95454
#
# Velocity S-wave (km/s) = 3.31124 3.65841 3.48915
# Velocity P-wave (km/s) = 5.72125 6.25084 5.99190
#
# Compressibility (1/GPa) = 0.02805726
#
# Stress axis : x y z
#
# Youngs Moduli (GPa) = 51.26625 46.86645 60.87030
#
# Poissons Ratio (x) = 0.59765 -0.15837
# Poissons Ratio (y) = 0.65376 0.27128
# Poissons Ratio (z) = -0.13338 0.20887
#
# Static dielectric constant tensor:
#      x y z
#    x 1.683930 0.000000 0.009050 
#    y 0.000000 1.703500 0.000000 
#    z 0.009050 0.000000 1.700990 
# 
# From -- ./inp_files/234433.got.cif
#   From: 2010.05.17/outbox.cif.g08.bks.cpg/sg12_118_cif.got.tgz:234433.got - 2010.06.03 13:09:07.
