data_PCOD9206450
_publ_section_title
;
Structure prediction by ZEFSAII (Michael W. Deem and Ramdas Pophale) SiO2 
 PCOD9206450
Probable space group: C 2/M
;
_chemical_formula_sum "Si O2"
_cell_formula_units_Z 52
_cell_length_a 12.134051
_cell_length_b 23.596213
_cell_length_c 12.631221
_cell_angle_alpha 90.000000
_cell_angle_beta 134.021982
_cell_angle_gamma 90.000000
_cell_volume 2600.558227
_symmetry_space_group_name_H-M "C 2/M"
_symmetry_group_IT_number 12
_symmetry_cell_setting 'monoclinic'
loop_
_space_group_symop_operation_xyz
x,y,z
-x,y,-z
-x,-y,-z
x,-y,z
1/2+x,1/2+y,z
1/2-x,1/2+y,-z
1/2-x,1/2-y,-z
1/2+x,1/2-y,z
loop_
_atom_site_type_symbol
_atom_site_label
_atom_site_fract_x
_atom_site_fract_y
_atom_site_fract_z
Si Si1 0.304540 0.110410 0.060878
Si Si2 0.838495 0.611033 0.680457
Si Si3 0.841710 0.630666 0.448469
Si Si4 0.823050 0.813167 0.844630
Si Si5 0.669547 0.500000 0.066681
Si Si6 0.638519 0.500000 0.508182
Si Si7 0.737540 0.000000 0.629891
Si Si8 0.685244 0.817507 0.135155
O O1 0.484657 0.095637 0.175311
O O2 0.278461 0.149814 0.144395
O O3 0.208485 0.054476 0.022505
O O4 0.256570 0.147215 0.927018
O O5 0.835792 0.644509 0.568010
O O6 0.738534 0.555181 0.600859
O O7 0.775771 0.648873 0.733257
O O8 0.706685 0.659646 0.290374
O O9 0.836100 0.561668 0.440785
O O10 0.000000 0.649033 0.500000
O O11 0.772477 0.748089 0.824394
O O12 0.000000 0.818177 0.000000
O O13 0.756273 0.500000 0.237638
O O14 0.500000 0.500000 0.000000
O O15 0.500000 0.500000 0.500000
O O16 0.623995 0.500000 0.367824
O O17 0.500000 0.817186 0.000000
#
# Coordination Sequence:
#
# PCOD9206450 Si02
#       8
#     8   8   8   8   4   4   4   8
#     4  11  21  39  64  90 127 165 209 255 315 375
#     4  10  21  41  64  91 119 164 219 251 306 381
#     4  11  20  37  65  90 124 159 211 264 309 373
#     4  11  22  39  62  92 129 166 207 264 322 356
#     4  12  23  35  59 100 127 153 205 262 313 368
#     4  10  23  41  63  86 128 166 197 256 332 381
#     4  10  21  36  58  88 125 159 201 250 323 370
#     4   9  22  40  61  88 125 172 211 254 308 375
#
# _framework density 19.995708
#
# number of rings (size 3 to 8) (size 9 to 14) (size 15 to 20)
#    0.000    1.538    3.077    1.615    0.000    3.692 
#    2.769    3.077    0.000    0.000    0.000    0.000 
#    0.000    0.000    0.000    0.000    0.000    0.000 
#
# Total GULP energy -144991.412782 kJ/mol
# GULP energy per Si atom -5576.592799 kJ/mol
# Density = 1.995020 g / cm^3
# Si number density = 19.995708 Si / 1000 Ang^3
#
#
#
# Elastic Constant Matrix: (Units=GPa)
#
#
# Indices 1 2 3 4 5 6 
#
# 1 72.2776 31.7539 10.1775 0.0000 -3.3663 0.0000
# 2 31.7539 125.2387 25.8463 0.0000 -7.5815 0.0000
# 3 10.1775 25.8463 72.1970 0.0000 -15.4840 0.0000
# 4 0.0000 0.0000 0.0000 -9.8367 0.0000 -3.5126
# 5 -3.3663 -7.5815 -15.4840 0.0000 34.7723 0.0000
# 6 0.0000 0.0000 0.0000 -3.5126 0.0000 -6.4309
#
#
#
# Elastic Compliance Matrix: (Units=1/GPa)
#
#
# Indices 1 2 3 4 5 6 
#
# 1 0.015621 -0.003780 -0.000775 0.000000 0.000343 0.000000
# 2 -0.003780 0.009546 -0.002782 0.000000 0.000476 0.000000
# 3 -0.000775 -0.002782 0.016374 0.000000 0.006610 0.000000
# 4 0.000000 0.000000 0.000000 -0.126294 0.000000 0.068982
# 5 0.000343 0.000476 0.006610 0.000000 0.031839 0.000000
# 6 0.000000 0.000000 0.000000 0.068982 0.000000 -0.193177
#
#
# Mechanical properties :
#
#
# Convention : Reuss Voigt Hill
#
# Bulk Modulus (GPa) = 37.22189 45.02984 41.12586
# Shear Modulus (GPa) = -22.47605 17.16331 -2.65637
#
# Velocity S-wave (km/s) = -3.35631 2.93294 -1.15384
# Velocity P-wave (km/s) = 1.90672 5.83422 4.34014
#
# Compressibility (1/GPa) = 0.02686591
#
# Stress axis : x y z
#
# Youngs Moduli (GPa) = 64.01491 104.75336 61.07256
#
# Poissons Ratio (x) = 0.39597 0.04735
# Poissons Ratio (y) = 0.24197 0.16993
# Poissons Ratio (z) = 0.04963 0.29147
#
# Static dielectric constant tensor:
#      x y z
#    x 1.709520 0.000000 -0.000230 
#    y 0.000000 1.767330 0.000000 
#    z -0.000230 0.000000 1.621350 
# 
# From -- ./inp_files/136066.got.cif
#   From: 2010.05.17/outbox.cif.g08.bks.cpg/sg12_69_cif.got.tgz:136066.got - 2010.06.03 13:09:07.
