data_PCOD9206727
_publ_section_title
;
Structure prediction by ZEFSAII (Michael W. Deem and Ramdas Pophale) SiO2 
 PCOD9206727
Probable space group: C 2/M
;
_chemical_formula_sum "Si O2"
_cell_formula_units_Z 58
_cell_length_a 20.658734
_cell_length_b 7.731455
_cell_length_c 20.748662
_cell_angle_alpha 90.000000
_cell_angle_beta 48.607620
_cell_angle_gamma 90.000000
_cell_volume 2486.174004
_symmetry_space_group_name_H-M "C 2/M"
_symmetry_group_IT_number 12
_symmetry_cell_setting 'monoclinic'
loop_
_space_group_symop_operation_xyz
x,y,z
-x,y,-z
-x,-y,-z
x,-y,z
1/2+x,1/2+y,z
1/2-x,1/2+y,-z
1/2-x,1/2-y,-z
1/2+x,1/2-y,z
loop_
_atom_site_type_symbol
_atom_site_label
_atom_site_fract_x
_atom_site_fract_y
_atom_site_fract_z
Si Si1 0.308522 0.297623 0.780719
Si Si2 0.976988 0.792610 0.193496
Si Si3 0.370688 0.795830 0.385327
Si Si4 0.923924 0.695641 0.592130
Si Si5 0.663025 0.292199 0.094115
Si Si6 0.118795 0.202323 0.872982
Si Si7 0.190569 0.800028 0.442991
Si Si8 0.500000 0.000000 0.000000
O O1 0.289148 0.500000 0.799251
O O2 0.389027 0.277573 0.679944
O O3 0.330305 0.227635 0.837073
O O4 0.221915 0.211866 0.810442
O O5 0.074673 0.728479 0.119590
O O6 0.944668 0.736488 0.284994
O O7 0.975631 0.000000 0.194077
O O8 0.915033 0.739711 0.175757
O O9 0.282104 0.734068 0.409290
O O10 0.373975 0.711901 0.453439
O O11 0.362028 0.000000 0.402202
O O12 0.951453 0.500000 0.589562
O O13 0.844774 0.697618 0.594105
O O14 0.000000 0.780779 0.500000
O O15 0.655646 0.500000 0.101253
O O16 0.750000 0.250000 0.000000
O O17 0.093684 0.000000 0.900742
O O18 0.074589 0.343937 0.948120
O O19 0.200621 0.000000 0.417030
#
# Coordination Sequence:
#
# PCOD9206727 Si02
#       8
#     8   8   8   8   8   8   8   2
#     4  11  24  45  70 100 138 184 231 286 349 421
#     4  10  23  42  64  96 131 172 220 275 337 403
#     4  10  21  36  61  93 127 163 208 263 329 396
#     4  11  25  42  63  93 133 174 228 282 338 407
#     4  10  25  45  67  95 132 175 224 276 339 409
#     4  11  25  44  73 104 139 180 231 291 350 414
#     4  10  21  38  61  90 125 167 212 266 326 392
#     4  12  26  44  72 106 142 176 234 292 352 422
#
# _framework density 23.32902
#
# number of rings (size 3 to 8) (size 9 to 14) (size 15 to 20)
#    0.000    1.517    0.690    2.690    4.828    6.621 
#    0.000    0.000    0.000    0.000    0.000    0.000 
#    0.000    0.000    0.000    0.000    0.000    0.000 
#
# Total GULP energy -161929.051721 kJ/mol
# GULP energy per Si atom -5583.760404 kJ/mol
# Density = 2.327592 g / cm^3
# Si number density = 23.329020 Si / 1000 Ang^3
#
#
#
# Elastic Constant Matrix: (Units=GPa)
#
#
# Indices 1 2 3 4 5 6 
#
# 1 69.7082 4.8166 31.0611 -0.0001 10.7941 0.0002
# 2 4.8166 78.2895 6.4588 0.0003 -1.9790 0.0000
# 3 31.0611 6.4588 100.6438 -0.0001 -3.3228 0.0000
# 4 -0.0001 0.0003 -0.0001 21.3747 0.0000 -9.7753
# 5 10.7941 -1.9790 -3.3228 0.0000 31.9838 0.0000
# 6 0.0002 0.0000 0.0000 -9.7753 0.0000 10.4272
#
#
#
# Elastic Compliance Matrix: (Units=1/GPa)
#
#
# Indices 1 2 3 4 5 6 
#
# 1 0.017991 -0.000805 -0.005723 0.000000 -0.006716 0.000000
# 2 -0.000805 0.012893 -0.000546 0.000000 0.001013 0.000000
# 3 -0.005723 -0.000546 0.011840 0.000000 0.003128 0.000000
# 4 0.000000 0.000000 0.000000 0.081895 0.000000 0.076775
# 5 -0.006716 0.001013 0.003128 0.000000 0.033920 0.000000
# 6 0.000000 0.000000 0.000000 0.076775 0.000000 0.167877
#
#
# Mechanical properties :
#
#
# Convention : Reuss Voigt Hill
#
# Bulk Modulus (GPa) = 34.99061 37.03493 36.01277
# Shear Modulus (GPa) = 14.28210 26.51081 20.39645
#
# Velocity S-wave (km/s) = 2.47696 3.37469 2.96006
# Velocity P-wave (km/s) = 4.81786 5.57622 5.21085
#
# Compressibility (1/GPa) = 0.02857909
#
# Stress axis : x y z
#
# Youngs Moduli (GPa) = 55.58347 77.56015 84.45635
#
# Poissons Ratio (x) = 0.06240 0.48331
# Poissons Ratio (y) = 0.04472 0.04609
# Poissons Ratio (z) = 0.31808 0.04232
#
# Static dielectric constant tensor:
#      x y z
#    x 1.954380 0.000000 -0.019010 
#    y 0.000000 1.856100 0.000000 
#    z -0.019010 0.000000 1.887110 
# 
# From -- ./inp_files/324567.got.cif
#   From: 2010.05.17/outbox.cif.g08.bks.cpg/sg12_163_cif.got.tgz:324567.got - 2010.06.03 13:09:07.
