data_PCOD9206079
_publ_section_title
;
Structure prediction by ZEFSAII (Michael W. Deem and Ramdas Pophale) SiO2 
 PCOD9206079
Probable space group: C 2/M
;
_chemical_formula_sum "Si O2"
_cell_formula_units_Z 40
_cell_length_a 13.672213
_cell_length_b 27.671282
_cell_length_c 13.593712
_cell_angle_alpha 90.000000
_cell_angle_beta 20.531101
_cell_angle_gamma 90.000000
_cell_volume 1803.688158
_symmetry_space_group_name_H-M "C 2/M"
_symmetry_group_IT_number 12
_symmetry_cell_setting 'monoclinic'
loop_
_space_group_symop_operation_xyz
x,y,z
-x,y,-z
-x,-y,-z
x,-y,z
1/2+x,1/2+y,z
1/2-x,1/2+y,-z
1/2-x,1/2-y,-z
1/2+x,1/2-y,z
loop_
_atom_site_type_symbol
_atom_site_label
_atom_site_fract_x
_atom_site_fract_y
_atom_site_fract_z
Si Si1 0.770460 0.420067 0.629772
Si Si2 0.682403 0.704131 0.427079
Si Si3 0.217608 0.658409 0.994640
Si Si4 0.269328 0.052651 0.949414
Si Si5 0.624367 0.187198 0.491982
O O1 0.468446 0.444046 0.911940
O O2 0.000000 0.424909 0.500000
O O3 0.709569 0.363124 0.670529
O O4 0.932714 0.441112 0.383120
O O5 0.500000 0.700649 0.500000
O O6 0.758029 0.760072 0.375920
O O7 0.961745 0.672947 0.164520
O O8 0.488656 0.684684 0.697667
O O9 0.106486 0.677719 0.205596
O O10 0.263276 0.600830 0.955502
O O11 0.247367 0.000000 0.017474
O O12 0.500000 0.189754 0.500000
#
# Coordination Sequence:
#
# PCOD9206079 Si02
#       5
#     8   8   8   8   8
#     4  10  21  36  55  84 121 155 191 232 279 350
#     4  11  23  39  62  89 119 156 200 247 297 354
#     4  11  22  40  61  86 120 158 200 247 296 349
#     4  11  23  38  57  81 111 153 199 245 297 343
#     4   9  20  37  59  91 127 160 190 228 288 362
#
# _framework density 22.176781999999999
#
# number of rings (size 3 to 8) (size 9 to 14) (size 15 to 20)
#    0.000    1.600    0.000    5.400    0.000    5.600 
#    0.000   15.000    0.000    3.600    0.000    0.000 
#    0.000    0.000    0.000    0.000    0.000    0.000 
#
# Total GULP energy -111728.801933 kJ/mol
# GULP energy per Si atom -5586.440097 kJ/mol
# Density = 2.212631 g / cm^3
# Si number density = 22.176782 Si / 1000 Ang^3
#
#
#
# Elastic Constant Matrix: (Units=GPa)
#
#
# Indices 1 2 3 4 5 6 
#
# 1 75.9989 43.4025 3.8592 -0.0021 -6.3615 -0.0113
# 2 43.4025 201.3863 18.9779 0.0239 -20.7572 -0.0014
# 3 3.8592 18.9779 70.6327 0.1701 -23.5169 0.0806
# 4 -0.0021 0.0239 0.1701 8.8363 0.0414 -0.1526
# 5 -6.3615 -20.7572 -23.5169 0.0414 33.7668 0.0262
# 6 -0.0113 -0.0014 0.0806 -0.1526 0.0262 11.2186
#
#
#
# Elastic Compliance Matrix: (Units=1/GPa)
#
#
# Indices 1 2 3 4 5 6 
#
# 1 0.015040 -0.003159 0.000422 -0.000001 0.001185 0.000009
# 2 -0.003159 0.005976 -0.000531 -0.000019 0.002708 -0.000005
# 3 0.000422 -0.000531 0.018482 -0.000416 0.012625 -0.000168
# 4 -0.000001 -0.000019 -0.000416 0.113207 -0.000442 0.001544
# 5 0.001185 0.002708 0.012625 -0.000442 0.040297 -0.000189
# 6 0.000009 -0.000005 -0.000168 0.001544 -0.000189 0.089161
#
#
# Mechanical properties :
#
#
# Convention : Reuss Voigt Hill
#
# Bulk Modulus (GPa) = 30.33914 53.38857 41.86385
# Shear Modulus (GPa) = 16.68414 29.54954 23.11684
#
# Velocity S-wave (km/s) = 2.74583 3.65424 3.23211
# Velocity P-wave (km/s) = 4.87474 6.47541 5.73123
#
# Compressibility (1/GPa) = 0.03296073
#
# Stress axis : x y z
#
# Youngs Moduli (GPa) = 66.48955 167.34710 54.10602
#
# Poissons Ratio (x) = 0.52864 -0.02281
# Poissons Ratio (y) = 0.21004 0.02874
# Poissons Ratio (z) = -0.02803 0.08889
#
# Static dielectric constant tensor:
#      x y z
#    x 1.883540 0.000000 -0.020170 
#    y 0.000000 1.817170 0.000000 
#    z -0.020170 0.000000 1.778110 
# 
# From -- ./inp_files/219027.got.cif
#   From: 2010.05.17/outbox.cif.g08.bks.cpg/sg12_110_cif.got.tgz:219027.got - 2010.06.03 13:09:07.
