data_PCOD9206446
_publ_section_title
;
Structure prediction by ZEFSAII (Michael W. Deem and Ramdas Pophale) SiO2 
 PCOD9206446
Probable space group: C 2/M
;
_chemical_formula_sum "Si O2"
_cell_formula_units_Z 58
_cell_length_a 7.325468
_cell_length_b 30.269809
_cell_length_c 12.746429
_cell_angle_alpha 90.000000
_cell_angle_beta 93.734870
_cell_angle_gamma 90.000000
_cell_volume 2820.396936
_symmetry_space_group_name_H-M "C 2/M"
_symmetry_group_IT_number 12
_symmetry_cell_setting 'monoclinic'
loop_
_space_group_symop_operation_xyz
x,y,z
-x,y,-z
-x,-y,-z
x,-y,z
1/2+x,1/2+y,z
1/2-x,1/2+y,-z
1/2-x,1/2-y,-z
1/2+x,1/2-y,z
loop_
_atom_site_type_symbol
_atom_site_label
_atom_site_fract_x
_atom_site_fract_y
_atom_site_fract_z
Si Si1 0.519090 0.923948 0.669912
Si Si2 0.223014 0.857161 0.618564
Si Si3 0.216949 0.140922 0.026339
Si Si4 0.500000 0.000000 0.500000
Si Si5 0.289222 0.344722 0.619741
Si Si6 0.153578 0.210696 0.188190
Si Si7 0.128380 0.451135 0.902563
Si Si8 0.725037 0.810823 0.171952
O O1 0.319563 0.904313 0.634601
O O2 0.558371 0.961649 0.587731
O O3 0.664938 0.884178 0.660233
O O4 0.527061 0.942071 0.788610
O O5 0.259595 0.838458 0.504012
O O6 0.314881 0.828585 0.714000
O O7 0.004393 0.858559 0.627547
O O8 0.315776 0.153886 0.920897
O O9 0.260975 0.179636 0.110857
O O10 0.253612 0.092559 0.072296
O O11 0.000000 0.143110 0.000000
O O12 0.273755 0.301706 0.693288
O O13 0.152516 0.261525 0.155842
O O14 0.943966 0.195624 0.178012
O O15 0.218334 0.500000 0.898417
O O16 0.000000 0.452733 0.000000
#
# Coordination Sequence:
#
# PCOD9206446 Si02
#       8
#     8   8   8   2   8   8   8   8
#     4  12  22  43  67  92 131 166 207 264 317 371
#     4  10  22  39  61  91 126 167 209 257 313 376
#     4  10  21  40  61  84 122 162 204 257 315 372
#     4  12  24  40  72 104 118 168 224 256 308 384
#     4  10  21  40  63  88 126 171 208 253 318 373
#     4  10  21  36  58  88 122 159 209 260 306 379
#     4  11  24  40  63  92 123 160 208 262 317 379
#     4  10  22  36  57  90 122 159 210 256 309 378
#
# _framework density 20.56448
#
# number of rings (size 3 to 8) (size 9 to 14) (size 15 to 20)
#    0.000    1.517    3.448    1.241    1.931    1.931 
#    0.000    1.379    0.000    0.000    0.000    0.000 
#    0.000    0.000    0.000    0.000    0.000    0.000 
#
# Total GULP energy -161615.373136 kJ/mol
# GULP energy per Si atom -5572.943901 kJ/mol
# Density = 2.051767 g / cm^3
# Si number density = 20.564480 Si / 1000 Ang^3
#
#
#
# Elastic Constant Matrix: (Units=GPa)
#
#
# Indices 1 2 3 4 5 6 
#
# 1 36.4777 3.9121 14.3766 0.0000 -2.4608 0.0000
# 2 3.9121 110.2937 32.6810 0.0000 12.0319 0.0000
# 3 14.3766 32.6810 139.3643 0.0000 17.2342 0.0000
# 4 0.0000 0.0000 0.0000 33.3244 0.0000 9.0727
# 5 -2.4608 12.0319 17.2342 0.0000 16.2558 0.0000
# 6 0.0000 0.0000 0.0000 9.0727 0.0000 -84.2414
#
#
#
# Elastic Compliance Matrix: (Units=1/GPa)
#
#
# Indices 1 2 3 4 5 6 
#
# 1 0.029731 -0.000891 -0.004024 0.000000 0.009426 0.000000
# 2 -0.000891 0.010219 -0.001557 0.000000 -0.006048 0.000000
# 3 -0.004024 -0.001557 0.009079 0.000000 -0.009082 0.000000
# 4 0.000000 0.000000 0.000000 0.029153 0.000000 0.003140
# 5 0.009426 -0.006048 -0.009082 0.000000 0.077049 0.000000
# 6 0.000000 0.000000 0.000000 0.003140 0.000000 -0.011533
#
#
# Mechanical properties :
#
#
# Convention : Reuss Voigt Hill
#
# Bulk Modulus (GPa) = 27.71055 43.11946 35.41500
# Shear Modulus (GPa) = 29.64371 8.74551 19.19461
#
# Velocity S-wave (km/s) = 3.80083 2.06445 3.05845
# Velocity P-wave (km/s) = 5.72415 5.16682 5.45261
#
# Compressibility (1/GPa) = 0.03608733
#
# Stress axis : x y z
#
# Youngs Moduli (GPa) = 33.63464 97.85355 110.14827
#
# Poissons Ratio (x) = 0.08714 0.44322
# Poissons Ratio (y) = 0.02995 0.17146
# Poissons Ratio (z) = 0.13534 0.15232
#
# Static dielectric constant tensor:
#      x y z
#    x 1.758710 0.000000 -0.005920 
#    y 0.000000 1.716720 0.000000 
#    z -0.005920 0.000000 1.769390 
# 
# From -- ./inp_files/124302.got.cif
#   From: 2010.05.17/outbox.cif.g08.bks.cpg/sg12_63_cif.got.tgz:124302.got - 2010.06.03 13:09:07.
