data_PCOD9206157
_publ_section_title
;
Structure prediction by ZEFSAII (Michael W. Deem and Ramdas Pophale) SiO2 
 PCOD9206157
Probable space group: C 2/M
;
_chemical_formula_sum "Si O2"
_cell_formula_units_Z 58
_cell_length_a 13.833946
_cell_length_b 13.007782
_cell_length_c 16.269206
_cell_angle_alpha 90.000000
_cell_angle_beta 92.626438
_cell_angle_gamma 90.000000
_cell_volume 2924.551219
_symmetry_space_group_name_H-M "C 2/M"
_symmetry_group_IT_number 12
_symmetry_cell_setting 'monoclinic'
loop_
_space_group_symop_operation_xyz
x,y,z
-x,y,-z
-x,-y,-z
x,-y,z
1/2+x,1/2+y,z
1/2-x,1/2+y,-z
1/2-x,1/2-y,-z
1/2+x,1/2-y,z
loop_
_atom_site_type_symbol
_atom_site_label
_atom_site_fract_x
_atom_site_fract_y
_atom_site_fract_z
Si Si1 0.714048 0.113953 0.927903
Si Si2 0.745372 0.311397 0.251081
Si Si3 0.135874 0.117117 0.776626
Si Si4 0.345690 0.841066 0.420725
Si Si5 0.144412 0.117329 0.506133
Si Si6 0.602472 0.319153 0.959253
Si Si7 0.500000 0.000000 0.500000
Si Si8 0.443277 0.379784 0.672088
O O1 0.742714 0.129789 0.833875
O O2 0.637011 0.201275 0.948691
O O3 0.676003 0.000000 0.940157
O O4 0.811223 0.130321 0.984836
O O5 0.777372 0.195104 0.234892
O O6 0.815091 0.354762 0.324948
O O7 0.638467 0.316608 0.283829
O O8 0.100067 0.131448 0.868729
O O9 0.047214 0.143689 0.713170
O O10 0.164450 0.000000 0.763407
O O11 0.252299 0.876687 0.470725
O O12 0.360448 0.719214 0.438757
O O13 0.434928 0.909806 0.451381
O O14 0.071922 0.131599 0.425960
O O15 0.130938 0.000000 0.539428
O O16 0.500000 0.327787 0.000000
O O17 0.423503 0.500000 0.689024
#
# Coordination Sequence:
#
# PCOD9206157 Si02
#       8
#     8   8   8   8   8   8   2   8
#     4  10  21  36  58  83 109 145 181 221 271 328
#     4  10  21  36  57  82 112 146 186 228 273 330
#     4  10  21  36  56  84 114 142 181 230 275 323
#     4  10  22  36  57  81 114 147 188 235 283 330
#     4   9  18  38  58  80 108 151 191 230 278 338
#     4  10  21  37  57  84 112 140 181 224 270 326
#     4  12  24  36  54  88 108 150 184 242 284 332
#     4   9  18  34  58  81 108 148 186 227 277 330
#
# _framework density 19.832103
#
# number of rings (size 3 to 8) (size 9 to 14) (size 15 to 20)
#    0.000    2.207    0.690    1.655    3.862    3.034 
#    0.000    0.345    0.000    9.103    0.000    0.000 
#    0.000    0.000    0.000    0.000    0.000    0.000 
#
# Total GULP energy -161798.591356 kJ/mol
# GULP energy per Si atom -5579.261771 kJ/mol
# Density = 1.978696 g / cm^3
# Si number density = 19.832103 Si / 1000 Ang^3
#
#
#
# Elastic Constant Matrix: (Units=GPa)
#
#
# Indices 1 2 3 4 5 6 
#
# 1 46.6957 26.9403 21.9905 0.0000 -3.2947 0.0000
# 2 26.9403 103.0319 31.4097 0.0000 3.1236 0.0000
# 3 21.9905 31.4097 102.4345 0.0000 9.3050 0.0000
# 4 0.0000 0.0000 0.0000 9.9587 0.0000 11.3755
# 5 -3.2947 3.1236 9.3050 0.0000 28.8281 0.0000
# 6 0.0000 0.0000 0.0000 11.3755 0.0000 19.6115
#
#
#
# Elastic Compliance Matrix: (Units=1/GPa)
#
#
# Indices 1 2 3 4 5 6 
#
# 1 0.027334 -0.005926 -0.004526 0.000000 0.005227 0.000000
# 2 -0.005926 0.011992 -0.002292 0.000000 -0.001237 0.000000
# 3 -0.004526 -0.002292 0.011808 0.000000 -0.004080 0.000000
# 4 0.000000 0.000000 0.000000 0.297583 0.000000 -0.172611
# 5 0.005227 -0.001237 -0.004080 0.000000 0.036737 0.000000
# 6 0.000000 0.000000 0.000000 -0.172611 0.000000 0.151112
#
#
# Mechanical properties :
#
#
# Convention : Reuss Voigt Hill
#
# Bulk Modulus (GPa) = 38.99422 45.87147 42.43285
# Shear Modulus (GPa) = 8.76267 23.13442 15.94854
#
# Velocity S-wave (km/s) = 2.10429 3.41913 2.83888
# Velocity P-wave (km/s) = 5.06052 6.22635 5.67346
#
# Compressibility (1/GPa) = 0.02564483
#
# Stress axis : x y z
#
# Youngs Moduli (GPa) = 36.58402 83.39166 84.69187
#
# Poissons Ratio (x) = 0.49418 0.38330
# Poissons Ratio (y) = 0.21680 0.19416
# Poissons Ratio (z) = 0.16557 0.19117
#
# Static dielectric constant tensor:
#      x y z
#    x 1.683010 0.000000 -0.010150 
#    y 0.000000 1.693930 0.000000 
#    z -0.010150 0.000000 1.698660 
# 
# From -- ./inp_files/268821.got.cif
#   From: 2010.05.17/outbox.cif.g08.bks.cpg/sg12_135_cif.got.tgz:268821.got - 2010.06.03 13:09:07.
