data_PCOD9206075
_publ_section_title
;
Structure prediction by ZEFSAII (Michael W. Deem and Ramdas Pophale) SiO2 
 PCOD9206075
Probable space group: C 2/M
;
_chemical_formula_sum "Si O2"
_cell_formula_units_Z 56
_cell_length_a 16.575449
_cell_length_b 21.573078
_cell_length_c 8.035849
_cell_angle_alpha 90.000000
_cell_angle_beta 63.437839
_cell_angle_gamma 90.000000
_cell_volume 2570.189405
_symmetry_space_group_name_H-M "C 2/M"
_symmetry_group_IT_number 12
_symmetry_cell_setting 'monoclinic'
loop_
_space_group_symop_operation_xyz
x,y,z
-x,y,-z
-x,-y,-z
x,-y,z
1/2+x,1/2+y,z
1/2-x,1/2+y,-z
1/2-x,1/2-y,-z
1/2+x,1/2-y,z
loop_
_atom_site_type_symbol
_atom_site_label
_atom_site_fract_x
_atom_site_fract_y
_atom_site_fract_z
Si Si1 0.302237 0.875012 0.573046
Si Si2 0.102555 0.261522 0.344271
Si Si3 0.358264 0.930153 0.833848
Si Si4 0.451003 0.670949 0.871675
Si Si5 0.042500 0.426178 0.778115
Si Si6 0.630113 0.638890 0.514400
Si Si7 0.178483 0.073408 0.142538
O O1 0.335538 0.818706 0.660416
O O2 0.315300 0.930306 0.691507
O O3 0.370987 0.887261 0.357417
O O4 0.203305 0.868189 0.591265
O O5 0.143927 0.203764 0.407436
O O6 0.000000 0.272527 0.500000
O O7 0.091446 0.233455 0.168796
O O8 0.459037 0.904393 0.738799
O O9 0.374064 0.000000 0.879224
O O10 0.282601 0.905110 0.027905
O O11 0.529674 0.644910 0.677959
O O12 0.377299 0.616428 0.933078
O O13 0.500000 0.682378 0.000000
O O14 0.063452 0.500000 0.740029
O O15 0.000000 0.416646 0.000000
O O16 0.643802 0.587243 0.360288
O O17 0.172832 0.000000 0.111508
#
# Coordination Sequence:
#
# PCOD9206075 Si02
#       7
#     8   8   8   8   8   8   8
#     4  12  21  36  60  86 115 156 202 236 283 354
#     4   9  20  39  59  82 114 152 195 243 290 344
#     4  10  21  36  55  84 117 148 190 245 293 338
#     4  10  21  41  62  86 120 153 189 246 306 346
#     4  10  21  37  57  84 120 157 192 239 296 347
#     4  10  22  38  58  84 119 153 189 242 296 343
#     4  10  21  39  62  87 118 157 198 237 290 360
#
# _framework density 21.788277000000001
#
# number of rings (size 3 to 8) (size 9 to 14) (size 15 to 20)
#    0.000    1.857    0.000    5.143    0.000    4.857 
#    0.000   15.714    0.000    1.714    0.000    0.000 
#    0.000    0.000    0.000    0.000    0.000    0.000 
#
# Total GULP energy -156238.234752 kJ/mol
# GULP energy per Si atom -5579.936955 kJ/mol
# Density = 2.173869 g / cm^3
# Si number density = 21.788277 Si / 1000 Ang^3
#
#
#
# Elastic Constant Matrix: (Units=GPa)
#
#
# Indices 1 2 3 4 5 6 
#
# 1 103.1561 22.8158 -2.4438 0.0000 11.8353 0.0000
# 2 22.8158 82.6459 8.7512 0.0000 1.5817 0.0000
# 3 -2.4438 8.7512 67.9310 0.0000 3.8992 0.0000
# 4 0.0000 0.0000 0.0000 12.9247 0.0000 -4.6383
# 5 11.8353 1.5817 3.8992 0.0000 40.0625 0.0000
# 6 0.0000 0.0000 0.0000 -4.6383 0.0000 19.7372
#
#
#
# Elastic Compliance Matrix: (Units=1/GPa)
#
#
# Indices 1 2 3 4 5 6 
#
# 1 0.010743 -0.003007 0.000954 0.000000 -0.003148 0.000000
# 2 -0.003007 0.013113 -0.001829 0.000000 0.000549 0.000000
# 3 0.000954 -0.001829 0.015087 0.000000 -0.001678 0.000000
# 4 0.000000 0.000000 0.000000 0.084497 0.000000 0.019857
# 5 -0.003148 0.000549 -0.001678 0.000000 0.026033 0.000000
# 6 0.000000 0.000000 0.000000 0.019857 0.000000 0.055332
#
#
# Mechanical properties :
#
#
# Convention : Reuss Voigt Hill
#
# Bulk Modulus (GPa) = 32.07096 34.66439 33.36767
# Shear Modulus (GPa) = 22.42547 29.51885 25.97216
#
# Velocity S-wave (km/s) = 3.21167 3.68476 3.45632
# Velocity P-wave (km/s) = 5.33895 5.83502 5.59249
#
# Compressibility (1/GPa) = 0.03118086
#
# Stress axis : x y z
#
# Youngs Moduli (GPa) = 93.08557 76.26025 66.28179
#
# Poissons Ratio (x) = 0.22928 -0.06326
# Poissons Ratio (y) = 0.27987 0.12122
# Poissons Ratio (z) = -0.08885 0.13947
#
# Static dielectric constant tensor:
#      x y z
#    x 1.804510 0.000000 0.009430 
#    y 0.000000 1.833820 0.000000 
#    z 0.009430 0.000000 1.824300 
# 
# From -- ./inp_files/65734.got.cif
#   From: 2010.05.17/outbox.cif.g08.bks.cpg/sg12_33_cif.got.tgz:65734.got - 2010.06.03 13:09:07.
