data_PCOD9206533
_publ_section_title
;
Structure prediction by ZEFSAII (Michael W. Deem and Ramdas Pophale) SiO2 
 PCOD9206533
Probable space group: C 2/M
;
_chemical_formula_sum "Si O2"
_cell_formula_units_Z 36
_cell_length_a 12.283523
_cell_length_b 19.107645
_cell_length_c 9.114646
_cell_angle_alpha 90.000000
_cell_angle_beta 120.444907
_cell_angle_gamma 90.000000
_cell_volume 1844.318894
_symmetry_space_group_name_H-M "C 2/M"
_symmetry_group_IT_number 12
_symmetry_cell_setting 'monoclinic'
loop_
_space_group_symop_operation_xyz
x,y,z
-x,y,-z
-x,-y,-z
x,-y,z
1/2+x,1/2+y,z
1/2-x,1/2+y,-z
1/2-x,1/2-y,-z
1/2+x,1/2-y,z
loop_
_atom_site_type_symbol
_atom_site_label
_atom_site_fract_x
_atom_site_fract_y
_atom_site_fract_z
Si Si1 0.862369 0.420233 0.333969
Si Si2 0.000000 0.205140 0.000000
Si Si3 0.371145 0.918693 0.989152
Si Si4 0.331915 0.307625 0.146063
Si Si5 0.249155 0.725414 0.665783
O O1 0.816076 0.500000 0.329728
O O2 0.879400 0.411818 0.170729
O O3 0.775145 0.357580 0.332891
O O4 0.000000 0.413852 0.500000
O O5 0.115598 0.242737 0.164753
O O6 0.933545 0.168324 0.094540
O O7 0.353718 0.000000 0.940073
O O8 0.500000 0.895071 0.000000
O O9 0.252414 0.872672 0.864368
O O10 0.359218 0.264646 0.312642
O O11 0.250000 0.250000 0.000000
O O12 0.250000 0.750000 0.500000
#
# Coordination Sequence:
#
# PCOD9206533 Si02
#       5
#     8   4   8   8   8
#     4  10  22  39  59  90 123 159 208 258 311 366
#     4  10  22  42  57  90 123 162 212 250 314 370
#     4  10  21  38  61  91 123 162 207 258 314 362
#     4  10  21  36  59  87 123 160 207 257 302 373
#     4  11  25  38  63  91 125 168 208 259 313 374
#
# _framework density 19.519400999999998
#
# number of rings (size 3 to 8) (size 9 to 14) (size 15 to 20)
#    0.000    1.778    4.444    0.000   12.444    0.000 
#    0.000    2.222    0.000    0.000    0.000    3.111 
#    0.000    0.000    0.000    0.000    0.000    0.000 
#
# Total GULP energy -100220.597925 kJ/mol
# GULP energy per Si atom -5567.810996 kJ/mol
# Density = 1.947497 g / cm^3
# Si number density = 19.519401 Si / 1000 Ang^3
#
#
#
# Elastic Constant Matrix: (Units=GPa)
#
#
# Indices 1 2 3 4 5 6 
#
# 1 121.8885 59.5314 20.8822 0.0000 -27.1616 0.0000
# 2 59.5314 119.8871 31.8104 0.0000 -11.3390 0.0000
# 3 20.8822 31.8104 85.7329 0.0000 -14.4032 0.0000
# 4 0.0000 0.0000 0.0000 17.6653 0.0000 -6.4131
# 5 -27.1616 -11.3390 -14.4032 0.0000 35.0887 0.0000
# 6 0.0000 0.0000 0.0000 -6.4131 0.0000 27.7719
#
#
#
# Elastic Compliance Matrix: (Units=1/GPa)
#
#
# Indices 1 2 3 4 5 6 
#
# 1 0.012717 -0.005639 0.000368 0.000000 0.008172 0.000000
# 2 -0.005639 0.011848 -0.003343 0.000000 -0.001909 0.000000
# 3 0.000368 -0.003343 0.013621 0.000000 0.004795 0.000000
# 4 0.000000 0.000000 0.000000 0.061788 0.000000 0.014268
# 5 0.008172 -0.001909 0.004795 0.000000 0.036177 0.000000
# 6 0.000000 0.000000 0.000000 0.014268 0.000000 0.039302
#
#
# Mechanical properties :
#
#
# Convention : Reuss Voigt Hill
#
# Bulk Modulus (GPa) = 47.71871 61.32849 54.52360
# Shear Modulus (GPa) = 25.04173 30.45749 27.74961
#
# Velocity S-wave (km/s) = 3.58567 3.95444 3.77456
# Velocity P-wave (km/s) = 6.45310 7.23447 6.85493
#
# Compressibility (1/GPa) = 0.02095614
#
# Stress axis : x y z
#
# Youngs Moduli (GPa) = 78.63753 84.40283 73.41817
#
# Poissons Ratio (x) = 0.47597 -0.02701
# Poissons Ratio (y) = 0.44346 0.24545
# Poissons Ratio (z) = -0.02893 0.28218
#
# Static dielectric constant tensor:
#      x y z
#    x 1.774130 0.000000 -0.012130 
#    y 0.000000 1.698710 0.000000 
#    z -0.012130 0.000000 1.713310 
# 
# From -- ./inp_files/48962.got.cif
#   From: 2010.05.17/outbox.cif.g08.bks.cpg/sg12_25_cif.got.tgz:48962.got - 2010.06.03 13:09:07.
