data_PCOD9206101
_publ_section_title
;
Structure prediction by ZEFSAII (Michael W. Deem and Ramdas Pophale) SiO2 
 PCOD9206101
Probable space group: C 2/M
;
_chemical_formula_sum "Si O2"
_cell_formula_units_Z 56
_cell_length_a 14.950790
_cell_length_b 8.883103
_cell_length_c 25.192546
_cell_angle_alpha 90.000000
_cell_angle_beta 115.749207
_cell_angle_gamma 90.000000
_cell_volume 3013.582689
_symmetry_space_group_name_H-M "C 2/M"
_symmetry_group_IT_number 12
_symmetry_cell_setting 'monoclinic'
loop_
_space_group_symop_operation_xyz
x,y,z
-x,y,-z
-x,-y,-z
x,-y,z
1/2+x,1/2+y,z
1/2-x,1/2+y,-z
1/2-x,1/2-y,-z
1/2+x,1/2-y,z
loop_
_atom_site_type_symbol
_atom_site_label
_atom_site_fract_x
_atom_site_fract_y
_atom_site_fract_z
Si Si1 0.392822 0.181600 0.495553
Si Si2 0.228940 0.826838 0.938443
Si Si3 0.908746 0.172460 0.936452
Si Si4 0.638570 0.819366 0.816735
Si Si5 0.686768 0.181822 0.409197
Si Si6 0.843113 0.823593 0.808627
Si Si7 0.574837 0.180825 0.274651
O O1 0.500000 0.229783 0.500000
O O2 0.373754 0.221229 0.552617
O O3 0.297256 0.250387 0.441301
O O4 0.388671 0.000000 0.490167
O O5 0.332414 0.798836 0.934888
O O6 0.151134 0.749754 0.878565
O O7 0.203724 0.000000 0.939752
O O8 0.250000 0.750000 0.000000
O O9 0.922793 0.194197 0.877239
O O10 0.865958 0.000000 0.930120
O O11 0.000000 0.177432 0.000000
O O12 0.736703 0.784507 0.807450
O O13 0.538535 0.766196 0.762382
O O14 0.634693 0.000000 0.821022
O O15 0.628656 0.234514 0.341896
O O16 0.694802 0.000000 0.410111
O O17 0.867894 0.729489 0.763470
O O18 0.841077 0.000000 0.793847
O O19 0.572292 0.000000 0.277064
#
# Coordination Sequence:
#
# PCOD9206101 Si02
#       7
#     8   8   8   8   8   8   8
#     4   9  18  34  58  84 111 145 186 227 264 313
#     4  11  22  35  53  77 104 135 176 225 277 334
#     4   9  19  36  55  76 103 133 169 221 283 338
#     4   9  20  39  56  75 105 143 181 224 278 333
#     4   9  19  35  53  81 116 146 179 224 274 320
#     4   9  19  35  54  77 106 139 179 224 273 327
#     4  10  21  36  56  79 110 148 183 221 271 330
#
# _framework density 18.582535
#
# number of rings (size 3 to 8) (size 9 to 14) (size 15 to 20)
#    0.000    2.571    0.000    2.143    2.000    5.143 
#    0.000    2.857    0.000    0.000    0.000    0.000 
#    0.000    0.000    0.000    0.000    0.000    0.000 
#
# Total GULP energy -156065.569311 kJ/mol
# GULP energy per Si atom -5573.770333 kJ/mol
# Density = 1.854024 g / cm^3
# Si number density = 18.582535 Si / 1000 Ang^3
#
#
#
# Elastic Constant Matrix: (Units=GPa)
#
#
# Indices 1 2 3 4 5 6 
#
# 1 106.0197 22.0683 73.1489 0.0000 13.1455 0.0000
# 2 22.0683 17.8634 32.6402 0.0000 4.3664 0.0000
# 3 73.1489 32.6402 184.0230 0.0000 21.7461 0.0000
# 4 0.0000 0.0000 0.0000 28.7373 0.0000 -1.8546
# 5 13.1455 4.3664 21.7461 0.0000 20.9660 0.0000
# 6 0.0000 0.0000 0.0000 -1.8546 0.0000 23.5925
#
#
#
# Elastic Compliance Matrix: (Units=1/GPa)
#
#
# Indices 1 2 3 4 5 6 
#
# 1 0.014457 -0.010752 -0.003457 0.000000 -0.003240 0.000000
# 2 -0.010752 0.090916 -0.011865 0.000000 0.000114 0.000000
# 3 -0.003457 -0.011865 0.009533 0.000000 -0.005249 0.000000
# 4 0.000000 0.000000 0.000000 0.034975 0.000000 0.002749
# 5 -0.003240 0.000114 -0.005249 0.000000 0.055149 0.000000
# 6 0.000000 0.000000 0.000000 0.002749 0.000000 0.042602
#
#
# Mechanical properties :
#
#
# Convention : Reuss Voigt Hill
#
# Bulk Modulus (GPa) = 15.93419 62.62453 39.27936
# Shear Modulus (GPa) = 15.59088 26.66240 21.12664
#
# Velocity S-wave (km/s) = 2.89970 3.79200 3.37547
# Velocity P-wave (km/s) = 4.45022 7.27642 6.03120
#
# Compressibility (1/GPa) = 0.06275812
#
# Stress axis : x y z
#
# Youngs Moduli (GPa) = 69.17085 10.99912 104.89890
#
# Poissons Ratio (x) = 0.11826 0.36260
# Poissons Ratio (y) = 0.74373 1.24466
# Poissons Ratio (z) = 0.23910 0.13051
#
# Static dielectric constant tensor:
#      x y z
#    x 1.663640 0.000000 0.004930 
#    y 0.000000 1.641550 0.000000 
#    z 0.004930 0.000000 1.653480 
# 
# From -- ./inp_files/338204.got.cif
#   From: 2010.05.17/outbox.cif.g08.bks.cpg/sg12_170_cif.got.tgz:338204.got - 2010.06.03 13:09:07.
