data_PCOD9206381
_publ_section_title
;
Structure prediction by ZEFSAII (Michael W. Deem and Ramdas Pophale) SiO2 
 PCOD9206381
Probable space group: C 2/M
;
_chemical_formula_sum "Si O2"
_cell_formula_units_Z 56
_cell_length_a 18.126873
_cell_length_b 16.797748
_cell_length_c 12.295880
_cell_angle_alpha 90.000000
_cell_angle_beta 128.923046
_cell_angle_gamma 90.000000
_cell_volume 2912.781209
_symmetry_space_group_name_H-M "C 2/M"
_symmetry_group_IT_number 12
_symmetry_cell_setting 'monoclinic'
loop_
_space_group_symop_operation_xyz
x,y,z
-x,y,-z
-x,-y,-z
x,-y,z
1/2+x,1/2+y,z
1/2-x,1/2+y,-z
1/2-x,1/2-y,-z
1/2+x,1/2-y,z
loop_
_atom_site_type_symbol
_atom_site_label
_atom_site_fract_x
_atom_site_fract_y
_atom_site_fract_z
Si Si1 0.611538 0.666454 0.098123
Si Si2 0.392406 0.095750 0.389604
Si Si3 0.003470 0.588903 0.872089
Si Si4 0.695465 0.172903 0.079740
Si Si5 0.723555 0.403917 0.392295
Si Si6 0.757948 0.092149 0.936994
Si Si7 0.295362 0.095958 0.683342
O O1 0.668613 0.741522 0.102102
O O2 0.647555 0.642361 0.250487
O O3 0.648250 0.597679 0.050898
O O4 0.500000 0.681246 0.000000
O O5 0.500000 0.127132 0.500000
O O6 0.324941 0.114939 0.429429
O O7 0.329742 0.115509 0.224677
O O8 0.399347 0.000000 0.393501
O O9 0.012277 0.500000 0.832394
O O10 0.901635 0.624638 0.749984
O O11 0.096797 0.638613 0.939620
O O12 0.000000 0.581549 0.000000
O O13 0.726428 0.125162 0.216355
O O14 0.764996 0.152299 0.045251
O O15 0.710455 0.500000 0.371013
O O16 0.726654 0.381839 0.521703
O O17 0.744371 0.000000 0.960223
O O18 0.302432 0.000000 0.692742
#
# Coordination Sequence:
#
# PCOD9206381 Si02
#       7
#     8   8   8   8   8   8   8
#     4  11  23  39  56  77 111 153 194 231 268 322
#     4   8  15  28  47  75 107 136 170 221 275 320
#     4   8  14  25  44  74 109 142 171 202 256 332
#     4  11  20  33  53  83 115 143 177 223 288 343
#     4   9  19  34  53  78 105 143 196 235 270 320
#     4  10  21  36  58  84 108 142 190 236 277 323
#     4   9  17  30  51  79 112 145 180 225 275 335
#
# _framework density 19.225612000000002
#
# number of rings (size 3 to 8) (size 9 to 14) (size 15 to 20)
#    0.000    2.571    0.000    5.143    2.000    1.714 
#    0.000    0.000    0.000    0.857    0.000    3.000 
#    0.000    0.000    0.000    0.000    0.000    0.000 
#
# Total GULP energy -155974.611176 kJ/mol
# GULP energy per Si atom -5570.521828 kJ/mol
# Density = 1.918185 g / cm^3
# Si number density = 19.225612 Si / 1000 Ang^3
#
#
#
# Elastic Constant Matrix: (Units=GPa)
#
#
# Indices 1 2 3 4 5 6 
#
# 1 53.7633 7.5372 41.5062 0.0000 -13.2141 0.0000
# 2 7.5372 40.6700 27.7204 0.0000 -3.8069 0.0000
# 3 41.5062 27.7204 108.9070 0.0000 -23.3443 0.0000
# 4 0.0000 0.0000 0.0000 5.6078 0.0000 -7.8321
# 5 -13.2141 -3.8069 -23.3443 0.0000 26.5090 0.0000
# 6 0.0000 0.0000 0.0000 -7.8321 0.0000 6.0984
#
#
#
# Elastic Compliance Matrix: (Units=1/GPa)
#
#
# Indices 1 2 3 4 5 6 
#
# 1 0.027118 0.002110 -0.009750 0.000000 0.005235 0.000000
# 2 0.002110 0.030102 -0.009016 0.000000 -0.002565 0.000000
# 3 -0.009750 -0.009016 0.017102 0.000000 0.008905 0.000000
# 4 0.000000 0.000000 0.000000 -0.224683 0.000000 -0.288555
# 5 0.005235 -0.002565 0.008905 0.000000 0.047806 0.000000
# 6 0.000000 0.000000 0.000000 -0.288555 0.000000 -0.206608
#
#
# Mechanical properties :
#
#
# Convention : Reuss Voigt Hill
#
# Bulk Modulus (GPa) = 24.38444 39.65200 32.01822
# Shear Modulus (GPa) = -19.07080 16.08148 -1.49466
#
# Velocity S-wave (km/s) = -3.15294 2.89530 -0.88268
# Velocity P-wave (km/s) = 0.73745 5.64326 3.95617
#
# Compressibility (1/GPa) = 0.04100976
#
# Stress axis : x y z
#
# Youngs Moduli (GPa) = 36.87573 33.22018 58.47350
#
# Poissons Ratio (x) = -0.07009 0.57013
# Poissons Ratio (y) = -0.07780 0.52719
# Poissons Ratio (z) = 0.35954 0.29951
#
# Static dielectric constant tensor:
#      x y z
#    x 1.717510 0.000000 -0.005710 
#    y 0.000000 1.719030 0.000000 
#    z -0.005710 0.000000 1.690360 
# 
# From -- ./inp_files/158358.got.cif
#   From: 2010.05.17/outbox.cif.g08.bks.cpg/sg12_80_cif.got.tgz:158358.got - 2010.06.03 13:09:07.
