data_PCOD9206308
_publ_section_title
;
Structure prediction by ZEFSAII (Michael W. Deem and Ramdas Pophale) SiO2 
 PCOD9206308
Probable space group: C 2/M
;
_chemical_formula_sum "Si O2"
_cell_formula_units_Z 60
_cell_length_a 18.868978
_cell_length_b 30.967069
_cell_length_c 5.337089
_cell_angle_alpha 90.000000
_cell_angle_beta 76.903112
_cell_angle_gamma 90.000000
_cell_volume 3037.432632
_symmetry_space_group_name_H-M "C 2/M"
_symmetry_group_IT_number 12
_symmetry_cell_setting 'monoclinic'
loop_
_space_group_symop_operation_xyz
x,y,z
-x,y,-z
-x,-y,-z
x,-y,z
1/2+x,1/2+y,z
1/2-x,1/2+y,-z
1/2-x,1/2-y,-z
1/2+x,1/2-y,z
loop_
_atom_site_type_symbol
_atom_site_label
_atom_site_fract_x
_atom_site_fract_y
_atom_site_fract_z
Si Si1 0.583757 0.951693 0.861205
Si Si2 0.835494 0.134638 0.904934
Si Si3 0.953182 0.207522 0.786814
Si Si4 0.656261 0.579980 0.583153
Si Si5 0.048434 0.000000 0.712903
Si Si6 0.046657 0.309707 0.215537
Si Si7 0.672631 0.124122 0.031300
Si Si8 0.696162 0.047212 0.385660
O O1 0.614007 0.955686 0.556020
O O2 0.604372 0.000000 0.950516
O O3 0.500000 0.946472 0.000000
O O4 0.625355 0.907695 0.895909
O O5 0.882340 0.177978 0.861151
O O6 0.863293 0.104053 0.658111
O O7 0.842745 0.111453 0.172368
O O8 0.751042 0.142872 0.895791
O O9 0.936237 0.258658 0.791094
O O10 0.000000 0.197256 0.500000
O O11 0.000000 0.199810 0.000000
O O12 0.599685 0.541948 0.675577
O O13 0.736903 0.558422 0.482039
O O14 0.000000 0.000000 0.500000
O O15 0.000000 0.000000 0.000000
O O16 0.118966 0.338223 0.157058
O O17 0.000000 0.320374 0.500000
O O18 0.000000 0.317996 0.000000
O O19 0.694782 0.088470 0.215546
O O20 0.715202 0.000000 0.264081
#
# Coordination Sequence:
#
# PCOD9206308 Si02
#       8
#     8   8   8   8   4   8   8   8
#     4  10  21  36  57  86 122 166 216 259 299 365
#     4  11  24  39  67  93 124 163 213 257 314 374
#     4  10  22  44  67  93 123 163 206 257 321 385
#     4  11  23  42  61  91 127 169 203 259 314 369
#     4  12  26  42  62  94 127 163 215 263 318 374
#     4  10  24  42  66  92 127 167 203 257 327 375
#     4  11  23  36  60  92 126 161 218 252 320 368
#     4  10  21  39  59  84 126 174 210 250 310 370
#
# _framework density 19.753526000000001
#
# number of rings (size 3 to 8) (size 9 to 14) (size 15 to 20)
#    0.000    1.467    2.000    2.400    3.733    3.733 
#    1.200    2.000    0.000    7.200    0.000    0.000 
#    0.000    0.000    0.000    0.000    0.000    0.000 
#
# Total GULP energy -167106.871254 kJ/mol
# GULP energy per Si atom -5570.229042 kJ/mol
# Density = 1.970857 g / cm^3
# Si number density = 19.753526 Si / 1000 Ang^3
#
#
#
# Elastic Constant Matrix: (Units=GPa)
#
#
# Indices 1 2 3 4 5 6 
#
# 1 46.0224 55.2054 19.6100 0.0000 -18.7551 0.0000
# 2 55.2054 99.9366 34.2507 0.0000 -21.0382 0.0000
# 3 19.6100 34.2507 91.0493 0.0000 -7.4247 0.0000
# 4 0.0000 0.0000 0.0000 20.1058 0.0000 -10.2494
# 5 -18.7551 -21.0382 -7.4247 0.0000 32.9027 0.0000
# 6 0.0000 0.0000 0.0000 -10.2494 0.0000 32.0316
#
#
#
# Elastic Compliance Matrix: (Units=1/GPa)
#
#
# Indices 1 2 3 4 5 6 
#
# 1 0.072809 -0.036181 -0.000584 0.000000 0.018236 0.000000
# 2 -0.036181 0.031009 -0.004011 0.000000 -0.001701 0.000000
# 3 -0.000584 -0.004011 0.012614 0.000000 -0.000051 0.000000
# 4 0.000000 0.000000 0.000000 0.059431 0.000000 0.019017
# 5 0.018236 -0.001701 -0.000051 0.000000 0.039688 0.000000
# 6 0.000000 0.000000 0.000000 0.019017 0.000000 0.037304
#
#
# Mechanical properties :
#
#
# Convention : Reuss Voigt Hill
#
# Bulk Modulus (GPa) = 28.66966 50.57118 39.62042
# Shear Modulus (GPa) = 14.44941 25.53749 19.99345
#
# Velocity S-wave (km/s) = 2.70753 3.59946 3.18488
# Velocity P-wave (km/s) = 4.93148 6.55221 5.79875
#
# Compressibility (1/GPa) = 0.03488008
#
# Stress axis : x y z
#
# Youngs Moduli (GPa) = 13.73451 32.24819 79.27970
#
# Poissons Ratio (x) = 1.16677 0.04629
# Poissons Ratio (y) = 0.49693 0.31801
# Poissons Ratio (z) = 0.00802 0.12936
#
# Static dielectric constant tensor:
#      x y z
#    x 1.787580 0.000000 0.057780 
#    y 0.000000 1.687160 0.000000 
#    z 0.057780 0.000000 1.782340 
# 
# From -- ./inp_files/18289.got.cif
#   From: 2010.05.17/outbox.cif.g08.bks.cpg/sg12_10_cif.got.tgz:18289.got - 2010.06.03 13:09:07.
