data_PCOD9206200
_publ_section_title
;
Structure prediction by ZEFSAII (Michael W. Deem and Ramdas Pophale) SiO2 
 PCOD9206200
Probable space group: C 2/M
;
_chemical_formula_sum "Si O2"
_cell_formula_units_Z 56
_cell_length_a 16.266246
_cell_length_b 8.981833
_cell_length_c 28.654068
_cell_angle_alpha 90.000000
_cell_angle_beta 134.974507
_cell_angle_gamma 90.000000
_cell_volume 2961.534177
_symmetry_space_group_name_H-M "C 2/M"
_symmetry_group_IT_number 12
_symmetry_cell_setting 'monoclinic'
loop_
_space_group_symop_operation_xyz
x,y,z
-x,y,-z
-x,-y,-z
x,-y,z
1/2+x,1/2+y,z
1/2-x,1/2+y,-z
1/2-x,1/2-y,-z
1/2+x,1/2-y,z
loop_
_atom_site_type_symbol
_atom_site_label
_atom_site_fract_x
_atom_site_fract_y
_atom_site_fract_z
Si Si1 0.737207 0.169777 0.811193
Si Si2 0.535633 0.168387 0.068226
Si Si3 0.446562 0.820286 0.340294
Si Si4 0.639198 0.181475 0.341771
Si Si5 0.533030 0.169238 0.805334
Si Si6 0.866195 0.828279 0.064281
Si Si7 0.900886 0.179721 0.422905
O O1 0.668413 0.213811 0.736703
O O2 0.637942 0.162487 0.810586
O O3 0.833629 0.284008 0.867360
O O4 0.783456 0.000000 0.824061
O O5 0.458622 0.292704 0.061687
O O6 0.512607 0.000000 0.076569
O O7 0.500000 0.168659 0.000000
O O8 0.559772 0.772543 0.354543
O O9 0.432306 0.748663 0.385273
O O10 0.452634 0.000000 0.346800
O O11 0.574399 0.229871 0.268072
O O12 0.773760 0.225851 0.391705
O O13 0.634229 0.000000 0.339987
O O14 0.577506 0.261643 0.866595
O O15 0.505815 0.000000 0.809466
O O16 0.841809 0.000000 0.061247
O O17 0.750000 0.750000 0.000000
O O18 0.000000 0.218994 0.500000
O O19 0.898464 0.000000 0.417083
#
# Coordination Sequence:
#
# PCOD9206200 Si02
#       7
#     8   8   8   8   8   8   8
#     4   9  19  36  58  83 110 142 183 237 291 344
#     4  11  24  39  56  80 110 146 188 232 282 343
#     4   9  19  37  59  83 114 152 197 240 291 355
#     4   8  17  36  59  82 115 158 193 234 296 358
#     4   9  18  36  60  82 108 146 189 231 287 350
#     4  12  25  39  56  80 112 147 187 235 285 337
#     4  10  21  36  56  86 121 156 198 246 295 350
#
# _framework density 18.909116999999998
#
# number of rings (size 3 to 8) (size 9 to 14) (size 15 to 20)
#    0.000    2.286    0.000    4.286    2.000    5.429 
#    0.000    2.857    0.000    0.000    0.000    0.000 
#    0.000    0.000    0.000    0.000    0.000    0.000 
#
# Total GULP energy -156150.727043 kJ/mol
# GULP energy per Si atom -5576.811680 kJ/mol
# Density = 1.886608 g / cm^3
# Si number density = 18.909117 Si / 1000 Ang^3
#
#
#
# Elastic Constant Matrix: (Units=GPa)
#
#
# Indices 1 2 3 4 5 6 
#
# 1 79.7017 17.0707 76.5288 0.0000 -0.7769 0.0000
# 2 17.0707 48.0213 46.6709 0.0000 -4.1136 0.0000
# 3 76.5288 46.6709 145.0237 0.0000 2.1386 0.0000
# 4 0.0000 0.0000 0.0000 19.1276 0.0000 -11.5091
# 5 -0.7769 -4.1136 2.1386 0.0000 38.4184 0.0000
# 6 0.0000 0.0000 0.0000 -11.5091 0.0000 28.2560
#
#
#
# Elastic Compliance Matrix: (Units=1/GPa)
#
#
# Indices 1 2 3 4 5 6 
#
# 1 0.026776 0.006442 -0.016234 0.000000 0.002135 0.000000
# 2 0.006442 0.032413 -0.013895 0.000000 0.004374 0.000000
# 3 -0.016234 -0.013895 0.019977 0.000000 -0.002928 0.000000
# 4 0.000000 0.000000 0.000000 0.069253 0.000000 0.028208
# 5 0.002135 0.004374 -0.002928 0.000000 0.026704 0.000000
# 6 0.000000 0.000000 0.000000 0.028208 0.000000 0.046880
#
#
# Mechanical properties :
#
#
# Convention : Reuss Voigt Hill
#
# Bulk Modulus (GPa) = 31.45472 61.47639 46.46556
# Shear Modulus (GPa) = 17.85876 25.99215 21.92546
#
# Velocity S-wave (km/s) = 3.07653 3.71156 3.40886
# Velocity P-wave (km/s) = 5.41210 7.13790 6.33405
#
# Compressibility (1/GPa) = 0.03179173
#
# Stress axis : x y z
#
# Youngs Moduli (GPa) = 37.34727 30.85175 50.05737
#
# Poissons Ratio (x) = -0.19876 0.81264
# Poissons Ratio (y) = -0.24060 0.69556
# Poissons Ratio (z) = 0.60630 0.42869
#
# Static dielectric constant tensor:
#      x y z
#    x 1.704050 0.000000 0.092650 
#    y 0.000000 1.655320 0.000000 
#    z 0.092650 0.000000 1.730670 
# 
# From -- ./inp_files/377733.got.cif
#   From: 2010.05.17/outbox.cif.g08.bks.cpg/sg12_189_cif.got.tgz:377733.got - 2010.06.03 13:09:07.
