data_PCOD9206433
_publ_section_title
;
Structure prediction by ZEFSAII (Michael W. Deem and Ramdas Pophale) SiO2 
 PCOD9206433
Probable space group: C 2/M
;
_chemical_formula_sum "Si O2"
_cell_formula_units_Z 48
_cell_length_a 27.070722
_cell_length_b 12.067461
_cell_length_c 8.166255
_cell_angle_alpha 90.000000
_cell_angle_beta 78.953199
_cell_angle_gamma 90.000000
_cell_volume 2618.280375
_symmetry_space_group_name_H-M "C 2/M"
_symmetry_group_IT_number 12
_symmetry_cell_setting 'monoclinic'
loop_
_space_group_symop_operation_xyz
x,y,z
-x,y,-z
-x,-y,-z
x,-y,z
1/2+x,1/2+y,z
1/2-x,1/2+y,-z
1/2-x,1/2-y,-z
1/2+x,1/2-y,z
loop_
_atom_site_type_symbol
_atom_site_label
_atom_site_fract_x
_atom_site_fract_y
_atom_site_fract_z
Si Si1 0.684992 0.126933 0.323123
Si Si2 0.422064 0.500000 0.638430
Si Si3 0.868902 0.812897 0.853579
Si Si4 0.029479 0.000000 0.747933
Si Si5 0.553697 0.267677 0.914480
Si Si6 0.284552 0.291640 0.126529
Si Si7 0.143680 0.630907 0.716905
O O1 0.655629 0.207662 0.219110
O O2 0.744828 0.152480 0.273976
O O3 0.663289 0.142269 0.518820
O O4 0.677393 0.000000 0.278334
O O5 0.388139 0.395371 0.704122
O O6 0.471110 0.500000 0.726680
O O7 0.439928 0.500000 0.441217
O O8 0.915538 0.782877 0.937978
O O9 0.827472 0.862058 0.006372
O O10 0.042820 0.112052 0.838666
O O11 0.590196 0.192249 0.779406
O O12 0.500000 0.218014 0.000000
O O13 0.315569 0.193795 0.194950
O O14 0.250000 0.250000 0.000000
O O15 0.140286 0.500000 0.757763
#
# Coordination Sequence:
#
# PCOD9206433 Si02
#       7
#     8   4   8   4   8   8   8
#     4  10  21  40  60  85 118 153 193 239 292 345
#     4  11  21  36  59  86 121 150 193 240 292 347
#     4  10  21  36  58  88 114 153 192 241 289 344
#     4  11  22  37  60  85 118 157 188 243 294 338
#     4  11  21  38  60  85 117 152 197 242 288 349
#     4   9  20  36  60  85 113 150 192 236 282 343
#     4  10  22  40  61  84 118 154 191 241 293 345
#
# _framework density 18.332642
#
# number of rings (size 3 to 8) (size 9 to 14) (size 15 to 20)
#    0.000    1.833    1.667    2.250    1.167    6.333 
#    6.000    0.000    0.000    2.000    0.000    0.000 
#    0.000    0.000    0.000    0.000    0.000    0.000 
#
# Total GULP energy -133809.911502 kJ/mol
# GULP energy per Si atom -5575.412979 kJ/mol
# Density = 1.829092 g / cm^3
# Si number density = 18.332642 Si / 1000 Ang^3
#
#
#
# Elastic Constant Matrix: (Units=GPa)
#
#
# Indices 1 2 3 4 5 6 
#
# 1 129.8002 56.5158 53.4625 0.0000 -20.3343 0.0000
# 2 56.5158 123.6872 61.6921 0.0000 -12.7879 0.0000
# 3 53.4625 61.6921 95.3115 0.0000 -23.2787 0.0000
# 4 0.0000 0.0000 0.0000 50.0956 0.0000 -7.2036
# 5 -20.3343 -12.7879 -23.2787 0.0000 41.6764 0.0000
# 6 0.0000 0.0000 0.0000 -7.2036 0.0000 24.7651
#
#
#
# Elastic Compliance Matrix: (Units=1/GPa)
#
#
# Indices 1 2 3 4 5 6 
#
# 1 0.010828 -0.002897 -0.003619 0.000000 0.002373 0.000000
# 2 -0.002897 0.012735 -0.006958 0.000000 -0.001392 0.000000
# 3 -0.003619 -0.006958 0.018612 0.000000 0.006495 0.000000
# 4 0.000000 0.000000 0.000000 0.020833 0.000000 0.006060
# 5 0.002373 -0.001392 0.006495 0.000000 0.028353 0.000000
# 6 0.000000 0.000000 0.000000 0.006060 0.000000 0.042142
#
#
# Mechanical properties :
#
#
# Convention : Reuss Voigt Hill
#
# Bulk Modulus (GPa) = 65.67380 76.90441 71.28910
# Shear Modulus (GPa) = 30.20653 35.11598 32.66126
#
# Velocity S-wave (km/s) = 4.06358 4.38138 4.22547
# Velocity P-wave (km/s) = 7.61039 8.22410 7.92319
#
# Compressibility (1/GPa) = 0.01522677
#
# Stress axis : x y z
#
# Youngs Moduli (GPa) = 92.35444 78.52189 53.72899
#
# Poissons Ratio (x) = 0.22750 0.19443
# Poissons Ratio (y) = 0.26757 0.37385
# Poissons Ratio (z) = 0.33421 0.54636
#
# Static dielectric constant tensor:
#      x y z
#    x 1.648600 0.000000 -0.041340 
#    y 0.000000 1.622280 0.000000 
#    z -0.041340 0.000000 1.645390 
# 
# From -- ./inp_files/94370.got.cif
#   From: 2010.05.17/outbox.cif.g08.bks.cpg/sg12_48_cif.got.tgz:94370.got - 2010.06.03 13:09:07.
