data_PCOD9206120
_publ_section_title
;
Structure prediction by ZEFSAII (Michael W. Deem and Ramdas Pophale) SiO2 
 PCOD9206120
Probable space group: C 2/M
;
_chemical_formula_sum "Si O2"
_cell_formula_units_Z 64
_cell_length_a 19.530051
_cell_length_b 8.932733
_cell_length_c 31.892818
_cell_angle_alpha 90.000000
_cell_angle_beta 140.056637
_cell_angle_gamma 90.000000
_cell_volume 3572.201815
_symmetry_space_group_name_H-M "C 2/M"
_symmetry_group_IT_number 12
_symmetry_cell_setting 'monoclinic'
loop_
_space_group_symop_operation_xyz
x,y,z
-x,y,-z
-x,-y,-z
x,-y,z
1/2+x,1/2+y,z
1/2-x,1/2+y,-z
1/2-x,1/2-y,-z
1/2+x,1/2-y,z
loop_
_atom_site_type_symbol
_atom_site_label
_atom_site_fract_x
_atom_site_fract_y
_atom_site_fract_z
Si Si1 0.594584 0.821530 0.314148
Si Si2 0.701268 0.821014 0.204392
Si Si3 0.485880 0.820838 0.945295
Si Si4 0.550607 0.320888 0.681873
Si Si5 0.984193 0.678642 0.423583
Si Si6 0.134409 0.178107 0.946195
Si Si7 0.675752 0.178753 0.578278
Si Si8 0.052442 0.179280 0.204411
O O1 0.519666 0.755926 0.315351
O O2 0.716020 0.767117 0.377791
O O3 0.560535 0.755767 0.253144
O O4 0.589133 0.000000 0.311309
O O5 0.629379 0.789919 0.129555
O O6 0.824142 0.780115 0.255714
O O7 0.645516 0.737496 0.217085
O O8 0.695980 0.000000 0.209948
O O9 0.570833 0.737825 0.956430
O O10 0.503164 0.000000 0.950477
O O11 0.500000 0.776760 0.000000
O O12 0.541023 0.500000 0.681046
O O13 0.514821 0.267066 0.619096
O O14 0.978688 0.500000 0.412930
O O15 0.883014 0.718282 0.405537
O O16 0.088948 0.705462 0.501054
O O17 0.059035 0.216557 0.871120
O O18 0.143513 0.000000 0.951806
O O19 0.250000 0.250000 0.000000
O O20 0.697391 0.000000 0.589491
O O21 0.060723 0.000000 0.212504
#
# Coordination Sequence:
#
# PCOD9206120 Si02
#       8
#     8   8   8   8   8   8   8   8
#     4  12  25  38  55  81 112 146 184 226 273 324
#     4   9  19  36  57  81 108 141 184 227 269 323
#     4   9  18  34  56  81 110 144 181 224 273 323
#     4  11  23  37  54  79 113 149 183 225 276 326
#     4   9  19  37  61  86 110 141 182 224 269 324
#     4  10  21  36  56  82 111 145 183 224 271 323
#     4   9  19  38  62  85 111 143 179 222 271 324
#     4  10  21  38  59  81 108 144 184 225 272 325
#
# _framework density 17.916121
#
# number of rings (size 3 to 8) (size 9 to 14) (size 15 to 20)
#    0.000    2.125    0.000    3.750    0.000    7.250 
#    0.000    3.750    0.000    0.000    0.000    0.000 
#    0.000    0.000    0.000    0.000    0.000    0.000 
#
# Total GULP energy -178712.108137 kJ/mol
# GULP energy per Si atom -5584.753379 kJ/mol
# Density = 1.787534 g / cm^3
# Si number density = 17.916121 Si / 1000 Ang^3
#
#
#
# Elastic Constant Matrix: (Units=GPa)
#
#
# Indices 1 2 3 4 5 6 
#
# 1 148.9286 78.7764 105.0545 0.0000 1.1603 0.0000
# 2 78.7764 73.2601 69.3986 0.0000 3.1457 0.0000
# 3 105.0545 69.3986 113.3018 0.0000 2.6743 0.0000
# 4 0.0000 0.0000 0.0000 28.1290 0.0000 -3.8279
# 5 1.1603 3.1457 2.6743 0.0000 31.6079 0.0000
# 6 0.0000 0.0000 0.0000 -3.8279 0.0000 20.5863
#
#
#
# Elastic Compliance Matrix: (Units=1/GPa)
#
#
# Indices 1 2 3 4 5 6 
#
# 1 0.022411 -0.010586 -0.014330 0.000000 0.001443 0.000000
# 2 -0.010586 0.037594 -0.013158 0.000000 -0.002240 0.000000
# 3 -0.014330 -0.013158 0.030189 0.000000 -0.000719 0.000000
# 4 0.000000 0.000000 0.000000 0.036473 0.000000 0.006782
# 5 0.001443 -0.002240 -0.000719 0.000000 0.031868 0.000000
# 6 0.000000 0.000000 0.000000 0.006782 0.000000 0.049837
#
#
# Mechanical properties :
#
#
# Convention : Reuss Voigt Hill
#
# Bulk Modulus (GPa) = 71.19455 93.54994 82.37225
# Shear Modulus (GPa) = 17.28876 21.54870 19.41873
#
# Velocity S-wave (km/s) = 3.10979 3.47184 3.29579
# Velocity P-wave (km/s) = 7.26074 8.27045 7.78199
#
# Compressibility (1/GPa) = 0.01404602
#
# Stress axis : x y z
#
# Youngs Moduli (GPa) = 44.62020 26.59972 33.12419
#
# Poissons Ratio (x) = 0.28159 0.47467
# Poissons Ratio (y) = 0.47236 0.43586
# Poissons Ratio (z) = 0.63940 0.35001
#
# Static dielectric constant tensor:
#      x y z
#    x 1.572500 0.000000 0.003560 
#    y 0.000000 1.594890 0.000000 
#    z 0.003560 0.000000 1.616870 
# 
# From -- ./inp_files/377990.got.cif
#   From: 2010.05.17/outbox.cif.g08.bks.cpg/sg12_189_cif.got.tgz:377990.got - 2010.06.03 13:09:07.
