data_PCOD9206125
_publ_section_title
;
Structure prediction by ZEFSAII (Michael W. Deem and Ramdas Pophale) SiO2 
 PCOD9206125
Probable space group: C 2/M
;
_chemical_formula_sum "Si O2"
_cell_formula_units_Z 48
_cell_length_a 19.032314
_cell_length_b 8.812142
_cell_length_c 15.751205
_cell_angle_alpha 90.000000
_cell_angle_beta 89.789166
_cell_angle_gamma 90.000000
_cell_volume 2641.702605
_symmetry_space_group_name_H-M "C 2/M"
_symmetry_group_IT_number 12
_symmetry_cell_setting 'monoclinic'
loop_
_space_group_symop_operation_xyz
x,y,z
-x,y,-z
-x,-y,-z
x,-y,z
1/2+x,1/2+y,z
1/2-x,1/2+y,-z
1/2-x,1/2-y,-z
1/2+x,1/2-y,z
loop_
_atom_site_type_symbol
_atom_site_label
_atom_site_fract_x
_atom_site_fract_y
_atom_site_fract_z
Si Si1 0.551201 0.681788 0.732277
Si Si2 0.706437 0.817627 0.731519
Si Si3 0.447418 0.681602 0.074720
Si Si4 0.794487 0.680371 0.075460
Si Si5 0.794226 0.681250 0.577754
Si Si6 0.449480 0.317587 0.579857
O O1 0.562796 0.500000 0.723733
O O2 0.626054 0.762824 0.717867
O O3 0.527351 0.711949 0.829181
O O4 0.492705 0.725744 0.664150
O O5 0.726463 0.774078 0.828277
O O6 0.757407 0.741486 0.663459
O O7 0.709444 0.000000 0.723754
O O8 0.435799 0.500000 0.068306
O O9 0.374216 0.766005 0.064664
O O10 0.500000 0.726371 0.000000
O O11 0.789713 0.500000 0.071404
O O12 0.750000 0.750000 0.000000
O O13 0.791299 0.500000 0.574294
O O14 0.750000 0.750000 0.500000
O O15 0.874576 0.737375 0.573320
O O16 0.500000 0.283850 0.500000
O O17 0.437848 0.500000 0.581476
#
# Coordination Sequence:
#
# PCOD9206125 Si02
#       6
#     8   8   8   8   8   8
#     4   9  18  34  56  80 109 145 183 225 275 330
#     4  10  21  38  59  83 113 148 188 233 280 330
#     4   9  18  33  53  78 109 146 185 225 274 331
#     4  10  21  36  56  82 113 150 189 233 281 329
#     4  12  25  40  60  85 114 148 186 229 277 330
#     4  10  21  37  57  82 112 145 181 222 271 328
#
# _framework density 18.170100999999999
#
# number of rings (size 3 to 8) (size 9 to 14) (size 15 to 20)
#    0.000    2.000    0.000    3.500    0.000    6.000 
#    0.000    3.333    0.000    0.000    0.000    0.000 
#    0.000    0.000    0.000    0.000    0.000    0.000 
#
# Total GULP energy -134027.054740 kJ/mol
# GULP energy per Si atom -5584.460614 kJ/mol
# Density = 1.812875 g / cm^3
# Si number density = 18.170101 Si / 1000 Ang^3
#
#
#
# Elastic Constant Matrix: (Units=GPa)
#
#
# Indices 1 2 3 4 5 6 
#
# 1 128.8796 66.9414 117.1848 0.0000 4.4316 0.0000
# 2 66.9414 70.4665 78.0545 0.0000 -0.7940 0.0000
# 3 117.1848 78.0545 179.3855 0.0000 6.6719 0.0000
# 4 0.0000 0.0000 0.0000 23.5758 0.0000 0.4306
# 5 4.4316 -0.7940 6.6719 0.0000 41.0064 0.0000
# 6 0.0000 0.0000 0.0000 0.4306 0.0000 36.1170
#
#
#
# Elastic Compliance Matrix: (Units=1/GPa)
#
#
# Indices 1 2 3 4 5 6 
#
# 1 0.022082 -0.009743 -0.010151 0.000000 -0.000923 0.000000
# 2 -0.009743 0.031948 -0.007645 0.000000 0.002915 0.000000
# 3 -0.010151 -0.007645 0.015591 0.000000 -0.001588 0.000000
# 4 0.000000 0.000000 0.000000 0.042426 0.000000 -0.000506
# 5 -0.000923 0.002915 -0.001588 0.000000 0.024801 0.000000
# 6 0.000000 0.000000 0.000000 -0.000506 0.000000 0.027694
#
#
# Mechanical properties :
#
#
# Convention : Reuss Voigt Hill
#
# Bulk Modulus (GPa) = 68.76390 100.34368 84.55379
# Shear Modulus (GPa) = 22.27496 27.90989 25.09242
#
# Velocity S-wave (km/s) = 3.50510 3.92348 3.72018
# Velocity P-wave (km/s) = 7.36937 8.71030 8.06775
#
# Compressibility (1/GPa) = 0.01454251
#
# Stress axis : x y z
#
# Youngs Moduli (GPa) = 45.28633 31.30108 64.13780
#
# Poissons Ratio (x) = 0.30497 0.65108
# Poissons Ratio (y) = 0.44123 0.49032
# Poissons Ratio (z) = 0.45971 0.23929
#
# Static dielectric constant tensor:
#      x y z
#    x 1.575020 0.000000 0.002710 
#    y 0.000000 1.611860 0.000000 
#    z 0.002710 0.000000 1.637280 
# 
# From -- ./inp_files/221567.got.cif
#   From: 2010.05.17/outbox.cif.g08.bks.cpg/sg12_111_cif.got.tgz:221567.got - 2010.06.03 13:09:07.
