data_PCOD9206832
_publ_section_title
;
Structure prediction by ZEFSAII (Michael W. Deem and Ramdas Pophale) SiO2 
 PCOD9206832
Probable space group: C 2/M
;
_chemical_formula_sum "Si O2"
_cell_formula_units_Z 64
_cell_length_a 29.430257
_cell_length_b 16.204904
_cell_length_c 7.777408
_cell_angle_alpha 90.000000
_cell_angle_beta 99.528633
_cell_angle_gamma 90.000000
_cell_volume 3657.983295
_symmetry_space_group_name_H-M "C 2/M"
_symmetry_group_IT_number 12
_symmetry_cell_setting 'monoclinic'
loop_
_space_group_symop_operation_xyz
x,y,z
-x,y,-z
-x,-y,-z
x,-y,z
1/2+x,1/2+y,z
1/2-x,1/2+y,-z
1/2-x,1/2-y,-z
1/2+x,1/2-y,z
loop_
_atom_site_type_symbol
_atom_site_label
_atom_site_fract_x
_atom_site_fract_y
_atom_site_fract_z
Si Si1 0.184790 0.775521 0.311849
Si Si2 0.731125 0.588683 0.903534
Si Si3 0.220113 0.650575 0.731864
Si Si4 0.806180 0.410198 0.651714
Si Si5 0.016283 0.900150 0.197416
Si Si6 0.338804 0.295185 0.311000
Si Si7 0.578500 0.595005 0.730719
Si Si8 0.386931 0.405778 0.851758
O O1 0.237602 0.786674 0.285340
O O2 0.170539 0.678983 0.295386
O O3 0.179727 0.803540 0.506368
O O4 0.153048 0.839135 0.189446
O O5 0.707382 0.500000 0.905809
O O6 0.764365 0.587514 0.760079
O O7 0.692892 0.655714 0.842409
O O8 0.762000 0.604119 0.089839
O O9 0.212376 0.598450 0.554765
O O10 0.172817 0.700070 0.737709
O O11 0.830340 0.500000 0.683200
O O12 0.975340 0.879960 0.302761
O O13 0.070154 0.879791 0.244715
O O14 0.015690 0.000000 0.189488
O O15 0.000000 0.868658 0.000000
O O16 0.388526 0.337097 0.332299
O O17 0.583499 0.500000 0.667278
O O18 0.593392 0.591886 0.941775
O O19 0.372461 0.500000 0.799098
#
# Coordination Sequence:
#
# PCOD9206832 Si02
#       8
#     8   8   8   8   8   8   8   8
#     4  11  21  34  48  68  97 133 165 204 255 287
#     4  11  21  32  50  69  90 130 171 199 243 290
#     4  11  21  36  49  67  97 131 163 209 252 290
#     4  10  21  37  50  67  95 127 168 212 244 286
#     4   7  12  27  46  66  95 128 160 195 236 287
#     4  11  20  32  45  67  96 126 164 205 244 285
#     4   9  17  29  47  70  97 130 165 200 239 287
#     4   9  18  30  49  73  98 131 166 197 240 297
#
# _framework density 17.495979999999999
#
# number of rings (size 3 to 8) (size 9 to 14) (size 15 to 20)
#    0.000    2.125    2.500    4.125    1.750    3.000 
#    0.000    0.625    0.000    2.250    0.000    0.000 
#    0.000   13.500    0.000    0.000    0.000    0.000 
#
# Total GULP energy -178274.367559 kJ/mol
# GULP energy per Si atom -5571.073986 kJ/mol
# Density = 1.745616 g / cm^3
# Si number density = 17.495980 Si / 1000 Ang^3
#
#
#
# Elastic Constant Matrix: (Units=GPa)
#
#
# Indices 1 2 3 4 5 6 
#
# 1 77.5078 33.8294 13.5516 0.0000 -18.8969 0.0000
# 2 33.8294 91.9031 21.6567 0.0000 -5.0293 0.0000
# 3 13.5516 21.6567 54.1830 0.0000 1.2465 0.0000
# 4 0.0000 0.0000 0.0000 -80.1015 0.0000 -22.3444
# 5 -18.8969 -5.0293 1.2465 0.0000 17.2962 0.0000
# 6 0.0000 0.0000 0.0000 -22.3444 0.0000 14.8531
#
#
#
# Elastic Compliance Matrix: (Units=1/GPa)
#
#
# Indices 1 2 3 4 5 6 
#
# 1 0.021429 -0.005855 -0.003524 0.000000 0.021963 0.000000
# 2 -0.005855 0.013873 -0.004033 0.000000 -0.002073 0.000000
# 3 -0.003524 -0.004033 0.021100 0.000000 -0.006544 0.000000
# 4 0.000000 0.000000 0.000000 -0.008794 0.000000 -0.013229
# 5 0.021963 -0.002073 -0.006544 0.000000 0.081681 0.000000
# 6 0.000000 0.000000 0.000000 -0.013229 0.000000 0.047425
#
#
# Mechanical properties :
#
#
# Convention : Reuss Voigt Hill
#
# Bulk Modulus (GPa) = 33.81068 40.18546 36.99807
# Shear Modulus (GPa) = 23.43043 0.71331 12.07187
#
# Velocity S-wave (km/s) = 3.66346 0.63920 2.62960
# Velocity P-wave (km/s) = 6.10421 4.85418 5.51473
#
# Compressibility (1/GPa) = 0.02957645
#
# Stress axis : x y z
#
# Youngs Moduli (GPa) = 46.66666 72.08080 47.39351
#
# Poissons Ratio (x) = 0.42206 0.16703
# Poissons Ratio (y) = 0.27325 0.19114
# Poissons Ratio (z) = 0.16447 0.29070
#
# Static dielectric constant tensor:
#      x y z
#    x 1.621520 0.000000 -0.018870 
#    y 0.000000 1.626820 0.000000 
#    z -0.018870 0.000000 1.658520 
# 
# From -- ./inp_files/111226.got.cif
#   From: 2010.05.17/outbox.cif.g08.bks.cpg/sg12_56_cif.got.tgz:111226.got - 2010.06.03 13:09:07.
