data_PCOD9206456
_publ_section_title
;
Structure prediction by ZEFSAII (Michael W. Deem and Ramdas Pophale) SiO2 
 PCOD9206456
Probable space group: C 2/M
;
_chemical_formula_sum "Si O2"
_cell_formula_units_Z 40
_cell_length_a 16.240886
_cell_length_b 18.484964
_cell_length_c 8.979904
_cell_angle_alpha 90.000000
_cell_angle_beta 129.522822
_cell_angle_gamma 90.000000
_cell_volume 2079.521517
_symmetry_space_group_name_H-M "C 2/M"
_symmetry_group_IT_number 12
_symmetry_cell_setting 'monoclinic'
loop_
_space_group_symop_operation_xyz
x,y,z
-x,y,-z
-x,-y,-z
x,-y,z
1/2+x,1/2+y,z
1/2-x,1/2+y,-z
1/2-x,1/2-y,-z
1/2+x,1/2-y,z
loop_
_atom_site_type_symbol
_atom_site_label
_atom_site_fract_x
_atom_site_fract_y
_atom_site_fract_z
Si Si1 0.235113 0.808022 0.765299
Si Si2 0.104146 0.790228 0.887431
Si Si3 0.701411 0.915553 0.417431
Si Si4 0.126897 0.922003 0.127882
Si Si5 0.576882 0.202899 0.442303
O O1 0.137546 0.821732 0.765560
O O2 0.272070 0.872521 0.703133
O O3 0.187049 0.742159 0.613369
O O4 0.328192 0.779195 0.980483
O O5 0.985129 0.759471 0.736077
O O6 0.137047 0.852880 0.036715
O O7 0.806444 0.913017 0.644119
O O8 0.608825 0.870951 0.396875
O O9 0.675241 0.000000 0.363851
O O10 0.163089 0.000000 0.104876
O O11 0.000000 0.926481 0.000000
O O12 0.500000 0.191839 0.500000
#
# Coordination Sequence:
#
# PCOD9206456 Si02
#       5
#     8   8   8   8   8
#     4  10  21  38  57  87 115 150 204 239 286 346
#     4  10  21  36  61  85 113 156 194 243 290 338
#     4  11  23  39  60  87 123 159 191 242 300 350
#     4  10  21  36  58  89 117 150 196 242 296 349
#     4  10  21  38  61  89 120 156 199 242 290 350
#
# _framework density 19.235194
#
# number of rings (size 3 to 8) (size 9 to 14) (size 15 to 20)
#    0.000    1.800    2.000    1.800    2.800    1.200 
#    0.000    2.000    0.000    7.200    0.000    0.000 
#    0.000    0.000    0.000    0.000    0.000    0.000 
#
# Total GULP energy -111418.482444 kJ/mol
# GULP energy per Si atom -5570.924122 kJ/mol
# Density = 1.919141 g / cm^3
# Si number density = 19.235194 Si / 1000 Ang^3
#
#
#
# Elastic Constant Matrix: (Units=GPa)
#
#
# Indices 1 2 3 4 5 6 
#
# 1 45.2034 42.0656 16.5522 0.0000 -9.8223 0.0000
# 2 42.0656 119.1426 23.8825 0.0000 -27.4432 0.0000
# 3 16.5522 23.8825 60.6561 0.0000 -4.1271 0.0000
# 4 0.0000 0.0000 0.0000 38.7826 0.0000 -1.0740
# 5 -9.8223 -27.4432 -4.1271 0.0000 26.0753 0.0000
# 6 0.0000 0.0000 0.0000 -1.0740 0.0000 -3.5973
#
#
#
# Elastic Compliance Matrix: (Units=1/GPa)
#
#
# Indices 1 2 3 4 5 6 
#
# 1 0.034287 -0.010971 -0.004998 0.000000 0.000578 0.000000
# 2 -0.010971 0.015430 -0.002282 0.000000 0.011745 0.000000
# 3 -0.004998 -0.002282 0.018658 0.000000 -0.001331 0.000000
# 4 0.000000 0.000000 0.000000 0.025573 0.000000 -0.007635
# 5 0.000578 0.011745 -0.001331 0.000000 0.050719 0.000000
# 6 0.000000 0.000000 0.000000 -0.007635 0.000000 -0.275708
#
#
# Mechanical properties :
#
#
# Convention : Reuss Voigt Hill
#
# Bulk Modulus (GPa) = 31.37379 43.33365 37.35372
# Shear Modulus (GPa) = -59.58413 21.75225 -18.91594
#
# Velocity S-wave (km/s) = -5.57170 3.36647 -3.13933
# Velocity P-wave (km/s) = 5.00458 6.13906 2.51418
#
# Compressibility (1/GPa) = 0.03187373
#
# Stress axis : x y z
#
# Youngs Moduli (GPa) = 29.16553 64.81037 53.59587
#
# Poissons Ratio (x) = 0.71102 0.26785
# Poissons Ratio (y) = 0.31997 0.12232
# Poissons Ratio (z) = 0.14575 0.14792
#
# Static dielectric constant tensor:
#      x y z
#    x 1.727130 0.000000 -0.012780 
#    y 0.000000 1.713550 0.000000 
#    z -0.012780 0.000000 1.690010 
# 
# From -- ./inp_files/58972.got.cif
#   From: 2010.05.17/outbox.cif.g08.bks.cpg/sg12_30_cif.got.tgz:58972.got - 2010.06.03 13:09:07.
