data_PCOD9206447
_publ_section_title
;
Structure prediction by ZEFSAII (Michael W. Deem and Ramdas Pophale) SiO2 
 PCOD9206447
Probable space group: C 2/M
;
_chemical_formula_sum "Si O2"
_cell_formula_units_Z 64
_cell_length_a 20.465656
_cell_length_b 8.319734
_cell_length_c 24.609857
_cell_angle_alpha 90.000000
_cell_angle_beta 51.283126
_cell_angle_gamma 90.000000
_cell_volume 3269.458906
_symmetry_space_group_name_H-M "C 2/M"
_symmetry_group_IT_number 12
_symmetry_cell_setting 'monoclinic'
loop_
_space_group_symop_operation_xyz
x,y,z
-x,y,-z
-x,-y,-z
x,-y,z
1/2+x,1/2+y,z
1/2-x,1/2+y,-z
1/2-x,1/2-y,-z
1/2+x,1/2-y,z
loop_
_atom_site_type_symbol
_atom_site_label
_atom_site_fract_x
_atom_site_fract_y
_atom_site_fract_z
Si Si1 0.776797 0.303690 0.696515
Si Si2 0.562524 0.688275 0.101594
Si Si3 0.615721 0.694508 0.850398
Si Si4 0.260775 0.193550 0.581373
Si Si5 0.652432 0.813541 0.950014
Si Si6 0.568968 0.194022 0.311131
Si Si7 0.660600 0.189025 0.152848
Si Si8 0.881322 0.191996 0.427392
O O1 0.776309 0.500000 0.696294
O O2 0.699334 0.255088 0.774986
O O3 0.765577 0.247374 0.640600
O O4 0.864061 0.253311 0.678251
O O5 0.562521 0.500000 0.116322
O O6 0.467306 0.740090 0.139498
O O7 0.607736 0.783251 0.125999
O O8 0.612365 0.712638 0.019582
O O9 0.616288 0.500000 0.854743
O O10 0.615521 0.764870 0.910878
O O11 0.179063 0.250222 0.590381
O O12 0.340597 0.241467 0.503798
O O13 0.257010 0.000000 0.585474
O O14 0.751680 0.780857 0.896202
O O15 0.636009 0.000000 0.969509
O O16 0.606920 0.241814 0.232998
O O17 0.476438 0.257926 0.369095
O O18 0.565291 0.000000 0.313972
O O19 0.680285 0.000000 0.149574
O O20 0.875922 0.000000 0.431807
#
# Coordination Sequence:
#
# PCOD9206447 Si02
#       8
#     8   8   8   8   8   8   8   8
#     4   9  18  37  62  85 110 150 199 240 280 340
#     4  11  24  39  62  90 118 155 200 247 297 356
#     4  10  21  40  63  87 118 155 199 245 295 355
#     4   9  19  37  62  86 114 154 196 234 279 339
#     4  12  24  40  62  86 120 157 197 247 299 356
#     4  10  21  38  61  84 114 153 193 238 288 348
#     4  11  23  41  62  86 120 156 198 248 299 356
#     4  10  21  36  58  88 123 152 187 238 287 339
#
# _framework density 19.575104
#
# number of rings (size 3 to 8) (size 9 to 14) (size 15 to 20)
#    0.000    1.750    1.250    3.000    1.750    4.500 
#    0.000    3.750    0.000    0.000    0.000    0.000 
#    0.000    0.000    0.000    0.000    0.000    0.000 
#
# Total GULP energy -178842.096588 kJ/mol
# GULP energy per Si atom -5588.815518 kJ/mol
# Density = 1.953055 g / cm^3
# Si number density = 19.575104 Si / 1000 Ang^3
#
#
#
# Elastic Constant Matrix: (Units=GPa)
#
#
# Indices 1 2 3 4 5 6 
#
# 1 48.8152 1.7257 13.0419 0.0000 5.4071 0.0002
# 2 1.7257 11.0639 -7.9969 -0.0001 1.4733 0.0002
# 3 13.0419 -7.9969 78.1975 0.0000 4.4816 -0.0002
# 4 0.0000 -0.0001 0.0000 19.6208 0.0000 -0.7612
# 5 5.4071 1.4733 4.4816 0.0000 41.8815 0.0000
# 6 0.0002 0.0002 -0.0002 -0.7612 0.0000 25.8961
#
#
#
# Elastic Compliance Matrix: (Units=1/GPa)
#
#
# Indices 1 2 3 4 5 6 
#
# 1 0.022064 -0.006177 -0.004186 0.000000 -0.002183 0.000000
# 2 -0.006177 0.100189 0.011503 0.000001 -0.003958 -0.000001
# 3 -0.004186 0.011503 0.014745 0.000000 -0.001442 0.000000
# 4 0.000000 0.000001 0.000000 0.051024 0.000000 0.001500
# 5 -0.002183 -0.003958 -0.001442 0.000000 0.024452 0.000000
# 6 0.000000 -0.000001 0.000000 0.001500 0.000000 0.038660
#
#
# Mechanical properties :
#
#
# Convention : Reuss Voigt Hill
#
# Bulk Modulus (GPa) = 7.17990 16.84645 12.01317
# Shear Modulus (GPa) = 16.93299 26.23340 21.58320
#
# Velocity S-wave (km/s) = 2.94432 3.66477 3.32412
# Velocity P-wave (km/s) = 3.90315 5.15093 4.56983
#
# Compressibility (1/GPa) = 0.13927774
#
# Stress axis : x y z
#
# Youngs Moduli (GPa) = 45.32245 9.98115 67.81796
#
# Poissons Ratio (x) = 0.06165 0.28392
# Poissons Ratio (y) = 0.27995 -0.78010
# Poissons Ratio (z) = 0.18974 -0.11481
#
# Static dielectric constant tensor:
#      x y z
#    x 1.672220 0.000000 0.003600 
#    y 0.000000 1.681570 0.000000 
#    z 0.003600 0.000000 1.646610 
# 
# From -- ./inp_files/346028.got.cif
#   From: 2010.05.17/outbox.cif.g08.bks.cpg/sg12_174_cif.got.tgz:346028.got - 2010.06.03 13:09:07.
