data_PCOD9206882
_publ_section_title
;
Structure prediction by ZEFSAII (Michael W. Deem and Ramdas Pophale) SiO2 
 PCOD9206882
Probable space group: C 2/M
;
_chemical_formula_sum "Si O2"
_cell_formula_units_Z 56
_cell_length_a 15.025295
_cell_length_b 7.888320
_cell_length_c 24.522741
_cell_angle_alpha 90.000000
_cell_angle_beta 80.101330
_cell_angle_gamma 90.000000
_cell_volume 2863.272807
_symmetry_space_group_name_H-M "C 2/M"
_symmetry_group_IT_number 12
_symmetry_cell_setting 'monoclinic'
loop_
_space_group_symop_operation_xyz
x,y,z
-x,y,-z
-x,-y,-z
x,-y,z
1/2+x,1/2+y,z
1/2-x,1/2+y,-z
1/2-x,1/2-y,-z
1/2+x,1/2-y,z
loop_
_atom_site_type_symbol
_atom_site_label
_atom_site_fract_x
_atom_site_fract_y
_atom_site_fract_z
Si Si1 0.068756 0.698269 0.270399
Si Si2 0.891554 0.702529 0.349767
Si Si3 0.689091 0.699834 0.353719
Si Si4 0.580240 0.696955 0.146165
Si Si5 0.043130 0.207095 0.938095
Si Si6 0.987164 0.794265 0.563539
Si Si7 0.754337 0.797241 0.063146
O O1 0.071424 0.500000 0.284089
O O2 0.149146 0.780246 0.297075
O O3 0.079430 0.718586 0.205007
O O4 0.971430 0.767463 0.301291
O O5 0.886405 0.500000 0.341655
O O6 0.790182 0.771049 0.351003
O O7 0.931899 0.736472 0.405474
O O8 0.695135 0.500000 0.365395
O O9 0.608235 0.767569 0.400881
O O10 0.558634 0.500000 0.157546
O O11 0.510095 0.768743 0.109156
O O12 0.675974 0.712604 0.106079
O O13 0.147381 0.253682 0.926068
O O14 0.036914 0.000000 0.939018
O O15 0.000000 0.264221 0.000000
O O16 0.000000 0.739494 0.500000
O O17 0.986513 0.000000 0.564881
O O18 0.745013 0.000000 0.068834
O O19 0.750000 0.750000 0.000000
#
# Coordination Sequence:
#
# PCOD9206882 Si02
#       7
#     8   8   8   8   8   8   8
#     4  10  21  37  54  77 106 134 174 226 272 317
#     4   9  19  35  55  77 105 142 182 227 271 313
#     4   9  18  35  56  77 106 145 182 220 269 319
#     4  11  22  38  58  79 105 140 177 216 266 322
#     4   9  18  35  56  77 105 139 171 205 255 318
#     4   9  18  32  51  79 114 148 183 221 264 320
#     4  11  21  36  57  81 108 138 173 213 259 313
#
# _framework density 19.558039000000001
#
# number of rings (size 3 to 8) (size 9 to 14) (size 15 to 20)
#    0.000    2.286    1.429    1.286    0.000    3.143 
#    0.000    6.429    0.000    0.000    0.000    0.000 
#    0.000    0.000    0.000    0.000    0.000    0.000 
#
# Total GULP energy -156227.219934 kJ/mol
# GULP energy per Si atom -5579.543569 kJ/mol
# Density = 1.951352 g / cm^3
# Si number density = 19.558039 Si / 1000 Ang^3
#
#
#
# Elastic Constant Matrix: (Units=GPa)
#
#
# Indices 1 2 3 4 5 6 
#
# 1 174.1707 -2.8574 69.7547 0.0000 19.1490 0.0000
# 2 -2.8574 17.5053 -16.8275 0.0000 -2.8423 0.0000
# 3 69.7547 -16.8275 134.7607 0.0000 5.3762 0.0000
# 4 0.0000 0.0000 0.0000 16.8838 0.0000 4.0219
# 5 19.1490 -2.8423 5.3762 0.0000 14.6161 0.0000
# 6 0.0000 0.0000 0.0000 4.0219 0.0000 14.1646
#
#
#
# Elastic Compliance Matrix: (Units=1/GPa)
#
#
# Indices 1 2 3 4 5 6 
#
# 1 0.008705 -0.004804 -0.004682 0.000000 -0.010617 0.000000
# 2 -0.004804 0.068978 0.010467 0.000000 0.015857 0.000000
# 3 -0.004682 0.010467 0.010987 0.000000 0.004129 0.000000
# 4 0.000000 0.000000 0.000000 0.063525 0.000000 -0.018037
# 5 -0.010617 0.015857 0.004129 0.000000 0.083892 0.000000
# 6 0.000000 0.000000 0.000000 -0.018037 0.000000 0.075720
#
#
# Mechanical properties :
#
#
# Convention : Reuss Voigt Hill
#
# Bulk Modulus (GPa) = 11.03362 47.39738 29.21550
# Shear Modulus (GPa) = 14.70347 27.55735 21.13041
#
# Velocity S-wave (km/s) = 2.74485 3.75774 3.29050
# Velocity P-wave (km/s) = 3.96223 6.56615 5.42281
#
# Compressibility (1/GPa) = 0.09063208
#
# Stress axis : x y z
#
# Youngs Moduli (GPa) = 114.87426 14.49734 91.02065
#
# Poissons Ratio (x) = 0.06964 0.42618
# Poissons Ratio (y) = 0.55184 -0.95273
# Poissons Ratio (z) = 0.53787 -0.15175
#
# Static dielectric constant tensor:
#      x y z
#    x 1.690130 0.000000 -0.007330 
#    y 0.000000 1.713810 0.000000 
#    z -0.007330 0.000000 1.651500 
# 
# From -- ./inp_files/308889.got.cif
#   From: 2010.05.17/outbox.cif.g08.bks.cpg/sg12_155_cif.got.tgz:308889.got - 2010.06.03 13:09:07.
