data_PCOD9206010
_publ_section_title
;
Structure prediction by ZEFSAII (Michael W. Deem and Ramdas Pophale) SiO2 
 PCOD9206010
Probable space group: C 2/M
;
_chemical_formula_sum "Si O2"
_cell_formula_units_Z 48
_cell_length_a 10.597803
_cell_length_b 8.514426
_cell_length_c 29.521283
_cell_angle_alpha 90.000000
_cell_angle_beta 111.018540
_cell_angle_gamma 90.000000
_cell_volume 2486.590171
_symmetry_space_group_name_H-M "C 2/M"
_symmetry_group_IT_number 12
_symmetry_cell_setting 'monoclinic'
loop_
_space_group_symop_operation_xyz
x,y,z
-x,y,-z
-x,-y,-z
x,-y,z
1/2+x,1/2+y,z
1/2-x,1/2+y,-z
1/2-x,1/2-y,-z
1/2+x,1/2-y,z
loop_
_atom_site_type_symbol
_atom_site_label
_atom_site_fract_x
_atom_site_fract_y
_atom_site_fract_z
Si Si1 0.317704 0.810002 0.693032
Si Si2 0.426367 0.189822 0.805209
Si Si3 0.764808 0.689905 0.139668
Si Si4 0.400646 0.311520 0.527858
Si Si5 0.154412 0.810147 0.027564
Si Si6 0.983596 0.311543 0.362542
O O1 0.372110 0.758679 0.749127
O O2 0.168207 0.747307 0.664681
O O3 0.420255 0.760180 0.666575
O O4 0.313191 0.000000 0.692180
O O5 0.330290 0.250079 0.832552
O O6 0.580699 0.241797 0.832980
O O7 0.425367 0.000000 0.805692
O O8 0.763094 0.500000 0.140171
O O9 0.709300 0.741791 0.083616
O O10 0.500000 0.260392 0.500000
O O11 0.398182 0.500000 0.528040
O O12 0.250000 0.250000 0.500000
O O13 0.457584 0.251349 0.582813
O O14 0.156126 0.000000 0.027132
O O15 0.250000 0.750000 0.000000
O O16 0.000000 0.758241 0.000000
O O17 0.983811 0.500000 0.363725
#
# Coordination Sequence:
#
# PCOD9206010 Si02
#       6
#     8   8   8   8   8   8
#     4  10  22  39  57  82 115 146 183 232 280 331
#     4  10  21  37  57  81 110 146 186 228 278 335
#     4  10  21  37  56  81 113 146 185 234 282 332
#     4  11  24  41  61  87 119 153 191 236 283 333
#     4  10  21  36  55  81 112 146 186 232 281 335
#     4  11  23  39  61  87 115 150 190 232 281 335
#
# _framework density 19.303542
#
# number of rings (size 3 to 8) (size 9 to 14) (size 15 to 20)
#    0.000    1.667    0.000    4.000    0.000   10.333 
#    0.000    0.000    0.000    0.000    0.000    0.000 
#    0.000    0.000    0.000    0.000    0.000    0.000 
#
# Total GULP energy -134195.701506 kJ/mol
# GULP energy per Si atom -5591.487563 kJ/mol
# Density = 1.925961 g / cm^3
# Si number density = 19.303542 Si / 1000 Ang^3
#
#
#
# Elastic Constant Matrix: (Units=GPa)
#
#
# Indices 1 2 3 4 5 6 
#
# 1 100.4549 -11.6245 7.6781 0.0000 -1.5115 0.0000
# 2 -11.6245 -1.6124 -10.4388 0.0000 -0.8651 0.0000
# 3 7.6781 -10.4388 103.0073 0.0000 -1.4719 0.0000
# 4 0.0000 0.0000 0.0000 21.2777 0.0000 -5.6306
# 5 -1.5115 -0.8651 -1.4719 0.0000 47.0386 0.0000
# 6 0.0000 0.0000 0.0000 -5.6306 0.0000 35.9541
#
#
#
# Elastic Compliance Matrix: (Units=1/GPa)
#
#
# Indices 1 2 3 4 5 6 
#
# 1 0.006955 -0.028098 -0.003372 0.000000 -0.000399 0.000000
# 2 -0.028098 -0.257927 -0.024136 0.000000 -0.006401 0.000000
# 3 -0.003372 -0.024136 0.007509 0.000000 -0.000317 0.000000
# 4 0.000000 0.000000 0.000000 0.049029 0.000000 0.007678
# 5 -0.000399 -0.006401 -0.000317 0.000000 0.021119 0.000000
# 6 0.000000 0.000000 0.000000 0.007678 0.000000 0.029016
#
#
# Mechanical properties :
#
#
# Convention : Reuss Voigt Hill
#
# Bulk Modulus (GPa) = -2.81949 19.23103 8.20577
# Shear Modulus (GPa) = -33.04414 35.26975 1.11281
#
# Velocity S-wave (km/s) = -4.14190 4.27911 0.76008
# Velocity P-wave (km/s) = 4.93331 5.86502 2.24287
#
# Compressibility (1/GPa) = -0.35467407
#
# Stress axis : x y z
#
# Youngs Moduli (GPa) = 143.78288 -3.87707 133.17499
#
# Poissons Ratio (x) = -0.10894 0.44902
# Poissons Ratio (y) = 4.04006 3.21426
# Poissons Ratio (z) = 0.48478 -0.09358
#
# Static dielectric constant tensor:
#      x y z
#    x 1.629310 0.000000 0.002680 
#    y 0.000000 1.669560 0.000000 
#    z 0.002680 0.000000 1.645940 
# 
# From -- ./inp_files/357369.got.cif
#   From: 2010.05.17/outbox.cif.g08.bks.cpg/sg12_179_cif.got.tgz:357369.got - 2010.06.03 13:09:07.
