data_PCOD9206624
_publ_section_title
;
Structure prediction by ZEFSAII (Michael W. Deem and Ramdas Pophale) SiO2 
 PCOD9206624
Probable space group: C 2/M
;
_chemical_formula_sum "Si O2"
_cell_formula_units_Z 56
_cell_length_a 28.165318
_cell_length_b 7.745409
_cell_length_c 17.679031
_cell_angle_alpha 90.000000
_cell_angle_beta 39.272977
_cell_angle_gamma 90.000000
_cell_volume 2441.361218
_symmetry_space_group_name_H-M "C 2/M"
_symmetry_group_IT_number 12
_symmetry_cell_setting 'monoclinic'
loop_
_space_group_symop_operation_xyz
x,y,z
-x,y,-z
-x,-y,-z
x,-y,z
1/2+x,1/2+y,z
1/2-x,1/2+y,-z
1/2-x,1/2-y,-z
1/2+x,1/2-y,z
loop_
_atom_site_type_symbol
_atom_site_label
_atom_site_fract_x
_atom_site_fract_y
_atom_site_fract_z
Si Si1 0.910418 0.790413 0.336140
Si Si2 0.659382 0.796541 0.432196
Si Si3 0.570922 0.297720 0.083122
Si Si4 0.704049 0.696119 0.643546
Si Si5 0.337929 0.793594 0.880507
Si Si6 0.414510 0.801868 0.096260
Si Si7 0.585186 0.788441 0.372096
O O1 0.907927 0.725045 0.425005
O O2 0.837294 0.728910 0.379296
O O3 0.986521 0.732043 0.202149
O O4 0.910104 0.000000 0.336831
O O5 0.728566 0.715943 0.393403
O O6 0.637737 0.729377 0.376964
O O7 0.675880 0.000000 0.402014
O O8 0.566331 0.500000 0.070827
O O9 0.617780 0.274429 0.101311
O O10 0.605612 0.209235 0.967007
O O11 0.725239 0.500000 0.597912
O O12 0.638423 0.691759 0.786193
O O13 0.378771 0.732161 0.752371
O O14 0.343905 0.000000 0.872544
O O15 0.250000 0.750000 0.000000
O O16 0.409496 0.000000 0.128185
O O17 0.500000 0.743749 0.000000
O O18 0.500000 0.736369 0.500000
O O19 0.584619 0.000000 0.372185
#
# Coordination Sequence:
#
# PCOD9206624 Si02
#       7
#     8   8   8   8   8   8   8
#     4  10  21  37  57  86 121 159 199 245 303 364
#     4  10  21  36  60  88 114 155 204 247 303 366
#     4  11  23  40  63  87 120 164 206 248 305 371
#     4  10  21  37  57  84 121 161 200 244 303 371
#     4  11  24  42  65  95 128 161 208 265 321 378
#     4  11  23  38  59  90 122 156 202 252 302 360
#     4   9  19  38  62  88 119 158 207 259 308 365
#
# _framework density 22.938025
#
# number of rings (size 3 to 8) (size 9 to 14) (size 15 to 20)
#    0.000    1.714    1.429    2.571    2.000    4.000 
#    0.000    1.429    0.000    3.857    0.000    0.000 
#    0.000    0.000    0.000    0.000    0.000    0.000 
#
# Total GULP energy -156456.362136 kJ/mol
# GULP energy per Si atom -5587.727219 kJ/mol
# Density = 2.288582 g / cm^3
# Si number density = 22.938025 Si / 1000 Ang^3
#
#
#
# Elastic Constant Matrix: (Units=GPa)
#
#
# Indices 1 2 3 4 5 6 
#
# 1 143.7022 1.0854 41.6497 -0.0017 19.0415 0.0027
# 2 1.0854 52.5145 13.9866 -0.0021 -1.8149 0.0071
# 3 41.6497 13.9866 102.8016 0.0021 16.3623 0.0028
# 4 -0.0017 -0.0021 0.0021 28.0143 0.0071 6.0134
# 5 19.0415 -1.8149 16.3623 0.0071 45.1848 -0.0058
# 6 0.0027 0.0071 0.0028 6.0134 -0.0058 28.9566
#
#
#
# Elastic Compliance Matrix: (Units=1/GPa)
#
#
# Indices 1 2 3 4 5 6 
#
# 1 0.008131 0.000551 -0.003000 0.000002 -0.002318 -0.000001
# 2 0.000551 0.019947 -0.003213 0.000002 0.001732 -0.000005
# 3 -0.003000 -0.003213 0.011884 0.000000 -0.003168 -0.000001
# 4 0.000002 0.000002 0.000000 0.037362 -0.000007 -0.007759
# 5 -0.002318 0.001732 -0.003168 -0.000007 0.024325 0.000007
# 6 -0.000001 -0.000005 -0.000001 -0.007759 0.000007 0.036146
#
#
# Mechanical properties :
#
#
# Convention : Reuss Voigt Hill
#
# Bulk Modulus (GPa) = 34.91870 45.82907 40.37388
# Shear Modulus (GPa) = 31.51290 36.58427 34.04859
#
# Velocity S-wave (km/s) = 3.71054 3.99797 3.85694
# Velocity P-wave (km/s) = 5.79772 6.42920 6.12161
#
# Compressibility (1/GPa) = 0.02863795
#
# Stress axis : x y z
#
# Youngs Moduli (GPa) = 122.97915 50.13407 84.14343
#
# Poissons Ratio (x) = -0.02762 0.25247
# Poissons Ratio (y) = -0.06776 0.27033
# Poissons Ratio (z) = 0.36899 0.16107
#
# Static dielectric constant tensor:
#      x y z
#    x 1.986560 -0.000090 0.067360 
#    y -0.000090 1.858130 -0.000050 
#    z 0.067360 -0.000050 1.928700 
# 
# From -- ./inp_files/292430.got.cif
#   From: 2010.05.17/outbox.cif.g08.bks.cpg/sg12_147_cif.got.tgz:292430.got - 2010.06.03 13:09:07.
