data_PCOD9206971
_publ_section_title
;
Structure prediction by ZEFSAII (Michael W. Deem and Ramdas Pophale) SiO2 
 PCOD9206971
Probable space group: C 2/M
;
_chemical_formula_sum "Si O2"
_cell_formula_units_Z 40
_cell_length_a 22.960440
_cell_length_b 17.661291
_cell_length_c 4.965356
_cell_angle_alpha 90.000000
_cell_angle_beta 65.857261
_cell_angle_gamma 90.000000
_cell_volume 1837.383782
_symmetry_space_group_name_H-M "C 2/M"
_symmetry_group_IT_number 12
_symmetry_cell_setting 'monoclinic'
loop_
_space_group_symop_operation_xyz
x,y,z
-x,y,-z
-x,-y,-z
x,-y,z
1/2+x,1/2+y,z
1/2-x,1/2+y,-z
1/2-x,1/2-y,-z
1/2+x,1/2-y,z
loop_
_atom_site_type_symbol
_atom_site_label
_atom_site_fract_x
_atom_site_fract_y
_atom_site_fract_z
Si Si1 0.927401 0.825199 0.181291
Si Si2 0.734397 0.833154 0.147542
Si Si3 0.546511 0.078179 0.160011
Si Si4 0.200917 0.910633 0.470556
Si Si5 0.101105 0.725630 0.271102
O O1 0.872919 0.882732 0.391829
O O2 0.934569 0.761993 0.405076
O O3 0.897606 0.792617 0.956496
O O4 0.000000 0.854027 0.000000
O O5 0.763398 0.891270 0.875829
O O6 0.750000 0.750000 0.000000
O O7 0.763139 0.858834 0.375983
O O8 0.659102 0.820065 0.304077
O O9 0.500000 0.075228 0.500000
O O10 0.578119 0.158171 0.124855
O O11 0.586687 0.000000 0.079369
O O12 0.500000 0.077640 0.000000
O O13 0.204631 0.000000 0.523208
#
# Coordination Sequence:
#
# PCOD9206971 Si02
#       5
#     8   8   8   8   8
#     4  12  24  41  67  98 130 178 224 271 328 397
#     4  12  23  45  71  94 133 177 217 274 338 392
#     4  10  21  37  55  83 126 164 201 260 320 370
#     4  12  26  45  68 102 137 175 223 280 335 399
#     4  12  23  39  68  94 129 168 230 269 324 398
#
# _framework density 21.770085999999999
#
# number of rings (size 3 to 8) (size 9 to 14) (size 15 to 20)
#    0.000    0.400    4.000    6.000    0.000    2.000 
#    0.000    2.000    0.000    4.800    0.000    0.000 
#    0.000    0.000    0.000    0.000    0.000    0.000 
#
# Total GULP energy -111417.335049 kJ/mol
# GULP energy per Si atom -5570.866752 kJ/mol
# Density = 2.172054 g / cm^3
# Si number density = 21.770086 Si / 1000 Ang^3
#
#
#
# Elastic Constant Matrix: (Units=GPa)
#
#
# Indices 1 2 3 4 5 6 
#
# 1 63.7867 -5.6285 3.4372 0.0000 1.1539 0.0000
# 2 -5.6285 64.9480 -32.8941 0.0000 2.3176 0.0000
# 3 3.4372 -32.8941 67.3748 0.0000 21.5609 0.0000
# 4 0.0000 0.0000 0.0000 -0.2326 0.0000 115.2059
# 5 1.1539 2.3176 21.5609 0.0000 36.8804 0.0000
# 6 0.0000 0.0000 0.0000 115.2059 0.0000 -499.5788
#
#
#
# Elastic Compliance Matrix: (Units=1/GPa)
#
#
# Indices 1 2 3 4 5 6 
#
# 1 0.015811 0.001448 0.000108 0.000000 -0.000649 0.000000
# 2 0.001448 0.023182 0.014423 0.000000 -0.009934 0.000000
# 3 0.000108 0.014423 0.027272 0.000000 -0.016853 0.000000
# 4 0.000000 0.000000 0.000000 0.037973 0.000000 0.008757
# 5 -0.000649 -0.009934 -0.016853 0.000000 0.037612 0.000000
# 6 0.000000 0.000000 0.000000 0.008757 0.000000 0.000018
#
#
# Mechanical properties :
#
#
# Convention : Reuss Voigt Hill
#
# Bulk Modulus (GPa) = 10.18094 13.99319 12.08706
# Shear Modulus (GPa) = 35.05089 -77.17322 -21.06116
#
# Velocity S-wave (km/s) = 4.01689 -5.96038 -3.11374
# Velocity P-wave (km/s) = 5.11866 6.39739 2.71348
#
# Compressibility (1/GPa) = 0.09822279
#
# Stress axis : x y z
#
# Youngs Moduli (GPa) = 63.24735 43.13742 36.66789
#
# Poissons Ratio (x) = -0.06247 -0.00396
# Poissons Ratio (y) = -0.09159 -0.52886
# Poissons Ratio (z) = -0.00683 -0.62217
#
# Static dielectric constant tensor:
#      x y z
#    x 1.698250 0.000000 -0.003190 
#    y 0.000000 2.022750 0.000000 
#    z -0.003190 0.000000 1.759440 
# 
# From -- ./inp_files/20134.got.cif
#   From: 2010.05.17/outbox.cif.g08.bks.cpg/sg12_11_cif.got.tgz:20134.got - 2010.06.03 13:09:07.
