data_PCOD9206782
_publ_section_title
;
Structure prediction by ZEFSAII (Michael W. Deem and Ramdas Pophale) SiO2 
 PCOD9206782
Probable space group: C 2/M
;
_chemical_formula_sum "Si O2"
_cell_formula_units_Z 40
_cell_length_a 10.859189
_cell_length_b 26.222000
_cell_length_c 7.654465
_cell_angle_alpha 90.000000
_cell_angle_beta 54.837056
_cell_angle_gamma 90.000000
_cell_volume 1781.866336
_symmetry_space_group_name_H-M "C 2/M"
_symmetry_group_IT_number 12
_symmetry_cell_setting 'monoclinic'
loop_
_space_group_symop_operation_xyz
x,y,z
-x,y,-z
-x,-y,-z
x,-y,z
1/2+x,1/2+y,z
1/2-x,1/2+y,-z
1/2-x,1/2-y,-z
1/2+x,1/2-y,z
loop_
_atom_site_type_symbol
_atom_site_label
_atom_site_fract_x
_atom_site_fract_y
_atom_site_fract_z
Si Si1 0.326715 0.558219 0.592001
Si Si2 0.345973 0.091029 0.593816
Si Si3 0.165025 0.229155 0.309306
Si Si4 0.163873 0.170252 0.950821
Si Si5 0.872503 0.350001 0.241761
O O1 0.500000 0.570080 0.500000
O O2 0.297834 0.500000 0.669843
O O3 0.281967 0.564042 0.422703
O O4 0.214040 0.600172 0.763328
O O5 0.500000 0.059601 0.500000
O O6 0.259970 0.120393 0.818884
O O7 0.416901 0.131976 0.397509
O O8 0.254953 0.279568 0.190732
O O9 0.259561 0.196181 0.367803
O O10 0.000000 0.242921 0.500000
O O11 0.151486 0.188070 0.161527
O O12 0.000000 0.164430 0.000000
O O13 0.000000 0.334318 0.000000
#
# Coordination Sequence:
#
# PCOD9206782 Si02
#       5
#     8   8   8   8   8
#     4   9  21  41  66  93 123 165 208 255 315 378
#     4  10  22  39  60  92 125 165 199 262 306 365
#     4  11  23  39  59  88 124 168 214 252 304 372
#     4  11  24  37  60  89 126 167 209 259 308 364
#     4  10  21  36  63  89 123 164 209 252 308 367
#
# _framework density 22.448373
#
# number of rings (size 3 to 8) (size 9 to 14) (size 15 to 20)
#    1.200    0.600    0.000    4.200    2.800    7.200 
#    0.000    0.000    0.000    0.600    0.000    0.000 
#    0.000    0.000    0.000    0.000    0.000    0.000 
#
# Total GULP energy -111460.963448 kJ/mol
# GULP energy per Si atom -5573.048172 kJ/mol
# Density = 2.239728 g / cm^3
# Si number density = 22.448373 Si / 1000 Ang^3
#
#
#
# Elastic Constant Matrix: (Units=GPa)
#
#
# Indices 1 2 3 4 5 6 
#
# 1 118.6199 18.3777 23.8623 0.0000 -24.8753 0.0000
# 2 18.3777 63.3970 3.2603 0.0000 -11.2493 0.0000
# 3 23.8623 3.2603 59.5106 0.0000 -11.2274 0.0000
# 4 0.0000 0.0000 0.0000 -5.3632 0.0000 26.4070
# 5 -24.8753 -11.2493 -11.2274 0.0000 39.0177 0.0000
# 6 0.0000 0.0000 0.0000 26.4070 0.0000 -10.9071
#
#
#
# Elastic Compliance Matrix: (Units=1/GPa)
#
#
# Indices 1 2 3 4 5 6 
#
# 1 0.010447 -0.001945 -0.003100 0.000000 0.005208 0.000000
# 2 -0.001945 0.016986 0.000570 0.000000 0.003821 0.000000
# 3 -0.003100 0.000570 0.018688 0.000000 0.003566 0.000000
# 4 0.000000 0.000000 0.000000 0.017073 0.000000 0.041336
# 5 0.005208 0.003821 0.003566 0.000000 0.031077 0.000000
# 6 0.000000 0.000000 0.000000 0.041336 0.000000 0.008395
#
#
# Mechanical properties :
#
#
# Convention : Reuss Voigt Hill
#
# Bulk Modulus (GPa) = 26.90186 36.94757 31.92471
# Shear Modulus (GPa) = 40.31994 17.61795 28.96895
#
# Velocity S-wave (km/s) = 4.24266 2.80450 3.59621
# Velocity P-wave (km/s) = 6.00084 5.19438 5.61212
#
# Compressibility (1/GPa) = 0.03717215
#
# Stress axis : x y z
#
# Youngs Moduli (GPa) = 95.71804 58.87136 53.50960
#
# Poissons Ratio (x) = 0.11451 0.16588
# Poissons Ratio (y) = 0.18617 -0.03051
# Poissons Ratio (z) = 0.29673 -0.03357
#
# Static dielectric constant tensor:
#      x y z
#    x 2.000200 0.000000 0.052110 
#    y 0.000000 1.776190 0.000000 
#    z 0.052110 0.000000 1.829220 
# 
# From -- ./inp_files/52333.got.cif
#   From: 2010.05.17/outbox.cif.g08.bks.cpg/sg12_27_cif.got.tgz:52333.got - 2010.06.03 13:09:07.
