data_PCOD9206684
_publ_section_title
;
Structure prediction by ZEFSAII (Michael W. Deem and Ramdas Pophale) SiO2 
 PCOD9206684
Probable space group: C 2/M
;
_chemical_formula_sum "Si O2"
_cell_formula_units_Z 64
_cell_length_a 19.137147
_cell_length_b 13.924725
_cell_length_c 11.908418
_cell_angle_alpha 90.000000
_cell_angle_beta 99.208617
_cell_angle_gamma 90.000000
_cell_volume 3132.451920
_symmetry_space_group_name_H-M "C 2/M"
_symmetry_group_IT_number 12
_symmetry_cell_setting 'monoclinic'
loop_
_space_group_symop_operation_xyz
x,y,z
-x,y,-z
-x,-y,-z
x,-y,z
1/2+x,1/2+y,z
1/2-x,1/2+y,-z
1/2-x,1/2-y,-z
1/2+x,1/2-y,z
loop_
_atom_site_type_symbol
_atom_site_label
_atom_site_fract_x
_atom_site_fract_y
_atom_site_fract_z
Si Si1 0.174444 0.616963 0.972897
Si Si2 0.465095 0.796468 0.173024
Si Si3 0.434698 0.893752 0.399587
Si Si4 0.287595 0.387299 0.582711
Si Si5 0.036273 0.889799 0.131562
Si Si6 0.299571 0.614711 0.841327
Si Si7 0.654275 0.802545 0.434635
Si Si8 0.890629 0.613925 0.815581
O O1 0.164714 0.500000 0.954016
O O2 0.108175 0.675328 0.905020
O O3 0.246070 0.646378 0.925735
O O4 0.168722 0.634523 0.105231
O O5 0.458678 0.843738 0.293181
O O6 0.487506 0.685133 0.185912
O O7 0.533058 0.844407 0.130694
O O8 0.500000 0.905115 0.500000
O O9 0.382711 0.831676 0.460218
O O10 0.404418 0.000000 0.367430
O O11 0.301497 0.500000 0.574451
O O12 0.267083 0.369061 0.708539
O O13 0.350163 0.311788 0.580521
O O14 0.231111 0.349814 0.477384
O O15 0.117932 0.853755 0.140335
O O16 0.037861 0.000000 0.175343
O O17 0.000000 0.891917 0.000000
O O18 0.304950 0.500000 0.857504
O O19 0.626562 0.846929 0.312147
O O20 0.897637 0.500000 0.809232
#
# Coordination Sequence:
#
# PCOD9206684 Si02
#       8
#     8   8   8   8   8   8   8   8
#     4  10  21  36  60  95 128 158 194 251 321 379
#     4  12  22  37  60  92 126 160 207 254 309 373
#     4  11  22  37  60  86 117 156 198 248 303 366
#     4  10  21  38  62  86 116 158 204 254 304 362
#     4  10  22  42  66  90 122 168 216 256 300 366
#     4   9  19  39  64  88 117 157 204 250 300 361
#     4  11  22  38  59  88 120 160 207 251 307 374
#     4  11  21  35  57  88 128 162 195 250 316 380
#
# _framework density 20.431277999999999
#
# number of rings (size 3 to 8) (size 9 to 14) (size 15 to 20)
#    0.000    1.500    1.250    4.875    0.000    2.000 
#    0.000    8.750    0.000    2.250    0.000    1.750 
#    0.000    0.000    0.000    0.000    0.000    0.000 
#
# Total GULP energy -178520.717743 kJ/mol
# GULP energy per Si atom -5578.772429 kJ/mol
# Density = 2.038478 g / cm^3
# Si number density = 20.431278 Si / 1000 Ang^3
#
#
#
# Elastic Constant Matrix: (Units=GPa)
#
#
# Indices 1 2 3 4 5 6 
#
# 1 71.8345 20.7302 27.1516 0.0000 -6.7850 0.0000
# 2 20.7302 112.4246 26.4233 0.0000 -26.3483 0.0000
# 3 27.1516 26.4233 93.5404 0.0000 -11.0363 0.0000
# 4 0.0000 0.0000 0.0000 24.4035 0.0000 -12.7522
# 5 -6.7850 -26.3483 -11.0363 0.0000 39.0042 0.0000
# 6 0.0000 0.0000 0.0000 -12.7522 0.0000 31.0373
#
#
#
# Elastic Compliance Matrix: (Units=1/GPa)
#
#
# Indices 1 2 3 4 5 6 
#
# 1 0.016048 -0.001922 -0.004075 0.000000 0.000341 0.000000
# 2 -0.001922 0.011262 -0.001826 0.000000 0.006757 0.000000
# 3 -0.004075 -0.001826 0.012580 0.000000 0.001617 0.000000
# 4 0.000000 0.000000 0.000000 0.052181 0.000000 0.021439
# 5 0.000341 0.006757 0.001617 0.000000 0.030719 0.000000
# 6 0.000000 0.000000 0.000000 0.021439 0.000000 0.041028
#
#
# Mechanical properties :
#
#
# Convention : Reuss Voigt Hill
#
# Bulk Modulus (GPa) = 41.24752 47.37883 44.31317
# Shear Modulus (GPa) = 26.66017 32.45531 29.55774
#
# Velocity S-wave (km/s) = 3.61622 3.98994 3.80767
# Velocity P-wave (km/s) = 6.13745 6.66827 6.40836
#
# Compressibility (1/GPa) = 0.02424388
#
# Stress axis : x y z
#
# Youngs Moduli (GPa) = 62.31352 88.79469 79.49044
#
# Poissons Ratio (x) = 0.17062 0.32394
# Poissons Ratio (y) = 0.11974 0.14518
# Poissons Ratio (z) = 0.25394 0.16217
#
# Static dielectric constant tensor:
#      x y z
#    x 1.815890 0.000000 0.009470 
#    y 0.000000 1.770280 0.000000 
#    z 0.009470 0.000000 1.741360 
# 
# From -- ./inp_files/156614.got.cif
#   From: 2010.05.17/outbox.cif.g08.bks.cpg/sg12_79_cif.got.tgz:156614.got - 2010.06.03 13:09:07.
