data_PCOD9206880
_publ_section_title
;
Structure prediction by ZEFSAII (Michael W. Deem and Ramdas Pophale) SiO2 
 PCOD9206880
Probable space group: C 2/M
;
_chemical_formula_sum "Si O2"
_cell_formula_units_Z 56
_cell_length_a 20.295961
_cell_length_b 8.058103
_cell_length_c 21.315767
_cell_angle_alpha 90.000000
_cell_angle_beta 124.862398
_cell_angle_gamma 90.000000
_cell_volume 2860.463256
_symmetry_space_group_name_H-M "C 2/M"
_symmetry_group_IT_number 12
_symmetry_cell_setting 'monoclinic'
loop_
_space_group_symop_operation_xyz
x,y,z
-x,y,-z
-x,-y,-z
x,-y,z
1/2+x,1/2+y,z
1/2-x,1/2+y,-z
1/2-x,1/2-y,-z
1/2+x,1/2-y,z
loop_
_atom_site_type_symbol
_atom_site_label
_atom_site_fract_x
_atom_site_fract_y
_atom_site_fract_z
Si Si1 0.591318 0.200801 0.067925
Si Si2 0.367231 0.696141 0.769276
Si Si3 0.335709 0.802193 0.020556
Si Si4 0.688213 0.699005 0.645355
Si Si5 0.062974 0.204048 0.682021
Si Si6 0.932417 0.809472 0.518199
Si Si7 0.465882 0.299905 0.193811
O O1 0.616971 0.269880 0.148770
O O2 0.594868 0.000000 0.074323
O O3 0.500000 0.245566 0.000000
O O4 0.646619 0.258579 0.040332
O O5 0.364045 0.500000 0.757458
O O6 0.281576 0.765881 0.702256
O O7 0.444939 0.762812 0.774293
O O8 0.405355 0.745564 0.105466
O O9 0.338608 0.000000 0.019354
O O10 0.250000 0.750000 0.000000
O O11 0.677135 0.500000 0.637343
O O12 0.637623 0.756997 0.678932
O O13 0.644558 0.766348 0.558640
O O14 0.064905 0.257948 0.755022
O O15 0.980596 0.262376 0.603366
O O16 0.062432 0.000000 0.680720
O O17 0.000000 0.814863 0.500000
O O18 0.912483 0.000000 0.524588
O O19 0.469417 0.500000 0.198219
#
# Coordination Sequence:
#
# PCOD9206880 Si02
#       7
#     8   8   8   8   8   8   8
#     4  10  21  40  61  77  98 137 183 218 254 306
#     4  11  23  35  51  77 111 143 173 217 267 315
#     4  11  24  40  59  81 107 136 171 219 264 312
#     4   9  17  31  55  81 103 132 177 225 261 307
#     4   8  15  30  54  79 102 133 176 220 261 308
#     4   7  11  24  49  79 102 126 170 223 261 296
#     4  10  21  37  54  76 108 144 177 214 264 315
#
# _framework density 19.577248000000001
#
# number of rings (size 3 to 8) (size 9 to 14) (size 15 to 20)
#    0.000    2.571    1.429    2.571    2.000    2.000 
#    0.000    0.714    0.000    4.714    0.000    0.000 
#    0.000    0.000    0.000    0.000    0.000    0.000 
#
# Total GULP energy -156127.960306 kJ/mol
# GULP energy per Si atom -5575.998582 kJ/mol
# Density = 1.953269 g / cm^3
# Si number density = 19.577248 Si / 1000 Ang^3
#
#
#
# Elastic Constant Matrix: (Units=GPa)
#
#
# Indices 1 2 3 4 5 6 
#
# 1 84.6290 6.3571 4.3999 0.0000 18.3775 0.0000
# 2 6.3571 10.4145 0.7244 0.0000 -0.5613 0.0000
# 3 4.3999 0.7244 39.0840 0.0000 22.9849 0.0000
# 4 0.0000 0.0000 0.0000 4.7558 0.0000 6.6219
# 5 18.3775 -0.5613 22.9849 0.0000 36.4366 0.0000
# 6 0.0000 0.0000 0.0000 6.6219 0.0000 18.3215
#
#
#
# Elastic Compliance Matrix: (Units=1/GPa)
#
#
# Indices 1 2 3 4 5 6 
#
# 1 0.014581 -0.009791 0.004695 0.000000 -0.010467 0.000000
# 2 -0.009791 0.103114 -0.007388 0.000000 0.011187 0.000000
# 3 0.004695 -0.007388 0.042374 0.000000 -0.029212 0.000000
# 4 0.000000 0.000000 0.000000 0.423280 0.000000 -0.152984
# 5 -0.010467 0.011187 -0.029212 0.000000 0.051324 0.000000
# 6 0.000000 0.000000 0.000000 -0.152984 0.000000 0.109873
#
#
# Mechanical properties :
#
#
# Convention : Reuss Voigt Hill
#
# Bulk Modulus (GPa) = 7.40185 17.45447 12.42816
# Shear Modulus (GPa) = 6.13839 20.07919 13.10879
#
# Velocity S-wave (km/s) = 1.77265 3.20603 2.59046
# Velocity P-wave (km/s) = 2.82467 4.75814 3.91272
#
# Compressibility (1/GPa) = 0.13510134
#
# Stress axis : x y z
#
# Youngs Moduli (GPa) = 68.58454 9.69803 23.59961
#
# Poissons Ratio (x) = 0.09495 -0.11081
# Poissons Ratio (y) = 0.67150 0.17435
# Poissons Ratio (z) = -0.32204 0.07165
#
# Static dielectric constant tensor:
#      x y z
#    x 1.682330 0.000000 -0.002950 
#    y 0.000000 1.710880 0.000000 
#    z -0.002950 0.000000 1.683650 
# 
# From -- ./inp_files/275072.got.cif
#   From: 2010.05.17/outbox.cif.g08.bks.cpg/sg12_138_cif.got.tgz:275072.got - 2010.06.03 13:09:07.
