data_PCOD9206554
_publ_section_title
;
Structure prediction by ZEFSAII (Michael W. Deem and Ramdas Pophale) SiO2 
 PCOD9206554
Probable space group: C 2/M
;
_chemical_formula_sum "Si O2"
_cell_formula_units_Z 52
_cell_length_a 30.048121
_cell_length_b 20.609967
_cell_length_c 5.301803
_cell_angle_alpha 90.000000
_cell_angle_beta 128.972191
_cell_angle_gamma 90.000000
_cell_volume 2552.650786
_symmetry_space_group_name_H-M "C 2/M"
_symmetry_group_IT_number 12
_symmetry_cell_setting 'monoclinic'
loop_
_space_group_symop_operation_xyz
x,y,z
-x,y,-z
-x,-y,-z
x,-y,z
1/2+x,1/2+y,z
1/2-x,1/2+y,-z
1/2-x,1/2-y,-z
1/2+x,1/2-y,z
loop_
_atom_site_type_symbol
_atom_site_label
_atom_site_fract_x
_atom_site_fract_y
_atom_site_fract_z
Si Si1 0.746908 0.072557 0.919450
Si Si2 0.440286 0.800914 0.714162
Si Si3 0.364651 0.890540 0.725152
Si Si4 0.789746 0.317983 0.837513
Si Si5 0.959930 0.500000 0.113041
Si Si6 0.440255 0.716555 0.217168
Si Si7 0.316608 0.680496 0.911994
O O1 0.693375 0.070638 0.536735
O O2 0.797759 0.115947 0.988084
O O3 0.762878 0.000000 0.050575
O O4 0.720948 0.118054 0.040833
O O5 0.389148 0.850307 0.575720
O O6 0.442143 0.772513 0.441184
O O7 0.500000 0.835300 0.000000
O O8 0.438256 0.745251 0.925985
O O9 0.341415 0.835356 0.831782
O O10 0.416391 0.938418 0.977187
O O11 0.729048 0.311437 0.476108
O O12 0.805762 0.248883 0.021482
O O13 0.000000 0.500000 0.500000
O O14 0.000000 0.500000 0.000000
O O15 0.500000 0.680852 0.500000
O O16 0.381722 0.678665 0.056758
#
# Coordination Sequence:
#
# PCOD9206554 Si02
#       7
#     8   8   8   8   4   8   8
#     4  11  24  39  63  89 125 169 212 270 329 389
#     4  10  21  36  59  89 126 165 210 256 317 374
#     4  11  23  40  60  85 128 172 225 268 314 365
#     4  10  22  37  64  90 121 166 216 276 318 379
#     4  12  30  44  62  90 132 190 237 266 307 372
#     4  10  21  37  62  95 128 161 200 262 324 391
#     4  10  21  39  61  93 123 158 217 263 333 378
#
# _framework density 20.370982999999999
#
# number of rings (size 3 to 8) (size 9 to 14) (size 15 to 20)
#    0.000    1.538    2.308    1.846    5.385    2.462 
#    0.000    0.000    0.000    0.462    0.000    1.077 
#    0.000    0.000    0.000    0.000    0.000    0.000 
#
# Total GULP energy -144968.415561 kJ/mol
# GULP energy per Si atom -5575.708291 kJ/mol
# Density = 2.032462 g / cm^3
# Si number density = 20.370983 Si / 1000 Ang^3
#
#
#
# Elastic Constant Matrix: (Units=GPa)
#
#
# Indices 1 2 3 4 5 6 
#
# 1 109.6442 33.2518 38.8633 0.0000 32.4157 0.0000
# 2 33.2518 114.4279 28.8283 0.0000 17.0422 0.0000
# 3 38.8633 28.8283 75.9388 0.0000 13.2126 0.0000
# 4 0.0000 0.0000 0.0000 26.0707 0.0000 8.6252
# 5 32.4157 17.0422 13.2126 0.0000 38.7984 0.0000
# 6 0.0000 0.0000 0.0000 8.6252 0.0000 15.4919
#
#
#
# Elastic Compliance Matrix: (Units=1/GPa)
#
#
# Indices 1 2 3 4 5 6 
#
# 1 0.014142 -0.001427 -0.005048 0.000000 -0.009470 0.000000
# 2 -0.001427 0.010192 -0.002729 0.000000 -0.002355 0.000000
# 3 -0.005048 -0.002729 0.016844 0.000000 -0.000320 0.000000
# 4 0.000000 0.000000 0.000000 0.047018 0.000000 -0.026177
# 5 -0.009470 -0.002355 -0.000320 0.000000 0.034829 0.000000
# 6 0.000000 0.000000 0.000000 -0.026177 0.000000 0.079124
#
#
# Mechanical properties :
#
#
# Convention : Reuss Voigt Hill
#
# Bulk Modulus (GPa) = 43.91936 55.76640 49.84288
# Shear Modulus (GPa) = 21.91561 29.34336 25.62949
#
# Velocity S-wave (km/s) = 3.28353 3.79944 3.55087
# Velocity P-wave (km/s) = 5.99850 6.83246 6.42902
#
# Compressibility (1/GPa) = 0.02276900
#
# Stress axis : x y z
#
# Youngs Moduli (GPa) = 70.71024 98.11440 59.36991
#
# Poissons Ratio (x) = 0.14006 0.29970
# Poissons Ratio (y) = 0.10094 0.16202
# Poissons Ratio (z) = 0.35695 0.26775
#
# Static dielectric constant tensor:
#      x y z
#    x 1.775200 0.000000 -0.016530 
#    y 0.000000 1.759450 0.000000 
#    z -0.016530 0.000000 1.833400 
# 
# From -- ./inp_files/25334.got.cif
#   From: 2010.05.17/outbox.cif.g08.bks.cpg/sg12_13_cif.got.tgz:25334.got - 2010.06.03 13:09:07.
