data_PCOD9206924
_publ_section_title
;
Structure prediction by ZEFSAII (Michael W. Deem and Ramdas Pophale) SiO2 
 PCOD9206924
Probable space group: C 2/M
;
_chemical_formula_sum "Si O2"
_cell_formula_units_Z 64
_cell_length_a 16.194803
_cell_length_b 9.147184
_cell_length_c 19.939247
_cell_angle_alpha 90.000000
_cell_angle_beta 106.706416
_cell_angle_gamma 90.000000
_cell_volume 2829.060773
_symmetry_space_group_name_H-M "C 2/M"
_symmetry_group_IT_number 12
_symmetry_cell_setting 'monoclinic'
loop_
_space_group_symop_operation_xyz
x,y,z
-x,y,-z
-x,-y,-z
x,-y,z
1/2+x,1/2+y,z
1/2-x,1/2+y,-z
1/2-x,1/2-y,-z
1/2+x,1/2-y,z
loop_
_atom_site_type_symbol
_atom_site_label
_atom_site_fract_x
_atom_site_fract_y
_atom_site_fract_z
Si Si1 0.327260 0.672497 0.597888
Si Si2 0.037895 0.827804 0.263133
Si Si3 0.229902 0.670112 0.777749
Si Si4 0.627137 0.667521 0.021808
Si Si5 0.593837 0.826646 0.148362
Si Si6 0.573204 0.828201 0.650428
Si Si7 0.370232 0.175422 0.477333
Si Si8 0.834673 0.333729 0.097074
O O1 0.333139 0.500000 0.585025
O O2 0.367758 0.693973 0.680459
O O3 0.380309 0.756763 0.552922
O O4 0.227929 0.715774 0.566660
O O5 0.034471 0.740504 0.192913
O O6 0.977639 0.768577 0.308337
O O7 0.024812 0.000000 0.248316
O O8 0.260003 0.500000 0.792648
O O9 0.309851 0.776680 0.806264
O O10 0.172934 0.678077 0.698170
O O11 0.163913 0.700309 0.824018
O O12 0.600310 0.500000 0.018703
O O13 0.584343 0.757888 0.072055
O O14 0.731081 0.671866 0.058851
O O15 0.618648 0.732843 0.945679
O O16 0.586384 0.000000 0.143887
O O17 0.571397 0.781589 0.572383
O O18 0.547339 0.000000 0.649642
O O19 0.376221 0.000000 0.483602
O O20 0.863608 0.500000 0.092895
#
# Coordination Sequence:
#
# PCOD9206924 Si02
#       8
#     8   8   8   8   8   8   8   8
#     4   9  19  36  57  79 104 136 172 211 258 310
#     4  11  23  38  54  74 105 142 178 217 263 312
#     4   9  18  34  55  77 106 141 174 214 264 314
#     4   9  16  27  45  71 104 137 168 210 263 311
#     4  11  21  33  53  79 105 135 176 221 262 312
#     4  10  21  37  55  77 107 142 178 215 260 311
#     4   9  18  34  57  81 105 134 170 214 259 306
#     4   8  14  25  44  72 102 133 169 209 256 309
#
# _framework density 22.622347999999999
#
# number of rings (size 3 to 8) (size 9 to 14) (size 15 to 20)
#    0.000    2.500    0.000    3.375    0.000    7.500 
#    0.000    5.000    0.000    0.750    0.000    5.250 
#    0.000    0.000    0.000    0.000    0.000    0.000 
#
# Total GULP energy -178867.899684 kJ/mol
# GULP energy per Si atom -5589.621865 kJ/mol
# Density = 2.257086 g / cm^3
# Si number density = 22.622348 Si / 1000 Ang^3
#
#
#
# Elastic Constant Matrix: (Units=GPa)
#
#
# Indices 1 2 3 4 5 6 
#
# 1 78.6126 32.2073 21.4504 0.0000 -18.7085 0.0000
# 2 32.2073 105.8105 76.9334 0.0000 -36.0367 0.0000
# 3 21.4504 76.9334 155.0958 0.0000 -34.6036 0.0000
# 4 0.0000 0.0000 0.0000 33.5709 0.0000 -12.1015
# 5 -18.7085 -36.0367 -34.6036 0.0000 42.8623 0.0000
# 6 0.0000 0.0000 0.0000 -12.1015 0.0000 15.6410
#
#
#
# Elastic Compliance Matrix: (Units=1/GPa)
#
#
# Indices 1 2 3 4 5 6 
#
# 1 0.014997 -0.003674 0.000634 0.000000 0.003969 0.000000
# 2 -0.003674 0.018287 -0.006697 0.000000 0.008365 0.000000
# 3 0.000634 -0.006697 0.010352 0.000000 0.003004 0.000000
# 4 0.000000 0.000000 0.000000 0.041309 0.000000 0.031961
# 5 0.003969 0.008365 0.003004 0.000000 0.034521 0.000000
# 6 0.000000 0.000000 0.000000 0.031961 0.000000 0.088663
#
#
# Mechanical properties :
#
#
# Convention : Reuss Voigt Hill
#
# Bulk Modulus (GPa) = 41.38664 66.74458 54.06561
# Shear Modulus (GPa) = 21.21726 32.34335 26.78031
#
# Velocity S-wave (km/s) = 3.06582 3.78525 3.44437
# Velocity P-wave (km/s) = 5.55578 6.97653 6.30629
#
# Compressibility (1/GPa) = 0.02416239
#
# Stress axis : x y z
#
# Youngs Moduli (GPa) = 66.67796 54.68298 96.60035
#
# Poissons Ratio (x) = 0.20092 -0.06122
# Poissons Ratio (y) = 0.24499 0.64690
# Poissons Ratio (z) = -0.04226 0.36619
#
# Static dielectric constant tensor:
#      x y z
#    x 1.920840 0.000000 0.029670 
#    y 0.000000 1.755800 0.000000 
#    z 0.029670 0.000000 1.829100 
# 
# From -- ./inp_files/314137.got.cif
#   From: 2010.05.17/outbox.cif.g08.bks.cpg/sg12_158_cif.got.tgz:314137.got - 2010.06.03 13:09:07.
