data_PCOD9206972
_publ_section_title
;
Structure prediction by ZEFSAII (Michael W. Deem and Ramdas Pophale) SiO2 
 PCOD9206972
Probable space group: C 2/M
;
_chemical_formula_sum "Si O2"
_cell_formula_units_Z 50
_cell_length_a 33.792746
_cell_length_b 14.283434
_cell_length_c 5.630972
_cell_angle_alpha 90.000000
_cell_angle_beta 110.343913
_cell_angle_gamma 90.000000
_cell_volume 2548.400164
_symmetry_space_group_name_H-M "C 2/M"
_symmetry_group_IT_number 12
_symmetry_cell_setting 'monoclinic'
loop_
_space_group_symop_operation_xyz
x,y,z
-x,y,-z
-x,-y,-z
x,-y,z
1/2+x,1/2+y,z
1/2-x,1/2+y,-z
1/2-x,1/2-y,-z
1/2+x,1/2-y,z
loop_
_atom_site_type_symbol
_atom_site_label
_atom_site_fract_x
_atom_site_fract_y
_atom_site_fract_z
Si Si1 0.677152 0.892684 0.227001
Si Si2 0.459706 0.155324 0.063290
Si Si3 0.887952 0.747193 0.162846
Si Si4 0.682024 0.612555 0.948576
Si Si5 0.607335 0.099682 0.450501
Si Si6 0.000000 0.500000 0.500000
Si Si7 0.725383 0.613699 0.541807
O O1 0.653518 0.896939 0.430516
O O2 0.725252 0.861257 0.349037
O O3 0.676804 0.000000 0.131799
O O4 0.648079 0.823279 0.016097
O O5 0.430188 0.238436 0.098483
O O6 0.476161 0.082929 0.293849
O O7 0.500000 0.187831 0.000000
O O8 0.427949 0.099521 0.825144
O O9 0.864843 0.844981 0.140452
O O10 0.899633 0.695122 0.428176
O O11 0.682123 0.500000 0.943709
O O12 0.703491 0.645661 0.743894
O O13 0.704775 0.641153 0.245149
O O14 0.602596 0.000000 0.573699
O O15 0.723434 0.500000 0.541043
#
# Coordination Sequence:
#
# PCOD9206972 Si02
#       7
#     8   8   8   8   8   2   8
#     4   9  20  36  55  86 127 166 200 249 307 370
#     4  11  24  38  59  88 122 161 200 237 295 374
#     4  11  24  36  60  87 121 160 206 253 313 368
#     4  10  23  42  64  87 120 162 215 270 314 359
#     4  10  21  37  55  85 125 163 199 240 296 369
#     4  12  22  40  64  90 122 172 190 236 296 378
#     4   9  20  39  62  87 119 166 214 261 314 363
#
# _framework density 19.620152000000001
#
# number of rings (size 3 to 8) (size 9 to 14) (size 15 to 20)
#    0.000    1.920    0.800    1.680   11.200    1.280 
#    0.000    0.000    0.000    0.480    0.000    3.920 
#    0.000    0.000    0.000    0.000    0.000    0.000 
#
# Total GULP energy -139182.993584 kJ/mol
# GULP energy per Si atom -5567.319743 kJ/mol
# Density = 1.957550 g / cm^3
# Si number density = 19.620152 Si / 1000 Ang^3
#
#
#
# Elastic Constant Matrix: (Units=GPa)
#
#
# Indices 1 2 3 4 5 6 
#
# 1 172.3765 28.8561 53.9169 0.0000 -3.2497 0.0000
# 2 28.8561 38.4786 22.1452 0.0000 -0.6592 0.0000
# 3 53.9169 22.1452 106.4737 0.0000 1.4581 0.0000
# 4 0.0000 0.0000 0.0000 7.6986 0.0000 1.1781
# 5 -3.2497 -0.6592 1.4581 0.0000 20.6407 0.0000
# 6 0.0000 0.0000 0.0000 1.1781 0.0000 -1.2598
#
#
#
# Elastic Compliance Matrix: (Units=1/GPa)
#
#
# Indices 1 2 3 4 5 6 
#
# 1 0.007391 -0.003814 -0.002967 0.000000 0.001251 0.000000
# 2 -0.003814 0.031530 -0.004636 0.000000 0.000734 0.000000
# 3 -0.002967 -0.004636 0.011879 0.000000 -0.001454 0.000000
# 4 0.000000 0.000000 0.000000 0.113633 0.000000 0.106262
# 5 0.001251 0.000734 -0.001454 0.000000 0.048771 0.000000
# 6 0.000000 0.000000 0.000000 0.106262 0.000000 -0.694377
#
#
# Mechanical properties :
#
#
# Convention : Reuss Voigt Hill
#
# Bulk Modulus (GPa) = 35.75892 58.57390 47.16641
# Shear Modulus (GPa) = -11.13542 19.57660 4.22059
#
# Velocity S-wave (km/s) = -2.38492 3.16219 1.46827
# Velocity P-wave (km/s) = 3.26824 6.57658 5.19292
#
# Compressibility (1/GPa) = 0.02796505
#
# Stress axis : x y z
#
# Youngs Moduli (GPa) = 135.29470 31.71620 84.18547
#
# Poissons Ratio (x) = 0.12097 0.24975
# Poissons Ratio (y) = 0.51602 0.39032
# Poissons Ratio (z) = 0.40138 0.14705
#
# Static dielectric constant tensor:
#      x y z
#    x 1.738870 0.000000 -0.050990 
#    y 0.000000 1.702170 0.000000 
#    z -0.050990 0.000000 1.759120 
# 
# From -- ./inp_files/31438.got.cif
#   From: 2010.05.17/outbox.cif.g08.bks.cpg/sg12_16_cif.got.tgz:31438.got - 2010.06.03 13:09:07.
