data_PCOD9206228
_publ_section_title
;
Structure prediction by ZEFSAII (Michael W. Deem and Ramdas Pophale) SiO2 
 PCOD9206228
Probable space group: C 2/M
;
_chemical_formula_sum "Si O2"
_cell_formula_units_Z 48
_cell_length_a 13.439840
_cell_length_b 21.422049
_cell_length_c 14.548254
_cell_angle_alpha 90.000000
_cell_angle_beta 32.783979
_cell_angle_gamma 90.000000
_cell_volume 2267.999259
_symmetry_space_group_name_H-M "C 2/M"
_symmetry_group_IT_number 12
_symmetry_cell_setting 'monoclinic'
loop_
_space_group_symop_operation_xyz
x,y,z
-x,y,-z
-x,-y,-z
x,-y,z
1/2+x,1/2+y,z
1/2-x,1/2+y,-z
1/2-x,1/2-y,-z
1/2+x,1/2-y,z
loop_
_atom_site_type_symbol
_atom_site_label
_atom_site_fract_x
_atom_site_fract_y
_atom_site_fract_z
Si Si1 0.500000 0.129831 0.000000
Si Si2 0.026950 0.570850 0.782079
Si Si3 0.103693 0.930067 0.600965
Si Si4 0.834699 0.187769 0.806963
Si Si5 0.794341 0.572019 0.651145
Si Si6 0.326979 0.185596 0.865187
Si Si7 0.500000 0.645581 0.000000
O O1 0.482731 0.088303 0.921765
O O2 0.680943 0.172991 0.850437
O O3 0.968100 0.500000 0.807528
O O4 0.245654 0.574624 0.596377
O O5 0.932855 0.619807 0.785302
O O6 0.219869 0.927157 0.605045
O O7 0.967043 0.871790 0.705906
O O8 0.017059 0.000000 0.664410
O O9 0.928364 0.256014 0.737810
O O10 0.717789 0.192147 0.992193
O O11 0.805119 0.500000 0.673281
O O12 0.000000 0.598943 0.500000
O O13 0.642520 0.605832 0.829764
O O14 0.131492 0.182682 0.966340
#
# Coordination Sequence:
#
# PCOD9206228 Si02
#       7
#     4   8   8   8   8   8   4
#     4  10  22  40  64  90 123 161 212 272 314 376
#     4  10  22  40  63  93 125 163 210 265 324 377
#     4  10  21  39  62  88 125 165 203 259 319 382
#     4  10  21  41  60  88 122 161 208 257 317 376
#     4  10  21  36  56  90 129 162 203 255 311 378
#     4  10  22  37  62  89 122 164 206 262 311 382
#     4  12  20  36  62  92 117 167 214 254 317 376
#
# _framework density 21.164027999999998
#
# number of rings (size 3 to 8) (size 9 to 14) (size 15 to 20)
#    0.000    1.833    1.667    2.000    0.000    7.333 
#    0.000    1.667    3.667    0.000    0.000    0.000 
#    0.000    0.000    0.000    0.000    0.000    0.000 
#
# Total GULP energy -133837.706587 kJ/mol
# GULP energy per Si atom -5576.571108 kJ/mol
# Density = 2.111586 g / cm^3
# Si number density = 21.164028 Si / 1000 Ang^3
#
#
#
# Elastic Constant Matrix: (Units=GPa)
#
#
# Indices 1 2 3 4 5 6 
#
# 1 61.8072 46.0448 9.5078 0.0241 -15.4919 0.0182
# 2 46.0448 180.0320 44.3256 0.0504 -25.4407 -0.0074
# 3 9.5078 44.3256 71.3529 0.0231 -1.9478 -0.0029
# 4 0.0241 0.0504 0.0231 -6.0265 -0.0244 -24.3271
# 5 -15.4919 -25.4407 -1.9478 -0.0244 29.9065 -0.0096
# 6 0.0182 -0.0074 -0.0029 -24.3271 -0.0096 18.7793
#
#
#
# Elastic Compliance Matrix: (Units=1/GPa)
#
#
# Indices 1 2 3 4 5 6 
#
# 1 0.021295 -0.004453 0.000127 0.000015 0.007251 0.000001
# 2 -0.004453 0.008460 -0.004536 -0.000003 0.004594 0.000005
# 3 0.000127 -0.004536 0.016742 0.000007 -0.002703 0.000008
# 4 0.000015 -0.000003 0.000007 -0.026638 -0.000027 -0.034507
# 5 0.007251 0.004594 -0.002703 -0.000027 0.040926 -0.000020
# 6 0.000001 0.000005 0.000008 -0.034507 -0.000020 0.008548
#
#
# Mechanical properties :
#
#
# Convention : Reuss Voigt Hill
#
# Bulk Modulus (GPa) = 34.75711 56.99430 45.87571
# Shear Modulus (GPa) = 51.73388 22.75279 37.24334
#
# Velocity S-wave (km/s) = 4.94948 3.28238 4.19948
# Velocity P-wave (km/s) = 7.00867 6.43068 6.72589
#
# Compressibility (1/GPa) = 0.02877109
#
# Stress axis : x y z
#
# Youngs Moduli (GPa) = 46.96034 118.20962 59.72890
#
# Poissons Ratio (x) = 0.52636 -0.00756
# Poissons Ratio (y) = 0.20910 0.27096
# Poissons Ratio (z) = -0.00594 0.53625
#
# Static dielectric constant tensor:
#      x y z
#    x 1.789370 0.000000 0.012890 
#    y 0.000000 1.880930 0.000010 
#    z 0.012890 0.000010 1.771780 
# 
# From -- ./inp_files/207946.got.cif
#   From: 2010.05.17/outbox.cif.g08.bks.cpg/sg12_104_cif.got.tgz:207946.got - 2010.06.03 13:09:07.
