data_PCOD9206307
_publ_section_title
;
Structure prediction by ZEFSAII (Michael W. Deem and Ramdas Pophale) SiO2 
 PCOD9206307
Probable space group: C 2/M
;
_chemical_formula_sum "Si O2"
_cell_formula_units_Z 56
_cell_length_a 21.863151
_cell_length_b 14.096007
_cell_length_c 8.733887
_cell_angle_alpha 90.000000
_cell_angle_beta 120.396040
_cell_angle_gamma 90.000000
_cell_volume 2321.667518
_symmetry_space_group_name_H-M "C 2/M"
_symmetry_group_IT_number 12
_symmetry_cell_setting 'monoclinic'
loop_
_space_group_symop_operation_xyz
x,y,z
-x,y,-z
-x,-y,-z
x,-y,z
1/2+x,1/2+y,z
1/2-x,1/2+y,-z
1/2-x,1/2-y,-z
1/2+x,1/2-y,z
loop_
_atom_site_type_symbol
_atom_site_label
_atom_site_fract_x
_atom_site_fract_y
_atom_site_fract_z
Si Si1 0.155944 0.266510 0.026597
Si Si2 0.261868 0.612849 0.361462
Si Si3 0.002681 0.892319 0.672349
Si Si4 0.936305 0.747279 0.821065
Si Si5 0.077262 0.612250 0.679343
Si Si6 0.336662 0.112655 0.506369
Si Si7 0.333457 0.393758 0.165394
O O1 0.097834 0.319110 0.845330
O O2 0.197067 0.187591 0.980932
O O3 0.203691 0.346071 0.169427
O O4 0.118139 0.215395 0.121263
O O5 0.261547 0.500000 0.370785
O O6 0.236777 0.643139 0.500891
O O7 0.331135 0.634487 0.344246
O O8 0.965590 0.830267 0.752373
O O9 0.000000 0.848629 0.500000
O O10 0.086931 0.899444 0.797078
O O11 0.973271 0.000000 0.630381
O O12 0.897029 0.668328 0.674056
O O13 0.000000 0.704213 0.000000
O O14 0.077547 0.500000 0.722596
O O15 0.142192 0.629203 0.642066
O O16 0.000000 0.628488 0.500000
O O17 0.344104 0.000000 0.537114
O O18 0.302323 0.500000 0.110827
#
# Coordination Sequence:
#
# PCOD9206307 Si02
#       7
#     8   8   8   8   8   8   8
#     4  11  21  34  58  88 116 153 193 239 288 340
#     4   9  19  38  60  82 115 153 196 238 282 343
#     4  10  23  41  62  85 113 152 195 239 290 342
#     4  11  21  33  56  86 117 150 186 238 286 340
#     4  10  21  36  57  86 121 158 192 233 289 349
#     4   9  20  36  56  83 117 154 190 234 287 343
#     4  10  21  37  60  83 111 154 195 238 290 340
#
# _framework density 24.120594000000001
#
# number of rings (size 3 to 8) (size 9 to 14) (size 15 to 20)
#    0.000    2.000    1.429    1.714    2.000    1.714 
#    0.000    0.714    3.143    0.000    0.000    0.000 
#    0.000    0.000    0.000    0.000    0.000    0.000 
#
# Total GULP energy -156241.836719 kJ/mol
# GULP energy per Si atom -5580.065597 kJ/mol
# Density = 2.406569 g / cm^3
# Si number density = 24.120594 Si / 1000 Ang^3
#
#
#
# Elastic Constant Matrix: (Units=GPa)
#
#
# Indices 1 2 3 4 5 6 
#
# 1 125.2242 51.5470 46.2095 0.0000 -52.0446 0.0000
# 2 51.5470 96.3350 25.0334 0.0000 -13.0252 0.0000
# 3 46.2095 25.0334 63.1676 0.0000 -17.9212 0.0000
# 4 0.0000 0.0000 0.0000 19.1794 0.0000 5.5436
# 5 -52.0446 -13.0252 -17.9212 0.0000 49.9166 0.0000
# 6 0.0000 0.0000 0.0000 5.5436 0.0000 30.2327
#
#
#
# Elastic Compliance Matrix: (Units=1/GPa)
#
#
# Indices 1 2 3 4 5 6 
#
# 1 0.020664 -0.006779 -0.007593 0.000000 0.017050 0.000000
# 2 -0.006779 0.013902 -0.001699 0.000000 -0.004050 0.000000
# 3 -0.007593 -0.001699 0.021920 0.000000 -0.000490 0.000000
# 4 0.000000 0.000000 0.000000 0.055057 0.000000 -0.010096
# 5 0.017050 -0.004050 -0.000490 0.000000 0.036578 0.000000
# 6 0.000000 0.000000 0.000000 -0.010096 0.000000 0.034928
#
#
# Mechanical properties :
#
#
# Convention : Reuss Voigt Hill
#
# Bulk Modulus (GPa) = 41.07881 58.92296 50.00089
# Shear Modulus (GPa) = 22.39088 30.66153 26.52620
#
# Velocity S-wave (km/s) = 3.05009 3.56922 3.31982
# Velocity P-wave (km/s) = 5.42878 6.43951 5.95563
#
# Compressibility (1/GPa) = 0.02434345
#
# Stress axis : x y z
#
# Youngs Moduli (GPa) = 48.39277 71.93444 45.62083
#
# Poissons Ratio (x) = 0.48762 0.34640
# Poissons Ratio (y) = 0.32804 0.07753
# Poissons Ratio (z) = 0.36744 0.12225
#
# Static dielectric constant tensor:
#      x y z
#    x 2.066840 0.000000 0.009620 
#    y 0.000000 1.923850 0.000000 
#    z 0.009620 0.000000 1.944460 
# 
# From -- ./inp_files/96491.got.cif
#   From: 2010.05.17/outbox.cif.g08.bks.cpg/sg12_49_cif.got.tgz:96491.got - 2010.06.03 13:09:07.
