data_PCOD9206550
_publ_section_title
;
Structure prediction by ZEFSAII (Michael W. Deem and Ramdas Pophale) SiO2 
 PCOD9206550
Probable space group: C 2/M
;
_chemical_formula_sum "Si O2"
_cell_formula_units_Z 48
_cell_length_a 7.257032
_cell_length_b 13.607696
_cell_length_c 19.895761
_cell_angle_alpha 90.000000
_cell_angle_beta 76.480434
_cell_angle_gamma 90.000000
_cell_volume 1910.293400
_symmetry_space_group_name_H-M "C 2/M"
_symmetry_group_IT_number 12
_symmetry_cell_setting 'monoclinic'
loop_
_space_group_symop_operation_xyz
x,y,z
-x,y,-z
-x,-y,-z
x,-y,z
1/2+x,1/2+y,z
1/2-x,1/2+y,-z
1/2-x,1/2-y,-z
1/2+x,1/2-y,z
loop_
_atom_site_type_symbol
_atom_site_label
_atom_site_fract_x
_atom_site_fract_y
_atom_site_fract_z
Si Si1 0.898915 0.182739 0.947633
Si Si2 0.574987 0.680672 0.565372
Si Si3 0.783176 0.611038 0.754467
Si Si4 0.291444 0.198375 0.159181
Si Si5 0.115863 0.111877 0.291443
Si Si6 0.033396 0.610561 0.404181
O O1 0.810975 0.132555 0.889621
O O2 0.034945 0.259583 0.897759
O O3 0.750000 0.250000 0.000000
O O4 0.000000 0.126082 0.000000
O O5 0.500000 0.644862 0.500000
O O6 0.416219 0.669959 0.637457
O O7 0.760595 0.627015 0.578332
O O8 0.596459 0.799283 0.560879
O O9 0.790663 0.500000 0.781888
O O10 0.803199 0.699286 0.805293
O O11 0.573264 0.624700 0.738515
O O12 0.925067 0.616783 0.679123
O O13 0.289463 0.138867 0.228383
O O14 0.127324 0.000000 0.310975
O O15 0.965061 0.500000 0.424446
#
# Coordination Sequence:
#
# PCOD9206550 Si02
#       6
#     8   8   8   8   8   8
#     4   9  20  34  57  89 116 152 191 228 302 372
#     4  11  22  40  64  89 130 174 212 264 324 376
#     4   9  18  34  58  85 112 152 201 246 300 358
#     4  11  17  35  63  80 115 155 191 249 291 356
#     4  10  21  36  59  89 118 157 210 255 305 364
#     4  10  22  40  61  89 127 165 213 270 317 374
#
# _framework density 25.127030999999999
#
# number of rings (size 3 to 8) (size 9 to 14) (size 15 to 20)
#    0.000    2.000    3.333    2.000    0.000    1.667 
#    0.000    2.500    0.000   20.000    0.000    0.000 
#    0.000    0.000    0.000    0.000    0.000    0.000 
#
# Total GULP energy -134037.561284 kJ/mol
# GULP energy per Si atom -5584.898387 kJ/mol
# Density = 2.506984 g / cm^3
# Si number density = 25.127031 Si / 1000 Ang^3
#
#
#
# Elastic Constant Matrix: (Units=GPa)
#
#
# Indices 1 2 3 4 5 6 
#
# 1 43.3742 -0.4483 24.1009 0.0000 20.5594 0.0000
# 2 -0.4483 120.2581 17.9918 0.0000 19.1798 0.0000
# 3 24.1009 17.9918 177.3852 0.0000 18.6469 0.0000
# 4 0.0000 0.0000 0.0000 -5.8046 0.0000 0.3362
# 5 20.5594 19.1798 18.6469 0.0000 47.0367 0.0000
# 6 0.0000 0.0000 0.0000 0.3362 0.0000 19.0178
#
#
#
# Elastic Compliance Matrix: (Units=1/GPa)
#
#
# Indices 1 2 3 4 5 6 
#
# 1 0.031220 0.002738 -0.003097 0.000000 -0.013535 0.000000
# 2 0.002738 0.009185 -0.000818 0.000000 -0.004618 0.000000
# 3 -0.003097 -0.000818 0.006223 0.000000 -0.000780 0.000000
# 4 0.000000 0.000000 0.000000 -0.172100 0.000000 0.003042
# 5 -0.013535 -0.004618 -0.000780 0.000000 0.029368 0.000000
# 6 0.000000 0.000000 0.000000 0.003042 0.000000 0.052529
#
#
# Mechanical properties :
#
#
# Convention : Reuss Voigt Hill
#
# Bulk Modulus (GPa) = 22.58654 47.14515 34.86584
# Shear Modulus (GPa) = -188.92844 32.00819 -78.46012
#
# Velocity S-wave (km/s) = -8.68058 3.57298 -5.59403
# Velocity P-wave (km/s) = 9.56356 5.98540 5.27430
#
# Compressibility (1/GPa) = 0.04427416
#
# Stress axis : x y z
#
# Youngs Moduli (GPa) = 32.03114 108.87883 160.69015
#
# Poissons Ratio (x) = -0.29814 0.49761
# Poissons Ratio (y) = -0.08771 0.13148
# Poissons Ratio (z) = 0.09919 0.08908
#
# Static dielectric constant tensor:
#      x y z
#    x 2.192130 0.000000 0.025720 
#    y 0.000000 1.871200 0.000000 
#    z 0.025720 0.000000 1.974120 
# 
# From -- ./inp_files/299772.got.cif
#   From: 2010.05.17/outbox.cif.g08.bks.cpg/sg12_150_cif.got.tgz:299772.got - 2010.06.03 13:09:07.
