data_PCOD9206965
_publ_section_title
;
Structure prediction by ZEFSAII (Michael W. Deem and Ramdas Pophale) SiO2 
 PCOD9206965
Probable space group: C 2/M
;
_chemical_formula_sum "Si O2"
_cell_formula_units_Z 40
_cell_length_a 7.337512
_cell_length_b 27.936831
_cell_length_c 12.323152
_cell_angle_alpha 90.000000
_cell_angle_beta 125.154385
_cell_angle_gamma 90.000000
_cell_volume 2065.335176
_symmetry_space_group_name_H-M "C 2/M"
_symmetry_group_IT_number 12
_symmetry_cell_setting 'monoclinic'
loop_
_space_group_symop_operation_xyz
x,y,z
-x,y,-z
-x,-y,-z
x,-y,z
1/2+x,1/2+y,z
1/2-x,1/2+y,-z
1/2-x,1/2-y,-z
1/2+x,1/2-y,z
loop_
_atom_site_type_symbol
_atom_site_label
_atom_site_fract_x
_atom_site_fract_y
_atom_site_fract_z
Si Si1 0.243470 0.292437 0.635576
Si Si2 0.742448 0.131397 0.062334
Si Si3 0.390489 0.135714 0.224478
Si Si4 0.703338 0.310198 0.712184
Si Si5 0.904191 0.946311 0.844378
O O1 0.218362 0.330925 0.722077
O O2 0.434911 0.306914 0.615267
O O3 0.297926 0.240612 0.705120
O O4 0.000000 0.289222 0.500000
O O5 0.760990 0.176464 0.148791
O O6 0.927349 0.091709 0.151848
O O7 0.500000 0.108717 0.000000
O O8 0.732844 0.145408 0.932839
O O9 0.648640 0.149928 0.297909
O O10 0.332276 0.080885 0.231885
O O11 0.897737 0.000000 0.797666
O O12 0.000000 0.949503 0.000000
#
# Coordination Sequence:
#
# PCOD9206965 Si02
#       5
#     8   8   8   8   8
#     4  12  24  37  56  81 109 153 196 227 269 325
#     4   9  19  35  54  87 119 143 181 223 281 336
#     4  10  21  37  55  82 116 144 183 230 274 332
#     4  11  22  37  55  82 113 149 185 230 273 326
#     4   9  17  33  58  82 113 147 177 224 279 333
#
# _framework density 19.367315999999999
#
# number of rings (size 3 to 8) (size 9 to 14) (size 15 to 20)
#    0.000    1.800    4.000    0.600    0.000    1.200 
#    3.600    3.000    0.000    0.600    0.000    1.400 
#    0.000    0.000    0.000    0.000    0.000    0.000 
#
# Total GULP energy -111458.601096 kJ/mol
# GULP energy per Si atom -5572.930055 kJ/mol
# Density = 1.932324 g / cm^3
# Si number density = 19.367316 Si / 1000 Ang^3
#
#
#
# Elastic Constant Matrix: (Units=GPa)
#
#
# Indices 1 2 3 4 5 6 
#
# 1 129.1941 46.5710 25.3891 0.0000 29.8816 0.0000
# 2 46.5710 123.4964 47.6634 0.0000 11.1197 0.0000
# 3 25.3891 47.6634 34.4511 0.0000 8.5579 0.0000
# 4 0.0000 0.0000 0.0000 7.3272 0.0000 7.7632
# 5 29.8816 11.1197 8.5579 0.0000 29.4609 0.0000
# 6 0.0000 0.0000 0.0000 7.7632 0.0000 11.2645
#
#
#
# Elastic Compliance Matrix: (Units=1/GPa)
#
#
# Indices 1 2 3 4 5 6 
#
# 1 0.011413 -0.002393 -0.002639 0.000000 -0.009906 0.000000
# 2 -0.002393 0.017883 -0.023607 0.000000 0.002535 0.000000
# 3 -0.002639 -0.023607 0.065478 0.000000 -0.007434 0.000000
# 4 0.000000 0.000000 0.000000 0.505810 0.000000 -0.348590
# 5 -0.009906 0.002535 -0.007434 0.000000 0.045193 0.000000
# 6 0.000000 0.000000 0.000000 -0.348590 0.000000 0.329013
#
#
# Mechanical properties :
#
#
# Convention : Reuss Voigt Hill
#
# Bulk Modulus (GPa) = 26.66980 58.48763 42.57871
# Shear Modulus (GPa) = 4.78667 20.77841 12.78254
#
# Velocity S-wave (km/s) = 1.57381 3.27901 2.57184
# Velocity P-wave (km/s) = 4.13557 6.67836 5.55443
#
# Compressibility (1/GPa) = 0.03749560
#
# Stress axis : x y z
#
# Youngs Moduli (GPa) = 87.62104 55.91979 15.27227
#
# Poissons Ratio (x) = 0.13384 0.04030
# Poissons Ratio (y) = 0.20972 0.36053
# Poissons Ratio (z) = 0.23121 1.32009
#
# Static dielectric constant tensor:
#      x y z
#    x 1.762310 0.000000 0.022270 
#    y 0.000000 1.662930 0.000000 
#    z 0.022270 0.000000 1.728130 
# 
# From -- ./inp_files/198098.got.cif
#   From: 2010.05.17/outbox.cif.g08.bks.cpg/sg12_100_cif.got.tgz:198098.got - 2010.06.03 13:09:07.
