data_PCOD9206922
_publ_section_title
;
Structure prediction by ZEFSAII (Michael W. Deem and Ramdas Pophale) SiO2 
 PCOD9206922
Probable space group: C 2/M
;
_chemical_formula_sum "Si O2"
_cell_formula_units_Z 44
_cell_length_a 19.416717
_cell_length_b 24.778255
_cell_length_c 5.035609
_cell_angle_alpha 90.000000
_cell_angle_beta 68.835217
_cell_angle_gamma 90.000000
_cell_volume 2259.273125
_symmetry_space_group_name_H-M "C 2/M"
_symmetry_group_IT_number 12
_symmetry_cell_setting 'monoclinic'
loop_
_space_group_symop_operation_xyz
x,y,z
-x,y,-z
-x,-y,-z
x,-y,z
1/2+x,1/2+y,z
1/2-x,1/2+y,-z
1/2-x,1/2-y,-z
1/2+x,1/2-y,z
loop_
_atom_site_type_symbol
_atom_site_label
_atom_site_fract_x
_atom_site_fract_y
_atom_site_fract_z
Si Si1 0.000000 0.351397 0.500000
Si Si2 0.879798 0.711368 0.378466
Si Si3 0.071881 0.558692 0.084308
Si Si4 0.166494 0.229593 0.070788
Si Si5 0.257792 0.632409 0.277221
Si Si6 0.264630 0.062636 0.214376
O O1 0.043776 0.316977 0.655047
O O2 0.060478 0.391117 0.290129
O O3 0.871383 0.731193 0.090664
O O4 0.811234 0.671103 0.542315
O O5 0.871262 0.761839 0.593014
O O6 0.075391 0.500000 0.219131
O O7 0.148573 0.563813 0.823202
O O8 0.000000 0.558572 0.000000
O O9 0.178095 0.171198 0.925821
O O10 0.250000 0.250000 0.000000
O O11 0.277490 0.597916 0.509327
O O12 0.238070 0.591509 0.067002
O O13 0.242208 0.000000 0.232818
#
# Coordination Sequence:
#
# PCOD9206922 Si02
#       6
#     4   8   8   8   8   8
#     4  12  23  34  54  70 114 138 187 230 274 302
#     4  11  22  34  54  79 100 140 184 226 271 311
#     4  10  22  35  48  68 101 149 194 225 256 299
#     4  10  21  37  55  76  98 131 187 230 265 326
#     4  11  19  37  55  70 102 138 173 223 271 311
#     4  11  22  34  51  78 103 134 179 221 263 309
#
# _framework density 19.475290999999999
#
# number of rings (size 3 to 8) (size 9 to 14) (size 15 to 20)
#    0.000    1.273    1.818    7.364    2.545    0.000 
#    0.000    0.000    0.000    0.000    0.000    0.000 
#    0.000    0.000    0.000   57.273    0.000    0.000 
#
# Total GULP energy -122922.401728 kJ/mol
# GULP energy per Si atom -5587.381897 kJ/mol
# Density = 1.943096 g / cm^3
# Si number density = 19.475291 Si / 1000 Ang^3
#
#
#
# Elastic Constant Matrix: (Units=GPa)
#
#
# Indices 1 2 3 4 5 6 
#
# 1 42.1801 11.1057 -3.7893 0.0000 14.6123 0.0000
# 2 11.1057 77.7041 6.7911 0.0000 -5.2623 0.0000
# 3 -3.7893 6.7911 48.6217 0.0000 10.2698 0.0000
# 4 0.0000 0.0000 0.0000 28.8489 0.0000 2.2983
# 5 14.6123 -5.2623 10.2698 0.0000 25.5698 0.0000
# 6 0.0000 0.0000 0.0000 2.2983 0.0000 31.0517
#
#
#
# Elastic Compliance Matrix: (Units=1/GPa)
#
#
# Indices 1 2 3 4 5 6 
#
# 1 0.035344 -0.007578 0.009188 0.000000 -0.025448 0.000000
# 2 -0.007578 0.014987 -0.004644 0.000000 0.009280 0.000000
# 3 0.009188 -0.004644 0.025397 0.000000 -0.016407 0.000000
# 4 0.000000 0.000000 0.000000 0.034869 0.000000 -0.002581
# 5 -0.025448 0.009280 -0.016407 0.000000 0.062151 0.000000
# 6 0.000000 0.000000 0.000000 -0.002581 0.000000 0.032395
#
#
# Mechanical properties :
#
#
# Convention : Reuss Voigt Hill
#
# Bulk Modulus (GPa) = 14.35533 21.85786 18.10660
# Shear Modulus (GPa) = 21.32825 27.38730 24.35777
#
# Velocity S-wave (km/s) = 3.31289 3.75408 3.54036
# Velocity P-wave (km/s) = 4.69262 5.48074 5.10192
#
# Compressibility (1/GPa) = 0.06966053
#
# Stress axis : x y z
#
# Youngs Moduli (GPa) = 28.29309 66.72583 39.37466
#
# Poissons Ratio (x) = 0.50564 -0.36177
# Poissons Ratio (y) = 0.21440 0.18285
# Poissons Ratio (z) = -0.25996 0.30987
#
# Static dielectric constant tensor:
#      x y z
#    x 1.662860 0.000000 0.002010 
#    y 0.000000 1.749100 0.000000 
#    z 0.002010 0.000000 1.733400 
# 
# From -- ./inp_files/20905.got.cif
#   From: 2010.05.17/outbox.cif.g08.bks.cpg/sg12_11_cif.got.tgz:20905.got - 2010.06.03 13:09:07.
