data_PCOD9206067
_publ_section_title
;
Structure prediction by ZEFSAII (Michael W. Deem and Ramdas Pophale) SiO2 
 PCOD9206067
Probable space group: C 2/M
;
_chemical_formula_sum "Si O2"
_cell_formula_units_Z 56
_cell_length_a 25.565816
_cell_length_b 8.994731
_cell_length_c 18.959360
_cell_angle_alpha 90.000000
_cell_angle_beta 141.844395
_cell_angle_gamma 90.000000
_cell_volume 2693.512043
_symmetry_space_group_name_H-M "C 2/M"
_symmetry_group_IT_number 12
_symmetry_cell_setting 'monoclinic'
loop_
_space_group_symop_operation_xyz
x,y,z
-x,y,-z
-x,-y,-z
x,-y,z
1/2+x,1/2+y,z
1/2-x,1/2+y,-z
1/2-x,1/2-y,-z
1/2+x,1/2-y,z
loop_
_atom_site_type_symbol
_atom_site_label
_atom_site_fract_x
_atom_site_fract_y
_atom_site_fract_z
Si Si1 0.207878 0.678359 0.277728
Si Si2 0.136548 0.675632 0.956459
Si Si3 0.081273 0.821848 0.037835
Si Si4 0.162000 0.676603 0.381543
Si Si5 0.184390 0.326507 0.853310
Si Si6 0.386238 0.327434 0.537919
Si Si7 0.977023 0.335909 0.394998
O O1 0.207783 0.500000 0.265232
O O2 0.164754 0.760560 0.166837
O O3 0.151591 0.710874 0.288226
O O4 0.303023 0.721809 0.404163
O O5 0.124286 0.500000 0.952591
O O6 0.128962 0.710496 0.864695
O O7 0.082848 0.757769 0.959870
O O8 0.234679 0.723805 0.070208
O O9 0.084012 0.000000 0.037534
O O10 0.000000 0.778231 0.000000
O O11 0.167201 0.500000 0.393444
O O12 0.250000 0.750000 0.500000
O O13 0.100400 0.742348 0.374260
O O14 0.211664 0.500000 0.889950
O O15 0.121800 0.313469 0.721807
O O16 0.372260 0.500000 0.538381
O O17 0.468364 0.293461 0.580423
O O18 0.997865 0.500000 0.385175
O O19 0.000000 0.342354 0.500000
#
# Coordination Sequence:
#
# PCOD9206067 Si02
#       7
#     8   8   8   8   8   8   8
#     4   9  20  37  57  83 114 151 192 236 288 348
#     4  10  21  39  65  90 117 157 202 250 301 351
#     4  11  25  41  58  85 118 152 195 246 301 358
#     4   9  17  32  54  80 110 144 188 232 274 335
#     4   9  20  40  63  90 121 157 203 248 296 356
#     4  10  21  36  55  83 117 154 195 236 286 349
#     4  10  22  38  57  86 121 156 195 239 294 350
#
# _framework density 20.790700999999999
#
# number of rings (size 3 to 8) (size 9 to 14) (size 15 to 20)
#    0.000    2.286    0.000    2.571    2.000    7.143 
#    0.000    4.286    0.000    0.000    0.000    0.000 
#    0.000    0.000    0.000    0.000    0.000    0.000 
#
# Total GULP energy -156170.201132 kJ/mol
# GULP energy per Si atom -5577.507183 kJ/mol
# Density = 2.074338 g / cm^3
# Si number density = 20.790701 Si / 1000 Ang^3
#
#
#
# Elastic Constant Matrix: (Units=GPa)
#
#
# Indices 1 2 3 4 5 6 
#
# 1 52.7573 10.2821 -16.4289 0.0000 -2.9839 0.0000
# 2 10.2821 33.8949 1.4517 0.0000 -3.4424 0.0000
# 3 -16.4289 1.4517 50.5314 0.0000 -3.8816 0.0000
# 4 0.0000 0.0000 0.0000 16.4325 0.0000 0.6288
# 5 -2.9839 -3.4424 -3.8816 0.0000 20.3530 0.0000
# 6 0.0000 0.0000 0.0000 0.6288 0.0000 34.7774
#
#
#
# Elastic Compliance Matrix: (Units=1/GPa)
#
#
# Indices 1 2 3 4 5 6 
#
# 1 0.022997 -0.006940 0.007962 0.000000 0.003716 0.000000
# 2 -0.006940 0.032124 -0.002882 0.000000 0.003866 0.000000
# 3 0.007962 -0.002882 0.022848 0.000000 0.005037 0.000000
# 4 0.000000 0.000000 0.000000 0.060897 0.000000 -0.001101
# 5 0.003716 0.003866 0.005037 0.000000 0.051292 0.000000
# 6 0.000000 0.000000 0.000000 -0.001101 0.000000 0.028774
#
#
# Mechanical properties :
#
#
# Convention : Reuss Voigt Hill
#
# Bulk Modulus (GPa) = 13.46830 14.19923 13.83376
# Shear Modulus (GPa) = 20.21001 23.77116 21.99058
#
# Velocity S-wave (km/s) = 3.12119 3.38502 3.25578
# Velocity P-wave (km/s) = 4.41375 4.70343 4.56089
#
# Compressibility (1/GPa) = 0.07424844
#
# Stress axis : x y z
#
# Youngs Moduli (GPa) = 43.48452 31.12912 43.76765
#
# Poissons Ratio (x) = 0.21603 -0.34846
# Poissons Ratio (y) = 0.30177 0.12614
# Poissons Ratio (z) = -0.34621 0.08972
#
# Static dielectric constant tensor:
#      x y z
#    x 2.519020 0.000000 0.270080 
#    y 0.000000 1.741710 0.000000 
#    z 0.270080 0.000000 1.866520 
# 
# From -- ./inp_files/292585.got.cif
#   From: 2010.05.17/outbox.cif.g08.bks.cpg/sg12_147_cif.got.tgz:292585.got - 2010.06.03 13:09:07.
