data_PCOD9206033
_publ_section_title
;
Structure prediction by ZEFSAII (Michael W. Deem and Ramdas Pophale) SiO2 
 PCOD9206033
Probable space group: C 2/M
;
_chemical_formula_sum "Si O2"
_cell_formula_units_Z 56
_cell_length_a 9.078024
_cell_length_b 21.507354
_cell_length_c 22.528569
_cell_angle_alpha 90.000000
_cell_angle_beta 43.310694
_cell_angle_gamma 90.000000
_cell_volume 3017.220301
_symmetry_space_group_name_H-M "C 2/M"
_symmetry_group_IT_number 12
_symmetry_cell_setting 'monoclinic'
loop_
_space_group_symop_operation_xyz
x,y,z
-x,y,-z
-x,-y,-z
x,-y,z
1/2+x,1/2+y,z
1/2-x,1/2+y,-z
1/2-x,1/2-y,-z
1/2+x,1/2-y,z
loop_
_atom_site_type_symbol
_atom_site_label
_atom_site_fract_x
_atom_site_fract_y
_atom_site_fract_z
Si Si1 0.781376 0.068879 0.134322
Si Si2 0.945348 0.855323 0.865158
Si Si3 0.813678 0.184990 0.602062
Si Si4 0.147322 0.274056 0.295556
Si Si5 0.202882 0.335123 0.820002
Si Si6 0.214314 0.572042 0.708257
Si Si7 0.710611 0.682327 0.961905
O O1 0.952725 0.082910 0.135482
O O2 0.540896 0.073451 0.230415
O O3 0.798856 0.121078 0.078288
O O4 0.806669 0.000000 0.102032
O O5 0.152291 0.818281 0.779147
O O6 0.770675 0.857934 0.864762
O O7 0.836258 0.825056 0.954993
O O8 0.827211 0.236101 0.650753
O O9 0.579307 0.191240 0.641218
O O10 0.830440 0.117179 0.627735
O O11 0.000000 0.194937 0.500000
O O12 0.146046 0.221066 0.244991
O O13 0.229608 0.392680 0.766992
O O14 0.964382 0.305886 0.882820
O O15 0.282907 0.500000 0.689530
O O16 0.000000 0.780226 0.000000
#
# Coordination Sequence:
#
# PCOD9206033 Si02
#       7
#     8   8   8   8   8   8   8
#     4   9  18  35  56  79 112 153 198 240 278 327
#     4  11  20  33  55  79 115 151 192 235 275 334
#     4  11  22  39  63  87 113 146 187 238 290 345
#     4  11  22  38  56  85 115 146 188 231 285 342
#     4  10  21  36  55  81 118 153 189 234 280 334
#     4   9  19  37  60  84 114 150 188 234 287 340
#     4   9  20  33  53  80 110 151 196 233 277 322
#
# _framework density 18.560130000000001
#
# number of rings (size 3 to 8) (size 9 to 14) (size 15 to 20)
#    0.000    2.000    2.857    0.857    2.000    4.000 
#    0.000    1.429    0.000    6.857    0.000    1.000 
#    0.000    0.000    0.000    0.000    0.000    0.000 
#
# Total GULP energy -156011.267464 kJ/mol
# GULP energy per Si atom -5571.830981 kJ/mol
# Density = 1.851789 g / cm^3
# Si number density = 18.560130 Si / 1000 Ang^3
#
#
#
# Elastic Constant Matrix: (Units=GPa)
#
#
# Indices 1 2 3 4 5 6 
#
# 1 94.7494 17.8322 20.0402 0.0002 2.0292 -0.0002
# 2 17.8322 76.1884 21.2772 0.0000 -3.0194 0.0000
# 3 20.0402 21.2772 100.2215 0.0004 -5.3152 -0.0003
# 4 0.0002 0.0000 0.0004 11.4157 -0.0002 -3.8375
# 5 2.0292 -3.0194 -5.3152 -0.0002 24.6283 0.0001
# 6 -0.0002 0.0000 -0.0003 -3.8375 0.0001 19.2053
#
#
#
# Elastic Compliance Matrix: (Units=1/GPa)
#
#
# Indices 1 2 3 4 5 6 
#
# 1 0.011405 -0.002203 -0.001899 0.000000 -0.001620 0.000000
# 2 -0.002203 0.014407 -0.002544 0.000000 0.001399 0.000000
# 3 -0.001899 -0.002544 0.011015 0.000000 0.002222 0.000000
# 4 0.000000 0.000000 0.000000 0.093906 0.000001 0.018764
# 5 -0.001620 0.001399 0.002222 0.000001 0.041388 0.000000
# 6 0.000000 0.000000 0.000000 0.018764 0.000000 0.055818
#
#
# Mechanical properties :
#
#
# Convention : Reuss Voigt Hill
#
# Bulk Modulus (GPa) = 42.48855 43.27313 42.88084
# Shear Modulus (GPa) = 20.07410 25.18384 22.62897
#
# Velocity S-wave (km/s) = 3.29229 3.68758 3.49553
# Velocity P-wave (km/s) = 6.11509 6.44179 6.28057
#
# Compressibility (1/GPa) = 0.02353575
#
# Stress axis : x y z
#
# Youngs Moduli (GPa) = 87.67999 69.41106 90.78149
#
# Poissons Ratio (x) = 0.15294 0.17236
# Poissons Ratio (y) = 0.19319 0.23093
# Poissons Ratio (z) = 0.16648 0.17657
#
# Static dielectric constant tensor:
#      x y z
#    x 1.666090 0.000000 -0.014100 
#    y 0.000000 1.680410 0.000000 
#    z -0.014100 0.000000 1.627580 
# 
# From -- ./inp_files/198994.got.cif
#   From: 2010.05.17/outbox.cif.g08.bks.cpg/sg12_100_cif.got.tgz:198994.got - 2010.06.03 13:09:07.
