data_PCOD9206262
_publ_section_title
;
Structure prediction by ZEFSAII (Michael W. Deem and Ramdas Pophale) SiO2 
 PCOD9206262
Probable space group: C 2/M
;
_chemical_formula_sum "Si O2"
_cell_formula_units_Z 64
_cell_length_a 15.691769
_cell_length_b 8.892102
_cell_length_c 31.473071
_cell_angle_alpha 90.000000
_cell_angle_beta 137.234819
_cell_angle_gamma 90.000000
_cell_volume 2981.825490
_symmetry_space_group_name_H-M "C 2/M"
_symmetry_group_IT_number 12
_symmetry_cell_setting 'monoclinic'
loop_
_space_group_symop_operation_xyz
x,y,z
-x,y,-z
-x,-y,-z
x,-y,z
1/2+x,1/2+y,z
1/2-x,1/2+y,-z
1/2-x,1/2-y,-z
1/2+x,1/2-y,z
loop_
_atom_site_type_symbol
_atom_site_label
_atom_site_fract_x
_atom_site_fract_y
_atom_site_fract_z
Si Si1 0.112299 0.681050 0.444321
Si Si2 0.472659 0.329669 0.217018
Si Si3 0.739656 0.329154 0.268029
Si Si4 0.630094 0.177130 0.977837
Si Si5 0.367972 0.183517 0.398811
Si Si6 0.264706 0.669185 0.905531
Si Si7 0.884117 0.173102 0.856874
Si Si8 0.114379 0.816943 0.354033
O O1 0.118282 0.500000 0.445935
O O2 0.250000 0.750000 0.500000
O O3 0.074801 0.741218 0.383684
O O4 0.015836 0.722046 0.447849
O O5 0.423593 0.500000 0.203911
O O6 0.600728 0.336199 0.237214
O O7 0.372156 0.236690 0.153554
O O8 0.519670 0.275774 0.280741
O O9 0.788864 0.500000 0.280257
O O10 0.819299 0.259833 0.334944
O O11 0.715760 0.261481 0.213220
O O12 0.644555 0.236384 0.031068
O O13 0.635204 0.000000 0.979386
O O14 0.750000 0.250000 0.000000
O O15 0.509608 0.234093 0.908434
O O16 0.258027 0.227229 0.391960
O O17 0.363421 0.000000 0.398226
O O18 0.255875 0.500000 0.919671
O O19 0.323922 0.665489 0.880797
O O20 0.913347 0.000000 0.854513
O O21 0.113307 0.000000 0.357393
#
# Coordination Sequence:
#
# PCOD9206262 Si02
#       8
#     8   8   8   8   8   8   8   8
#     4  11  23  38  60  88 120 157 200 246 296 358
#     4   9  18  34  58  84 112 148 190 238 290 341
#     4   8  15  32  57  82 106 141 189 233 277 335
#     4  12  25  41  60  78 106 147 192 241 292 351
#     4   8  17  35  60  85 114 157 202 238 286 357
#     4  11  23  36  55  85 118 150 189 235 283 343
#     4  10  21  36  57  84 114 147 187 236 283 339
#     4   9  19  38  61  87 119 156 202 250 294 348
#
# _framework density 21.463363000000001
#
# number of rings (size 3 to 8) (size 9 to 14) (size 15 to 20)
#    0.000    2.250    0.000    4.500    1.750    4.500 
#    0.000    3.750    0.000    2.250    0.000    0.000 
#    0.000    0.000    0.000    0.000    0.000    0.000 
#
# Total GULP energy -178438.996870 kJ/mol
# GULP energy per Si atom -5576.218652 kJ/mol
# Density = 2.141451 g / cm^3
# Si number density = 21.463363 Si / 1000 Ang^3
#
#
#
# Elastic Constant Matrix: (Units=GPa)
#
#
# Indices 1 2 3 4 5 6 
#
# 1 66.0753 3.5243 -11.5228 0.0000 11.4744 0.0000
# 2 3.5243 54.2438 2.9695 0.0000 10.4675 0.0000
# 3 -11.5228 2.9695 16.5115 0.0000 5.2057 0.0000
# 4 0.0000 0.0000 0.0000 28.4064 0.0000 -2.4147
# 5 11.4744 10.4675 5.2057 0.0000 38.3127 0.0000
# 6 0.0000 0.0000 0.0000 -2.4147 0.0000 19.9180
#
#
#
# Elastic Compliance Matrix: (Units=1/GPa)
#
#
# Indices 1 2 3 4 5 6 
#
# 1 0.019321 -0.000630 0.016055 0.000000 -0.007796 0.000000
# 2 -0.000630 0.019539 -0.002434 0.000000 -0.004819 0.000000
# 3 0.016055 -0.002434 0.076802 0.000000 -0.014579 0.000000
# 4 0.000000 0.000000 0.000000 0.035570 0.000000 0.004312
# 5 -0.007796 -0.004819 -0.014579 0.000000 0.031733 0.000000
# 6 0.000000 0.000000 0.000000 0.004312 0.000000 0.050729
#
#
# Mechanical properties :
#
#
# Convention : Reuss Voigt Hill
#
# Bulk Modulus (GPa) = 7.05993 14.08585 10.57289
# Shear Modulus (GPa) = 19.61339 26.78472 23.19905
#
# Velocity S-wave (km/s) = 3.02621 3.53643 3.29122
# Velocity P-wave (km/s) = 3.93789 4.82205 4.40222
#
# Compressibility (1/GPa) = 0.14164452
#
# Stress axis : x y z
#
# Youngs Moduli (GPa) = 51.75593 51.17862 13.02050
#
# Poissons Ratio (x) = 0.03223 -0.20904
# Poissons Ratio (y) = 0.03260 0.03169
# Poissons Ratio (z) = -0.83094 0.12458
#
# Static dielectric constant tensor:
#      x y z
#    x 1.802260 0.000000 -0.047360 
#    y 0.000000 2.589020 0.000000 
#    z -0.047360 0.000000 1.967200 
# 
# From -- ./inp_files/375647.got.cif
#   From: 2010.05.17/outbox.cif.g08.bks.cpg/sg12_188_cif.got.tgz:375647.got - 2010.06.03 13:09:07.
