data_PCOD9206273
_publ_section_title
;
Structure prediction by ZEFSAII (Michael W. Deem and Ramdas Pophale) SiO2 
 PCOD9206273
Probable space group: C 2/M
;
_chemical_formula_sum "Si O2"
_cell_formula_units_Z 50
_cell_length_a 17.762755
_cell_length_b 7.358899
_cell_length_c 26.416964
_cell_angle_alpha 90.000000
_cell_angle_beta 38.786966
_cell_angle_gamma 90.000000
_cell_volume 2163.098013
_symmetry_space_group_name_H-M "C 2/M"
_symmetry_group_IT_number 12
_symmetry_cell_setting 'monoclinic'
loop_
_space_group_symop_operation_xyz
x,y,z
-x,y,-z
-x,-y,-z
x,-y,z
1/2+x,1/2+y,z
1/2-x,1/2+y,-z
1/2-x,1/2-y,-z
1/2+x,1/2-y,z
loop_
_atom_site_type_symbol
_atom_site_label
_atom_site_fract_x
_atom_site_fract_y
_atom_site_fract_z
Si Si1 0.166887 0.786394 0.091550
Si Si2 0.334241 0.221474 0.389426
Si Si3 0.074224 0.205547 0.547720
Si Si4 0.682710 0.278193 0.294081
Si Si5 0.208278 0.279080 0.869174
Si Si6 0.598891 0.790182 0.753213
Si Si7 0.500000 0.500000 0.000000
O O1 0.229216 0.723110 0.110623
O O2 0.033036 0.714516 0.154469
O O3 0.152883 0.000000 0.104365
O O4 0.250000 0.750000 0.000000
O O5 0.194525 0.281007 0.459014
O O6 0.390826 0.296042 0.411058
O O7 0.401799 0.282446 0.303537
O O8 0.336550 0.000000 0.393686
O O9 0.941936 0.288693 0.616543
O O10 0.063570 0.000000 0.533657
O O11 0.677201 0.500000 0.298168
O O12 0.705608 0.234460 0.223333
O O13 0.798042 0.213544 0.265074
O O14 0.187070 0.500000 0.880170
O O15 0.087839 0.160751 0.929576
O O16 0.633201 0.000000 0.728651
#
# Coordination Sequence:
#
# PCOD9206273 Si02
#       7
#     8   8   8   8   8   8   2
#     4  11  25  42  63  87 118 156 199 249 302 363
#     4   9  18  32  54  86 113 146 194 242 288 351
#     4   9  17  33  57  80 113 154 193 235 295 357
#     4   9  19  37  58  82 117 157 193 242 302 355
#     4  10  24  43  63  92 123 159 204 254 304 366
#     4  10  21  36  57  84 117 152 195 247 294 353
#     4  12  26  40  72  90 120 162 204 254 308 370
#
# _framework density 23.114993999999999
#
# number of rings (size 3 to 8) (size 9 to 14) (size 15 to 20)
#    0.000    2.240    0.000    1.680    4.480    2.560 
#    1.440    3.200    0.000    0.000    0.000    5.600 
#    0.000    0.000    0.000    0.000    0.000    0.000 
#
# Total GULP energy -139362.385998 kJ/mol
# GULP energy per Si atom -5574.495440 kJ/mol
# Density = 2.306238 g / cm^3
# Si number density = 23.114994 Si / 1000 Ang^3
#
#
#
# Elastic Constant Matrix: (Units=GPa)
#
#
# Indices 1 2 3 4 5 6 
#
# 1 24.4222 -6.2100 25.4878 0.0001 10.9106 0.0005
# 2 -6.2100 100.3730 -15.0852 0.0003 -5.2152 -0.0002
# 3 25.4878 -15.0852 86.6469 0.0001 -31.8985 0.0001
# 4 0.0001 0.0003 0.0001 2.2537 0.0000 -1.2544
# 5 10.9106 -5.2152 -31.8985 0.0000 22.8246 0.0001
# 6 0.0005 -0.0002 0.0001 -1.2544 0.0001 3.1378
#
#
#
# Elastic Compliance Matrix: (Units=1/GPa)
#
#
# Indices 1 2 3 4 5 6 
#
# 1 -0.041787 0.008593 0.045035 0.000001 0.084877 0.000003
# 2 0.008593 0.009690 -0.003167 -0.000002 -0.006320 -0.000001
# 3 0.045035 -0.003167 -0.021523 -0.000005 -0.052330 -0.000006
# 4 0.000001 -0.000002 -0.000005 0.570720 -0.000009 0.228168
# 5 0.084877 -0.006320 -0.052330 -0.000009 -0.071338 -0.000013
# 6 0.000003 -0.000001 -0.000006 0.228168 -0.000013 0.409917
#
#
# Mechanical properties :
#
#
# Convention : Reuss Voigt Hill
#
# Bulk Modulus (GPa) = 21.14105 24.42528 22.78317
# Shear Modulus (GPa) = 6.48908 19.45984 12.97446
#
# Velocity S-wave (km/s) = 1.67732 2.90465 2.37175
# Velocity P-wave (km/s) = 3.59403 4.67323 4.16870
#
# Compressibility (1/GPa) = 0.04730134
#
# Stress axis : x y z
#
# Youngs Moduli (GPa) = -23.93086 103.19856 -46.46242
#
# Poissons Ratio (x) = -0.88680 2.09243
# Poissons Ratio (y) = 0.20564 -0.14717
# Poissons Ratio (z) = 1.07772 0.32687
#
# Static dielectric constant tensor:
#      x y z
#    x 1.863570 0.000000 -0.013430 
#    y 0.000000 1.743610 0.000000 
#    z -0.013430 0.000000 1.821900 
# 
# From -- ./inp_files/362696.got.cif
#   From: 2010.05.17/outbox.cif.g08.bks.cpg/sg12_182_cif.got.tgz:362696.got - 2010.06.03 13:09:07.
