data_PCOD9206631
_publ_section_title
;
Structure prediction by ZEFSAII (Michael W. Deem and Ramdas Pophale) SiO2 
 PCOD9206631
Probable space group: C 2/M
;
_chemical_formula_sum "Si O2"
_cell_formula_units_Z 56
_cell_length_a 25.889159
_cell_length_b 7.418800
_cell_length_c 11.657439
_cell_angle_alpha 90.000000
_cell_angle_beta 75.403647
_cell_angle_gamma 90.000000
_cell_volume 2166.740066
_symmetry_space_group_name_H-M "C 2/M"
_symmetry_group_IT_number 12
_symmetry_cell_setting 'monoclinic'
loop_
_space_group_symop_operation_xyz
x,y,z
-x,y,-z
-x,-y,-z
x,-y,z
1/2+x,1/2+y,z
1/2-x,1/2+y,-z
1/2-x,1/2-y,-z
1/2+x,1/2-y,z
loop_
_atom_site_type_symbol
_atom_site_label
_atom_site_fract_x
_atom_site_fract_y
_atom_site_fract_z
Si Si1 0.224126 0.782390 0.669471
Si Si2 0.543964 0.707657 0.563649
Si Si3 0.943215 0.210701 0.005714
Si Si4 0.200910 0.212569 0.945819
Si Si5 0.885715 0.697804 0.830562
Si Si6 0.157385 0.719310 0.386141
Si Si7 0.607343 0.720860 0.733345
O O1 0.217967 0.740997 0.808352
O O2 0.283843 0.717484 0.603691
O O3 0.166260 0.717390 0.657225
O O4 0.225245 0.000000 0.655627
O O5 0.500000 0.786045 0.500000
O O6 0.527073 0.500000 0.590549
O O7 0.603185 0.714000 0.474970
O O8 0.558796 0.784223 0.680113
O O9 0.903001 0.275561 0.129266
O O10 0.945193 0.000000 0.031653
O O11 0.933623 0.216187 0.873948
O O12 0.000000 0.295132 0.000000
O O13 0.186555 0.000000 0.952162
O O14 0.250000 0.250000 0.000000
O O15 0.154298 0.309811 0.039704
O O16 0.903224 0.500000 0.783622
O O17 0.853620 0.774850 0.740957
O O18 0.158842 0.500000 0.390075
O O19 0.609220 0.500000 0.725380
#
# Coordination Sequence:
#
# PCOD9206631 Si02
#       7
#     8   8   8   8   8   8   8
#     4   9  17  33  57  82 115 153 187 230 292 352
#     4  10  23  41  62  86 113 147 195 250 293 341
#     4  10  21  36  60  89 116 155 200 239 293 363
#     4  11  19  32  54  83 120 159 192 231 288 351
#     4  11  22  36  55  85 123 157 194 241 293 347
#     4  10  22  39  58  84 117 156 196 237 291 352
#     4   9  18  36  59  85 117 152 188 238 299 347
#
# _framework density 25.845275999999998
#
# number of rings (size 3 to 8) (size 9 to 14) (size 15 to 20)
#    0.000    2.000    2.857    0.857    2.000    2.286 
#    0.000    0.714    0.000    0.000    0.000    0.000 
#    0.000    0.000    0.000    0.000    0.000    0.000 
#
# Total GULP energy -156137.564839 kJ/mol
# GULP energy per Si atom -5576.341601 kJ/mol
# Density = 2.578645 g / cm^3
# Si number density = 25.845276 Si / 1000 Ang^3
#
#
#
# Elastic Constant Matrix: (Units=GPa)
#
#
# Indices 1 2 3 4 5 6 
#
# 1 160.4179 -5.6683 20.6487 0.0000 22.6220 0.0000
# 2 -5.6683 77.2282 -4.9192 0.0000 1.3849 0.0000
# 3 20.6487 -4.9192 69.4776 0.0000 5.9013 0.0000
# 4 0.0000 0.0000 0.0000 9.5205 0.0000 -8.1446
# 5 22.6220 1.3849 5.9013 0.0000 48.9409 0.0000
# 6 0.0000 0.0000 0.0000 -8.1446 0.0000 -6.6188
#
#
#
# Elastic Compliance Matrix: (Units=1/GPa)
#
#
# Indices 1 2 3 4 5 6 
#
# 1 0.006898 0.000447 -0.001765 0.000000 -0.002988 0.000000
# 2 0.000447 0.013048 0.000848 0.000000 -0.000678 0.000000
# 3 -0.001765 0.000848 0.015065 0.000000 -0.001025 0.000000
# 4 0.000000 0.000000 0.000000 0.051170 0.000000 -0.062966
# 5 -0.002988 -0.000678 -0.001025 0.000000 0.021957 0.000000
# 6 0.000000 0.000000 0.000000 -0.062966 0.000000 -0.073604
#
#
# Mechanical properties :
#
#
# Convention : Reuss Voigt Hill
#
# Bulk Modulus (GPa) = 29.34867 36.36070 32.85469
# Shear Modulus (GPa) = 106.77260 30.17270 68.47265
#
# Velocity S-wave (km/s) = 6.43443 3.42048 5.15275
# Velocity P-wave (km/s) = 8.15982 5.44966 6.93835
#
# Compressibility (1/GPa) = 0.03407309
#
# Stress axis : x y z
#
# Youngs Moduli (GPa) = 144.96774 76.64196 66.38045
#
# Poissons Ratio (x) = -0.03430 0.11713
# Poissons Ratio (y) = -0.06487 -0.05632
# Poissons Ratio (z) = 0.25581 -0.06503
#
# Static dielectric constant tensor:
#      x y z
#    x 2.190810 0.000000 0.018160 
#    y 0.000000 1.954140 0.000000 
#    z 0.018160 0.000000 2.054180 
# 
# From -- ./inp_files/180670.got.cif
#   From: 2010.05.17/outbox.cif.g08.bks.cpg/sg12_91_cif.got.tgz:180670.got - 2010.06.03 13:09:07.
