data_PCOD9206206
_publ_section_title
;
Structure prediction by ZEFSAII (Michael W. Deem and Ramdas Pophale) SiO2 
 PCOD9206206
Probable space group: C 2/M
;
_chemical_formula_sum "Si O2"
_cell_formula_units_Z 50
_cell_length_a 26.862445
_cell_length_b 9.065904
_cell_length_c 12.191658
_cell_angle_alpha 90.000000
_cell_angle_beta 75.249789
_cell_angle_gamma 90.000000
_cell_volume 2871.217623
_symmetry_space_group_name_H-M "C 2/M"
_symmetry_group_IT_number 12
_symmetry_cell_setting 'monoclinic'
loop_
_space_group_symop_operation_xyz
x,y,z
-x,y,-z
-x,-y,-z
x,-y,z
1/2+x,1/2+y,z
1/2-x,1/2+y,-z
1/2-x,1/2-y,-z
1/2+x,1/2-y,z
loop_
_atom_site_type_symbol
_atom_site_label
_atom_site_fract_x
_atom_site_fract_y
_atom_site_fract_z
Si Si1 0.383006 0.175746 0.791635
Si Si2 0.853401 0.676640 0.469822
Si Si3 0.219154 0.674915 0.288793
Si Si4 0.327619 0.175958 0.232763
Si Si5 0.104805 0.162989 0.985000
Si Si6 0.440775 0.323671 0.560133
Si Si7 0.500000 0.500000 0.000000
O O1 0.325953 0.202701 0.774136
O O2 0.422262 0.249077 0.683306
O O3 0.390784 0.000000 0.789604
O O4 0.389486 0.246472 0.906578
O O5 0.862091 0.500000 0.474507
O O6 0.806561 0.712052 0.578940
O O7 0.840569 0.712904 0.352072
O O8 0.903164 0.760646 0.487573
O O9 0.230788 0.500000 0.281666
O O10 0.270383 0.766219 0.240515
O O11 0.367564 0.253396 0.129308
O O12 0.330009 0.000000 0.219134
O O13 0.129574 0.000000 0.985274
O O14 0.045382 0.126126 0.992471
O O15 0.500000 0.290503 0.500000
O O16 0.434878 0.500000 0.571672
#
# Coordination Sequence:
#
# PCOD9206206 Si02
#       7
#     8   8   8   8   8   8   2
#     4  10  21  39  62  87 119 153 195 248 301 356
#     4   9  20  37  55  82 122 160 198 245 298 352
#     4   9  19  36  58  86 120 159 194 239 303 357
#     4  11  22  36  58  90 121 155 203 248 293 359
#     4  10  22  42  62  83 113 154 197 244 296 354
#     4  10  21  36  56  87 116 152 201 247 294 355
#     4   8  24  44  62  80 110 156 198 248 290 356
#
# _framework density 17.414214000000001
#
# number of rings (size 3 to 8) (size 9 to 14) (size 15 to 20)
#    0.480    1.760    0.000    3.360    0.000    7.680 
#    2.880    3.200    0.000    0.000    0.000    0.000 
#    0.000    0.000    0.000    0.000    0.000    0.000 
#
# Total GULP energy -139199.026021 kJ/mol
# GULP energy per Si atom -5567.961041 kJ/mol
# Density = 1.737458 g / cm^3
# Si number density = 17.414214 Si / 1000 Ang^3
#
#
#
# Elastic Constant Matrix: (Units=GPa)
#
#
# Indices 1 2 3 4 5 6 
#
# 1 115.5909 68.0903 88.5029 0.0000 -11.0139 0.0000
# 2 68.0903 72.1366 65.7597 0.0000 -3.3635 0.0000
# 3 88.5029 65.7597 124.2012 0.0000 3.0573 0.0000
# 4 0.0000 0.0000 0.0000 27.1880 0.0000 -4.7502
# 5 -11.0139 -3.3635 3.0573 0.0000 11.5985 0.0000
# 6 0.0000 0.0000 0.0000 -4.7502 0.0000 30.7516
#
#
#
# Elastic Compliance Matrix: (Units=1/GPa)
#
#
# Indices 1 2 3 4 5 6 
#
# 1 0.032716 -0.014446 -0.016432 0.000000 0.031209 0.000000
# 2 -0.014446 0.034816 -0.008103 0.000000 -0.001485 0.000000
# 3 -0.016432 -0.008103 0.024653 0.000000 -0.024452 0.000000
# 4 0.000000 0.000000 0.000000 0.037801 0.000000 0.005839
# 5 0.031209 -0.001485 -0.024452 0.000000 0.121869 0.000000
# 6 0.000000 0.000000 0.000000 0.005839 0.000000 0.033421
#
#
# Mechanical properties :
#
#
# Convention : Reuss Voigt Hill
#
# Bulk Modulus (GPa) = 70.31436 84.07047 77.19242
# Shear Modulus (GPa) = 13.58774 19.87935 16.73354
#
# Velocity S-wave (km/s) = 2.79636 3.38236 3.10322
# Velocity P-wave (km/s) = 7.13382 7.97719 7.56726
#
# Compressibility (1/GPa) = 0.01422185
#
# Stress axis : x y z
#
# Youngs Moduli (GPa) = 30.56611 28.72250 40.56305
#
# Poissons Ratio (x) = 0.41492 0.66654
# Poissons Ratio (y) = 0.44156 0.32869
# Poissons Ratio (z) = 0.50227 0.23275
#
# Static dielectric constant tensor:
#      x y z
#    x 1.563550 0.000000 0.004960 
#    y 0.000000 1.585900 0.000000 
#    z 0.004960 0.000000 1.580170 
# 
# From -- ./inp_files/179795.got.cif
#   From: 2010.05.17/outbox.cif.g08.bks.cpg/sg12_90_cif.got.tgz:179795.got - 2010.06.03 13:09:07.
