data_PCOD9206469
_publ_section_title
;
Structure prediction by ZEFSAII (Michael W. Deem and Ramdas Pophale) SiO2 
 PCOD9206469
Probable space group: C 2/M
;
_chemical_formula_sum "Si O2"
_cell_formula_units_Z 56
_cell_length_a 30.310171
_cell_length_b 15.130785
_cell_length_c 12.174251
_cell_angle_alpha 90.000000
_cell_angle_beta 22.409088
_cell_angle_gamma 90.000000
_cell_volume 2128.454541
_symmetry_space_group_name_H-M "C 2/M"
_symmetry_group_IT_number 12
_symmetry_cell_setting 'monoclinic'
loop_
_space_group_symop_operation_xyz
x,y,z
-x,y,-z
-x,-y,-z
x,-y,z
1/2+x,1/2+y,z
1/2-x,1/2+y,-z
1/2-x,1/2-y,-z
1/2+x,1/2-y,z
loop_
_atom_site_type_symbol
_atom_site_label
_atom_site_fract_x
_atom_site_fract_y
_atom_site_fract_z
Si Si1 0.811716 0.666246 0.446032
Si Si2 0.215575 0.895125 0.023873
Si Si3 0.591170 0.098227 0.188039
Si Si4 0.087022 0.401754 0.583819
Si Si5 0.612129 0.604616 0.489394
Si Si6 0.864106 0.863577 0.317840
Si Si7 0.393099 0.701576 0.909044
O O1 0.911903 0.632302 0.296164
O O2 0.859559 0.760155 0.295316
O O3 0.742656 0.606922 0.515484
O O4 0.712354 0.685324 0.765749
O O5 0.195848 0.871350 0.195301
O O6 0.115030 0.865150 0.174395
O O7 0.220999 0.000000 0.013868
O O8 0.329678 0.858029 0.700583
O O9 0.500000 0.093453 0.500000
O O10 0.532969 0.093082 0.201133
O O11 0.619078 0.202450 0.116093
O O12 0.652368 0.000000 0.056536
O O13 0.136040 0.500000 0.484487
O O14 0.576729 0.500000 0.562967
O O15 0.665567 0.619944 0.486524
O O16 0.505954 0.672516 0.717722
O O17 0.000000 0.894025 0.000000
#
# Coordination Sequence:
#
# PCOD9206469 Si02
#       7
#     8   8   8   8   8   8   8
#     4  10  23  40  65  89 115 166 213 253 310 370
#     4   9  19  35  57  90 128 162 198 246 311 379
#     4  10  21  36  58  89 126 168 208 251 302 363
#     4   9  19  37  61  88 123 160 202 256 306 367
#     4  11  22  36  60  92 127 164 203 253 315 374
#     4  11  23  43  60  87 121 163 206 265 309 356
#     4  11  20  37  60  92 124 162 201 253 310 376
#
# _framework density 26.310168999999998
#
# number of rings (size 3 to 8) (size 9 to 14) (size 15 to 20)
#    0.000    1.857    1.429    2.571    0.000    3.714 
#    0.000    5.714    0.000    1.286    0.000    0.000 
#    0.000    0.000    0.000    0.000    0.000    0.000 
#
# Total GULP energy -156193.222603 kJ/mol
# GULP energy per Si atom -5578.329379 kJ/mol
# Density = 2.625029 g / cm^3
# Si number density = 26.310169 Si / 1000 Ang^3
#
#
#
# Elastic Constant Matrix: (Units=GPa)
#
#
# Indices 1 2 3 4 5 6 
#
# 1 204.9061 45.6327 18.3237 0.0000 16.2183 0.0000
# 2 45.6327 60.4059 21.9068 0.0000 1.6363 0.0000
# 3 18.3237 21.9068 66.8729 0.0000 20.4244 0.0000
# 4 0.0000 0.0000 0.0000 18.4428 0.0000 1.6993
# 5 16.2183 1.6363 20.4244 0.0000 38.5839 0.0000
# 6 0.0000 0.0000 0.0000 1.6993 0.0000 34.5781
#
#
#
# Elastic Compliance Matrix: (Units=1/GPa)
#
#
# Indices 1 2 3 4 5 6 
#
# 1 0.006102 -0.004804 0.000743 0.000000 -0.002754 0.000000
# 2 -0.004804 0.022852 -0.007742 0.000000 0.005149 0.000000
# 3 0.000743 -0.007742 0.020614 0.000000 -0.010896 0.000000
# 4 0.000000 0.000000 0.000000 0.054468 0.000000 -0.002677
# 5 -0.002754 0.005149 -0.010896 0.000000 0.032625 0.000000
# 6 0.000000 0.000000 0.000000 -0.002677 0.000000 0.029052
#
#
# Mechanical properties :
#
#
# Convention : Reuss Voigt Hill
#
# Bulk Modulus (GPa) = 38.51845 55.99015 47.25430
# Shear Modulus (GPa) = 25.25582 34.74242 29.99912
#
# Velocity S-wave (km/s) = 3.10163 3.63780 3.38036
# Velocity P-wave (km/s) = 5.24392 6.24274 5.76500
#
# Compressibility (1/GPa) = 0.02596158
#
# Stress axis : x y z
#
# Youngs Moduli (GPa) = 163.88639 43.75898 48.50991
#
# Poissons Ratio (x) = 0.21024 -0.03605
# Poissons Ratio (y) = 0.78738 0.37558
# Poissons Ratio (z) = -0.12180 0.33880
#
# Static dielectric constant tensor:
#      x y z
#    x 2.349680 0.000000 -0.224160 
#    y 0.000000 2.116260 0.000000 
#    z -0.224160 0.000000 2.331360 
# 
# From -- ./inp_files/189585.got.cif
#   From: 2010.05.17/outbox.cif.g08.bks.cpg/sg12_95_cif.got.tgz:189585.got - 2010.06.03 13:09:07.
