data_PCOD9206339
_publ_section_title
;
Structure prediction by ZEFSAII (Michael W. Deem and Ramdas Pophale) SiO2 
 PCOD9206339
Probable space group: C 2/M
;
_chemical_formula_sum "Si O2"
_cell_formula_units_Z 64
_cell_length_a 15.472242
_cell_length_b 25.665568
_cell_length_c 8.594287
_cell_angle_alpha 90.000000
_cell_angle_beta 89.165520
_cell_angle_gamma 90.000000
_cell_volume 3412.462744
_symmetry_space_group_name_H-M "C 2/M"
_symmetry_group_IT_number 12
_symmetry_cell_setting 'monoclinic'
loop_
_space_group_symop_operation_xyz
x,y,z
-x,y,-z
-x,-y,-z
x,-y,z
1/2+x,1/2+y,z
1/2-x,1/2+y,-z
1/2-x,1/2-y,-z
1/2+x,1/2-y,z
loop_
_atom_site_type_symbol
_atom_site_label
_atom_site_fract_x
_atom_site_fract_y
_atom_site_fract_z
Si Si1 0.325118 0.560474 0.800370
Si Si2 0.181858 0.940439 0.823589
Si Si3 0.976324 0.772711 0.680351
Si Si4 0.317913 0.860591 0.319310
Si Si5 0.272945 0.256921 0.681372
Si Si6 0.498037 0.838521 0.183761
Si Si7 0.504914 0.384539 0.812204
Si Si8 0.687988 0.143709 0.306735
O O1 0.323037 0.500000 0.750547
O O2 0.247371 0.594764 0.734425
O O3 0.417054 0.587327 0.759295
O O4 0.317999 0.561186 0.988419
O O5 0.089243 0.918315 0.772537
O O6 0.256726 0.903708 0.758222
O O7 0.192643 0.000000 0.773726
O O8 0.872540 0.773669 0.695306
O O9 0.009464 0.722805 0.773612
O O10 0.000000 0.764547 0.500000
O O11 0.012236 0.827319 0.739374
O O12 0.284706 0.804336 0.256056
O O13 0.415687 0.867182 0.259698
O O14 0.314220 0.857355 0.506125
O O15 0.250000 0.250000 0.500000
O O16 0.268193 0.198514 0.748717
O O17 0.589558 0.856300 0.251303
O O18 0.500000 0.845549 0.000000
O O19 0.500000 0.379724 0.000000
#
# Coordination Sequence:
#
# PCOD9206339 Si02
#       8
#     8   8   8   8   8   8   8   8
#     4  10  21  40  60  86 122 162 204 246 293 350
#     4  10  22  39  61  86 121 163 202 247 297 348
#     4  11  21  35  56  87 125 159 197 240 293 354
#     4  11  21  38  62  87 120 155 197 249 299 354
#     4   9  19  34  54  84 115 155 190 235 295 350
#     4  11  23  40  60  87 121 156 195 243 300 363
#     4  10  21  36  57  88 122 161 203 242 290 352
#     4  10  22  39  60  90 118 155 200 246 301 353
#
# _framework density 18.754784999999998
#
# number of rings (size 3 to 8) (size 9 to 14) (size 15 to 20)
#    0.000    1.750    1.250    4.125    5.250    2.000 
#    0.000    2.500    0.000    6.000    0.000    0.000 
#    0.000    0.000    0.000    0.000    0.000    0.000 
#
# Total GULP energy -178751.438633 kJ/mol
# GULP energy per Si atom -5585.982457 kJ/mol
# Density = 1.871210 g / cm^3
# Si number density = 18.754785 Si / 1000 Ang^3
#
#
#
# Elastic Constant Matrix: (Units=GPa)
#
#
# Indices 1 2 3 4 5 6 
#
# 1 123.3713 75.3514 23.4613 0.0000 12.1081 0.0000
# 2 75.3514 131.2880 31.1626 0.0000 4.7892 0.0000
# 3 23.4613 31.1626 34.5443 0.0000 3.7334 0.0000
# 4 0.0000 0.0000 0.0000 23.5396 0.0000 0.6355
# 5 12.1081 4.7892 3.7334 0.0000 29.0117 0.0000
# 6 0.0000 0.0000 0.0000 0.6355 0.0000 29.8625
#
#
#
# Elastic Compliance Matrix: (Units=1/GPa)
#
#
# Indices 1 2 3 4 5 6 
#
# 1 0.013114 -0.006832 -0.002306 0.000000 -0.004049 0.000000
# 2 -0.006832 0.013258 -0.007496 0.000000 0.001627 0.000000
# 3 -0.002306 -0.007496 0.037561 0.000000 -0.002634 0.000000
# 4 0.000000 0.000000 0.000000 0.042506 0.000000 -0.000905
# 5 -0.004049 0.001627 -0.002634 0.000000 0.036229 0.000000
# 6 0.000000 0.000000 0.000000 -0.000905 0.000000 0.033506
#
#
# Mechanical properties :
#
#
# Convention : Reuss Voigt Hill
#
# Bulk Modulus (GPa) = 32.60979 61.01713 46.81346
# Shear Modulus (GPa) = 22.76211 27.09798 24.93005
#
# Velocity S-wave (km/s) = 3.48756 3.80525 3.64986
# Velocity P-wave (km/s) = 5.80022 7.20496 6.54041
#
# Compressibility (1/GPa) = 0.03066564
#
# Stress axis : x y z
#
# Youngs Moduli (GPa) = 76.25405 75.42829 26.62313
#
# Poissons Ratio (x) = 0.51529 0.06140
# Poissons Ratio (y) = 0.52094 0.19956
# Poissons Ratio (z) = 0.17586 0.56540
#
# Static dielectric constant tensor:
#      x y z
#    x 1.634850 0.000000 0.004200 
#    y 0.000000 1.639610 0.000000 
#    z 0.004200 0.000000 1.636060 
# 
# From -- ./inp_files/65902.got.cif
#   From: 2010.05.17/outbox.cif.g08.bks.cpg/sg12_33_cif.got.tgz:65902.got - 2010.06.03 13:09:07.
