data_PCOD9206201
_publ_section_title
;
Structure prediction by ZEFSAII (Michael W. Deem and Ramdas Pophale) SiO2 
 PCOD9206201
Probable space group: C 2/M
;
_chemical_formula_sum "Si O2"
_cell_formula_units_Z 56
_cell_length_a 15.338908
_cell_length_b 13.251619
_cell_length_c 21.347895
_cell_angle_alpha 90.000000
_cell_angle_beta 143.980678
_cell_angle_gamma 90.000000
_cell_volume 2551.753023
_symmetry_space_group_name_H-M "C 2/M"
_symmetry_group_IT_number 12
_symmetry_cell_setting 'monoclinic'
loop_
_space_group_symop_operation_xyz
x,y,z
-x,y,-z
-x,-y,-z
x,-y,z
1/2+x,1/2+y,z
1/2-x,1/2+y,-z
1/2-x,1/2-y,-z
1/2+x,1/2-y,z
loop_
_atom_site_type_symbol
_atom_site_label
_atom_site_fract_x
_atom_site_fract_y
_atom_site_fract_z
Si Si1 0.164335 0.306411 0.837241
Si Si2 0.703768 0.380325 0.493930
Si Si3 0.538207 0.612290 0.948842
Si Si4 0.146780 0.391365 0.043349
Si Si5 0.847423 0.829445 0.395611
Si Si6 0.956352 0.688134 0.827909
Si Si7 0.003114 0.291061 0.624086
O O1 0.284682 0.373036 0.944175
O O2 0.020423 0.298602 0.796171
O O3 0.116902 0.337773 0.740134
O O4 0.243554 0.198510 0.878958
O O5 0.683626 0.500000 0.486154
O O6 0.720599 0.331364 0.573705
O O7 0.851400 0.356055 0.539351
O O8 0.558787 0.318292 0.387205
O O9 0.498864 0.500000 0.904042
O O10 0.500000 0.622640 0.000000
O O11 0.464361 0.702914 0.867120
O O12 0.216907 0.500000 0.092849
O O13 0.074786 0.378557 0.933529
O O14 0.000000 0.382537 0.000000
O O15 0.707907 0.858435 0.271361
O O16 0.000000 0.888428 0.500000
O O17 0.916388 0.734959 0.395052
#
# Coordination Sequence:
#
# PCOD9206201 Si02
#       7
#     8   8   8   8   8   8   8
#     4  11  21  36  60  87 121 163 200 249 310 373
#     4  10  22  41  65  95 124 163 219 267 315 377
#     4  10  21  37  59  87 118 158 207 250 300 374
#     4  10  21  36  56  86 121 157 201 250 309 376
#     4  10  21  39  65  89 122 163 211 262 313 369
#     4  11  21  37  59  86 121 161 203 254 311 366
#     4  10  21  39  63  89 128 165 204 265 323 371
#
# _framework density 21.945699000000001
#
# number of rings (size 3 to 8) (size 9 to 14) (size 15 to 20)
#    0.000    1.714    1.429    5.143    0.000    6.571 
#    0.000    2.143    0.000   11.143    0.000    0.000 
#    0.000    0.000    0.000    0.000    0.000    0.000 
#
# Total GULP energy -155870.873148 kJ/mol
# GULP energy per Si atom -5566.816898 kJ/mol
# Density = 2.189575 g / cm^3
# Si number density = 21.945699 Si / 1000 Ang^3
#
#
#
# Elastic Constant Matrix: (Units=GPa)
#
#
# Indices 1 2 3 4 5 6 
#
# 1 82.5479 17.1608 -2.6382 0.0001 -2.4116 0.0000
# 2 17.1608 73.8356 -8.8860 0.0001 3.3216 0.0001
# 3 -2.6382 -8.8860 77.9852 0.0004 11.9292 0.0002
# 4 0.0001 0.0001 0.0004 -3.9679 0.0001 4.9479
# 5 -2.4116 3.3216 11.9292 0.0001 32.3687 0.0001
# 6 0.0000 0.0001 0.0002 4.9479 0.0001 1.8444
#
#
#
# Elastic Compliance Matrix: (Units=1/GPa)
#
#
# Indices 1 2 3 4 5 6 
#
# 1 0.012781 -0.003043 -0.000114 0.000000 0.001307 0.000000
# 2 -0.003043 0.014593 0.001933 0.000000 -0.002436 0.000000
# 3 -0.000114 0.001933 0.013852 0.000000 -0.005312 -0.000001
# 4 0.000000 0.000000 0.000000 -0.057999 0.000000 0.155594
# 5 0.001307 -0.002436 -0.005312 0.000000 0.033199 -0.000001
# 6 0.000000 0.000000 -0.000001 0.155594 -0.000001 0.124777
#
#
# Mechanical properties :
#
#
# Convention : Reuss Voigt Hill
#
# Bulk Modulus (GPa) = 25.78878 27.29356 26.54117
# Shear Modulus (GPa) = 31.93278 21.29784 26.61531
#
# Velocity S-wave (km/s) = 3.81869 3.11863 3.48628
# Velocity P-wave (km/s) = 5.58748 5.04298 5.32220
#
# Compressibility (1/GPa) = 0.03877655
#
# Stress axis : x y z
#
# Youngs Moduli (GPa) = 78.23910 68.52561 72.19270
#
# Poissons Ratio (x) = 0.20853 0.00825
# Poissons Ratio (y) = 0.23809 -0.13952
# Poissons Ratio (z) = 0.00894 -0.13243
#
# Static dielectric constant tensor:
#      x y z
#    x 1.910690 0.000000 -0.071360 
#    y 0.000000 1.785940 0.000000 
#    z -0.071360 0.000000 3.082690 
# 
# From -- ./inp_files/310796.got.cif
#   From: 2010.05.17/outbox.cif.g08.bks.cpg/sg12_156_cif.got.tgz:310796.got - 2010.06.03 13:09:07.
