data_PCOD9206756
_publ_section_title
;
Structure prediction by ZEFSAII (Michael W. Deem and Ramdas Pophale) SiO2 
 PCOD9206756
Probable space group: C 2/M
;
_chemical_formula_sum "Si O2"
_cell_formula_units_Z 52
_cell_length_a 21.084680
_cell_length_b 14.636387
_cell_length_c 6.722168
_cell_angle_alpha 90.000000
_cell_angle_beta 68.708136
_cell_angle_gamma 90.000000
_cell_volume 1932.886291
_symmetry_space_group_name_H-M "C 2/M"
_symmetry_group_IT_number 12
_symmetry_cell_setting 'monoclinic'
loop_
_space_group_symop_operation_xyz
x,y,z
-x,y,-z
-x,-y,-z
x,-y,z
1/2+x,1/2+y,z
1/2-x,1/2+y,-z
1/2-x,1/2-y,-z
1/2+x,1/2-y,z
loop_
_atom_site_type_symbol
_atom_site_label
_atom_site_fract_x
_atom_site_fract_y
_atom_site_fract_z
Si Si1 0.193035 0.394587 0.543773
Si Si2 0.557346 0.397375 0.564904
Si Si3 0.156895 0.891266 0.729294
Si Si4 0.831805 0.359175 0.877379
Si Si5 0.425845 0.162595 0.121704
Si Si6 0.479958 0.000000 0.281643
Si Si7 0.816796 0.856321 0.846106
O O1 0.187159 0.500000 0.629555
O O2 0.272026 0.364520 0.450508
O O3 0.173469 0.402598 0.332832
O O4 0.150642 0.316983 0.710859
O O5 0.500000 0.349240 0.500000
O O6 0.530916 0.500000 0.639471
O O7 0.585705 0.351126 0.730012
O O8 0.626919 0.399736 0.359400
O O9 0.151838 0.000000 0.699981
O O10 0.161545 0.879123 0.955884
O O11 0.825072 0.252467 0.830201
O O12 0.899645 0.375783 0.932230
O O13 0.762271 0.384366 0.074588
O O14 0.441716 0.094682 0.289594
O O15 0.500000 0.205869 0.000000
O O16 0.500000 0.000000 0.500000
O O17 0.500000 0.000000 0.000000
#
# Coordination Sequence:
#
# PCOD9206756 Si02
#       7
#     8   8   8   8   8   4   8
#     4  10  21  36  62  90 123 160 217 271 323 385
#     4  10  21  38  64  94 123 159 205 264 335 401
#     4   9  19  37  63  95 120 156 207 267 323 393
#     4  10  24  41  61  91 120 175 215 269 328 401
#     4  11  24  38  60  89 129 166 219 274 329 397
#     4  10  24  40  66  92 132 184 221 282 353 402
#     4  10  21  43  64  85 130 163 215 262 332 405
#
# _framework density 26.902774999999998
#
# number of rings (size 3 to 8) (size 9 to 14) (size 15 to 20)
#    0.000    2.000    0.769    1.385    5.385    2.462 
#    5.538    6.923    0.000    0.000    0.000    0.000 
#    0.000    0.000    0.000    0.000    0.000    0.000 
#
# Total GULP energy -144787.317637 kJ/mol
# GULP energy per Si atom -5568.742986 kJ/mol
# Density = 2.684154 g / cm^3
# Si number density = 26.902775 Si / 1000 Ang^3
#
#
#
# Elastic Constant Matrix: (Units=GPa)
#
#
# Indices 1 2 3 4 5 6 
#
# 1 213.5352 21.9629 54.9509 0.0000 32.9340 0.0000
# 2 21.9629 84.8520 15.1563 0.0000 -3.2039 0.0000
# 3 54.9509 15.1563 90.0509 0.0000 1.2416 0.0000
# 4 0.0000 0.0000 0.0000 57.1565 0.0000 45.1937
# 5 32.9340 -3.2039 1.2416 0.0000 53.3968 0.0000
# 6 0.0000 0.0000 0.0000 45.1937 0.0000 87.2073
#
#
#
# Elastic Compliance Matrix: (Units=1/GPa)
#
#
# Indices 1 2 3 4 5 6 
#
# 1 0.006331 -0.001139 -0.003618 0.000000 -0.003889 0.000000
# 2 -0.001139 0.012388 -0.001410 0.000000 0.001479 0.000000
# 3 -0.003618 -0.001410 0.013525 0.000000 0.001832 0.000000
# 4 0.000000 0.000000 0.000000 0.029642 0.000000 -0.015362
# 5 -0.003889 0.001479 0.001832 0.000000 0.021173 0.000000
# 6 0.000000 0.000000 0.000000 -0.015362 0.000000 0.019428
#
#
# Mechanical properties :
#
#
# Convention : Reuss Voigt Hill
#
# Bulk Modulus (GPa) = 50.22918 63.61980 56.92449
# Shear Modulus (GPa) = 41.16665 59.30999 50.23832
#
# Velocity S-wave (km/s) = 3.91602 4.70042 4.32603
# Velocity P-wave (km/s) = 6.25765 7.29095 6.79397
#
# Compressibility (1/GPa) = 0.01990875
#
# Stress axis : x y z
#
# Youngs Moduli (GPa) = 157.94937 80.72425 73.93884
#
# Poissons Ratio (x) = 0.09197 0.26751
# Poissons Ratio (y) = 0.17996 0.10426
# Poissons Ratio (z) = 0.57146 0.11383
#
# Static dielectric constant tensor:
#      x y z
#    x 2.225050 0.000000 -0.009250 
#    y 0.000000 1.404820 0.000000 
#    z -0.009250 0.000000 2.204730 
# 
# From -- ./inp_files/21180.got.cif
#   From: 2010.05.17/outbox.cif.g08.bks.cpg/sg12_11_cif.got.tgz:21180.got - 2010.06.03 13:09:07.
