data_PCOD9206944
_publ_section_title
;
Structure prediction by ZEFSAII (Michael W. Deem and Ramdas Pophale) SiO2 
 PCOD9206944
Probable space group: C 2/M
;
_chemical_formula_sum "Si O2"
_cell_formula_units_Z 64
_cell_length_a 30.887510
_cell_length_b 7.650639
_cell_length_c 14.863145
_cell_angle_alpha 90.000000
_cell_angle_beta 49.825499
_cell_angle_gamma 90.000000
_cell_volume 2683.687723
_symmetry_space_group_name_H-M "C 2/M"
_symmetry_group_IT_number 12
_symmetry_cell_setting 'monoclinic'
loop_
_space_group_symop_operation_xyz
x,y,z
-x,y,-z
-x,-y,-z
x,-y,z
1/2+x,1/2+y,z
1/2-x,1/2+y,-z
1/2-x,1/2-y,-z
1/2+x,1/2-y,z
loop_
_atom_site_type_symbol
_atom_site_label
_atom_site_fract_x
_atom_site_fract_y
_atom_site_fract_z
Si Si1 0.111865 0.298916 0.195465
Si Si2 0.407931 0.215125 0.374721
Si Si3 0.166482 0.787648 0.778381
Si Si4 0.287925 0.797567 0.571750
Si Si5 0.820033 0.801385 0.729544
Si Si6 0.544203 0.202507 0.869855
Si Si7 0.297994 0.700529 0.069580
Si Si8 0.507689 0.213886 0.591449
O O1 0.110427 0.500000 0.169405
O O2 0.134038 0.287559 0.268328
O O3 0.048207 0.229246 0.279383
O O4 0.156913 0.211541 0.069907
O O5 0.343422 0.279327 0.449660
O O6 0.448394 0.276408 0.240059
O O7 0.435900 0.266185 0.431682
O O8 0.405820 0.000000 0.375362
O O9 0.224334 0.724048 0.651737
O O10 0.107864 0.711792 0.822640
O O11 0.174519 0.742236 0.872795
O O12 0.164019 0.000000 0.774987
O O13 0.305389 0.787297 0.654199
O O14 0.283426 0.000000 0.551740
O O15 0.760657 0.801029 0.864142
O O16 0.836884 0.000000 0.689639
O O17 0.526889 0.000000 0.881179
O O18 0.500000 0.282039 0.000000
O O19 0.280378 0.500000 0.104366
O O20 0.500000 0.274726 0.500000
O O21 0.507068 0.000000 0.590574
#
# Coordination Sequence:
#
# PCOD9206944 Si02
#       8
#     8   8   8   8   8   8   8   8
#     4  11  21  32  53  81 110 149 194 240 287 341
#     4   9  18  35  58  85 115 149 192 242 291 339
#     4   9  20  37  57  82 111 147 187 233 290 349
#     4   9  18  36  61  83 110 148 191 237 287 344
#     4  11  21  34  53  80 115 150 187 236 290 343
#     4  10  22  37  58  86 117 151 190 238 286 338
#     4  10  21  37  55  78 111 149 191 237 287 343
#     4   9  18  32  54  83 110 143 191 239 282 334
#
# _framework density 23.847783
#
# number of rings (size 3 to 8) (size 9 to 14) (size 15 to 20)
#    0.000    2.250    0.000    3.750    1.750    5.250 
#    0.000    0.625    0.000    6.750    0.000    0.000 
#    0.000    0.000    0.000    0.000    0.000    0.000 
#
# Total GULP energy -178835.567292 kJ/mol
# GULP energy per Si atom -5588.611478 kJ/mol
# Density = 2.379350 g / cm^3
# Si number density = 23.847783 Si / 1000 Ang^3
#
#
#
# Elastic Constant Matrix: (Units=GPa)
#
#
# Indices 1 2 3 4 5 6 
#
# 1 97.4562 -9.7800 34.9489 0.0000 -7.9650 -0.0001
# 2 -9.7800 55.4715 1.2094 0.0002 1.0801 -0.0001
# 3 34.9489 1.2094 142.2186 -0.0001 -14.8275 0.0000
# 4 0.0000 0.0002 -0.0001 3.3232 0.0000 1.5054
# 5 -7.9650 1.0801 -14.8275 0.0000 32.6110 0.0000
# 6 -0.0001 -0.0001 0.0000 1.5054 0.0000 11.5811
#
#
#
# Elastic Compliance Matrix: (Units=1/GPa)
#
#
# Indices 1 2 3 4 5 6 
#
# 1 0.011561 0.002067 -0.002699 0.000000 0.001528 0.000000
# 2 0.002067 0.018416 -0.000709 -0.000001 -0.000427 0.000000
# 3 -0.002699 -0.000709 0.008014 0.000000 0.003008 0.000000
# 4 0.000000 -0.000001 0.000000 0.319740 0.000000 -0.041562
# 5 0.001528 -0.000427 0.003008 0.000000 0.032420 0.000000
# 6 0.000000 0.000000 0.000000 -0.041562 0.000000 0.091750
#
#
# Mechanical properties :
#
#
# Convention : Reuss Voigt Hill
#
# Bulk Modulus (GPa) = 28.32132 38.65588 33.48860
# Shear Modulus (GPa) = 10.07349 27.42095 18.74722
#
# Velocity S-wave (km/s) = 2.05749 3.39460 2.80682
# Velocity P-wave (km/s) = 4.18879 5.62219 4.95757
#
# Compressibility (1/GPa) = 0.03530909
#
# Stress axis : x y z
#
# Youngs Moduli (GPa) = 86.49464 54.30191 124.77485
#
# Poissons Ratio (x) = -0.11227 0.33682
# Poissons Ratio (y) = -0.17882 0.08849
# Poissons Ratio (z) = 0.23348 0.03851
#
# Static dielectric constant tensor:
#      x y z
#    x 1.884820 0.000000 0.015200 
#    y 0.000000 1.868670 0.000000 
#    z 0.015200 0.000000 1.943560 
# 
# From -- ./inp_files/249689.got.cif
#   From: 2010.05.17/outbox.cif.g08.bks.cpg/sg12_125_cif.got.tgz:249689.got - 2010.06.03 13:09:07.
