data_PCOD9206510
_publ_section_title
;
Structure prediction by ZEFSAII (Michael W. Deem and Ramdas Pophale) SiO2 
 PCOD9206510
Probable space group: C 2/M
;
_chemical_formula_sum "Si O2"
_cell_formula_units_Z 64
_cell_length_a 35.956251
_cell_length_b 7.907218
_cell_length_c 16.036785
_cell_angle_alpha 90.000000
_cell_angle_beta 42.728786
_cell_angle_gamma 90.000000
_cell_volume 3093.739319
_symmetry_space_group_name_H-M "C 2/M"
_symmetry_group_IT_number 12
_symmetry_cell_setting 'monoclinic'
loop_
_space_group_symop_operation_xyz
x,y,z
-x,y,-z
-x,-y,-z
x,-y,z
1/2+x,1/2+y,z
1/2-x,1/2+y,-z
1/2-x,1/2-y,-z
1/2+x,1/2-y,z
loop_
_atom_site_type_symbol
_atom_site_label
_atom_site_fract_x
_atom_site_fract_y
_atom_site_fract_z
Si Si1 0.509365 0.293620 0.118314
Si Si2 0.785632 0.197212 0.021150
Si Si3 0.287767 0.703997 0.360080
Si Si4 0.607958 0.803229 0.240797
Si Si5 0.766707 0.707380 0.722054
Si Si6 0.912199 0.206451 0.158957
Si Si7 0.503873 0.299802 0.315942
Si Si8 0.386513 0.794939 0.578556
O O1 0.509037 0.500000 0.120679
O O2 0.452825 0.240574 0.166521
O O3 0.513727 0.234920 0.205821
O O4 0.558639 0.242938 0.975737
O O5 0.848899 0.226115 0.894836
O O6 0.776189 0.000000 0.045147
O O7 0.750000 0.250000 0.000000
O O8 0.764803 0.270599 0.143173
O O9 0.290409 0.500000 0.351192
O O10 0.250000 0.750000 0.500000
O O11 0.261381 0.765282 0.316875
O O12 0.350096 0.766134 0.268210
O O13 0.546405 0.781480 0.310080
O O14 0.614847 0.734365 0.323028
O O15 0.622206 0.000000 0.221588
O O16 0.765354 0.500000 0.723077
O O17 0.830356 0.756171 0.626020
O O18 0.911927 0.000000 0.160235
O O19 0.514646 0.500000 0.299573
O O20 0.441439 0.268410 0.444656
O O21 0.388772 0.000000 0.575921
#
# Coordination Sequence:
#
# PCOD9206510 Si02
#       8
#     8   8   8   8   8   8   8   8
#     4   8  16  31  52  80 108 139 180 232 284 334
#     4  11  21  38  63  90 119 153 197 243 288 344
#     4  10  21  36  59  85 114 151 189 231 280 340
#     4  11  23  40  59  82 115 156 195 233 286 346
#     4   9  20  38  59  84 114 157 198 228 284 358
#     4   8  15  31  54  77 107 144 182 221 275 338
#     4  11  23  35  56  88 114 141 190 247 291 333
#     4  10  21  40  58  75 111 158 194 227 280 352
#
# _framework density 20.686938999999999
#
# number of rings (size 3 to 8) (size 9 to 14) (size 15 to 20)
#    0.000    2.250    1.250    2.250    3.500    2.500 
#    0.000    1.250    0.000    0.000    0.000    4.375 
#    0.000    0.000    0.000    0.000    0.000    0.000 
#
# Total GULP energy -178710.150569 kJ/mol
# GULP energy per Si atom -5584.692205 kJ/mol
# Density = 2.063985 g / cm^3
# Si number density = 20.686939 Si / 1000 Ang^3
#
#
#
# Elastic Constant Matrix: (Units=GPa)
#
#
# Indices 1 2 3 4 5 6 
#
# 1 103.8829 3.3214 58.3152 0.0001 -4.0099 0.0003
# 2 3.3214 16.7218 -3.5008 0.0006 3.6909 0.0000
# 3 58.3152 -3.5008 106.2795 0.0000 -8.9210 -0.0001
# 4 0.0001 0.0006 0.0000 26.2343 -0.0001 -4.6709
# 5 -4.0099 3.6909 -8.9210 -0.0001 35.6706 -0.0001
# 6 0.0003 0.0000 -0.0001 -4.6709 -0.0001 15.0009
#
#
#
# Elastic Compliance Matrix: (Units=1/GPa)
#
#
# Indices 1 2 3 4 5 6 
#
# 1 0.014239 -0.004511 -0.007955 0.000000 0.000078 0.000000
# 2 -0.004511 0.062869 0.004042 -0.000002 -0.006001 0.000000
# 3 -0.007955 0.004042 0.014093 0.000000 0.002212 0.000000
# 4 0.000000 -0.000002 0.000000 0.040355 0.000000 0.012566
# 5 0.000078 -0.006001 0.002212 0.000000 0.029217 0.000000
# 6 0.000000 0.000000 0.000000 0.012566 0.000000 0.070575
#
#
# Mechanical properties :
#
#
# Convention : Reuss Voigt Hill
#
# Bulk Modulus (GPa) = 13.44925 38.12844 25.78885
# Shear Modulus (GPa) = 18.31635 26.63105 22.47370
#
# Velocity S-wave (km/s) = 2.97881 3.59184 3.29959
# Velocity P-wave (km/s) = 4.28328 5.97268 5.19709
#
# Compressibility (1/GPa) = 0.07435357
#
# Stress axis : x y z
#
# Youngs Moduli (GPa) = 70.22966 15.90612 70.95815
#
# Poissons Ratio (x) = 0.07175 0.56447
# Poissons Ratio (y) = 0.31679 -0.28683
# Poissons Ratio (z) = 0.55867 -0.06430
#
# Static dielectric constant tensor:
#      x y z
#    x 1.707490 0.000000 -0.016070 
#    y 0.000000 1.764170 0.000000 
#    z -0.016070 0.000000 1.668240 
# 
# From -- ./inp_files/249890.got.cif
#   From: 2010.05.17/outbox.cif.g08.bks.cpg/sg12_125_cif.got.tgz:249890.got - 2010.06.03 13:09:07.
