data_PCOD9206306
_publ_section_title
;
Structure prediction by ZEFSAII (Michael W. Deem and Ramdas Pophale) SiO2 
 PCOD9206306
Probable space group: C 2/M
;
_chemical_formula_sum "Si O2"
_cell_formula_units_Z 56
_cell_length_a 20.513550
_cell_length_b 22.946878
_cell_length_c 16.812906
_cell_angle_alpha 90.000000
_cell_angle_beta 159.182559
_cell_angle_gamma 90.000000
_cell_volume 2812.640746
_symmetry_space_group_name_H-M "C 2/M"
_symmetry_group_IT_number 12
_symmetry_cell_setting 'monoclinic'
loop_
_space_group_symop_operation_xyz
x,y,z
-x,y,-z
-x,-y,-z
x,-y,z
1/2+x,1/2+y,z
1/2-x,1/2+y,-z
1/2-x,1/2-y,-z
1/2+x,1/2-y,z
loop_
_atom_site_type_symbol
_atom_site_label
_atom_site_fract_x
_atom_site_fract_y
_atom_site_fract_z
Si Si1 0.889068 0.382419 0.599805
Si Si2 0.384007 0.770552 0.082668
Si Si3 0.552218 0.611914 0.431778
Si Si4 0.516810 0.642365 0.831755
Si Si5 0.255095 0.643436 0.201780
Si Si6 0.121253 0.430607 0.717740
Si Si7 0.575041 0.062961 0.190747
O O1 0.671355 0.376881 0.341374
O O2 0.912023 0.425452 0.700621
O O3 0.976020 0.319789 0.724947
O O4 0.998029 0.407750 0.650067
O O5 0.471021 0.711956 0.147705
O O6 0.250000 0.750000 0.000000
O O7 0.270183 0.801402 0.883117
O O8 0.497721 0.630896 0.280935
O O9 0.374038 0.598454 0.281896
O O10 0.649020 0.656548 0.604799
O O11 0.719399 0.567590 0.609402
O O12 0.691661 0.607278 0.064455
O O13 0.060496 0.613349 0.991755
O O14 0.161334 0.500000 0.771367
O O15 0.000000 0.422340 0.500000
O O16 0.495976 0.000000 0.083582
#
# Coordination Sequence:
#
# PCOD9206306 Si02
#       7
#     8   8   8   8   8   8   8
#     4  10  22  40  66  93 129 164 213 264 330 385
#     4  11  19  40  66  91 128 173 211 264 313 383
#     4  10  21  36  57  86 121 157 200 250 308 363
#     4  11  22  42  66  94 125 165 216 265 326 393
#     4  10  21  37  56  85 127 164 199 254 312 357
#     4  11  25  45  68  94 129 168 216 278 333 393
#     4  10  21  37  59  86 121 164 207 246 298 378
#
# _framework density 19.910115000000001
#
# number of rings (size 3 to 8) (size 9 to 14) (size 15 to 20)
#    0.000    1.571    2.857    2.143    0.000    5.143 
#    5.143    2.857    6.286    0.000    0.000    0.000 
#    0.000    0.000    0.000    0.000    0.000    0.000 
#
# Total GULP energy -156090.054620 kJ/mol
# GULP energy per Si atom -5574.644808 kJ/mol
# Density = 1.986480 g / cm^3
# Si number density = 19.910115 Si / 1000 Ang^3
#
#
#
# Elastic Constant Matrix: (Units=GPa)
#
#
# Indices 1 2 3 4 5 6 
#
# 1 75.3955 35.3254 46.9518 0.0000 4.1257 0.0000
# 2 35.3254 93.9908 39.4010 0.0000 -12.9820 0.0000
# 3 46.9518 39.4010 112.1927 0.0000 -3.1140 0.0000
# 4 0.0000 0.0000 0.0000 7.9501 0.0000 8.7958
# 5 4.1257 -12.9820 -3.1140 0.0000 37.5288 0.0000
# 6 0.0000 0.0000 0.0000 8.7958 0.0000 0.9540
#
#
#
# Elastic Compliance Matrix: (Units=1/GPa)
#
#
# Indices 1 2 3 4 5 6 
#
# 1 0.020233 -0.005446 -0.006684 0.000000 -0.004663 0.000000
# 2 -0.005446 0.014559 -0.002683 0.000000 0.005412 0.000000
# 3 -0.006684 -0.002683 0.012677 0.000000 0.000858 0.000000
# 4 0.000000 0.000000 0.000000 -0.013671 0.000000 0.126046
# 5 -0.004663 0.005412 0.000858 0.000000 0.029102 0.000000
# 6 0.000000 0.000000 0.000000 0.126046 0.000000 -0.113926
#
#
# Mechanical properties :
#
#
# Convention : Reuss Voigt Hill
#
# Bulk Modulus (GPa) = 56.05184 58.32618 57.18901
# Shear Modulus (GPa) = -323.57686 19.94663 -151.81512
#
# Velocity S-wave (km/s) = -12.76212 3.16861 -8.74161
# Velocity P-wave (km/s) = 13.74586 6.53798 8.54996
#
# Compressibility (1/GPa) = 0.01784063
#
# Stress axis : x y z
#
# Youngs Moduli (GPa) = 49.42492 68.68734 78.88534
#
# Poissons Ratio (x) = 0.37410 0.52727
# Poissons Ratio (y) = 0.26919 0.21168
# Poissons Ratio (z) = 0.33035 0.18432
#
# Static dielectric constant tensor:
#      x y z
#    x 1.713760 0.000000 0.000870 
#    y 0.000000 1.693010 0.000000 
#    z 0.000870 0.000000 1.753070 
# 
# From -- ./inp_files/286098.got.cif
#   From: 2010.05.17/outbox.cif.g08.bks.cpg/sg12_144_cif.got.tgz:286098.got - 2010.06.03 13:09:07.
