data_PCOD9206285
_publ_section_title
;
Structure prediction by ZEFSAII (Michael W. Deem and Ramdas Pophale) SiO2 
 PCOD9206285
Probable space group: C 2/M
;
_chemical_formula_sum "Si O2"
_cell_formula_units_Z 50
_cell_length_a 9.981706
_cell_length_b 7.383136
_cell_length_c 29.823536
_cell_angle_alpha 90.000000
_cell_angle_beta 115.759317
_cell_angle_gamma 90.000000
_cell_volume 1979.474991
_symmetry_space_group_name_H-M "C 2/M"
_symmetry_group_IT_number 12
_symmetry_cell_setting 'monoclinic'
loop_
_space_group_symop_operation_xyz
x,y,z
-x,y,-z
-x,-y,-z
x,-y,z
1/2+x,1/2+y,z
1/2-x,1/2+y,-z
1/2-x,1/2-y,-z
1/2+x,1/2-y,z
loop_
_atom_site_type_symbol
_atom_site_label
_atom_site_fract_x
_atom_site_fract_y
_atom_site_fract_z
Si Si1 0.517026 0.781371 0.647933
Si Si2 0.623367 0.280013 0.857239
Si Si3 0.272579 0.286114 0.450236
Si Si4 0.500000 0.000000 0.500000
Si Si5 0.206487 0.290113 0.202622
Si Si6 0.336893 0.784293 0.967179
Si Si7 0.656148 0.209194 0.293514
O O1 0.379816 0.731666 0.596249
O O2 0.466140 0.715921 0.690197
O O3 0.680829 0.714250 0.659875
O O4 0.523154 0.000000 0.649279
O O5 0.623210 0.500000 0.856951
O O6 0.675205 0.215535 0.815499
O O7 0.456638 0.219253 0.843396
O O8 0.741627 0.216156 0.911279
O O9 0.250000 0.250000 0.500000
O O10 0.409589 0.157959 0.458673
O O11 0.201813 0.000000 0.552978
O O12 0.246788 0.500000 0.215216
O O13 0.182939 0.206602 0.248461
O O14 0.351402 0.000000 0.961781
O O15 0.500000 0.708759 0.000000
O O16 0.250000 0.750000 0.000000
O O17 0.614732 0.000000 0.280605
#
# Coordination Sequence:
#
# PCOD9206285 Si02
#       7
#     8   8   8   2   8   8   8
#     4  10  24  41  62  92 124 160 203 254 308 371
#     4  10  21  36  57  85 115 152 196 242 295 356
#     4  11  25  44  67  98 131 172 219 268 323 394
#     4  12  26  44  72  92 132 176 214 272 330 374
#     4  10  21  38  60  86 117 154 197 244 298 358
#     4  10  21  37  56  81 116 152 193 243 296 352
#     4  10  22  40  62  89 121 156 199 248 302 364
#
# _framework density 25.259222999999999
#
# number of rings (size 3 to 8) (size 9 to 14) (size 15 to 20)
#    0.000    1.760    0.800    2.160    3.360    4.160 
#    0.000    0.000    0.000    0.000    0.000    0.000 
#    0.000    0.000    0.000    0.000    0.000    0.000 
#
# Total GULP energy -139696.580646 kJ/mol
# GULP energy per Si atom -5587.863226 kJ/mol
# Density = 2.520173 g / cm^3
# Si number density = 25.259223 Si / 1000 Ang^3
#
#
#
# Elastic Constant Matrix: (Units=GPa)
#
#
# Indices 1 2 3 4 5 6 
#
# 1 112.1719 -3.2626 0.1450 0.0000 6.8530 0.0000
# 2 -3.2626 119.6617 7.4568 0.0000 8.5913 0.0000
# 3 0.1450 7.4568 96.5329 0.0000 9.8727 0.0000
# 4 0.0000 0.0000 0.0000 18.1905 0.0000 9.2963
# 5 6.8530 8.5913 9.8727 0.0000 52.0104 0.0000
# 6 0.0000 0.0000 0.0000 9.2963 0.0000 17.1727
#
#
#
# Elastic Compliance Matrix: (Units=1/GPa)
#
#
# Indices 1 2 3 4 5 6 
#
# 1 0.009001 0.000330 0.000090 0.000000 -0.001258 0.000000
# 2 0.000330 0.008495 -0.000519 0.000000 -0.001348 0.000000
# 3 0.000090 -0.000519 0.010597 0.000000 -0.001938 0.000000
# 4 0.000000 0.000000 0.000000 0.075999 0.000000 -0.041141
# 5 -0.001258 -0.001348 -0.001938 0.000000 0.019983 0.000000
# 6 0.000000 0.000000 0.000000 -0.041141 0.000000 0.080504
#
#
# Mechanical properties :
#
#
# Convention : Reuss Voigt Hill
#
# Bulk Modulus (GPa) = 35.84832 37.44944 36.64888
# Shear Modulus (GPa) = 23.35618 39.07653 31.21636
#
# Velocity S-wave (km/s) = 3.04412 3.93749 3.51927
# Velocity P-wave (km/s) = 5.15544 5.96070 5.57263
#
# Compressibility (1/GPa) = 0.02789531
#
# Stress axis : x y z
#
# Youngs Moduli (GPa) = 111.09628 117.71597 94.36386
#
# Poissons Ratio (x) = -0.03886 -0.00845
# Poissons Ratio (y) = -0.03668 0.04896
# Poissons Ratio (z) = -0.00995 0.06107
#
# Static dielectric constant tensor:
#      x y z
#    x 2.117700 0.000000 -0.069550 
#    y 0.000000 1.265350 0.000000 
#    z -0.069550 0.000000 2.032990 
# 
# From -- ./inp_files/373489.got.cif
#   From: 2010.05.17/outbox.cif.g08.bks.cpg/sg12_187_cif.got.tgz:373489.got - 2010.06.03 13:09:07.
