data_PCOD9206030
_publ_section_title
;
Structure prediction by ZEFSAII (Michael W. Deem and Ramdas Pophale) SiO2 
 PCOD9206030
Probable space group: C 2/M
;
_chemical_formula_sum "Si O2"
_cell_formula_units_Z 56
_cell_length_a 5.278969
_cell_length_b 14.946682
_cell_length_c 33.436240
_cell_angle_alpha 90.000000
_cell_angle_beta 94.620065
_cell_angle_gamma 90.000000
_cell_volume 2629.649725
_symmetry_space_group_name_H-M "C 2/M"
_symmetry_group_IT_number 12
_symmetry_cell_setting 'monoclinic'
loop_
_space_group_symop_operation_xyz
x,y,z
-x,y,-z
-x,-y,-z
x,-y,z
1/2+x,1/2+y,z
1/2-x,1/2+y,-z
1/2-x,1/2-y,-z
1/2+x,1/2-y,z
loop_
_atom_site_type_symbol
_atom_site_label
_atom_site_fract_x
_atom_site_fract_y
_atom_site_fract_z
Si Si1 0.241057 0.850860 0.982395
Si Si2 0.427802 0.804908 0.243157
Si Si3 0.850636 0.392164 0.327434
Si Si4 0.234310 0.108759 0.890635
Si Si5 0.289147 0.107743 0.157350
Si Si6 0.971819 0.192052 0.543146
Si Si7 0.626562 0.392504 0.627832
O O1 0.221522 0.851198 0.934655
O O2 0.500000 0.895008 0.000000
O O3 0.250000 0.750000 0.000000
O O4 0.000000 0.894760 0.000000
O O5 0.720548 0.774550 0.244218
O O6 0.386921 0.862169 0.282541
O O7 0.353572 0.855329 0.201659
O O8 0.847535 0.500000 0.328637
O O9 0.587185 0.360106 0.343574
O O10 0.093067 0.360426 0.356352
O O11 0.491408 0.134711 0.871056
O O12 0.987695 0.135656 0.861890
O O13 0.231316 0.000000 0.894491
O O14 0.290646 0.000000 0.159195
O O15 0.185950 0.270488 0.544001
O O16 0.044932 0.135259 0.582578
O O17 0.000000 0.146150 0.500000
O O18 0.631217 0.500000 0.630024
#
# Coordination Sequence:
#
# PCOD9206030 Si02
#       7
#     8   8   8   8   8   8   8
#     4  10  21  38  54  85 118 150 187 227 286 338
#     4  12  25  41  59  94 122 150 195 241 292 345
#     4  10  22  40  61  84 118 159 193 240 297 358
#     4  10  21  39  64  87 112 154 200 234 275 339
#     4  10  22  43  64  86 118 157 195 236 288 344
#     4  10  21  36  55  81 117 157 199 244 302 362
#     4  10  21  37  59  87 113 151 205 246 296 352
#
# _framework density 21.29561
#
# number of rings (size 3 to 8) (size 9 to 14) (size 15 to 20)
#    0.000    1.714    0.000    3.857    0.000    4.286 
#   15.429    5.714    0.000    5.143    0.000    0.000 
#    0.000    0.000    0.000    0.000    0.000    0.000 
#
# Total GULP energy -156587.378060 kJ/mol
# GULP energy per Si atom -5592.406359 kJ/mol
# Density = 2.124714 g / cm^3
# Si number density = 21.295610 Si / 1000 Ang^3
#
#
#
# Elastic Constant Matrix: (Units=GPa)
#
#
# Indices 1 2 3 4 5 6 
#
# 1 98.6336 -4.6854 -6.7960 0.0000 -0.9558 0.0000
# 2 -4.6854 39.3405 0.9522 0.0000 -1.6186 0.0000
# 3 -6.7960 0.9522 104.6940 0.0000 0.7035 0.0000
# 4 0.0000 0.0000 0.0000 46.9234 0.0000 5.2556
# 5 -0.9558 -1.6186 0.7035 0.0000 39.0202 0.0000
# 6 0.0000 0.0000 0.0000 5.2556 0.0000 -1.8764
#
#
#
# Elastic Compliance Matrix: (Units=1/GPa)
#
#
# Indices 1 2 3 4 5 6 
#
# 1 0.010244 0.001216 0.000652 0.000000 0.000290 0.000000
# 2 0.001216 0.025613 -0.000161 0.000000 0.001095 0.000000
# 3 0.000652 -0.000161 0.009597 0.000000 -0.000164 0.000000
# 4 0.000000 0.000000 0.000000 0.016222 0.000000 0.045436
# 5 0.000290 0.001095 -0.000164 0.000000 0.025683 0.000000
# 6 0.000000 0.000000 0.000000 0.045436 0.000000 -0.405664
#
#
# Mechanical properties :
#
#
# Convention : Reuss Voigt Hill
#
# Bulk Modulus (GPa) = 20.46368 24.62330 22.54349
# Shear Modulus (GPa) = -16.37039 33.69324 8.66143
#
# Velocity S-wave (km/s) = -2.77559 3.98196 2.01893
# Velocity P-wave (km/s) = 0.80104 5.72093 4.00546
#
# Compressibility (1/GPa) = 0.04886706
#
# Stress axis : x y z
#
# Youngs Moduli (GPa) = 97.61777 39.04278 104.20431
#
# Poissons Ratio (x) = -0.04748 -0.06794
# Poissons Ratio (y) = -0.11872 0.01681
# Poissons Ratio (z) = -0.06364 0.00630
#
# Static dielectric constant tensor:
#      x y z
#    x 1.768100 0.000000 -0.000020 
#    y 0.000000 1.764120 0.000000 
#    z -0.000020 0.000000 1.714930 
# 
# From -- ./inp_files/354946.got.cif
#   From: 2010.05.17/outbox.cif.g08.bks.cpg/sg12_178_cif.got.tgz:354946.got - 2010.06.03 13:09:07.
