data_PCOD9206104
_publ_section_title
;
Structure prediction by ZEFSAII (Michael W. Deem and Ramdas Pophale) SiO2 
 PCOD9206104
Probable space group: C 2/M
;
_chemical_formula_sum "Si O2"
_cell_formula_units_Z 48
_cell_length_a 18.387634
_cell_length_b 26.598968
_cell_length_c 7.025231
_cell_angle_alpha 90.000000
_cell_angle_beta 139.498060
_cell_angle_gamma 90.000000
_cell_volume 2231.582153
_symmetry_space_group_name_H-M "C 2/M"
_symmetry_group_IT_number 12
_symmetry_cell_setting 'monoclinic'
loop_
_space_group_symop_operation_xyz
x,y,z
-x,y,-z
-x,-y,-z
x,-y,z
1/2+x,1/2+y,z
1/2-x,1/2+y,-z
1/2-x,1/2-y,-z
1/2+x,1/2-y,z
loop_
_atom_site_type_symbol
_atom_site_label
_atom_site_fract_x
_atom_site_fract_y
_atom_site_fract_z
Si Si1 0.299279 0.056731 0.815361
Si Si2 0.040185 0.171499 0.864578
Si Si3 0.241341 0.117096 0.374162
Si Si4 0.706793 0.342934 0.714141
Si Si5 0.910977 0.719136 0.153395
Si Si6 0.011726 0.382448 0.295395
O O1 0.237622 0.065693 0.489812
O O2 0.244454 0.100153 0.837584
O O3 0.291759 0.000000 0.866622
O O4 0.428208 0.074939 0.049714
O O5 0.089934 0.227380 0.948409
O O6 0.923936 0.166795 0.517438
O O7 0.139701 0.131588 0.034617
O O8 0.000000 0.162075 0.000000
O O9 0.233259 0.156808 0.536639
O O10 0.360412 0.116856 0.510355
O O11 0.788543 0.301694 0.967507
O O12 0.000000 0.724867 0.500000
O O13 0.961204 0.671738 0.138383
O O14 0.000000 0.386242 0.500000
#
# Coordination Sequence:
#
# PCOD9206104 Si02
#       6
#     8   8   8   8   8   8
#     4   9  19  37  61  83 112 148 187 241 292 333
#     4  10  21  36  56  79 116 149 192 230 274 334
#     4   9  20  36  54  83 112 146 188 232 283 327
#     4   8  20  37  55  85 114 143 191 233 275 336
#     4  10  22  35  53  83 115 156 189 227 278 337
#     4  10  21  37  53  84 119 146 188 238 281 337
#
# _framework density 21.509405000000001
#
# number of rings (size 3 to 8) (size 9 to 14) (size 15 to 20)
#    1.000    1.667    0.000    0.500    4.667    3.667 
#    6.000    1.667    0.000    0.000    0.000    1.167 
#    0.000    0.000    0.000    0.000    0.000    0.000 
#
# Total GULP energy -133678.757097 kJ/mol
# GULP energy per Si atom -5569.948212 kJ/mol
# Density = 2.146045 g / cm^3
# Si number density = 21.509405 Si / 1000 Ang^3
#
#
#
# Elastic Constant Matrix: (Units=GPa)
#
#
# Indices 1 2 3 4 5 6 
#
# 1 74.7437 27.5565 30.8635 0.0000 16.4762 0.0000
# 2 27.5565 123.9332 52.7325 0.0000 28.1744 0.0000
# 3 30.8635 52.7325 144.8085 0.0000 30.0575 0.0000
# 4 0.0000 0.0000 0.0000 43.7172 0.0000 6.9240
# 5 16.4762 28.1744 30.0575 0.0000 33.4114 0.0000
# 6 0.0000 0.0000 0.0000 6.9240 0.0000 14.3396
#
#
#
# Elastic Compliance Matrix: (Units=1/GPa)
#
#
# Indices 1 2 3 4 5 6 
#
# 1 0.015777 -0.001671 -0.001761 0.000000 -0.004788 0.000000
# 2 -0.001671 0.010837 -0.002293 0.000000 -0.006252 0.000000
# 3 -0.001761 -0.002293 0.009264 0.000000 -0.005533 0.000000
# 4 0.000000 0.000000 0.000000 0.024768 0.000000 -0.011960
# 5 -0.004788 -0.006252 -0.005533 0.000000 0.042541 0.000000
# 6 0.000000 0.000000 0.000000 -0.011960 0.000000 0.075512
#
#
# Mechanical properties :
#
#
# Convention : Reuss Voigt Hill
#
# Bulk Modulus (GPa) = 40.93114 62.86561 51.89837
# Shear Modulus (GPa) = 25.21555 33.78251 29.49903
#
# Velocity S-wave (km/s) = 3.42761 3.96737 3.70732
# Velocity P-wave (km/s) = 5.89367 7.09064 6.51968
#
# Compressibility (1/GPa) = 0.02443128
#
# Stress axis : x y z
#
# Youngs Moduli (GPa) = 63.38208 92.27533 107.94255
#
# Poissons Ratio (x) = 0.15415 0.19004
# Poissons Ratio (y) = 0.10588 0.24747
# Poissons Ratio (z) = 0.11159 0.21155
#
# Static dielectric constant tensor:
#      x y z
#    x 1.866980 0.000000 -0.044410 
#    y 0.000000 1.735500 0.000000 
#    z -0.044410 0.000000 1.889710 
# 
# From -- ./inp_files/91458.got.cif
#   From: 2010.05.17/outbox.cif.g08.bks.cpg/sg12_46_cif.got.tgz:91458.got - 2010.06.03 13:09:07.
