data_PCOD9206579
_publ_section_title
;
Structure prediction by ZEFSAII (Michael W. Deem and Ramdas Pophale) SiO2 
 PCOD9206579
Probable space group: C 2/M
;
_chemical_formula_sum "Si O2"
_cell_formula_units_Z 64
_cell_length_a 23.965701
_cell_length_b 8.503107
_cell_length_c 15.450819
_cell_angle_alpha 90.000000
_cell_angle_beta 92.641905
_cell_angle_gamma 90.000000
_cell_volume 3145.266429
_symmetry_space_group_name_H-M "C 2/M"
_symmetry_group_IT_number 12
_symmetry_cell_setting 'monoclinic'
loop_
_space_group_symop_operation_xyz
x,y,z
-x,y,-z
-x,-y,-z
x,-y,z
1/2+x,1/2+y,z
1/2-x,1/2+y,-z
1/2-x,1/2-y,-z
1/2+x,1/2-y,z
loop_
_atom_site_type_symbol
_atom_site_label
_atom_site_fract_x
_atom_site_fract_y
_atom_site_fract_z
Si Si1 0.959439 0.192163 0.918790
Si Si2 0.583538 0.313387 0.433177
Si Si3 0.005898 0.189327 0.270431
Si Si4 0.206714 0.683573 0.426317
Si Si5 0.168022 0.188407 0.052065
Si Si6 0.912068 0.687131 0.380630
Si Si7 0.781826 0.183912 0.131895
Si Si8 0.791169 0.683325 0.312620
O O1 0.980407 0.244993 0.825521
O O2 0.894888 0.237715 0.929807
O O3 0.960322 0.000000 0.919256
O O4 0.000000 0.243353 0.000000
O O5 0.575697 0.500000 0.438576
O O6 0.549433 0.254487 0.347256
O O7 0.648354 0.272716 0.424536
O O8 0.566441 0.241696 0.524308
O O9 0.946453 0.238427 0.304707
O O10 0.008939 0.000000 0.268217
O O11 0.196706 0.500000 0.441230
O O12 0.250000 0.750000 0.500000
O O13 0.238745 0.714688 0.339044
O O14 0.217323 0.274535 0.107105
O O15 0.172952 0.000000 0.068443
O O16 0.182724 0.214763 0.952312
O O17 0.915684 0.500000 0.374869
O O18 0.846954 0.731325 0.367642
O O19 0.801635 0.288307 0.212792
O O20 0.787443 0.000000 0.153566
O O21 0.779658 0.500000 0.329318
#
# Coordination Sequence:
#
# PCOD9206579 Si02
#       8
#     8   8   8   8   8   8   8   8
#     4   9  19  37  62  90 118 157 203 248 300 364
#     4  11  23  40  63  92 125 164 205 254 308 365
#     4  10  23  40  63  92 121 159 208 256 306 364
#     4  12  24  40  62  91 124 161 201 247 302 363
#     4   9  19  37  61  88 121 158 199 249 307 368
#     4  11  24  41  62  88 121 164 209 257 313 364
#     4  10  21  36  59  92 121 156 202 251 306 366
#     4  11  24  40  60  87 122 163 205 252 306 367
#
# _framework density 20.348037999999999
#
# number of rings (size 3 to 8) (size 9 to 14) (size 15 to 20)
#    0.000    1.625    1.250    3.000    3.500    4.500 
#    0.000    0.625    0.000    0.750    0.000    0.000 
#    0.000    0.000    0.000    0.000    0.000    0.000 
#
# Total GULP energy -178830.418339 kJ/mol
# GULP energy per Si atom -5588.450573 kJ/mol
# Density = 2.030172 g / cm^3
# Si number density = 20.348038 Si / 1000 Ang^3
#
#
#
# Elastic Constant Matrix: (Units=GPa)
#
#
# Indices 1 2 3 4 5 6 
#
# 1 85.5940 -3.1777 40.4687 0.0000 -20.0710 0.0000
# 2 -3.1777 -1.2930 12.8890 0.0000 -0.8924 0.0000
# 3 40.4687 12.8890 116.8561 0.0000 -11.1931 0.0000
# 4 0.0000 0.0000 0.0000 19.7107 0.0000 -4.2734
# 5 -20.0710 -0.8924 -11.1931 0.0000 24.7293 0.0000
# 6 0.0000 0.0000 0.0000 -4.2734 0.0000 27.3052
#
#
#
# Elastic Compliance Matrix: (Units=1/GPa)
#
#
# Indices 1 2 3 4 5 6 
#
# 1 0.012397 -0.033764 0.000291 0.000000 0.008975 0.000000
# 2 -0.033764 -0.275747 0.040275 0.000000 -0.019125 0.000000
# 3 0.000291 0.040275 0.004366 0.000000 0.003665 0.000000
# 4 0.000000 0.000000 0.000000 0.052516 0.000000 0.008219
# 5 0.008975 -0.019125 0.003665 0.000000 0.048691 0.000000
# 6 0.000000 0.000000 0.000000 0.008219 0.000000 0.037909
#
#
# Mechanical properties :
#
#
# Convention : Reuss Voigt Hill
#
# Bulk Modulus (GPa) = -4.07531 33.50192 14.71331
# Shear Modulus (GPa) = -23.22703 24.41418 0.59358
#
# Velocity S-wave (km/s) = -3.38226 3.46761 0.54069
# Velocity P-wave (km/s) = 4.15452 5.70374 2.76339
#
# Compressibility (1/GPa) = -0.24538034
#
# Stress axis : x y z
#
# Youngs Moduli (GPa) = 80.66700 -3.62651 229.06022
#
# Poissons Ratio (x) = -0.12245 -0.06657
# Poissons Ratio (y) = 2.72363 -9.22549
# Poissons Ratio (z) = -0.02344 0.14606
#
# Static dielectric constant tensor:
#      x y z
#    x 1.712130 0.000000 -0.001240 
#    y 0.000000 1.692210 0.000000 
#    z -0.001240 0.000000 1.742140 
# 
# From -- ./inp_files/238769.got.cif
#   From: 2010.05.17/outbox.cif.g08.bks.cpg/sg12_120_cif.got.tgz:238769.got - 2010.06.03 13:09:07.
