data_PCOD9206735
_publ_section_title
;
Structure prediction by ZEFSAII (Michael W. Deem and Ramdas Pophale) SiO2 
 PCOD9206735
Probable space group: C 2/M
;
_chemical_formula_sum "Si O2"
_cell_formula_units_Z 48
_cell_length_a 19.077536
_cell_length_b 14.312642
_cell_length_c 10.787378
_cell_angle_alpha 90.000000
_cell_angle_beta 133.675560
_cell_angle_gamma 90.000000
_cell_volume 2130.362478
_symmetry_space_group_name_H-M "C 2/M"
_symmetry_group_IT_number 12
_symmetry_cell_setting 'monoclinic'
loop_
_space_group_symop_operation_xyz
x,y,z
-x,y,-z
-x,-y,-z
x,-y,z
1/2+x,1/2+y,z
1/2-x,1/2+y,-z
1/2-x,1/2-y,-z
1/2+x,1/2-y,z
loop_
_atom_site_type_symbol
_atom_site_label
_atom_site_fract_x
_atom_site_fract_y
_atom_site_fract_z
Si Si1 0.012551 0.241261 0.249954
Si Si2 0.129591 0.607124 0.273331
Si Si3 0.701131 0.897632 0.641391
Si Si4 0.840166 0.888188 0.413514
Si Si5 0.906603 0.901154 0.969943
Si Si6 0.655090 0.749315 0.793742
O O1 0.052561 0.308829 0.190701
O O2 0.093014 0.173546 0.410866
O O3 0.946697 0.288197 0.275064
O O4 0.925963 0.178656 0.089174
O O5 0.097295 0.500000 0.204962
O O6 0.159327 0.608535 0.454384
O O7 0.226496 0.626544 0.312129
O O8 0.816550 0.890143 0.770638
O O9 0.675104 0.818491 0.704308
O O10 0.676977 0.000000 0.663132
O O11 0.857006 0.849591 0.294366
O O12 0.859212 0.000000 0.448558
O O13 0.894033 0.000000 0.021693
O O14 0.000000 0.904396 0.000000
O O15 0.750000 0.750000 0.000000
#
# Coordination Sequence:
#
# PCOD9206735 Si02
#       6
#     8   8   8   8   8   8
#     4  12  23  38  68  95 132 166 215 263 319 385
#     4  10  23  43  69  97 127 169 216 266 323 379
#     4  10  21  41  64  88 127 169 214 264 314 374
#     4  11  25  44  67  98 131 165 213 272 327 380
#     4  10  21  36  61  95 123 161 213 267 319 369
#     4  12  26  42  60  94 131 174 212 253 326 386
#
# _framework density 22.531376999999999
#
# number of rings (size 3 to 8) (size 9 to 14) (size 15 to 20)
#    0.000    1.167    3.333    2.500    2.333    6.000 
#    0.000    1.667    0.000    2.500    0.000    0.000 
#    0.000    0.000    0.000    0.000    0.000    0.000 
#
# Total GULP energy -133895.394145 kJ/mol
# GULP energy per Si atom -5578.974756 kJ/mol
# Density = 2.248009 g / cm^3
# Si number density = 22.531377 Si / 1000 Ang^3
#
#
#
# Elastic Constant Matrix: (Units=GPa)
#
#
# Indices 1 2 3 4 5 6 
#
# 1 67.4424 6.1193 4.3148 0.0000 20.0874 0.0000
# 2 6.1193 75.4326 30.2273 0.0000 10.0475 0.0000
# 3 4.3148 30.2273 78.0040 0.0000 1.7219 0.0000
# 4 0.0000 0.0000 0.0000 16.2764 0.0000 -13.0955
# 5 20.0874 10.0475 1.7219 0.0000 27.5554 0.0000
# 6 0.0000 0.0000 0.0000 -13.0955 0.0000 17.2107
#
#
#
# Elastic Compliance Matrix: (Units=1/GPa)
#
#
# Indices 1 2 3 4 5 6 
#
# 1 0.019016 0.000744 -0.001030 0.000000 -0.014070 0.000000
# 2 0.000744 0.016552 -0.006319 0.000000 -0.006183 0.000000
# 3 -0.001030 -0.006319 0.015279 0.000000 0.002100 0.000000
# 4 0.000000 0.000000 0.000000 0.158425 0.000000 0.120544
# 5 -0.014070 -0.006183 0.002100 0.000000 0.048670 0.000000
# 6 0.000000 0.000000 0.000000 0.120544 0.000000 0.149824
#
#
# Mechanical properties :
#
#
# Convention : Reuss Voigt Hill
#
# Bulk Modulus (GPa) = 26.56839 33.57799 30.07319
# Shear Modulus (GPa) = 11.53344 24.22300 17.87822
#
# Velocity S-wave (km/s) = 2.26494 3.28240 2.81994
# Velocity P-wave (km/s) = 4.31940 5.41300 4.89683
#
# Compressibility (1/GPa) = 0.03763871
#
# Stress axis : x y z
#
# Youngs Moduli (GPa) = 52.58621 60.41514 65.44912
#
# Poissons Ratio (x) = -0.04495 0.06739
# Poissons Ratio (y) = -0.03912 0.41356
# Poissons Ratio (z) = 0.05414 0.38175
#
# Static dielectric constant tensor:
#      x y z
#    x 0.385690 0.000000 0.931950 
#    y 0.000000 1.956380 0.000000 
#    z 0.931950 0.000000 1.274690 
# 
# From -- ./inp_files/167621.got.cif
#   From: 2010.05.17/outbox.cif.g08.bks.cpg/sg12_84_cif.got.tgz:167621.got - 2010.06.03 13:09:07.
