data_PCOD9206584
_publ_section_title
;
Structure prediction by ZEFSAII (Michael W. Deem and Ramdas Pophale) SiO2 
 PCOD9206584
Probable space group: C 2/M
;
_chemical_formula_sum "Si O2"
_cell_formula_units_Z 50
_cell_length_a 25.302865
_cell_length_b 13.917875
_cell_length_c 8.624985
_cell_angle_alpha 90.000000
_cell_angle_beta 56.188607
_cell_angle_gamma 90.000000
_cell_volume 2523.690320
_symmetry_space_group_name_H-M "C 2/M"
_symmetry_group_IT_number 12
_symmetry_cell_setting 'monoclinic'
loop_
_space_group_symop_operation_xyz
x,y,z
-x,y,-z
-x,-y,-z
x,-y,z
1/2+x,1/2+y,z
1/2-x,1/2+y,-z
1/2-x,1/2-y,-z
1/2+x,1/2-y,z
loop_
_atom_site_type_symbol
_atom_site_label
_atom_site_fract_x
_atom_site_fract_y
_atom_site_fract_z
Si Si1 0.469879 0.615290 0.882870
Si Si2 0.759383 0.314111 0.714905
Si Si3 0.142503 0.793297 0.095015
Si Si4 0.285525 0.608710 0.537220
Si Si5 0.500000 0.000000 0.500000
Si Si6 0.587769 0.388921 0.492714
Si Si7 0.631417 0.104782 0.272648
O O1 0.460916 0.500000 0.886603
O O2 0.404448 0.668801 0.960052
O O3 0.520578 0.645464 0.668226
O O4 0.500000 0.635956 0.000000
O O5 0.732807 0.371601 0.610728
O O6 0.758518 0.200993 0.673098
O O7 0.829216 0.350342 0.648536
O O8 0.712844 0.327091 0.936797
O O9 0.116734 0.835107 0.298889
O O10 0.139255 0.679337 0.120926
O O11 0.265164 0.500000 0.614615
O O12 0.360813 0.613257 0.451938
O O13 0.557151 0.082299 0.422493
O O14 0.579809 0.500000 0.459352
O O15 0.660184 0.000000 0.191101
#
# Coordination Sequence:
#
# PCOD9206584 Si02
#       7
#     8   8   8   8   2   8   8
#     4  10  22  39  60  89 126 168 205 255 319 395
#     4  11  23  41  62  96 127 171 215 267 338 388
#     4  12  23  37  62  96 127 165 210 268 327 390
#     4  10  22  40  64  92 129 169 210 266 323 401
#     4   8  24  44  60  88 116 176 224 272 306 368
#     4  10  21  36  59  92 124 161 206 258 316 388
#     4  10  23  40  63  90 122 167 223 273 316 378
#
# _framework density 19.812255
#
# number of rings (size 3 to 8) (size 9 to 14) (size 15 to 20)
#    0.480    1.120    1.600    2.880    2.240    5.760 
#    0.000    0.000    0.000    0.480    0.000    0.000 
#    0.000    0.000    0.000    0.000    0.000    0.000 
#
# Total GULP energy -139212.503145 kJ/mol
# GULP energy per Si atom -5568.500126 kJ/mol
# Density = 1.976716 g / cm^3
# Si number density = 19.812255 Si / 1000 Ang^3
#
#
#
# Elastic Constant Matrix: (Units=GPa)
#
#
# Indices 1 2 3 4 5 6 
#
# 1 125.3183 34.6591 24.9395 0.0000 3.8300 0.0000
# 2 34.6591 92.6397 23.7079 0.0000 3.0031 0.0000
# 3 24.9395 23.7079 65.2092 0.0000 -6.3936 0.0000
# 4 0.0000 0.0000 0.0000 14.8943 0.0000 0.8343
# 5 3.8300 3.0031 -6.3936 0.0000 23.0681 0.0000
# 6 0.0000 0.0000 0.0000 0.8343 0.0000 31.6878
#
#
#
# Elastic Compliance Matrix: (Units=1/GPa)
#
#
# Indices 1 2 3 4 5 6 
#
# 1 0.009345 -0.002722 -0.002777 0.000000 -0.001967 0.000000
# 2 -0.002722 0.012876 -0.003866 0.000000 -0.002296 0.000000
# 3 -0.002777 -0.003866 0.018397 0.000000 0.006063 0.000000
# 4 0.000000 0.000000 0.000000 0.067239 0.000000 -0.001770
# 5 -0.001967 -0.002296 0.006063 0.000000 0.045656 0.000000
# 6 0.000000 0.000000 0.000000 -0.001770 0.000000 0.031605
#
#
# Mechanical properties :
#
#
# Convention : Reuss Voigt Hill
#
# Bulk Modulus (GPa) = 45.68394 49.97554 47.82974
# Shear Modulus (GPa) = 23.68045 27.25410 25.46727
#
# Velocity S-wave (km/s) = 3.46098 3.71296 3.58918
# Velocity P-wave (km/s) = 6.25137 6.60763 6.43197
#
# Compressibility (1/GPa) = 0.02188953
#
# Stress axis : x y z
#
# Youngs Moduli (GPa) = 107.00574 77.66091 54.35544
#
# Poissons Ratio (x) = 0.21138 0.15097
# Poissons Ratio (y) = 0.29125 0.21012
# Poissons Ratio (z) = 0.29720 0.30021
#
# Static dielectric constant tensor:
#      x y z
#    x 1.703990 0.000000 0.009960 
#    y 0.000000 1.720840 0.000000 
#    z 0.009960 0.000000 1.691100 
# 
# From -- ./inp_files/96216.got.cif
#   From: 2010.05.17/outbox.cif.g08.bks.cpg/sg12_49_cif.got.tgz:96216.got - 2010.06.03 13:09:07.
