data_PCOD9206600
_publ_section_title
;
Structure prediction by ZEFSAII (Michael W. Deem and Ramdas Pophale) SiO2 
 PCOD9206600
Probable space group: C 2/M
;
_chemical_formula_sum "Si O2"
_cell_formula_units_Z 64
_cell_length_a 9.949460
_cell_length_b 15.379087
_cell_length_c 33.257396
_cell_angle_alpha 90.000000
_cell_angle_beta 138.863850
_cell_angle_gamma 90.000000
_cell_volume 3347.692491
_symmetry_space_group_name_H-M "C 2/M"
_symmetry_group_IT_number 12
_symmetry_cell_setting 'monoclinic'
loop_
_space_group_symop_operation_xyz
x,y,z
-x,y,-z
-x,-y,-z
x,-y,z
1/2+x,1/2+y,z
1/2-x,1/2+y,-z
1/2-x,1/2-y,-z
1/2+x,1/2-y,z
loop_
_atom_site_type_symbol
_atom_site_label
_atom_site_fract_x
_atom_site_fract_y
_atom_site_fract_z
Si Si1 0.779117 0.842900 0.858079
Si Si2 0.545403 0.091831 0.875670
Si Si3 0.756582 0.599349 0.239416
Si Si4 0.440661 0.744966 0.677057
Si Si5 0.472447 0.272187 0.593832
Si Si6 0.355925 0.332715 0.004986
Si Si7 0.807812 0.895142 0.487630
Si Si8 0.132702 0.160577 0.798899
O O1 0.602091 0.845695 0.851837
O O2 0.744395 0.894191 0.809241
O O3 0.771936 0.742165 0.844074
O O4 0.988886 0.870247 0.927032
O O5 0.307891 0.091241 0.831008
O O6 0.617409 0.000000 0.875223
O O7 0.679739 0.109768 0.945384
O O8 0.790624 0.500000 0.259738
O O9 0.541224 0.632760 0.209036
O O10 0.931473 0.665207 0.293500
O O11 0.471681 0.703195 0.640492
O O12 0.202826 0.761269 0.630661
O O13 0.525213 0.688426 0.733173
O O14 0.359158 0.177299 0.564834
O O15 0.372455 0.348653 0.544283
O O16 0.500000 0.307165 0.000000
O O17 0.250000 0.250000 0.000000
O O18 0.000000 0.891103 0.500000
O O19 0.753643 0.000000 0.478683
#
# Coordination Sequence:
#
# PCOD9206600 Si02
#       8
#     8   8   8   8   8   8   8   8
#     4  10  21  38  62  81 115 157 201 243 308 382
#     4  11  23  38  58  87 118 149 195 259 311 357
#     4  11  24  39  60  89 121 158 206 259 308 365
#     4  11  23  41  64  89 125 171 209 244 302 360
#     4  11  22  43  67  97 132 168 207 256 298 356
#     4  10  21  36  60  83 110 153 200 241 303 380
#     4  10  22  41  70 101 132 170 207 250 304 359
#     4  11  22  40  61  85 120 160 202 248 306 364
#
# _framework density 19.117647000000002
#
# number of rings (size 3 to 8) (size 9 to 14) (size 15 to 20)
#    0.000    1.375    3.750    2.250    3.500    3.750 
#    0.000    2.500    0.000    1.875    0.000    0.000 
#    0.000    0.000    0.000    0.000    0.000    0.000 
#
# Total GULP energy -178348.291861 kJ/mol
# GULP energy per Si atom -5573.384121 kJ/mol
# Density = 1.907413 g / cm^3
# Si number density = 19.117647 Si / 1000 Ang^3
#
#
#
# Elastic Constant Matrix: (Units=GPa)
#
#
# Indices 1 2 3 4 5 6 
#
# 1 70.2291 23.1072 30.2001 0.0000 8.1539 0.0000
# 2 23.1072 82.1507 24.2185 0.0000 5.5062 0.0000
# 3 30.2001 24.2185 82.1527 0.0000 -8.1663 0.0000
# 4 0.0000 0.0000 0.0000 7.1903 0.0000 -0.9999
# 5 8.1539 5.5062 -8.1663 0.0000 39.9582 0.0000
# 6 0.0000 0.0000 0.0000 -0.9999 0.0000 9.4071
#
#
#
# Elastic Compliance Matrix: (Units=1/GPa)
#
#
# Indices 1 2 3 4 5 6 
#
# 1 0.018517 -0.003014 -0.006383 0.000000 -0.004668 0.000000
# 2 -0.003014 0.014112 -0.003251 0.000000 -0.001994 0.000000
# 3 -0.006383 -0.003251 0.015976 0.000000 0.005015 0.000000
# 4 0.000000 0.000000 0.000000 0.141163 0.000000 0.015005
# 5 -0.004668 -0.001994 0.005015 0.000000 0.027278 0.000000
# 6 0.000000 0.000000 0.000000 0.015005 0.000000 0.107898
#
#
# Mechanical properties :
#
#
# Convention : Reuss Voigt Hill
#
# Bulk Modulus (GPa) = 42.89823 43.28713 43.09268
# Shear Modulus (GPa) = 13.96612 21.77824 17.87218
#
# Velocity S-wave (km/s) = 2.70577 3.37882 3.06085
# Velocity P-wave (km/s) = 5.67886 6.15740 5.92296
#
# Compressibility (1/GPa) = 0.02331099
#
# Stress axis : x y z
#
# Youngs Moduli (GPa) = 54.00318 70.85932 62.59555
#
# Poissons Ratio (x) = 0.21357 0.39952
# Poissons Ratio (y) = 0.16277 0.20347
# Poissons Ratio (z) = 0.34468 0.23033
#
# Static dielectric constant tensor:
#      x y z
#    x 1.729730 0.000000 0.015570 
#    y 0.000000 1.650720 0.000000 
#    z 0.015570 0.000000 1.687120 
# 
# From -- ./inp_files/372589.got.cif
#   From: 2010.05.17/outbox.cif.g08.bks.cpg/sg12_187_cif.got.tgz:372589.got - 2010.06.03 13:09:07.
