data_PCOD9206560
_publ_section_title
;
Structure prediction by ZEFSAII (Michael W. Deem and Ramdas Pophale) SiO2 
 PCOD9206560
Probable space group: C 2/M
;
_chemical_formula_sum "Si O2"
_cell_formula_units_Z 46
_cell_length_a 23.655480
_cell_length_b 7.481219
_cell_length_c 12.259089
_cell_angle_alpha 90.000000
_cell_angle_beta 65.392103
_cell_angle_gamma 90.000000
_cell_volume 1972.475400
_symmetry_space_group_name_H-M "C 2/M"
_symmetry_group_IT_number 12
_symmetry_cell_setting 'monoclinic'
loop_
_space_group_symop_operation_xyz
x,y,z
-x,y,-z
-x,-y,-z
x,-y,z
1/2+x,1/2+y,z
1/2-x,1/2+y,-z
1/2-x,1/2-y,-z
1/2+x,1/2-y,z
loop_
_atom_site_type_symbol
_atom_site_label
_atom_site_fract_x
_atom_site_fract_y
_atom_site_fract_z
Si Si1 0.609693 0.710672 0.766441
Si Si2 0.400829 0.786337 0.913925
Si Si3 0.712140 0.787185 0.845999
Si Si4 0.500000 0.248911 0.000000
Si Si5 0.351638 0.713584 0.719991
Si Si6 0.500000 0.000000 0.500000
Si Si7 0.071180 0.786670 0.552843
O O1 0.596335 0.500000 0.796554
O O2 0.677513 0.749927 0.759815
O O3 0.559324 0.813542 0.880500
O O4 0.601496 0.745434 0.645986
O O5 0.457853 0.691167 0.929413
O O6 0.391731 0.754794 0.794104
O O7 0.409687 0.000000 0.924362
O O8 0.336440 0.724262 0.023128
O O9 0.781771 0.714525 0.792903
O O10 0.716261 0.000000 0.857553
O O11 0.347484 0.500000 0.713243
O O12 0.383283 0.774303 0.582340
O O13 0.486613 0.841722 0.419501
O O14 0.057886 0.000000 0.554288
#
# Coordination Sequence:
#
# PCOD9206560 Si02
#       7
#     8   8   8   4   8   2   8
#     4  10  22  40  61  89 122 159 207 260 314 369
#     4  10  21  36  59  90 122 158 209 260 306 371
#     4   9  20  39  61  88 123 162 203 260 314 371
#     4  10  22  38  60  86 120 162 204 250 318 380
#     4  10  22  40  61  88 125 163 204 255 319 371
#     4  12  26  44  68  92 132 172 214 246 324 372
#     4  10  25  44  64  96 130 166 212 263 310 373
#
# _framework density 23.320948999999999
#
# number of rings (size 3 to 8) (size 9 to 14) (size 15 to 20)
#    0.000    2.087    0.000    1.304    4.870    5.565 
#    0.000    0.000    0.000    0.000    0.000    0.000 
#    0.000    0.000    0.000    0.000    0.000    0.000 
#
# Total GULP energy -128049.942184 kJ/mol
# GULP energy per Si atom -5567.388791 kJ/mol
# Density = 2.326787 g / cm^3
# Si number density = 23.320949 Si / 1000 Ang^3
#
#
#
# Elastic Constant Matrix: (Units=GPa)
#
#
# Indices 1 2 3 4 5 6 
#
# 1 150.6826 4.1963 72.1962 0.0000 4.1899 0.0000
# 2 4.1963 73.8742 3.0951 0.0000 -10.2842 0.0000
# 3 72.1962 3.0951 137.0188 0.0000 25.5366 0.0000
# 4 0.0000 0.0000 0.0000 14.2401 0.0000 20.2608
# 5 4.1899 -10.2842 25.5366 0.0000 36.4025 0.0000
# 6 0.0000 0.0000 0.0000 20.2608 0.0000 -2.2030
#
#
#
# Elastic Compliance Matrix: (Units=1/GPa)
#
#
# Indices 1 2 3 4 5 6 
#
# 1 0.009097 0.000080 -0.005297 0.000000 0.002691 0.000000
# 2 0.000080 0.014271 -0.001282 0.000000 0.004922 0.000000
# 3 -0.005297 -0.001282 0.011587 0.000000 -0.007881 0.000000
# 4 0.000000 0.000000 0.000000 0.004986 0.000000 0.045852
# 5 0.002691 0.004922 -0.007881 0.000000 0.034080 0.000000
# 6 0.000000 0.000000 0.000000 0.045852 0.000000 -0.032227
#
#
# Mechanical properties :
#
#
# Convention : Reuss Voigt Hill
#
# Bulk Modulus (GPa) = 45.54213 57.83899 51.69056
# Shear Modulus (GPa) = 80.50242 28.49379 54.49811
#
# Velocity S-wave (km/s) = 5.88169 3.49923 4.83937
# Velocity P-wave (km/s) = 8.10534 6.41727 7.31019
#
# Compressibility (1/GPa) = 0.02195769
#
# Stress axis : x y z
#
# Youngs Moduli (GPa) = 109.92348 70.07302 86.30457
#
# Poissons Ratio (x) = -0.00559 0.45713
# Poissons Ratio (y) = -0.00877 0.11061
# Poissons Ratio (z) = 0.58224 0.08981
#
# Static dielectric constant tensor:
#      x y z
#    x 1.897880 0.000000 -0.038390 
#    y 0.000000 1.724510 0.000000 
#    z -0.038390 0.000000 1.868020 
# 
# From -- ./inp_files/172227.got.cif
#   From: 2010.05.17/outbox.cif.g08.bks.cpg/sg12_87_cif.got.tgz:172227.got - 2010.06.03 13:09:07.
