data_PCOD9206618
_publ_section_title
;
Structure prediction by ZEFSAII (Michael W. Deem and Ramdas Pophale) SiO2 
 PCOD9206618
Probable space group: C 2/M
;
_chemical_formula_sum "Si O2"
_cell_formula_units_Z 58
_cell_length_a 20.764131
_cell_length_b 7.608351
_cell_length_c 19.004793
_cell_angle_alpha 90.000000
_cell_angle_beta 61.805588
_cell_angle_gamma 90.000000
_cell_volume 2646.157096
_symmetry_space_group_name_H-M "C 2/M"
_symmetry_group_IT_number 12
_symmetry_cell_setting 'monoclinic'
loop_
_space_group_symop_operation_xyz
x,y,z
-x,y,-z
-x,-y,-z
x,-y,z
1/2+x,1/2+y,z
1/2-x,1/2+y,-z
1/2-x,1/2-y,-z
1/2+x,1/2-y,z
loop_
_atom_site_type_symbol
_atom_site_label
_atom_site_fract_x
_atom_site_fract_y
_atom_site_fract_z
Si Si1 0.000000 0.500000 0.500000
Si Si2 0.213598 0.205548 0.794725
Si Si3 0.248167 0.297173 0.619281
Si Si4 0.579372 0.701853 0.944208
Si Si5 0.163913 0.290382 0.039675
Si Si6 0.860012 0.286387 0.792446
Si Si7 0.027690 0.202827 0.386235
Si Si8 0.639904 0.712143 0.554796
O O1 0.047279 0.343930 0.435033
O O2 0.232663 0.217020 0.702886
O O3 0.135123 0.281777 0.857944
O O4 0.281361 0.277865 0.804590
O O5 0.064475 0.000000 0.929512
O O6 0.266446 0.500000 0.623461
O O7 0.312576 0.223061 0.536339
O O8 0.177325 0.283429 0.605813
O O9 0.709604 0.500000 0.815759
O O10 0.500000 0.783873 0.000000
O O11 0.625234 0.705354 0.992834
O O12 0.155339 0.500000 0.037063
O O13 0.130056 0.233745 0.131858
O O14 0.250000 0.250000 0.000000
O O15 0.860398 0.500000 0.789857
O O16 0.921072 0.220649 0.707627
O O17 0.944718 0.256069 0.408790
O O18 0.029478 0.000000 0.409022
O O19 0.646194 0.500000 0.553786
#
# Coordination Sequence:
#
# PCOD9206618 Si02
#       8
#     2   8   8   8   8   8   8   8
#     4  12  26  44  64  94 136 168 206 276 326 374
#     4  10  21  38  60  87 125 163 205 262 325 388
#     4  10  21  36  60  87 117 158 204 259 316 375
#     4  10  22  42  65  92 126 168 216 266 329 400
#     4  11  22  40  67  95 130 171 217 272 336 400
#     4  10  22  41  62  92 131 169 215 273 332 391
#     4  11  25  42  65  94 128 173 219 263 325 395
#     4   9  21  41  59  85 118 158 214 256 307 386
#
# _framework density 21.918578
#
# number of rings (size 3 to 8) (size 9 to 14) (size 15 to 20)
#    0.000    1.793    2.069    1.034    2.897    4.138 
#    0.000    4.138    0.000    0.000    0.000    0.000 
#    0.000    0.000    0.000    0.000    0.000    0.000 
#
# Total GULP energy -161803.143622 kJ/mol
# GULP energy per Si atom -5579.418746 kJ/mol
# Density = 2.186869 g / cm^3
# Si number density = 21.918578 Si / 1000 Ang^3
#
#
#
# Elastic Constant Matrix: (Units=GPa)
#
#
# Indices 1 2 3 4 5 6 
#
# 1 74.6122 -4.5456 17.0577 -0.0004 -14.8111 -0.0020
# 2 -4.5456 67.5161 1.3043 -0.0004 -1.1969 -0.0047
# 3 17.0577 1.3043 129.4913 0.0002 -6.2469 0.0036
# 4 -0.0004 -0.0004 0.0002 21.7724 -0.0003 -11.1925
# 5 -14.8111 -1.1969 -6.2469 -0.0003 36.2085 -0.0034
# 6 -0.0020 -0.0047 0.0036 -11.1925 -0.0034 -104.2283
#
#
#
# Elastic Compliance Matrix: (Units=1/GPa)
#
#
# Indices 1 2 3 4 5 6 
#
# 1 0.015033 0.001150 -0.001708 0.000000 0.005893 -0.000001
# 2 0.001150 0.014910 -0.000257 0.000000 0.000919 -0.000001
# 3 -0.001708 -0.000257 0.007982 0.000000 0.000670 0.000000
# 4 0.000000 0.000000 0.000000 0.043527 0.000000 -0.004674
# 5 0.005893 0.000919 0.000670 0.000000 0.030174 -0.000001
# 6 -0.000001 -0.000001 0.000000 -0.004674 -0.000001 -0.009092
#
#
# Mechanical properties :
#
#
# Convention : Reuss Voigt Hill
#
# Bulk Modulus (GPa) = 27.55239 33.25028 30.40133
# Shear Modulus (GPa) = 43.00615 7.93743 25.47179
#
# Velocity S-wave (km/s) = 4.43435 1.90504 3.41267
# Velocity P-wave (km/s) = 6.23021 4.47680 5.42482
#
# Compressibility (1/GPa) = 0.03629449
#
# Stress axis : x y z
#
# Youngs Moduli (GPa) = 66.52139 67.06939 125.27593
#
# Poissons Ratio (x) = -0.07710 0.21392
# Poissons Ratio (y) = -0.07647 0.03223
# Poissons Ratio (z) = 0.11359 0.01726
#
# Static dielectric constant tensor:
#      x y z
#    x 1.810990 0.000000 -0.022430 
#    y 0.000000 1.818800 0.000000 
#    z -0.022430 0.000000 1.797130 
# 
# From -- ./inp_files/282119.got.cif
#   From: 2010.05.17/outbox.cif.g08.bks.cpg/sg12_142_cif.got.tgz:282119.got - 2010.06.03 13:09:07.
