data_PCOD9206235
_publ_section_title
;
Structure prediction by ZEFSAII (Michael W. Deem and Ramdas Pophale) SiO2 
 PCOD9206235
Probable space group: C 2/M
;
_chemical_formula_sum "Si O2"
_cell_formula_units_Z 42
_cell_length_a 30.360304
_cell_length_b 7.570540
_cell_length_c 8.954367
_cell_angle_alpha 90.000000
_cell_angle_beta 110.885837
_cell_angle_gamma 90.000000
_cell_volume 1922.873821
_symmetry_space_group_name_H-M "C 2/M"
_symmetry_group_IT_number 12
_symmetry_cell_setting 'monoclinic'
loop_
_space_group_symop_operation_xyz
x,y,z
-x,y,-z
-x,-y,-z
x,-y,z
1/2+x,1/2+y,z
1/2-x,1/2+y,-z
1/2-x,1/2-y,-z
1/2+x,1/2-y,z
loop_
_atom_site_type_symbol
_atom_site_label
_atom_site_fract_x
_atom_site_fract_y
_atom_site_fract_z
Si Si1 0.645605 0.791502 0.051385
Si Si2 0.239678 0.288090 0.315561
Si Si3 0.551565 0.798469 0.071255
Si Si4 0.166599 0.785495 0.735233
Si Si5 0.918374 0.195949 0.572420
Si Si6 0.500000 0.500000 0.500000
O O1 0.657532 0.772641 0.892581
O O2 0.642502 0.000000 0.084882
O O3 0.689235 0.718040 0.199689
O O4 0.594283 0.715671 0.029049
O O5 0.238570 0.500000 0.295770
O O6 0.250000 0.250000 0.500000
O O7 0.283207 0.223934 0.267292
O O8 0.567471 0.797874 0.262360
O O9 0.545602 0.000000 0.008239
O O10 0.500000 0.712151 0.000000
O O11 0.124187 0.726784 0.575655
O O12 0.165712 0.000000 0.734453
O O13 0.963424 0.151582 0.523642
O O14 0.902137 0.000000 0.606788
#
# Coordination Sequence:
#
# PCOD9206235 Si02
#       6
#     8   8   8   8   8   2
#     4  10  22  37  54  80 112 142 178 220 269 319
#     4  10  21  37  57  81 109 141 178 222 267 320
#     4  10  22  37  54  79 110 143 182 222 262 319
#     4  10  21  36  57  82 110 137 180 226 264 317
#     4   9  20  36  56  78 108 139 179 220 267 314
#     4   8  20  36  56  80 112 136 180 228 262 316
#
# _framework density 21.842305
#
# number of rings (size 3 to 8) (size 9 to 14) (size 15 to 20)
#    0.571    1.714    0.000    1.714    2.667    3.429 
#    0.000    0.476    0.000    0.000    0.000    0.000 
#    0.000    0.000    0.000    0.000    0.000    0.000 
#
# Total GULP energy -116933.677303 kJ/mol
# GULP energy per Si atom -5568.270348 kJ/mol
# Density = 2.179259 g / cm^3
# Si number density = 21.842305 Si / 1000 Ang^3
#
#
#
# Elastic Constant Matrix: (Units=GPa)
#
#
# Indices 1 2 3 4 5 6 
#
# 1 229.7883 5.9786 78.9107 0.0000 -1.5415 0.0000
# 2 5.9786 46.8620 -11.1015 0.0000 3.5565 0.0000
# 3 78.9107 -11.1015 116.6985 0.0000 14.4934 0.0000
# 4 0.0000 0.0000 0.0000 24.2796 0.0000 -7.9878
# 5 -1.5415 3.5565 14.4934 0.0000 28.6059 0.0000
# 6 0.0000 0.0000 0.0000 -7.9878 0.0000 -6.3454
#
#
#
# Elastic Compliance Matrix: (Units=1/GPa)
#
#
# Indices 1 2 3 4 5 6 
#
# 1 0.006016 -0.002087 -0.004630 0.000000 0.002930 0.000000
# 2 -0.002087 0.022997 0.004234 0.000000 -0.005117 0.000000
# 3 -0.004630 0.004234 0.013018 0.000000 -0.007372 0.000000
# 4 0.000000 0.000000 0.000000 0.029125 0.000000 -0.036663
# 5 0.002930 -0.005117 -0.007372 0.000000 0.039487 0.000000
# 6 0.000000 0.000000 0.000000 -0.036663 0.000000 -0.111441
#
#
# Mechanical properties :
#
#
# Convention : Reuss Voigt Hill
#
# Bulk Modulus (GPa) = 26.97920 60.10271 43.54095
# Shear Modulus (GPa) = 302.62365 30.61209 166.61787
#
# Velocity S-wave (km/s) = 11.78347 3.74773 8.74344
# Velocity P-wave (km/s) = 14.05390 6.80468 11.04119
#
# Compressibility (1/GPa) = 0.03706559
#
# Stress axis : x y z
#
# Youngs Moduli (GPa) = 166.22866 43.48418 76.81486
#
# Poissons Ratio (x) = 0.09074 0.35567
# Poissons Ratio (y) = 0.34687 -0.32525
# Poissons Ratio (z) = 0.76967 -0.18412
#
# Static dielectric constant tensor:
#      x y z
#    x 1.819720 0.000000 0.040000 
#    y 0.000000 2.020180 0.000000 
#    z 0.040000 0.000000 1.751470 
# 
# From -- ./inp_files/108296.got.cif
#   From: 2010.05.17/outbox.cif.g08.bks.cpg/sg12_55_cif.got.tgz:108296.got - 2010.06.03 13:09:07.
