data_PCOD9206103
_publ_section_title
;
Structure prediction by ZEFSAII (Michael W. Deem and Ramdas Pophale) SiO2 
 PCOD9206103
Probable space group: C 2/M
;
_chemical_formula_sum "Si O2"
_cell_formula_units_Z 48
_cell_length_a 13.391675
_cell_length_b 32.036946
_cell_length_c 9.755031
_cell_angle_alpha 90.000000
_cell_angle_beta 33.882005
_cell_angle_gamma 90.000000
_cell_volume 2333.175361
_symmetry_space_group_name_H-M "C 2/M"
_symmetry_group_IT_number 12
_symmetry_cell_setting 'monoclinic'
loop_
_space_group_symop_operation_xyz
x,y,z
-x,y,-z
-x,-y,-z
x,-y,z
1/2+x,1/2+y,z
1/2-x,1/2+y,-z
1/2-x,1/2-y,-z
1/2+x,1/2-y,z
loop_
_atom_site_type_symbol
_atom_site_label
_atom_site_fract_x
_atom_site_fract_y
_atom_site_fract_z
Si Si1 0.216465 0.850849 0.261284
Si Si2 0.312934 0.829108 0.652291
Si Si3 0.263745 0.391447 0.495827
Si Si4 0.719628 0.547885 0.759197
Si Si5 0.818675 0.884962 0.984259
Si Si6 0.702949 0.758254 0.715761
O O1 0.299141 0.881981 0.279756
O O2 0.274547 0.865886 0.043831
O O3 0.253831 0.804025 0.273187
O O4 0.000000 0.853064 0.500000
O O5 0.500000 0.844616 0.500000
O O6 0.276169 0.849839 0.547720
O O7 0.310996 0.779728 0.658607
O O8 0.168030 0.847856 0.920616
O O9 0.208426 0.429234 0.459679
O O10 0.476827 0.397450 0.275647
O O11 0.773906 0.500000 0.708514
O O12 0.500000 0.549129 0.000000
O O13 0.767902 0.576269 0.835733
O O14 0.750000 0.750000 0.500000
O O15 0.500000 0.750866 0.000000
#
# Coordination Sequence:
#
# PCOD9206103 Si02
#       6
#     8   8   8   8   8   8
#     4  10  21  36  56  79 112 152 198 240 296 342
#     4  11  22  36  57  79 109 148 197 237 290 341
#     4   9  17  35  54  78 111 146 190 235 290 345
#     4   8  14  28  53  82 111 145 186 232 288 349
#     4   9  19  33  56  80 108 151 186 241 286 352
#     4  12  26  41  61  83 118 158 200 251 295 346
#
# _framework density 20.572821999999999
#
# number of rings (size 3 to 8) (size 9 to 14) (size 15 to 20)
#    0.000    2.167    1.667    3.000    4.667    0.667 
#    0.000    0.833    0.000   13.000    0.000    0.000 
#    0.000   12.000    0.000    0.000    0.000    0.000 
#
# Total GULP energy -133658.219055 kJ/mol
# GULP energy per Si atom -5569.092461 kJ/mol
# Density = 2.052600 g / cm^3
# Si number density = 20.572822 Si / 1000 Ang^3
#
#
#
# Elastic Constant Matrix: (Units=GPa)
#
#
# Indices 1 2 3 4 5 6 
#
# 1 92.4525 50.3379 50.4234 0.0000 32.0608 0.0000
# 2 50.3379 166.6733 37.0714 0.0000 34.4337 0.0000
# 3 50.4234 37.0714 78.0447 0.0000 25.5920 0.0000
# 4 0.0000 0.0000 0.0000 7.2647 0.0000 1.4871
# 5 32.0608 34.4337 25.5920 0.0000 45.6605 0.0000
# 6 0.0000 0.0000 0.0000 1.4871 0.0000 21.9075
#
#
#
# Elastic Compliance Matrix: (Units=1/GPa)
#
#
# Indices 1 2 3 4 5 6 
#
# 1 0.019512 -0.002459 -0.009255 0.000000 -0.006659 0.000000
# 2 -0.002459 0.007676 -0.000889 0.000000 -0.003564 0.000000
# 3 -0.009255 -0.000889 0.020661 0.000000 -0.004412 0.000000
# 4 0.000000 0.000000 0.000000 0.139592 0.000000 -0.009476
# 5 -0.006659 -0.003564 -0.004412 0.000000 0.031737 0.000000
# 6 0.000000 0.000000 0.000000 -0.009476 0.000000 0.046290
#
#
# Mechanical properties :
#
#
# Convention : Reuss Voigt Hill
#
# Bulk Modulus (GPa) = 44.16040 68.09288 56.12664
# Shear Modulus (GPa) = 16.76602 28.25570 22.51086
#
# Velocity S-wave (km/s) = 2.85785 3.71003 3.31146
# Velocity P-wave (km/s) = 5.69225 7.17793 6.47782
#
# Compressibility (1/GPa) = 0.02264472
#
# Stress axis : x y z
#
# Youngs Moduli (GPa) = 51.25091 130.26896 48.39921
#
# Poissons Ratio (x) = 0.32029 0.44793
# Poissons Ratio (y) = 0.12601 0.04303
# Poissons Ratio (z) = 0.47432 0.11581
#
# Static dielectric constant tensor:
#      x y z
#    x 1.829700 0.000000 -0.000770 
#    y 0.000000 1.712070 0.000000 
#    z -0.000770 0.000000 1.885290 
# 
# From -- ./inp_files/68021.got.cif
#   From: 2010.05.17/outbox.cif.g08.bks.cpg/sg12_35_cif.got.tgz:68021.got - 2010.06.03 13:09:07.
