data_PCOD9206438
_publ_section_title
;
Structure prediction by ZEFSAII (Michael W. Deem and Ramdas Pophale) SiO2 
 PCOD9206438
Probable space group: C 2/M
;
_chemical_formula_sum "Si O2"
_cell_formula_units_Z 56
_cell_length_a 24.160702
_cell_length_b 7.679849
_cell_length_c 16.344552
_cell_angle_alpha 90.000000
_cell_angle_beta 58.073025
_cell_angle_gamma 90.000000
_cell_volume 2573.956019
_symmetry_space_group_name_H-M "C 2/M"
_symmetry_group_IT_number 12
_symmetry_cell_setting 'monoclinic'
loop_
_space_group_symop_operation_xyz
x,y,z
-x,y,-z
-x,-y,-z
x,-y,z
1/2+x,1/2+y,z
1/2-x,1/2+y,-z
1/2-x,1/2-y,-z
1/2+x,1/2-y,z
loop_
_atom_site_type_symbol
_atom_site_label
_atom_site_fract_x
_atom_site_fract_y
_atom_site_fract_z
Si Si1 0.148539 0.798007 0.530558
Si Si2 0.796153 0.791896 0.887166
Si Si3 0.447995 0.213528 0.971928
Si Si4 0.713568 0.706464 0.643337
Si Si5 0.689288 0.790461 0.847056
Si Si6 0.487828 0.199759 0.420822
Si Si7 0.054959 0.297681 0.207575
O O1 0.214983 0.785104 0.426924
O O2 0.166902 0.729736 0.606690
O O3 0.088810 0.700413 0.536934
O O4 0.129445 0.000000 0.551747
O O5 0.755241 0.729690 0.840208
O O6 0.867074 0.711097 0.843310
O O7 0.805009 0.000000 0.875174
O O8 0.750000 0.750000 0.000000
O O9 0.462399 0.275490 0.868456
O O10 0.465897 0.000000 0.778665
O O11 0.500000 0.266452 0.000000
O O12 0.375601 0.270375 0.055489
O O13 0.720352 0.500000 0.625910
O O14 0.687861 0.742238 0.753448
O O15 0.689425 0.000000 0.852719
O O16 0.500000 0.281977 0.500000
O O17 0.522249 0.280921 0.314142
O O18 0.512834 0.000000 0.406633
O O19 0.947750 0.500000 0.970452
#
# Coordination Sequence:
#
# PCOD9206438 Si02
#       7
#     8   8   8   8   8   8   8
#     4  10  22  41  62  86 118 154 196 244 297 354
#     4  11  22  38  59  85 118 153 194 241 289 344
#     4   9  18  34  57  85 115 152 195 234 281 346
#     4  10  22  39  61  88 118 152 195 244 297 352
#     4  10  21  36  58  88 118 149 196 241 288 353
#     4  10  23  40  60  89 120 155 200 245 294 352
#     4  10  21  39  60  84 117 156 196 242 291 346
#
# _framework density 21.756394
#
# number of rings (size 3 to 8) (size 9 to 14) (size 15 to 20)
#    0.000    2.000    1.429    1.286    4.000    3.714 
#    0.000    0.000    0.000    0.857    0.000    0.000 
#    0.000    0.000    0.000    0.000    0.000    0.000 
#
# Total GULP energy -156423.778472 kJ/mol
# GULP energy per Si atom -5586.563517 kJ/mol
# Density = 2.170688 g / cm^3
# Si number density = 21.756394 Si / 1000 Ang^3
#
#
#
# Elastic Constant Matrix: (Units=GPa)
#
#
# Indices 1 2 3 4 5 6 
#
# 1 126.5467 -2.1517 62.7179 0.0001 21.0604 0.0001
# 2 -2.1517 41.2939 1.2851 0.0002 3.1560 -0.0001
# 3 62.7179 1.2851 161.4788 0.0000 40.1361 0.0000
# 4 0.0001 0.0002 0.0000 15.9351 0.0000 -1.5851
# 5 21.0604 3.1560 40.1361 0.0000 24.0252 0.0001
# 6 0.0001 -0.0001 0.0000 -1.5851 0.0001 14.8885
#
#
#
# Elastic Compliance Matrix: (Units=1/GPa)
#
#
# Indices 1 2 3 4 5 6 
#
# 1 0.010029 0.000925 -0.002885 0.000000 -0.004093 0.000000
# 2 0.000925 0.024649 0.000771 0.000000 -0.005337 0.000000
# 3 -0.002885 0.000771 0.011464 0.000000 -0.016724 0.000000
# 4 0.000000 0.000000 0.000000 0.063426 0.000000 0.006753
# 5 -0.004093 -0.005337 -0.016724 0.000000 0.073850 0.000000
# 6 0.000000 0.000000 0.000000 0.006753 0.000000 0.067885
#
#
# Mechanical properties :
#
#
# Convention : Reuss Voigt Hill
#
# Bulk Modulus (GPa) = 22.85007 50.33579 36.59293
# Shear Modulus (GPa) = 18.63801 28.80097 23.71949
#
# Velocity S-wave (km/s) = 2.93007 3.64234 3.30545
# Velocity P-wave (km/s) = 4.68749 6.39337 5.60570
#
# Compressibility (1/GPa) = 0.04376354
#
# Stress axis : x y z
#
# Youngs Moduli (GPa) = 99.70977 40.57000 87.22961
#
# Poissons Ratio (x) = -0.03753 0.25169
# Poissons Ratio (y) = -0.09225 -0.06726
# Poissons Ratio (z) = 0.28770 -0.03128
#
# Static dielectric constant tensor:
#      x y z
#    x 1.814800 0.000000 0.050080 
#    y 0.000000 1.831900 0.000000 
#    z 0.050080 0.000000 1.786330 
# 
# From -- ./inp_files/238392.got.cif
#   From: 2010.05.17/outbox.cif.g08.bks.cpg/sg12_120_cif.got.tgz:238392.got - 2010.06.03 13:09:07.
