data_PCOD9206397
_publ_section_title
;
Structure prediction by ZEFSAII (Michael W. Deem and Ramdas Pophale) SiO2 
 PCOD9206397
Probable space group: C 2/M
;
_chemical_formula_sum "Si O2"
_cell_formula_units_Z 56
_cell_length_a 19.435153
_cell_length_b 8.380728
_cell_length_c 18.459698
_cell_angle_alpha 90.000000
_cell_angle_beta 125.712286
_cell_angle_gamma 90.000000
_cell_volume 2441.338888
_symmetry_space_group_name_H-M "C 2/M"
_symmetry_group_IT_number 12
_symmetry_cell_setting 'monoclinic'
loop_
_space_group_symop_operation_xyz
x,y,z
-x,y,-z
-x,-y,-z
x,-y,z
1/2+x,1/2+y,z
1/2-x,1/2+y,-z
1/2-x,1/2-y,-z
1/2+x,1/2-y,z
loop_
_atom_site_type_symbol
_atom_site_label
_atom_site_fract_x
_atom_site_fract_y
_atom_site_fract_z
Si Si1 0.068191 0.309376 0.317243
Si Si2 0.676420 0.312871 0.505524
Si Si3 0.208634 0.810212 0.108411
Si Si4 0.589884 0.694821 0.590214
Si Si5 0.965477 0.818992 0.060560
Si Si6 0.609317 0.310122 0.767740
Si Si7 0.135643 0.683859 0.213014
O O1 0.076996 0.500000 0.329836
O O2 0.092613 0.223589 0.406834
O O3 0.133757 0.255670 0.294550
O O4 0.970958 0.265891 0.241913
O O5 0.688878 0.500000 0.520268
O O6 0.750000 0.250000 0.500000
O O7 0.661060 0.249161 0.576893
O O8 0.298690 0.734366 0.146037
O O9 0.183388 0.768166 0.176344
O O10 0.213595 0.000000 0.105822
O O11 0.130449 0.759770 0.008640
O O12 0.500000 0.742339 0.500000
O O13 0.590785 0.500000 0.592112
O O14 0.605140 0.748264 0.681347
O O15 0.035032 0.700648 0.135102
O O16 0.967733 0.000000 0.094422
O O17 0.000000 0.838356 0.000000
O O18 0.599492 0.500000 0.762507
O O19 0.163198 0.500000 0.229487
#
# Coordination Sequence:
#
# PCOD9206397 Si02
#       7
#     8   8   8   8   8   8   8
#     4  11  24  41  57  82 119 154 189 237 289 335
#     4  11  23  40  61  85 115 150 189 237 287 339
#     4  10  21  37  58  87 119 148 185 236 286 338
#     4   9  18  37  60  81 109 146 186 231 281 329
#     4   8  16  33  56  82 114 148 183 231 287 336
#     4  11  22  38  61  85 112 152 194 234 285 341
#     4  10  21  36  58  85 115 151 191 236 284 335
#
# _framework density 22.938234000000001
#
# number of rings (size 3 to 8) (size 9 to 14) (size 15 to 20)
#    0.000    2.000    1.429    3.000    2.000    5.429 
#    0.000    3.571    0.000    0.000    0.000    0.000 
#    0.000    0.000    0.000    0.000    0.000    0.000 
#
# Total GULP energy -156383.023760 kJ/mol
# GULP energy per Si atom -5585.107991 kJ/mol
# Density = 2.288603 g / cm^3
# Si number density = 22.938234 Si / 1000 Ang^3
#
#
#
# Elastic Constant Matrix: (Units=GPa)
#
#
# Indices 1 2 3 4 5 6 
#
# 1 102.0539 5.8615 0.0025 0.0000 13.8712 0.0000
# 2 5.8615 22.1100 -8.9879 0.0000 -3.6789 0.0000
# 3 0.0025 -8.9879 24.5520 0.0000 16.6873 0.0000
# 4 0.0000 0.0000 0.0000 22.3307 0.0000 8.6639
# 5 13.8712 -3.6789 16.6873 0.0000 40.6151 0.0000
# 6 0.0000 0.0000 0.0000 8.6639 0.0000 27.5493
#
#
#
# Elastic Compliance Matrix: (Units=1/GPa)
#
#
# Indices 1 2 3 4 5 6 
#
# 1 0.010606 -0.002684 0.002280 0.000000 -0.004802 0.000000
# 2 -0.002684 0.054391 0.022116 0.000000 -0.003243 0.000000
# 3 0.002280 0.022116 0.066588 0.000000 -0.026134 0.000000
# 4 0.000000 0.000000 0.000000 0.051005 0.000000 -0.016040
# 5 -0.004802 -0.003243 -0.026134 0.000000 0.036705 0.000000
# 6 0.000000 0.000000 0.000000 -0.016040 0.000000 0.041343
#
#
# Mechanical properties :
#
#
# Convention : Reuss Voigt Hill
#
# Bulk Modulus (GPa) = 5.71398 15.82978 10.77188
# Shear Modulus (GPa) = 18.14558 28.22165 23.18362
#
# Velocity S-wave (km/s) = 2.81563 3.51141 3.18260
# Velocity P-wave (km/s) = 3.61481 4.83281 4.26749
#
# Compressibility (1/GPa) = 0.17500932
#
# Stress axis : x y z
#
# Youngs Moduli (GPa) = 94.29045 18.38553 15.01765
#
# Poissons Ratio (x) = 0.04934 -0.03424
# Poissons Ratio (y) = 0.25304 -0.33213
# Poissons Ratio (z) = -0.21501 -0.40661
#
# Static dielectric constant tensor:
#      x y z
#    x 1.878240 0.000000 0.008590 
#    y 0.000000 1.787400 0.000000 
#    z 0.008590 0.000000 1.975420 
# 
# From -- ./inp_files/320244.got.cif
#   From: 2010.05.17/outbox.cif.g08.bks.cpg/sg12_161_cif.got.tgz:320244.got - 2010.06.03 13:09:07.
