data_PCOD9206623
_publ_section_title
;
Structure prediction by ZEFSAII (Michael W. Deem and Ramdas Pophale) SiO2 
 PCOD9206623
Probable space group: C 2/M
;
_chemical_formula_sum "Si O2"
_cell_formula_units_Z 56
_cell_length_a 23.731245
_cell_length_b 14.333067
_cell_length_c 18.881717
_cell_angle_alpha 90.000000
_cell_angle_beta 29.631874
_cell_angle_gamma 90.000000
_cell_volume 3175.425994
_symmetry_space_group_name_H-M "C 2/M"
_symmetry_group_IT_number 12
_symmetry_cell_setting 'monoclinic'
loop_
_space_group_symop_operation_xyz
x,y,z
-x,y,-z
-x,-y,-z
x,-y,z
1/2+x,1/2+y,z
1/2-x,1/2+y,-z
1/2-x,1/2-y,-z
1/2+x,1/2-y,z
loop_
_atom_site_type_symbol
_atom_site_label
_atom_site_fract_x
_atom_site_fract_y
_atom_site_fract_z
Si Si1 0.026478 0.236568 0.661780
Si Si2 0.284949 0.734739 0.133706
Si Si3 0.248238 0.798638 0.326880
Si Si4 0.470818 0.794827 0.182589
Si Si5 0.481579 0.000000 0.902480
Si Si6 0.819739 0.890634 0.851599
Si Si7 0.691482 0.000000 0.783992
Si Si8 0.658364 0.891265 0.165072
O O1 0.139169 0.225539 0.492600
O O2 0.052883 0.249453 0.715775
O O3 0.941996 0.149392 0.741626
O O4 0.952466 0.326578 0.719654
O O5 0.259390 0.736277 0.244559
O O6 0.225096 0.824577 0.162095
O O7 0.233805 0.647234 0.147579
O O8 0.419314 0.747045 0.973016
O O9 0.362106 0.790576 0.250049
O O10 0.242386 0.905298 0.304845
O O11 0.505601 0.904196 0.154066
O O12 0.584788 0.000000 0.846056
O O13 0.367514 0.000000 0.074472
O O14 0.824652 0.000000 0.829282
O O15 0.733418 0.877005 0.011918
O O16 0.632226 0.000000 0.200317
#
# Coordination Sequence:
#
# PCOD9206623 Si02
#       8
#     8   8   8   8   4   8   4   8
#     4  11  22  39  58  87 119 157 194 238 302 354
#     4  11  20  37  61  88 114 152 195 241 297 345
#     4  11  24  35  56  89 130 153 186 236 304 363
#     4  11  20  37  60  87 120 160 195 236 283 360
#     4   9  18  30  58  87 110 155 201 227 272 338
#     4  10  21  36  60  88 112 148 196 248 295 350
#     4   9  18  34  50  86 125 153 180 227 293 355
#     4  10  21  40  64  83 104 151 210 255 282 330
#
# _framework density 17.635429999999999
#
# number of rings (size 3 to 8) (size 9 to 14) (size 15 to 20)
#    0.000    1.571    4.286    1.714    4.000    2.286 
#    0.000    2.143    0.000    3.429    0.000    0.000 
#    0.000    0.000    0.000    0.000    0.000    0.000 
#
# Total GULP energy -156397.418590 kJ/mol
# GULP energy per Si atom -5585.622092 kJ/mol
# Density = 1.759529 g / cm^3
# Si number density = 17.635430 Si / 1000 Ang^3
#
#
#
# Elastic Constant Matrix: (Units=GPa)
#
#
# Indices 1 2 3 4 5 6 
#
# 1 98.9172 26.3367 55.3648 0.0000 4.1422 0.0000
# 2 26.3367 61.4349 23.6434 0.0000 2.5922 0.0000
# 3 55.3648 23.6434 93.4046 0.0000 22.6560 0.0000
# 4 0.0000 0.0000 0.0000 16.0580 0.0000 -0.8665
# 5 4.1422 2.5922 22.6560 0.0000 24.3279 0.0000
# 6 0.0000 0.0000 0.0000 -0.8665 0.0000 23.1002
#
#
#
# Elastic Compliance Matrix: (Units=1/GPa)
#
#
# Indices 1 2 3 4 5 6 
#
# 1 0.016833 -0.003301 -0.011022 0.000000 0.007750 0.000000
# 2 -0.003301 0.018854 -0.003184 0.000000 0.001518 0.000000
# 3 -0.011022 -0.003184 0.022616 0.000000 -0.018846 0.000000
# 4 0.000000 0.000000 0.000000 0.062400 0.000000 0.002341
# 5 0.007750 0.001518 -0.018846 0.000000 0.057175 0.000000
# 6 0.000000 0.000000 0.000000 0.002341 0.000000 0.043378
#
#
# Mechanical properties :
#
#
# Convention : Reuss Voigt Hill
#
# Bulk Modulus (GPa) = 42.93824 51.60516 47.27170
# Shear Modulus (GPa) = 18.93706 22.59135 20.76421
#
# Velocity S-wave (km/s) = 3.28046 3.58302 3.43507
# Velocity P-wave (km/s) = 6.22488 6.81492 6.52657
#
# Compressibility (1/GPa) = 0.02328926
#
# Stress axis : x y z
#
# Youngs Moduli (GPa) = 59.40777 53.03933 44.21597
#
# Poissons Ratio (x) = 0.17510 0.48733
# Poissons Ratio (y) = 0.19613 0.14078
# Poissons Ratio (z) = 0.65477 0.16887
#
# Static dielectric constant tensor:
#      x y z
#    x 1.612460 0.000000 -0.011710 
#    y 0.000000 1.600430 0.000000 
#    z -0.011710 0.000000 1.570050 
# 
# From -- ./inp_files/284548.got.cif
#   From: 2010.05.17/outbox.cif.g08.bks.cpg/sg12_143_cif.got.tgz:284548.got - 2010.06.03 13:09:07.
