data_PCOD9206086
_publ_section_title
;
Structure prediction by ZEFSAII (Michael W. Deem and Ramdas Pophale) SiO2 
 PCOD9206086
Probable space group: C 2/M
;
_chemical_formula_sum "Si O2"
_cell_formula_units_Z 64
_cell_length_a 9.489923
_cell_length_b 23.672662
_cell_length_c 31.812213
_cell_angle_alpha 90.000000
_cell_angle_beta 151.514180
_cell_angle_gamma 90.000000
_cell_volume 3408.541236
_symmetry_space_group_name_H-M "C 2/M"
_symmetry_group_IT_number 12
_symmetry_cell_setting 'monoclinic'
loop_
_space_group_symop_operation_xyz
x,y,z
-x,y,-z
-x,-y,-z
x,-y,z
1/2+x,1/2+y,z
1/2-x,1/2+y,-z
1/2-x,1/2-y,-z
1/2+x,1/2-y,z
loop_
_atom_site_type_symbol
_atom_site_label
_atom_site_fract_x
_atom_site_fract_y
_atom_site_fract_z
Si Si1 0.717318 0.561664 0.456231
Si Si2 0.875361 0.186008 0.267653
Si Si3 0.867038 0.835089 0.508066
Si Si4 0.601659 0.565489 0.074617
Si Si5 0.153643 0.279171 0.920235
Si Si6 0.634153 0.256586 0.644152
Si Si7 0.759791 0.659006 0.972235
Si Si8 0.190444 0.063579 0.728437
O O1 0.704099 0.500000 0.473591
O O2 0.752239 0.613521 0.496211
O O3 0.429492 0.567348 0.350804
O O4 0.000000 0.561986 0.500000
O O5 0.536256 0.194306 0.166227
O O6 0.914209 0.212416 0.324211
O O7 0.944292 0.119281 0.285175
O O8 0.066846 0.221656 0.284655
O O9 0.623800 0.788775 0.431830
O O10 0.000000 0.857223 0.500000
O O11 0.103015 0.802804 0.599188
O O12 0.513966 0.500000 0.058751
O O13 0.439069 0.607890 0.063650
O O14 0.955643 0.568127 0.173606
O O15 0.500000 0.579484 0.000000
O O16 0.081823 0.212949 0.907365
O O17 0.500000 0.282127 0.000000
O O18 0.094293 0.313106 0.947697
O O19 0.000000 0.642772 0.000000
O O20 0.104722 0.000000 0.720810
#
# Coordination Sequence:
#
# PCOD9206086 Si02
#       8
#     8   8   8   8   8   8   8   8
#     4  10  21  38  64  89 115 160 204 245 300 359
#     4  12  23  39  61  91 121 155 206 246 300 362
#     4  11  22  41  57  86 126 150 195 244 310 355
#     4  10  21  39  63  87 116 162 208 246 294 353
#     4  10  23  38  57  84 122 165 196 242 299 357
#     4  11  25  37  59  91 115 161 189 253 301 360
#     4  10  21  36  55  86 119 160 194 249 300 350
#     4  10  21  37  61  90 116 154 204 249 288 350
#
# _framework density 18.77636
#
# number of rings (size 3 to 8) (size 9 to 14) (size 15 to 20)
#    0.000    1.500    2.500    2.625    7.000    1.000 
#    0.000    0.000    0.000    0.000    0.000    0.000 
#    0.000    0.000    0.000    0.000    0.000    0.000 
#
# Total GULP energy -178562.517356 kJ/mol
# GULP energy per Si atom -5580.078667 kJ/mol
# Density = 1.873362 g / cm^3
# Si number density = 18.776360 Si / 1000 Ang^3
#
#
#
# Elastic Constant Matrix: (Units=GPa)
#
#
# Indices 1 2 3 4 5 6 
#
# 1 68.8102 35.5530 12.3653 0.0173 -0.4287 0.0109
# 2 35.5530 143.1035 17.5359 0.0190 -1.8803 0.0045
# 3 12.3653 17.5359 70.2205 0.0950 -7.1978 0.0034
# 4 0.0173 0.0190 0.0950 -4.8482 0.0146 -0.0098
# 5 -0.4287 -1.8803 -7.1978 0.0146 20.9548 0.0072
# 6 0.0109 0.0045 0.0034 -0.0098 0.0072 27.1687
#
#
#
# Elastic Compliance Matrix: (Units=1/GPa)
#
#
# Indices 1 2 3 4 5 6 
#
# 1 0.016950 -0.003967 -0.002068 0.000002 -0.000719 -0.000006
# 2 -0.003967 0.008137 -0.001313 -0.000007 0.000198 0.000000
# 3 -0.002068 -0.001313 0.015460 0.000306 0.005150 -0.000002
# 4 0.000002 -0.000007 0.000306 -0.206254 0.000248 -0.000075
# 5 -0.000719 0.000198 0.005150 0.000248 0.049494 -0.000013
# 6 -0.000006 0.000000 -0.000002 -0.000075 -0.000013 0.036807
#
#
# Mechanical properties :
#
#
# Convention : Reuss Voigt Hill
#
# Bulk Modulus (GPa) = 38.68319 45.89362 42.28841
# Shear Modulus (GPa) = -89.13740 23.10038 -33.01851
#
# Velocity S-wave (km/s) = -6.89755 3.51135 -4.19801
# Velocity P-wave (km/s) = 6.54127 6.39803 0.96266
#
# Compressibility (1/GPa) = 0.02585102
#
# Stress axis : x y z
#
# Youngs Moduli (GPa) = 58.99868 122.89461 64.68142
#
# Poissons Ratio (x) = 0.48753 0.13374
# Poissons Ratio (y) = 0.23405 0.08494
# Poissons Ratio (z) = 0.12199 0.16138
#
# Static dielectric constant tensor:
#      x y z
#    x 1.636770 0.000000 0.008600 
#    y 0.000000 1.675690 0.000000 
#    z 0.008600 0.000000 1.681340 
# 
# From -- ./inp_files/373299.got.cif
#   From: 2010.05.17/outbox.cif.g08.bks.cpg/sg12_187_cif.got.tgz:373299.got - 2010.06.03 13:09:07.
