data_PCOD9206028
_publ_section_title
;
Structure prediction by ZEFSAII (Michael W. Deem and Ramdas Pophale) SiO2 
 PCOD9206028
Probable space group: C 2/M
;
_chemical_formula_sum "Si O2"
_cell_formula_units_Z 64
_cell_length_a 9.643939
_cell_length_b 26.018116
_cell_length_c 32.927647
_cell_angle_alpha 90.000000
_cell_angle_beta 152.273851
_cell_angle_gamma 90.000000
_cell_volume 3843.914499
_symmetry_space_group_name_H-M "C 2/M"
_symmetry_group_IT_number 12
_symmetry_cell_setting 'monoclinic'
loop_
_space_group_symop_operation_xyz
x,y,z
-x,y,-z
-x,-y,-z
x,-y,z
1/2+x,1/2+y,z
1/2-x,1/2+y,-z
1/2-x,1/2-y,-z
1/2+x,1/2-y,z
loop_
_atom_site_type_symbol
_atom_site_label
_atom_site_fract_x
_atom_site_fract_y
_atom_site_fract_z
Si Si1 0.163256 0.689636 0.893770
Si Si2 0.870440 0.561469 0.677715
Si Si3 0.174082 0.562046 0.504715
Si Si4 0.238704 0.126351 0.836771
Si Si5 0.677524 0.559858 0.003390
Si Si6 0.674184 0.061371 0.668194
Si Si7 0.755810 0.127127 0.840890
Si Si8 0.830591 0.191599 0.103900
O O1 0.104526 0.650941 0.841496
O O2 0.138383 0.749176 0.875574
O O3 0.910974 0.673666 0.860253
O O4 0.500000 0.682646 0.000000
O O5 0.903206 0.500000 0.695403
O O6 0.522546 0.575800 0.592348
O O7 0.989024 0.568439 0.662228
O O8 0.054580 0.596533 0.756839
O O9 0.168642 0.500000 0.505486
O O10 0.000000 0.581028 0.500000
O O11 0.012737 0.575048 0.420520
O O12 0.129813 0.150219 0.850576
O O13 0.965006 0.097286 0.744914
O O14 0.499659 0.084834 0.909739
O O15 0.698868 0.500000 0.000622
O O16 0.499539 0.587953 0.921739
O O17 0.500000 0.566313 0.000000
O O18 0.749472 0.000000 0.685638
O O19 0.927663 0.175529 0.866479
O O20 0.500000 0.185768 0.000000
#
# Coordination Sequence:
#
# PCOD9206028 Si02
#       8
#     8   8   8   8   8   8   8   8
#     4  11  22  38  56  77 108 149 193 242 287 317
#     4  10  21  36  55  81 116 150 180 221 273 330
#     4   9  19  35  57  85 110 141 184 226 266 320
#     4  12  20  37  53  82 109 148 187 225 280 333
#     4  11  22  35  50  76 115 154 187 221 270 327
#     4  10  21  36  55  81 116 150 180 221 273 330
#     4  12  20  37  53  82 109 148 187 225 280 333
#     4  11  22  36  58  79 108 143 191 248 279 319
#
# _framework density 16.649694
#
# number of rings (size 3 to 8) (size 9 to 14) (size 15 to 20)
#    0.000    1.250    5.000    1.875    1.750    3.500 
#    0.000    0.625    0.000    0.000    0.000    5.250 
#    0.000    0.000    0.000    0.000    0.000    0.000 
#
# Total GULP energy -178460.195865 kJ/mol
# GULP energy per Si atom -5576.881121 kJ/mol
# Density = 1.661180 g / cm^3
# Si number density = 16.649694 Si / 1000 Ang^3
#
#
#
# Elastic Constant Matrix: (Units=GPa)
#
#
# Indices 1 2 3 4 5 6 
#
# 1 53.8557 8.4429 35.8041 -0.0070 -2.4870 -0.0038
# 2 8.4429 78.2098 39.2307 -0.0054 -1.9103 -0.0043
# 3 35.8041 39.2307 131.4886 -0.0026 -0.9218 0.0029
# 4 -0.0070 -0.0054 -0.0026 6.9286 -0.0059 -8.0346
# 5 -2.4870 -1.9103 -0.9218 -0.0059 25.8218 0.0020
# 6 -0.0038 -0.0043 0.0029 -8.0346 0.0020 36.2357
#
#
#
# Elastic Compliance Matrix: (Units=1/GPa)
#
#
# Indices 1 2 3 4 5 6 
#
# 1 0.022817 0.000818 -0.006443 0.000036 0.002028 0.000011
# 2 0.000818 0.015089 -0.004718 0.000019 0.001027 0.000006
# 3 -0.006443 -0.004718 0.010763 -0.000012 -0.000585 -0.000005
# 4 0.000036 0.000019 -0.000012 0.194286 0.000046 0.043079
# 5 0.002028 0.001027 -0.000585 0.000046 0.038977 0.000008
# 6 0.000011 0.000006 -0.000005 0.043079 0.000008 0.037149
#
#
# Mechanical properties :
#
#
# Convention : Reuss Voigt Hill
#
# Bulk Modulus (GPa) = 35.73394 47.83440 41.78417
# Shear Modulus (GPa) = 14.32275 25.80231 20.06253
#
# Velocity S-wave (km/s) = 2.93617 3.94091 3.47505
# Velocity P-wave (km/s) = 5.74488 7.03562 6.42276
#
# Compressibility (1/GPa) = 0.02798460
#
# Stress axis : x y z
#
# Youngs Moduli (GPa) = 43.82721 66.27234 92.91051
#
# Poissons Ratio (x) = -0.05423 0.59861
# Poissons Ratio (y) = -0.03586 0.43831
# Poissons Ratio (z) = 0.28237 0.31265
#
# Static dielectric constant tensor:
#      x y z
#    x 1.561500 -0.000010 -0.009850 
#    y -0.000010 1.537600 -0.000010 
#    z -0.009850 -0.000010 1.531620 
# 
# From -- ./inp_files/199809.got.cif
#   From: 2010.05.17/outbox.cif.g08.bks.cpg/sg12_100_cif.got.tgz:199809.got - 2010.06.03 13:09:07.
