data_PCOD9206527
_publ_section_title
;
Structure prediction by ZEFSAII (Michael W. Deem and Ramdas Pophale) SiO2 
 PCOD9206527
Probable space group: C 2/M
;
_chemical_formula_sum "Si O2"
_cell_formula_units_Z 48
_cell_length_a 22.591872
_cell_length_b 8.846354
_cell_length_c 12.616651
_cell_angle_alpha 90.000000
_cell_angle_beta 72.704354
_cell_angle_gamma 90.000000
_cell_volume 2407.495479
_symmetry_space_group_name_H-M "C 2/M"
_symmetry_group_IT_number 12
_symmetry_cell_setting 'monoclinic'
loop_
_space_group_symop_operation_xyz
x,y,z
-x,y,-z
-x,-y,-z
x,-y,z
1/2+x,1/2+y,z
1/2-x,1/2+y,-z
1/2-x,1/2-y,-z
1/2+x,1/2-y,z
loop_
_atom_site_type_symbol
_atom_site_label
_atom_site_fract_x
_atom_site_fract_y
_atom_site_fract_z
Si Si1 0.250650 0.177324 0.832611
Si Si2 0.918455 0.319698 0.256131
Si Si3 0.893376 0.817905 0.051072
Si Si4 0.714802 0.679645 0.617554
Si Si5 0.014478 0.183069 0.372101
Si Si6 0.876430 0.818877 0.829795
O O1 0.180174 0.219159 0.899286
O O2 0.254090 0.200627 0.704230
O O3 0.306384 0.262433 0.858757
O O4 0.256997 0.000000 0.852477
O O5 0.920163 0.500000 0.256336
O O6 0.927340 0.259251 0.131294
O O7 0.850892 0.259618 0.328065
O O8 0.966715 0.251340 0.313565
O O9 0.900158 0.000000 0.058783
O O10 0.908890 0.771182 0.922909
O O11 0.704607 0.500000 0.609474
O O12 0.750000 0.750000 0.500000
O O13 0.000000 0.230672 0.500000
O O14 0.082426 0.227573 0.292755
O O15 0.010142 0.000000 0.370663
O O16 0.874585 0.000000 0.833869
#
# Coordination Sequence:
#
# PCOD9206527 Si02
#       6
#     8   8   8   8   8   8
#     4   9  19  34  54  84 120 151 183 234 294 345
#     4  11  23  39  60  86 115 152 196 244 295 347
#     4   9  19  38  60  85 118 153 191 240 296 354
#     4  10  21  37  58  86 118 156 196 239 291 346
#     4  10  23  42  60  82 114 156 199 242 295 351
#     4  10  21  36  59  87 114 154 201 239 289 353
#
# _framework density 19.937733000000001
#
# number of rings (size 3 to 8) (size 9 to 14) (size 15 to 20)
#    0.000    2.167    0.000    3.500    2.333    5.667 
#    0.000    3.333    0.000    0.000    0.000    0.000 
#    0.000    0.000    0.000    0.000    0.000    0.000 
#
# Total GULP energy -134022.205772 kJ/mol
# GULP energy per Si atom -5584.258574 kJ/mol
# Density = 1.989235 g / cm^3
# Si number density = 19.937733 Si / 1000 Ang^3
#
#
#
# Elastic Constant Matrix: (Units=GPa)
#
#
# Indices 1 2 3 4 5 6 
#
# 1 55.5044 15.1577 25.4534 0.0000 23.4148 0.0000
# 2 15.1577 27.6661 37.1942 0.0000 9.1765 0.0000
# 3 25.4534 37.1942 127.6365 0.0000 5.3216 0.0000
# 4 0.0000 0.0000 0.0000 23.8593 0.0000 9.2325
# 5 23.4148 9.1765 5.3216 0.0000 24.3240 0.0000
# 6 0.0000 0.0000 0.0000 9.2325 0.0000 26.3932
#
#
#
# Elastic Compliance Matrix: (Units=1/GPa)
#
#
# Indices 1 2 3 4 5 6 
#
# 1 0.033709 -0.001562 -0.004984 0.000000 -0.030769 0.000000
# 2 -0.001562 0.069446 -0.019070 0.000000 -0.020524 0.000000
# 3 -0.004984 -0.019070 0.014014 0.000000 0.008926 0.000000
# 4 0.000000 0.000000 0.000000 0.048474 0.000000 -0.016956
# 5 -0.030769 -0.020524 0.008926 0.000000 0.076521 0.000000
# 6 0.000000 0.000000 0.000000 -0.016956 0.000000 0.043820
#
#
# Mechanical properties :
#
#
# Convention : Reuss Voigt Hill
#
# Bulk Modulus (GPa) = 15.16604 40.71305 27.93954
# Shear Modulus (GPa) = 13.92005 23.78209 18.85107
#
# Velocity S-wave (km/s) = 2.64517 3.45747 3.07823
# Velocity P-wave (km/s) = 4.11733 6.03351 5.16506
#
# Compressibility (1/GPa) = 0.06593680
#
# Stress axis : x y z
#
# Youngs Moduli (GPa) = 29.66573 14.39964 71.35894
#
# Poissons Ratio (x) = 0.02249 0.35567
# Poissons Ratio (y) = 0.04633 1.36081
# Poissons Ratio (z) = 0.14786 0.27460
#
# Static dielectric constant tensor:
#      x y z
#    x 1.699950 0.000000 -0.023550 
#    y 0.000000 1.665910 0.000000 
#    z -0.023550 0.000000 1.727830 
# 
# From -- ./inp_files/172301.got.cif
#   From: 2010.05.17/outbox.cif.g08.bks.cpg/sg12_87_cif.got.tgz:172301.got - 2010.06.03 13:09:07.
