data_PCOD9206230
_publ_section_title
;
Structure prediction by ZEFSAII (Michael W. Deem and Ramdas Pophale) SiO2 
 PCOD9206230
Probable space group: C 2/M
;
_chemical_formula_sum "Si O2"
_cell_formula_units_Z 64
_cell_length_a 9.428080
_cell_length_b 28.135986
_cell_length_c 15.615251
_cell_angle_alpha 90.000000
_cell_angle_beta 62.781482
_cell_angle_gamma 90.000000
_cell_volume 3683.556383
_symmetry_space_group_name_H-M "C 2/M"
_symmetry_group_IT_number 12
_symmetry_cell_setting 'monoclinic'
loop_
_space_group_symop_operation_xyz
x,y,z
-x,y,-z
-x,-y,-z
x,-y,z
1/2+x,1/2+y,z
1/2-x,1/2+y,-z
1/2-x,1/2-y,-z
1/2+x,1/2-y,z
loop_
_atom_site_type_symbol
_atom_site_label
_atom_site_fract_x
_atom_site_fract_y
_atom_site_fract_z
Si Si1 0.564091 0.342080 0.230429
Si Si2 0.177127 0.052226 0.189461
Si Si3 0.501741 0.905770 0.101428
Si Si4 0.167230 0.054520 0.985411
Si Si5 0.244986 0.802199 0.602651
Si Si6 0.386762 0.809101 0.208636
Si Si7 0.575412 0.202246 0.609690
Si Si8 0.081448 0.223966 0.068199
O O1 0.594741 0.397971 0.234993
O O2 0.386459 0.331931 0.310985
O O3 0.696263 0.312066 0.247572
O O4 0.594838 0.322295 0.125459
O O5 0.359451 0.059774 0.170343
O O6 0.118165 0.000000 0.233661
O O7 0.170856 0.052447 0.087480
O O8 0.675735 0.918117 0.087268
O O9 0.455822 0.851994 0.133688
O O10 0.500000 0.911681 0.000000
O O11 0.176982 0.000000 0.951158
O O12 0.000000 0.075115 0.000000
O O13 0.314084 0.821944 0.493590
O O14 0.399801 0.793222 0.618418
O O15 0.155439 0.753280 0.605033
O O16 0.427817 0.819957 0.295587
O O17 0.468688 0.760900 0.152297
O O18 0.250000 0.250000 0.000000
O O19 0.000000 0.213092 0.000000
#
# Coordination Sequence:
#
# PCOD9206230 Si02
#       8
#     8   8   8   8   8   8   8   8
#     4  11  23  37  56  82 108 147 192 222 276 326
#     4   9  19  35  53  74 102 138 186 236 272 315
#     4   9  18  32  52  72 102 141 183 218 266 320
#     4   9  17  29  46  70  99 131 175 228 273 310
#     4  10  21  37  55  82 106 144 180 223 273 326
#     4  11  22  36  52  78 108 147 185 224 260 325
#     4  10  21  36  57  78 112 141 178 224 271 320
#     4  12  25  37  50  74 116 158 184 216 260 320
#
# _framework density 17.374513
#
# number of rings (size 3 to 8) (size 9 to 14) (size 15 to 20)
#    0.000    1.875    2.500    1.500    5.250    4.500 
#    0.000    0.000    0.000    0.000    0.000    9.625 
#    0.000    0.000    0.000    0.000    0.000    0.000 
#
# Total GULP energy -178349.331886 kJ/mol
# GULP energy per Si atom -5573.416621 kJ/mol
# Density = 1.733497 g / cm^3
# Si number density = 17.374513 Si / 1000 Ang^3
#
#
#
# Elastic Constant Matrix: (Units=GPa)
#
#
# Indices 1 2 3 4 5 6 
#
# 1 129.4489 16.6092 36.2337 0.0000 -9.3271 0.0000
# 2 16.6092 57.7888 8.0153 0.0000 -12.9666 0.0000
# 3 36.2337 8.0153 61.5513 0.0000 -4.7418 0.0000
# 4 0.0000 0.0000 0.0000 7.7993 0.0000 -0.3712
# 5 -9.3271 -12.9666 -4.7418 0.0000 30.9672 0.0000
# 6 0.0000 0.0000 0.0000 -0.3712 0.0000 17.8884
#
#
#
# Elastic Compliance Matrix: (Units=1/GPa)
#
#
# Indices 1 2 3 4 5 6 
#
# 1 0.009518 -0.001701 -0.005277 0.000000 0.001346 0.000000
# 2 -0.001701 0.019623 -0.000972 0.000000 0.007555 0.000000
# 3 -0.005277 -0.000972 0.019557 0.000000 0.000998 0.000000
# 4 0.000000 0.000000 0.000000 0.128344 0.000000 0.002663
# 5 0.001346 0.007555 0.000998 0.000000 0.036014 0.000000
# 6 0.000000 0.000000 0.000000 0.002663 0.000000 0.055957
#
#
# Mechanical properties :
#
#
# Convention : Reuss Voigt Hill
#
# Bulk Modulus (GPa) = 30.49111 41.16728 35.82920
# Shear Modulus (GPa) = 16.90065 23.85970 20.38018
#
# Velocity S-wave (km/s) = 3.12224 3.70977 3.42861
# Velocity P-wave (km/s) = 5.53040 6.48809 6.02829
#
# Compressibility (1/GPa) = 0.03279644
#
# Stress axis : x y z
#
# Youngs Moduli (GPa) = 105.06902 50.95943 51.13322
#
# Poissons Ratio (x) = 0.08670 0.26985
# Poissons Ratio (y) = 0.17877 0.04969
# Poissons Ratio (z) = 0.55450 0.04952
#
# Static dielectric constant tensor:
#      x y z
#    x 1.622750 0.000000 -0.006750 
#    y 0.000000 1.599570 0.000000 
#    z -0.006750 0.000000 1.618210 
# 
# From -- ./inp_files/199764.got.cif
#   From: 2010.05.17/outbox.cif.g08.bks.cpg/sg12_100_cif.got.tgz:199764.got - 2010.06.03 13:09:07.
