data_PCOD9206059
_publ_section_title
;
Structure prediction by ZEFSAII (Michael W. Deem and Ramdas Pophale) SiO2 
 PCOD9206059
Probable space group: C 2/M
;
_chemical_formula_sum "Si O2"
_cell_formula_units_Z 52
_cell_length_a 24.389563
_cell_length_b 10.001698
_cell_length_c 11.680893
_cell_angle_alpha 90.000000
_cell_angle_beta 118.397395
_cell_angle_gamma 90.000000
_cell_volume 2506.534461
_symmetry_space_group_name_H-M "C 2/M"
_symmetry_group_IT_number 12
_symmetry_cell_setting 'monoclinic'
loop_
_space_group_symop_operation_xyz
x,y,z
-x,y,-z
-x,-y,-z
x,-y,z
1/2+x,1/2+y,z
1/2-x,1/2+y,-z
1/2-x,1/2-y,-z
1/2+x,1/2-y,z
loop_
_atom_site_type_symbol
_atom_site_label
_atom_site_fract_x
_atom_site_fract_y
_atom_site_fract_z
Si Si1 0.472418 0.843411 0.724451
Si Si2 0.181401 0.156173 0.065306
Si Si3 0.433086 0.351291 0.872087
Si Si4 0.119453 0.653778 0.562115
Si Si5 0.748812 0.248624 0.653579
Si Si6 0.115610 0.655731 0.831363
Si Si7 0.753808 0.500000 0.510511
O O1 0.432515 0.758189 0.773111
O O2 0.443978 0.824406 0.569607
O O3 0.545310 0.808536 0.801000
O O4 0.467211 0.000000 0.746525
O O5 0.120598 0.161976 0.087408
O O6 0.233907 0.221088 0.197549
O O7 0.194841 0.000000 0.053092
O O8 0.164129 0.244649 0.938369
O O9 0.429002 0.500000 0.816987
O O10 0.500000 0.339671 0.000000
O O11 0.140466 0.500000 0.552983
O O12 0.173505 0.750552 0.573157
O O13 0.113925 0.662624 0.692214
O O14 0.774322 0.381869 0.622733
O O15 0.768698 0.118584 0.601694
O O16 0.127915 0.500000 0.874296
#
# Coordination Sequence:
#
# PCOD9206059 Si02
#       7
#     8   8   8   8   8   8   4
#     4  10  21  36  61  90 115 151 202 253 292 342
#     4  11  23  39  60  88 123 158 195 246 297 353
#     4  10  21  36  55  82 119 156 189 233 299 353
#     4  10  21  40  63  86 118 159 199 245 297 347
#     4  11  23  41  62  93 119 159 190 243 297 356
#     4  10  22  40  60  85 119 159 203 245 290 348
#     4  10  24  40  62  86 130 148 198 238 292 354
#
# _framework density 20.745774999999998
#
# number of rings (size 3 to 8) (size 9 to 14) (size 15 to 20)
#    0.000    1.692    3.077    0.462    5.385    3.385 
#    1.385    0.000    0.000    1.846    0.000    0.000 
#    0.000    0.000    0.000    0.000    0.000    0.000 
#
# Total GULP energy -144758.570032 kJ/mol
# GULP energy per Si atom -5567.637309 kJ/mol
# Density = 2.069856 g / cm^3
# Si number density = 20.745775 Si / 1000 Ang^3
#
#
#
# Elastic Constant Matrix: (Units=GPa)
#
#
# Indices 1 2 3 4 5 6 
#
# 1 22.3620 3.8540 -11.4828 0.0000 7.3911 0.0000
# 2 3.8540 112.0547 57.6290 0.0000 2.5116 0.0000
# 3 -11.4828 57.6290 112.6636 0.0000 5.3814 0.0000
# 4 0.0000 0.0000 0.0000 27.9543 0.0000 -10.4866
# 5 7.3911 2.5116 5.3814 0.0000 18.4669 0.0000
# 6 0.0000 0.0000 0.0000 -10.4866 0.0000 19.0655
#
#
#
# Elastic Compliance Matrix: (Units=1/GPa)
#
#
# Indices 1 2 3 4 5 6 
#
# 1 0.060390 -0.007191 0.011096 0.000000 -0.026426 0.000000
# 2 -0.007191 0.012967 -0.007524 0.000000 0.003307 0.000000
# 3 0.011096 -0.007524 0.014216 0.000000 -0.007560 0.000000
# 4 0.000000 0.000000 0.000000 0.045073 0.000000 0.024791
# 5 -0.026426 0.003307 -0.007560 0.000000 0.066481 0.000000
# 6 0.000000 0.000000 0.000000 0.024791 0.000000 0.066087
#
#
# Mechanical properties :
#
#
# Convention : Reuss Voigt Hill
#
# Bulk Modulus (GPa) = 12.44791 38.56453 25.50622
# Shear Modulus (GPa) = 16.70955 26.23600 21.47278
#
# Velocity S-wave (km/s) = 2.84111 3.56004 3.22070
# Velocity P-wave (km/s) = 4.09583 5.96053 5.11389
#
# Compressibility (1/GPa) = 0.08033476
#
# Stress axis : x y z
#
# Youngs Moduli (GPa) = 16.55907 77.12040 70.34140
#
# Poissons Ratio (x) = 0.55458 -0.78048
# Poissons Ratio (y) = 0.11908 0.52922
# Poissons Ratio (z) = -0.18373 0.58022
#
# Static dielectric constant tensor:
#      x y z
#    x 1.802790 0.000000 0.010170 
#    y 0.000000 1.700020 0.000000 
#    z 0.010170 0.000000 1.759990 
# 
# From -- ./inp_files/181205.got.cif
#   From: 2010.05.17/outbox.cif.g08.bks.cpg/sg12_91_cif.got.tgz:181205.got - 2010.06.03 13:09:07.
