data_PCOD9206809
_publ_section_title
;
Structure prediction by ZEFSAII (Michael W. Deem and Ramdas Pophale) SiO2 
 PCOD9206809
Probable space group: C 2/M
;
_chemical_formula_sum "Si O2"
_cell_formula_units_Z 32
_cell_length_a 12.526524
_cell_length_b 23.205430
_cell_length_c 5.944377
_cell_angle_alpha 90.000000
_cell_angle_beta 118.873070
_cell_angle_gamma 90.000000
_cell_volume 1513.135132
_symmetry_space_group_name_H-M "C 2/M"
_symmetry_group_IT_number 12
_symmetry_cell_setting 'monoclinic'
loop_
_space_group_symop_operation_xyz
x,y,z
-x,y,-z
-x,-y,-z
x,-y,z
1/2+x,1/2+y,z
1/2-x,1/2+y,-z
1/2-x,1/2-y,-z
1/2+x,1/2-y,z
loop_
_atom_site_type_symbol
_atom_site_label
_atom_site_fract_x
_atom_site_fract_y
_atom_site_fract_z
Si Si1 0.639147 0.300656 0.642231
Si Si2 0.267696 0.100683 0.514499
Si Si3 0.000000 0.374899 0.000000
Si Si4 0.569979 0.500000 0.321370
Si Si5 0.334328 0.825772 0.204090
O O1 0.500000 0.319301 0.500000
O O2 0.710148 0.338333 0.533344
O O3 0.643689 0.231724 0.629224
O O4 0.708440 0.315308 0.943864
O O5 0.160960 0.054640 0.413660
O O6 0.321041 0.115110 0.325319
O O7 0.384758 0.089426 0.790766
O O8 0.057103 0.334668 0.863715
O O9 0.500000 0.500000 0.500000
O O10 0.500000 0.500000 0.000000
#
# Coordination Sequence:
#
# PCOD9206809 Si02
#       5
#     8   8   4   4   8
#     4  10  21  36  64  97 141 177 234 277 361 423
#     4  11  24  43  70  96 136 185 233 294 356 410
#     4  10  22  41  68  98 144 169 242 280 362 428
#     4  12  32  53  77 105 143 184 248 305 350 422
#     4  10  22  39  62 103 136 183 221 295 345 434
#
# _framework density 21.148143000000001
#
# number of rings (size 3 to 8) (size 9 to 14) (size 15 to 20)
#    0.000    1.500    0.000    3.750   10.500    4.500 
#    0.000    2.500    0.000    0.000    0.000    0.000 
#    0.000    0.000    0.000    0.000    0.000    0.000 
#
# Total GULP energy -89239.031574 kJ/mol
# GULP energy per Si atom -5577.439473 kJ/mol
# Density = 2.110001 g / cm^3
# Si number density = 21.148143 Si / 1000 Ang^3
#
#
#
# Elastic Constant Matrix: (Units=GPa)
#
#
# Indices 1 2 3 4 5 6 
#
# 1 144.3333 50.7030 73.8518 0.0000 10.5143 0.0000
# 2 50.7030 87.4456 51.9565 0.0000 -11.1865 0.0000
# 3 73.8518 51.9565 107.2120 0.0000 23.6311 0.0000
# 4 0.0000 0.0000 0.0000 20.7809 0.0000 11.7875
# 5 10.5143 -11.1865 23.6311 0.0000 49.3199 0.0000
# 6 0.0000 0.0000 0.0000 11.7875 0.0000 40.6242
#
#
#
# Elastic Compliance Matrix: (Units=1/GPa)
#
#
# Indices 1 2 3 4 5 6 
#
# 1 0.011125 -0.002626 -0.006414 0.000000 0.000106 0.000000
# 2 -0.002626 0.020364 -0.010288 0.000000 0.010108 0.000000
# 3 -0.006414 -0.010288 0.021181 0.000000 -0.011115 0.000000
# 4 0.000000 0.000000 0.000000 0.057602 0.000000 -0.016714
# 5 0.000106 0.010108 -0.011115 0.000000 0.027871 0.000000
# 6 0.000000 0.000000 0.000000 -0.016714 0.000000 0.029466
#
#
# Mechanical properties :
#
#
# Convention : Reuss Voigt Hill
#
# Bulk Modulus (GPa) = 71.35548 76.89038 74.12293
# Shear Modulus (GPa) = 23.70393 32.97698 28.34045
#
# Velocity S-wave (km/s) = 3.35154 3.95312 3.66470
# Velocity P-wave (km/s) = 6.98507 7.56790 7.28232
#
# Compressibility (1/GPa) = 0.01401434
#
# Stress axis : x y z
#
# Youngs Moduli (GPa) = 89.88618 49.10669 47.21212
#
# Poissons Ratio (x) = 0.12896 0.30283
# Poissons Ratio (y) = 0.23605 0.48570
# Poissons Ratio (z) = 0.57655 0.50519
#
# Static dielectric constant tensor:
#      x y z
#    x 1.752470 0.000000 -0.029450 
#    y 0.000000 1.751610 0.000000 
#    z -0.029450 0.000000 1.856180 
# 
# From -- ./inp_files/6540.got.cif
#   From: 2010.05.17/outbox.cif.g08.bks.cpg/sg12_4_cif.got.tgz:6540.got - 2010.06.03 13:09:07.
