data_PCOD9206500
_publ_section_title
;
Structure prediction by ZEFSAII (Michael W. Deem and Ramdas Pophale) SiO2 
 PCOD9206500
Probable space group: C 2/M
;
_chemical_formula_sum "Si O2"
_cell_formula_units_Z 58
_cell_length_a 9.222650
_cell_length_b 30.179677
_cell_length_c 23.603440
_cell_angle_alpha 90.000000
_cell_angle_beta 151.114689
_cell_angle_gamma 90.000000
_cell_volume 3173.546215
_symmetry_space_group_name_H-M "C 2/M"
_symmetry_group_IT_number 12
_symmetry_cell_setting 'monoclinic'
loop_
_space_group_symop_operation_xyz
x,y,z
-x,y,-z
-x,-y,-z
x,-y,z
1/2+x,1/2+y,z
1/2-x,1/2+y,-z
1/2-x,1/2-y,-z
1/2+x,1/2-y,z
loop_
_atom_site_type_symbol
_atom_site_label
_atom_site_fract_x
_atom_site_fract_y
_atom_site_fract_z
Si Si1 0.989710 0.705018 0.144167
Si Si2 0.801227 0.118750 0.292862
Si Si3 0.721199 0.917013 0.468553
Si Si4 0.000000 0.000000 0.500000
Si Si5 0.860472 0.949606 0.671394
Si Si6 0.669570 0.109889 0.773539
Si Si7 0.327626 0.449466 0.099063
Si Si8 0.109957 0.795398 0.129075
O O1 0.809286 0.711024 0.141020
O O2 0.216726 0.664213 0.231863
O O3 0.130656 0.751561 0.173811
O O4 0.732627 0.696236 0.008869
O O5 0.503777 0.105211 0.226255
O O6 0.060237 0.119735 0.429738
O O7 0.929969 0.081741 0.294681
O O8 0.468631 0.930181 0.427967
O O9 0.550726 0.902165 0.353352
O O10 0.902303 0.960853 0.512257
O O11 0.005916 0.951436 0.783796
O O12 0.847577 0.000000 0.645251
O O13 0.772343 0.160342 0.801595
O O14 0.960269 0.078699 0.868991
O O15 0.291140 0.500000 0.065251
O O16 0.000000 0.430366 0.000000
#
# Coordination Sequence:
#
# PCOD9206500 Si02
#       8
#     8   8   8   2   8   8   8   8
#     4   9  20  38  59  84 111 144 186 239 291 350
#     4  11  22  35  56  86 120 145 188 246 293 333
#     4  11  22  37  57  85 115 157 201 233 277 337
#     4  12  20  36  66  80 112 168 210 232 266 336
#     4  10  22  35  53  82 117 151 193 239 284 334
#     4  10  21  36  59  83 111 149 195 233 282 346
#     4   9  20  37  53  76 113 154 193 232 279 344
#     4   9  19  38  60  83 110 143 189 236 290 349
#
# _framework density 18.276084000000001
#
# number of rings (size 3 to 8) (size 9 to 14) (size 15 to 20)
#    0.000    2.069    2.069    0.414    3.862    3.310 
#    2.483    0.690    0.000    4.138    0.000    0.000 
#    0.000    0.000    0.000    0.000    0.000    0.000 
#
# Total GULP energy -161440.882386 kJ/mol
# GULP energy per Si atom -5566.926979 kJ/mol
# Density = 1.823449 g / cm^3
# Si number density = 18.276084 Si / 1000 Ang^3
#
#
#
# Elastic Constant Matrix: (Units=GPa)
#
#
# Indices 1 2 3 4 5 6 
#
# 1 85.7595 60.6434 19.9213 -0.0048 19.5515 -0.0005
# 2 60.6434 138.2481 48.5426 -0.0065 13.9009 -0.0010
# 3 19.9213 48.5426 61.0545 -0.0181 17.7153 -0.0006
# 4 -0.0048 -0.0065 -0.0181 19.9582 -0.0001 -2.0875
# 5 19.5515 13.9009 17.7153 -0.0001 27.3587 -0.0008
# 6 -0.0005 -0.0010 -0.0006 -2.0875 -0.0008 33.4985
#
#
#
# Elastic Compliance Matrix: (Units=1/GPa)
#
#
# Indices 1 2 3 4 5 6 
#
# 1 0.019811 -0.008930 0.004220 0.000006 -0.012353 0.000000
# 2 -0.008930 0.014060 -0.009905 -0.000007 0.005651 0.000000
# 3 0.004220 -0.009905 0.027449 0.000023 -0.015757 0.000001
# 4 0.000006 -0.000007 0.000023 0.050433 -0.000015 0.003143
# 5 -0.012353 0.005651 -0.015757 -0.000015 0.052711 0.000000
# 6 0.000000 0.000000 0.000001 0.003143 0.000000 0.030048
#
#
# Mechanical properties :
#
#
# Convention : Reuss Voigt Hill
#
# Bulk Modulus (GPa) = 31.16156 60.36409 45.76282
# Shear Modulus (GPa) = 21.32753 26.56007 23.94380
#
# Velocity S-wave (km/s) = 3.41979 3.81631 3.62348
# Velocity P-wave (km/s) = 5.71671 7.24705 6.52689
#
# Compressibility (1/GPa) = 0.03209082
#
# Stress axis : x y z
#
# Youngs Moduli (GPa) = 50.47654 71.12276 36.43139
#
# Poissons Ratio (x) = 0.63513 -0.15375
# Poissons Ratio (y) = 0.45076 0.36085
# Poissons Ratio (z) = -0.21302 0.70446
#
# Static dielectric constant tensor:
#      x y z
#    x 1.642640 0.000000 -0.001580 
#    y 0.000000 1.598520 0.000000 
#    z -0.001580 0.000000 1.673870 
# 
# From -- ./inp_files/334321.got.cif
#   From: 2010.05.17/outbox.cif.g08.bks.cpg/sg12_168_cif.got.tgz:334321.got - 2010.06.03 13:09:07.
