data_PCOD9206011
_publ_section_title
;
Structure prediction by ZEFSAII (Michael W. Deem and Ramdas Pophale) SiO2 
 PCOD9206011
Probable space group: C 2/M
;
_chemical_formula_sum "Si O2"
_cell_formula_units_Z 44
_cell_length_a 13.689860
_cell_length_b 10.667439
_cell_length_c 29.346362
_cell_angle_alpha 90.000000
_cell_angle_beta 31.305832
_cell_angle_gamma 90.000000
_cell_volume 2226.833118
_symmetry_space_group_name_H-M "C 2/M"
_symmetry_group_IT_number 12
_symmetry_cell_setting 'monoclinic'
loop_
_space_group_symop_operation_xyz
x,y,z
-x,y,-z
-x,-y,-z
x,-y,z
1/2+x,1/2+y,z
1/2-x,1/2+y,-z
1/2-x,1/2-y,-z
1/2+x,1/2-y,z
loop_
_atom_site_type_symbol
_atom_site_label
_atom_site_fract_x
_atom_site_fract_y
_atom_site_fract_z
Si Si1 0.199504 0.137094 0.677734
Si Si2 0.684706 0.855808 0.562452
Si Si3 0.798608 0.147668 0.094897
Si Si4 0.000000 0.757736 0.500000
Si Si5 0.876451 0.770913 0.745287
Si Si6 0.587174 0.858467 0.789543
O O1 0.399066 0.167785 0.576291
O O2 0.158166 0.251650 0.727433
O O3 0.041913 0.144491 0.700843
O O4 0.193048 0.000000 0.701831
O O5 0.750000 0.750000 0.500000
O O6 0.841658 0.841652 0.539433
O O7 0.487459 0.817702 0.665014
O O8 0.681846 0.000000 0.546932
O O9 0.715374 0.202116 0.174812
O O10 0.637968 0.161350 0.120075
O O11 0.823807 0.000000 0.092609
O O12 0.000000 0.201772 0.000000
O O13 0.709806 0.842081 0.785788
O O14 0.617032 0.000000 0.759670
#
# Coordination Sequence:
#
# PCOD9206011 Si02
#       6
#     8   8   8   4   8   8
#     4  10  21  36  55  81 112 147 191 238 281 330
#     4  11  24  39  57  84 116 152 194 236 279 333
#     4   9  19  37  60  86 115 147 186 232 283 341
#     4  10  22  36  56  78 110 152 192 234 284 334
#     4  10  21  36  58  83 115 150 188 233 284 335
#     4  10  21  37  58  83 113 149 186 227 281 340
#
# _framework density 19.759001000000001
#
# number of rings (size 3 to 8) (size 9 to 14) (size 15 to 20)
#    0.000    2.000    0.000    2.727    0.000   14.545 
#    0.000    0.000    0.000   13.636    0.000    0.000 
#    0.000    0.000    0.000    0.000    0.000    0.000 
#
# Total GULP energy -122695.220778 kJ/mol
# GULP energy per Si atom -5577.055490 kJ/mol
# Density = 1.971403 g / cm^3
# Si number density = 19.759001 Si / 1000 Ang^3
#
#
#
# Elastic Constant Matrix: (Units=GPa)
#
#
# Indices 1 2 3 4 5 6 
#
# 1 88.2711 37.7419 23.8460 0.0000 -19.5238 0.0000
# 2 37.7419 114.6547 37.8694 0.0001 -9.7916 0.0000
# 3 23.8460 37.8694 122.4546 0.0003 -17.7554 -0.0001
# 4 0.0000 0.0001 0.0003 15.8930 -0.0001 5.8064
# 5 -19.5238 -9.7916 -17.7554 -0.0001 25.1159 0.0000
# 6 0.0000 0.0000 -0.0001 5.8064 0.0000 18.4604
#
#
#
# Elastic Compliance Matrix: (Units=1/GPa)
#
#
# Indices 1 2 3 4 5 6 
#
# 1 0.015414 -0.004121 -0.000248 0.000000 0.010200 0.000000
# 2 -0.004121 0.010894 -0.002691 0.000000 -0.000859 0.000000
# 3 -0.000248 -0.002691 0.009879 0.000000 0.005742 0.000000
# 4 0.000000 0.000000 0.000000 0.071090 0.000000 -0.022360
# 5 0.010200 -0.000859 0.005742 0.000000 0.051469 0.000000
# 6 0.000000 0.000000 0.000000 -0.022360 0.000000 0.061203
#
#
# Mechanical properties :
#
#
# Convention : Reuss Voigt Hill
#
# Bulk Modulus (GPa) = 45.31694 58.25500 51.78597
# Shear Modulus (GPa) = 20.71044 26.95541 23.83292
#
# Velocity S-wave (km/s) = 3.24103 3.69753 3.47678
# Velocity P-wave (km/s) = 6.08197 6.91200 6.51022
#
# Compressibility (1/GPa) = 0.02206680
#
# Stress axis : x y z
#
# Youngs Moduli (GPa) = 64.87733 91.79533 101.22071
#
# Poissons Ratio (x) = 0.37827 0.02513
# Poissons Ratio (y) = 0.26735 0.27238
# Poissons Ratio (z) = 0.01611 0.24702
#
# Static dielectric constant tensor:
#      x y z
#    x 1.755610 0.000000 -0.022000 
#    y 0.000000 1.690960 0.000000 
#    z -0.022000 0.000000 1.686920 
# 
# From -- ./inp_files/375864.got.cif
#   From: 2010.05.17/outbox.cif.g08.bks.cpg/sg12_188_cif.got.tgz:375864.got - 2010.06.03 13:09:07.
