data_PCOD9206097
_publ_section_title
;
Structure prediction by ZEFSAII (Michael W. Deem and Ramdas Pophale) SiO2 
 PCOD9206097
Probable space group: C 2/M
;
_chemical_formula_sum "Si O2"
_cell_formula_units_Z 48
_cell_length_a 20.944442
_cell_length_b 12.228041
_cell_length_c 21.552997
_cell_angle_alpha 90.000000
_cell_angle_beta 149.325132
_cell_angle_gamma 90.000000
_cell_volume 2816.077554
_symmetry_space_group_name_H-M "C 2/M"
_symmetry_group_IT_number 12
_symmetry_cell_setting 'monoclinic'
loop_
_space_group_symop_operation_xyz
x,y,z
-x,y,-z
-x,-y,-z
x,-y,z
1/2+x,1/2+y,z
1/2-x,1/2+y,-z
1/2-x,1/2-y,-z
1/2+x,1/2-y,z
loop_
_atom_site_type_symbol
_atom_site_label
_atom_site_fract_x
_atom_site_fract_y
_atom_site_fract_z
Si Si1 0.291258 0.701012 0.833708
Si Si2 0.839909 0.500000 0.435531
Si Si3 0.852578 0.871317 0.528838
Si Si4 0.578438 0.369036 0.627014
Si Si5 0.376151 0.000000 0.317000
Si Si6 0.834069 0.810338 0.656902
Si Si7 0.004203 0.132973 0.097651
O O1 0.208950 0.805930 0.746080
O O2 0.190729 0.607318 0.763040
O O3 0.379395 0.661050 0.850602
O O4 0.386589 0.698324 0.971168
O O5 0.855371 0.500000 0.374263
O O6 0.764172 0.396244 0.396352
O O7 0.979148 0.500000 0.577677
O O8 0.859941 0.840501 0.607292
O O9 0.737494 0.804897 0.402855
O O10 0.982513 0.845332 0.602902
O O11 0.831230 0.000000 0.504525
O O12 0.500000 0.334338 0.500000
O O13 0.598773 0.500000 0.639824
O O14 0.955298 0.825394 0.801003
O O15 0.985688 0.000000 0.080844
#
# Coordination Sequence:
#
# PCOD9206097 Si02
#       7
#     8   4   8   8   4   8   8
#     4  11  19  33  52  80 110 140 175 212 265 321
#     4  11  20  29  52  85 109 138 169 218 274 313
#     4  10  21  36  56  78 104 141 177 227 267 313
#     4  10  22  38  55  76 106 142 183 225 268 309
#     4  11  20  28  51  86 119 130 163 227 272 309
#     4  11  19  35  56  79 107 141 179 212 269 326
#     4  11  19  34  54  80 113 145 167 212 272 329
#
# _framework density 17.044985
#
# number of rings (size 3 to 8) (size 9 to 14) (size 15 to 20)
#    0.000    1.333    5.000    2.500    2.333    0.000 
#    0.000    3.333    0.000    0.000    0.000    0.000 
#    0.000    0.000    0.000    0.000    0.000    0.000 
#
# Total GULP energy -133884.192290 kJ/mol
# GULP energy per Si atom -5578.508012 kJ/mol
# Density = 1.700619 g / cm^3
# Si number density = 17.044985 Si / 1000 Ang^3
#
#
#
# Elastic Constant Matrix: (Units=GPa)
#
#
# Indices 1 2 3 4 5 6 
#
# 1 52.9813 15.5812 37.2683 0.0000 -5.7400 0.0000
# 2 15.5812 72.5686 53.5017 -0.0001 0.9917 0.0001
# 3 37.2683 53.5017 152.5054 -0.0001 -2.2199 -0.0001
# 4 0.0000 -0.0001 -0.0001 45.5775 0.0000 -31.3104
# 5 -5.7400 0.9917 -2.2199 0.0000 22.7021 0.0000
# 6 0.0000 0.0001 -0.0001 -31.3104 0.0000 35.1350
#
#
#
# Elastic Compliance Matrix: (Units=1/GPa)
#
#
# Indices 1 2 3 4 5 6 
#
# 1 0.023516 -0.001276 -0.005219 0.000000 0.005491 0.000000
# 2 -0.001276 0.018705 -0.006276 0.000000 -0.001754 0.000000
# 3 -0.005219 -0.006276 0.010033 0.000000 -0.000064 0.000000
# 4 0.000000 0.000000 0.000000 0.056576 0.000000 0.050417
# 5 0.005491 -0.001754 -0.000064 0.000000 0.045507 0.000000
# 6 0.000000 0.000000 0.000000 0.050417 0.000000 0.073391
#
#
# Mechanical properties :
#
#
# Convention : Reuss Voigt Hill
#
# Bulk Modulus (GPa) = 37.43635 54.52863 45.98249
# Shear Modulus (GPa) = 19.07128 32.12985 25.60057
#
# Velocity S-wave (km/s) = 3.34859 4.34637 3.87969
# Velocity P-wave (km/s) = 6.07962 7.56627 6.86331
#
# Compressibility (1/GPa) = 0.02671201
#
# Stress axis : x y z
#
# Youngs Moduli (GPa) = 42.52417 53.46213 99.66943
#
# Poissons Ratio (x) = 0.06824 0.52017
# Poissons Ratio (y) = 0.05428 0.62548
# Poissons Ratio (z) = 0.22193 0.33551
#
# Static dielectric constant tensor:
#      x y z
#    x 1.577900 0.000000 -0.016810 
#    y 0.000000 1.586010 0.000000 
#    z -0.016810 0.000000 1.605690 
# 
# From -- ./inp_files/321345.got.cif
#   From: 2010.05.17/outbox.cif.g08.bks.cpg/sg12_161_cif.got.tgz:321345.got - 2010.06.03 13:09:07.
