data_PCOD9206143
_publ_section_title
;
Structure prediction by ZEFSAII (Michael W. Deem and Ramdas Pophale) SiO2 
 PCOD9206143
Probable space group: C 2/M
;
_chemical_formula_sum "Si O2"
_cell_formula_units_Z 48
_cell_length_a 18.692804
_cell_length_b 8.568359
_cell_length_c 28.207556
_cell_angle_alpha 90.000000
_cell_angle_beta 145.906551
_cell_angle_gamma 90.000000
_cell_volume 2532.488703
_symmetry_space_group_name_H-M "C 2/M"
_symmetry_group_IT_number 12
_symmetry_cell_setting 'monoclinic'
loop_
_space_group_symop_operation_xyz
x,y,z
-x,y,-z
-x,-y,-z
x,-y,z
1/2+x,1/2+y,z
1/2-x,1/2+y,-z
1/2-x,1/2-y,-z
1/2+x,1/2-y,z
loop_
_atom_site_type_symbol
_atom_site_label
_atom_site_fract_x
_atom_site_fract_y
_atom_site_fract_z
Si Si1 0.307225 0.685930 0.080378
Si Si2 0.259369 0.689065 0.241425
Si Si3 0.351354 0.687157 0.917741
Si Si4 0.593977 0.189092 0.241182
Si Si5 0.710086 0.811560 0.404365
Si Si6 0.551030 0.688435 0.404648
O O1 0.305520 0.500000 0.078384
O O2 0.223171 0.744734 0.078262
O O3 0.451773 0.745237 0.165041
O O4 0.250000 0.750000 0.000000
O O5 0.257027 0.500000 0.237756
O O6 0.212042 0.755156 0.165624
O O7 0.166905 0.737782 0.233475
O O8 0.405324 0.738128 0.331269
O O9 0.345266 0.500000 0.916609
O O10 0.500000 0.734791 0.000000
O O11 0.672138 0.238158 0.330872
O O12 0.587093 0.000000 0.237425
O O13 0.608313 0.749999 0.386722
O O14 0.849311 0.761456 0.499829
O O15 0.707317 0.000000 0.403860
O O16 0.552600 0.500000 0.404181
#
# Coordination Sequence:
#
# PCOD9206143 Si02
#       6
#     8   8   8   8   8   8
#     4  12  25  41  62  86 114 147 184 228 277 330
#     4  10  21  36  56  83 114 149 188 232 280 330
#     4  11  24  41  61  85 113 146 185 229 278 332
#     4  10  21  37  57  83 115 150 189 231 278 331
#     4   9  18  33  54  79 109 147 188 231 278 329
#     4   9  18  33  53  79 110 145 188 233 278 329
#
# _framework density 18.953686999999999
#
# number of rings (size 3 to 8) (size 9 to 14) (size 15 to 20)
#    0.000    1.833    0.000    4.000    0.000    9.333 
#    0.000    3.333    0.000    0.000    0.000    7.000 
#    0.000    0.000    0.000    0.000    0.000    0.000 
#
# Total GULP energy -134105.150776 kJ/mol
# GULP energy per Si atom -5587.714616 kJ/mol
# Density = 1.891055 g / cm^3
# Si number density = 18.953687 Si / 1000 Ang^3
#
#
#
# Elastic Constant Matrix: (Units=GPa)
#
#
# Indices 1 2 3 4 5 6 
#
# 1 194.3975 44.3195 125.5375 0.0000 -3.2732 0.0000
# 2 44.3195 29.7831 40.8827 0.0000 1.5222 0.0000
# 3 125.5375 40.8827 164.9491 0.0000 4.4733 0.0000
# 4 0.0000 0.0000 0.0000 23.9540 0.0000 -3.3842
# 5 -3.2732 1.5222 4.4733 0.0000 41.6666 0.0000
# 6 0.0000 0.0000 0.0000 -3.3842 0.0000 25.0369
#
#
#
# Elastic Compliance Matrix: (Units=1/GPa)
#
#
# Indices 1 2 3 4 5 6 
#
# 1 0.011259 -0.007606 -0.006735 0.000000 0.001885 0.000000
# 2 -0.007606 0.056038 -0.008052 0.000000 -0.001780 0.000000
# 3 -0.006735 -0.008052 0.013229 0.000000 -0.001655 0.000000
# 4 0.000000 0.000000 0.000000 0.042559 0.000000 0.005753
# 5 0.001885 -0.001780 -0.001655 0.000000 0.024391 0.000000
# 6 0.000000 0.000000 0.000000 0.005753 0.000000 0.040719
#
#
# Mechanical properties :
#
#
# Convention : Reuss Voigt Hill
#
# Bulk Modulus (GPa) = 27.97968 90.06766 59.02367
# Shear Modulus (GPa) = 20.41690 30.02417 25.22053
#
# Velocity S-wave (km/s) = 3.28563 3.98437 3.65175
# Velocity P-wave (km/s) = 5.40259 8.29397 6.99921
#
# Compressibility (1/GPa) = 0.03574023
#
# Stress axis : x y z
#
# Youngs Moduli (GPa) = 88.81651 17.84490 75.59195
#
# Poissons Ratio (x) = 0.13573 0.50911
# Poissons Ratio (y) = 0.67552 0.60869
# Poissons Ratio (z) = 0.59818 0.14369
#
# Static dielectric constant tensor:
#      x y z
#    x 1.616810 0.000000 0.000740 
#    y 0.000000 1.646240 0.000000 
#    z 0.000740 0.000000 1.651430 
# 
# From -- ./inp_files/377897.got.cif
#   From: 2010.05.17/outbox.cif.g08.bks.cpg/sg12_189_cif.got.tgz:377897.got - 2010.06.03 13:09:07.
