data_PCOD9206074
_publ_section_title
;
Structure prediction by ZEFSAII (Michael W. Deem and Ramdas Pophale) SiO2 
 PCOD9206074
Probable space group: C 2/M
;
_chemical_formula_sum "Si O2"
_cell_formula_units_Z 40
_cell_length_a 13.870784
_cell_length_b 19.679714
_cell_length_c 19.407930
_cell_angle_alpha 90.000000
_cell_angle_beta 20.764584
_cell_angle_gamma 90.000000
_cell_volume 1878.238945
_symmetry_space_group_name_H-M "C 2/M"
_symmetry_group_IT_number 12
_symmetry_cell_setting 'monoclinic'
loop_
_space_group_symop_operation_xyz
x,y,z
-x,y,-z
-x,-y,-z
x,-y,z
1/2+x,1/2+y,z
1/2-x,1/2+y,-z
1/2-x,1/2-y,-z
1/2+x,1/2-y,z
loop_
_atom_site_type_symbol
_atom_site_label
_atom_site_fract_x
_atom_site_fract_y
_atom_site_fract_z
Si Si1 0.529802 0.171170 0.683308
Si Si2 0.651101 0.705912 0.267222
Si Si3 0.369692 0.920763 0.517108
Si Si4 0.269805 0.574323 0.880193
Si Si5 0.680738 0.126556 0.725392
O O1 0.316651 0.228773 0.802833
O O2 0.553445 0.120437 0.602870
O O3 0.507527 0.134663 0.771418
O O4 0.827824 0.204730 0.497052
O O5 0.713287 0.637645 0.182878
O O6 0.794997 0.695785 0.244595
O O7 0.500000 0.893062 0.500000
O O8 0.043923 0.918492 0.741369
O O9 0.450460 0.000000 0.455340
O O10 0.290977 0.500000 0.831897
O O11 0.001212 0.578334 0.105453
O O12 0.000000 0.105928 0.500000
#
# Coordination Sequence:
#
# PCOD9206074 Si02
#       5
#     8   8   8   8   8
#     4   9  19  35  57  83 112 145 187 239 281 326
#     4   9  19  35  55  81 113 151 190 227 281 343
#     4   9  19  38  62  85 113 152 191 229 283 344
#     4  10  21  37  57  83 116 153 192 231 279 346
#     4  10  21  36  55  84 117 148 190 239 283 330
#
# _framework density 21.296544999999998
#
# number of rings (size 3 to 8) (size 9 to 14) (size 15 to 20)
#    0.000    2.600    0.000    0.600    0.000    9.200 
#    0.000    7.000    0.000    3.600    0.000    0.000 
#    0.000    0.000    0.000    0.000    0.000    0.000 
#
# Total GULP energy -111356.447936 kJ/mol
# GULP energy per Si atom -5567.822397 kJ/mol
# Density = 2.124807 g / cm^3
# Si number density = 21.296545 Si / 1000 Ang^3
#
#
#
# Elastic Constant Matrix: (Units=GPa)
#
#
# Indices 1 2 3 4 5 6 
#
# 1 175.9802 43.5992 21.9099 0.1248 -9.1505 -0.0120
# 2 43.5992 76.7435 27.7435 -0.1987 2.1861 0.0285
# 3 21.9099 27.7435 71.8746 -0.2883 -0.9685 -0.0253
# 4 0.1248 -0.1987 -0.2883 10.1830 0.0459 2.0552
# 5 -9.1505 2.1861 -0.9685 0.0459 26.4966 -0.0020
# 6 -0.0120 0.0285 -0.0253 2.0552 -0.0020 22.6652
#
#
#
# Elastic Compliance Matrix: (Units=1/GPa)
#
#
# Indices 1 2 3 4 5 6 
#
# 1 0.006820 -0.003732 -0.000604 -0.000190 0.002641 0.000025
# 2 -0.003732 0.017243 -0.005556 0.000249 -0.002915 -0.000053
# 3 -0.000604 -0.005556 0.016255 0.000357 0.000844 -0.000007
# 4 -0.000190 0.000249 0.000357 0.100053 -0.000247 -0.009072
# 5 0.002641 -0.002915 0.000844 -0.000247 0.038925 0.000032
# 6 0.000025 -0.000053 -0.000007 -0.009072 0.000032 0.044943
#
#
# Mechanical properties :
#
#
# Convention : Reuss Voigt Hill
#
# Bulk Modulus (GPa) = 48.70079 56.78925 52.74502
# Shear Modulus (GPa) = 19.93096 27.29201 23.61149
#
# Velocity S-wave (km/s) = 3.06253 3.58372 3.33333
# Velocity P-wave (km/s) = 5.95173 6.62177 6.29567
#
# Compressibility (1/GPa) = 0.02053355
#
# Stress axis : x y z
#
# Youngs Moduli (GPa) = 146.63487 57.99458 61.52084
#
# Poissons Ratio (x) = 0.21643 0.03713
# Poissons Ratio (y) = 0.54723 0.34184
# Poissons Ratio (z) = 0.08850 0.32224
#
# Static dielectric constant tensor:
#      x y z
#    x 1.831240 0.000020 -0.001570 
#    y 0.000020 1.814180 0.000050 
#    z -0.001570 0.000050 1.809670 
# 
# From -- ./inp_files/62121.got.cif
#   From: 2010.05.17/outbox.cif.g08.bks.cpg/sg12_32_cif.got.tgz:62121.got - 2010.06.03 13:09:07.
