data_PCOD9206526
_publ_section_title
;
Structure prediction by ZEFSAII (Michael W. Deem and Ramdas Pophale) SiO2 
 PCOD9206526
Probable space group: C 2/M
;
_chemical_formula_sum "Si O2"
_cell_formula_units_Z 44
_cell_length_a 27.517597
_cell_length_b 9.522373
_cell_length_c 27.127127
_cell_angle_alpha 90.000000
_cell_angle_beta 16.870099
_cell_angle_gamma 90.000000
_cell_volume 2062.819012
_symmetry_space_group_name_H-M "C 2/M"
_symmetry_group_IT_number 12
_symmetry_cell_setting 'monoclinic'
loop_
_space_group_symop_operation_xyz
x,y,z
-x,y,-z
-x,-y,-z
x,-y,z
1/2+x,1/2+y,z
1/2-x,1/2+y,-z
1/2-x,1/2-y,-z
1/2+x,1/2-y,z
loop_
_atom_site_type_symbol
_atom_site_label
_atom_site_fract_x
_atom_site_fract_y
_atom_site_fract_z
Si Si1 0.056638 0.159790 0.337463
Si Si2 0.223044 0.829090 0.637205
Si Si3 0.323134 0.840431 0.855514
Si Si4 0.493362 0.339641 0.243583
Si Si5 0.874333 0.163524 0.163437
Si Si6 0.500000 0.748204 0.500000
O O1 0.200484 0.247548 0.170448
O O2 0.895538 0.249595 0.477956
O O3 0.051575 0.163819 0.401246
O O4 0.054564 0.000000 0.322417
O O5 0.115265 0.784089 0.790129
O O6 0.149377 0.791632 0.655515
O O7 0.237552 0.000000 0.624680
O O8 0.457818 0.763816 0.760007
O O9 0.371022 0.000000 0.796726
O O10 0.155627 0.845351 0.050375
O O11 0.460662 0.500000 0.292261
O O12 0.675749 0.173307 0.342015
O O13 0.919173 0.000000 0.123071
O O14 0.000000 0.226347 0.000000
#
# Coordination Sequence:
#
# PCOD9206526 Si02
#       6
#     8   8   8   8   8   4
#     4  11  23  39  58  81 114 154 194 237 291 345
#     4   9  19  36  57  83 113 146 190 239 288 344
#     4  10  21  36  59  87 114 148 192 235 289 349
#     4   9  19  37  59  84 117 149 186 238 288 345
#     4   9  18  32  56  88 118 152 196 244 296 351
#     4  10  22  38  58  80 121 158 199 244 295 348
#
# _framework density 21.330034000000001
#
# number of rings (size 3 to 8) (size 9 to 14) (size 15 to 20)
#    0.000    2.364    0.000    1.636    2.545    4.364 
#    0.000    0.000    0.000    2.727    0.000    0.000 
#    0.000    0.000    0.000    0.000    0.000    0.000 
#
# Total GULP energy -122632.735298 kJ/mol
# GULP energy per Si atom -5574.215241 kJ/mol
# Density = 2.128149 g / cm^3
# Si number density = 21.330034 Si / 1000 Ang^3
#
#
#
# Elastic Constant Matrix: (Units=GPa)
#
#
# Indices 1 2 3 4 5 6 
#
# 1 79.7288 20.5348 9.9835 0.0033 14.3318 -0.0007
# 2 20.5348 75.0915 -3.0113 0.0044 12.0691 -0.0022
# 3 9.9835 -3.0113 58.0352 0.0054 17.6370 -0.0007
# 4 0.0033 0.0044 0.0054 12.5813 -0.0007 7.8394
# 5 14.3318 12.0691 17.6370 -0.0007 43.0528 0.0002
# 6 -0.0007 -0.0022 -0.0007 7.8394 0.0002 11.6009
#
#
#
# Elastic Compliance Matrix: (Units=1/GPa)
#
#
# Indices 1 2 3 4 5 6 
#
# 1 0.014195 -0.003457 -0.001690 -0.000004 -0.003064 0.000003
# 2 -0.003457 0.015034 0.002634 -0.000013 -0.004143 0.000011
# 3 -0.001690 0.002634 0.020230 -0.000019 -0.008463 0.000014
# 4 -0.000004 -0.000013 -0.000019 0.137291 0.000015 -0.092775
# 5 -0.003064 -0.004143 -0.008463 0.000015 0.028876 -0.000012
# 6 0.000003 0.000011 0.000014 -0.092775 -0.000012 0.148893
#
#
# Mechanical properties :
#
#
# Convention : Reuss Voigt Hill
#
# Bulk Modulus (GPa) = 22.50621 29.76328 26.13474
# Shear Modulus (GPa) = 13.00875 25.80359 19.40617
#
# Velocity S-wave (km/s) = 2.47225 3.48189 3.01957
# Velocity P-wave (km/s) = 4.32709 5.49079 4.94330
#
# Compressibility (1/GPa) = 0.04443219
#
# Stress axis : x y z
#
# Youngs Moduli (GPa) = 70.44550 66.51607 49.43072
#
# Poissons Ratio (x) = 0.22996 0.08355
# Poissons Ratio (y) = 0.24355 -0.13019
# Poissons Ratio (z) = 0.11907 -0.17519
#
# Static dielectric constant tensor:
#      x y z
#    x 1.810020 0.000000 0.042120 
#    y 0.000000 1.730190 0.000000 
#    z 0.042120 0.000000 1.884300 
# 
# From -- ./inp_files/368998.got.cif
#   From: 2010.05.17/outbox.cif.g08.bks.cpg/sg12_185_cif.got.tgz:368998.got - 2010.06.03 13:09:07.
