data_PCOD9206545
_publ_section_title
;
Structure prediction by ZEFSAII (Michael W. Deem and Ramdas Pophale) SiO2 
 PCOD9206545
Probable space group: C 2/M
;
_chemical_formula_sum "Si O2"
_cell_formula_units_Z 56
_cell_length_a 9.592605
_cell_length_b 26.898644
_cell_length_c 11.590388
_cell_angle_alpha 90.000000
_cell_angle_beta 59.930059
_cell_angle_gamma 90.000000
_cell_volume 2588.147629
_symmetry_space_group_name_H-M "C 2/M"
_symmetry_group_IT_number 12
_symmetry_cell_setting 'monoclinic'
loop_
_space_group_symop_operation_xyz
x,y,z
-x,y,-z
-x,-y,-z
x,-y,z
1/2+x,1/2+y,z
1/2-x,1/2+y,-z
1/2-x,1/2-y,-z
1/2+x,1/2-y,z
loop_
_atom_site_type_symbol
_atom_site_label
_atom_site_fract_x
_atom_site_fract_y
_atom_site_fract_z
Si Si1 0.012994 0.057985 0.124849
Si Si2 0.637329 0.908457 0.036382
Si Si3 0.484160 0.893329 0.326144
Si Si4 0.241609 0.112349 0.609351
Si Si5 0.678854 0.795900 0.703120
Si Si6 0.262564 0.800046 0.066139
Si Si7 0.478814 0.702407 0.345701
O O1 0.894658 0.082033 0.266960
O O2 0.971650 0.000000 0.135986
O O3 0.000000 0.079675 0.000000
O O4 0.200906 0.065222 0.073039
O O5 0.572684 0.924211 0.189270
O O6 0.676176 0.849178 0.022795
O O7 0.500000 0.916458 0.000000
O O8 0.625728 0.872558 0.349845
O O9 0.347772 0.915748 0.467641
O O10 0.390959 0.849009 0.301072
O O11 0.154795 0.159889 0.588787
O O12 0.641065 0.788589 0.854917
O O13 0.602402 0.754484 0.653284
O O14 0.873538 0.793272 0.624898
O O15 0.250000 0.750000 0.000000
O O16 0.083851 0.812657 0.188239
#
# Coordination Sequence:
#
# PCOD9206545 Si02
#       7
#     8   8   8   8   8   8   8
#     4  11  24  46  74 102 131 164 219 278 337 403
#     4  12  22  43  69 102 133 175 218 274 330 393
#     4  11  24  41  65  93 137 171 224 263 334 389
#     4  11  24  45  65  96 127 183 213 278 330 399
#     4  10  21  38  55  97 129 180 222 278 316 387
#     4  10  22  33  58  96 132 173 221 274 319 372
#     4  10  21  36  59  88 129 177 223 270 325 375
#
# _framework density 21.637098000000002
#
# number of rings (size 3 to 8) (size 9 to 14) (size 15 to 20)
#    0.857    0.429    4.286    1.714    2.000    1.429 
#    0.000    2.143    0.000    0.857    0.000    0.000 
#    0.000    0.000    0.000    0.000    0.000    0.000 
#
# Total GULP energy -156284.289315 kJ/mol
# GULP energy per Si atom -5581.581761 kJ/mol
# Density = 2.158785 g / cm^3
# Si number density = 21.637098 Si / 1000 Ang^3
#
#
#
# Elastic Constant Matrix: (Units=GPa)
#
#
# Indices 1 2 3 4 5 6 
#
# 1 108.1013 3.6169 43.2871 0.0000 -2.5104 0.0000
# 2 3.6169 22.1705 11.7810 0.0000 4.7850 0.0000
# 3 43.2871 11.7810 131.7247 0.0000 -23.3814 0.0000
# 4 0.0000 0.0000 0.0000 15.3656 0.0000 2.8667
# 5 -2.5104 4.7850 -23.3814 0.0000 38.9224 0.0000
# 6 0.0000 0.0000 0.0000 2.8667 0.0000 7.7552
#
#
#
# Elastic Compliance Matrix: (Units=1/GPa)
#
#
# Indices 1 2 3 4 5 6 
#
# 1 0.010750 0.000695 -0.003903 0.000000 -0.001737 0.000000
# 2 0.000695 0.050660 -0.006556 0.000000 -0.010121 0.000000
# 3 -0.003903 -0.006556 0.010700 0.000000 0.006982 0.000000
# 4 0.000000 0.000000 0.000000 0.069901 0.000000 -0.025839
# 5 -0.001737 -0.010121 0.006982 0.000000 0.031018 0.000000
# 6 0.000000 0.000000 0.000000 -0.025839 0.000000 0.138498
#
#
# Mechanical properties :
#
#
# Convention : Reuss Voigt Hill
#
# Bulk Modulus (GPa) = 19.01797 42.15183 30.58490
# Shear Modulus (GPa) = 14.34385 25.96273 20.15329
#
# Velocity S-wave (km/s) = 2.57753 3.46774 3.05523
# Velocity P-wave (km/s) = 4.20319 5.96299 5.15868
#
# Compressibility (1/GPa) = 0.05258186
#
# Stress axis : x y z
#
# Youngs Moduli (GPa) = 93.02412 19.73960 93.45970
#
# Poissons Ratio (x) = -0.01372 0.36478
# Poissons Ratio (y) = -0.06466 0.61270
# Poissons Ratio (z) = 0.36308 0.12941
#
# Static dielectric constant tensor:
#      x y z
#    x 1.798900 0.000000 -0.022650 
#    y 0.000000 1.731600 0.000000 
#    z -0.022650 0.000000 1.934460 
# 
# From -- ./inp_files/125600.got.cif
#   From: 2010.05.17/outbox.cif.g08.bks.cpg/sg12_63_cif.got.tgz:125600.got - 2010.06.03 13:09:07.
