data_PCOD9206733
_publ_section_title
;
Structure prediction by ZEFSAII (Michael W. Deem and Ramdas Pophale) SiO2 
 PCOD9206733
Probable space group: C 2/M
;
_chemical_formula_sum "Si O2"
_cell_formula_units_Z 48
_cell_length_a 26.957222
_cell_length_b 15.863227
_cell_length_c 13.425167
_cell_angle_alpha 90.000000
_cell_angle_beta 156.551346
_cell_angle_gamma 90.000000
_cell_volume 2284.493176
_symmetry_space_group_name_H-M "C 2/M"
_symmetry_group_IT_number 12
_symmetry_cell_setting 'monoclinic'
loop_
_space_group_symop_operation_xyz
x,y,z
-x,y,-z
-x,-y,-z
x,-y,z
1/2+x,1/2+y,z
1/2-x,1/2+y,-z
1/2-x,1/2-y,-z
1/2+x,1/2-y,z
loop_
_atom_site_type_symbol
_atom_site_label
_atom_site_fract_x
_atom_site_fract_y
_atom_site_fract_z
Si Si1 0.991403 0.091817 0.604157
Si Si2 0.279947 0.904406 0.373314
Si Si3 0.937137 0.401300 0.056211
Si Si4 0.766740 0.645452 0.913700
Si Si5 0.139098 0.244867 0.215057
Si Si6 0.257512 0.341271 0.904376
O O1 0.000000 0.095836 0.500000
O O2 0.034817 0.000000 0.717854
O O3 0.846128 0.102105 0.354249
O O4 0.091650 0.156647 0.828383
O O5 0.413457 0.890922 0.671992
O O6 0.183101 0.832588 0.226832
O O7 0.299480 0.892342 0.291084
O O8 0.238406 0.000000 0.317595
O O9 0.909449 0.500000 0.984819
O O10 0.889086 0.376712 0.078041
O O11 0.872515 0.333645 0.864849
O O12 0.773985 0.622825 0.044058
O O13 0.725223 0.743196 0.838808
O O14 0.250000 0.250000 0.500000
O O15 0.000000 0.228074 0.000000
#
# Coordination Sequence:
#
# PCOD9206733 Si02
#       6
#     8   8   8   8   8   8
#     4   9  18  33  52  79 119 170 223 270 317 371
#     4  11  25  44  68 103 141 177 226 285 348 411
#     4  11  25  44  69 102 141 182 225 275 346 426
#     4  10  21  36  61  95 134 183 228 267 328 405
#     4  12  26  49  78 101 133 175 228 293 353 415
#     4  10  21  36  61  94 137 180 223 278 329 389
#
# _framework density 21.011225
#
# number of rings (size 3 to 8) (size 9 to 14) (size 15 to 20)
#    0.000    1.500    3.333    1.000    2.333    5.333 
#    0.000    3.333    0.000    0.000    0.000    0.000 
#    0.000    0.000    0.000    0.000    0.000    0.000 
#
# Total GULP energy -133935.827406 kJ/mol
# GULP energy per Si atom -5580.659475 kJ/mol
# Density = 2.096340 g / cm^3
# Si number density = 21.011225 Si / 1000 Ang^3
#
#
#
# Elastic Constant Matrix: (Units=GPa)
#
#
# Indices 1 2 3 4 5 6 
#
# 1 88.6985 47.7211 42.5008 0.0000 2.9972 0.0000
# 2 47.7211 126.2804 47.4389 0.0000 -9.3281 0.0000
# 3 42.5008 47.4389 90.2849 0.0000 -6.4153 0.0000
# 4 0.0000 0.0000 0.0000 30.1207 0.0000 7.0471
# 5 2.9972 -9.3281 -6.4153 0.0000 33.5547 0.0000
# 6 0.0000 0.0000 0.0000 7.0471 0.0000 7.5774
#
#
#
# Elastic Compliance Matrix: (Units=1/GPa)
#
#
# Indices 1 2 3 4 5 6 
#
# 1 0.016499 -0.004355 -0.005747 0.000000 -0.003783 0.000000
# 2 -0.004355 0.011122 -0.003595 0.000000 0.002794 0.000000
# 3 -0.005747 -0.003595 0.015851 0.000000 0.002545 0.000000
# 4 0.000000 0.000000 0.000000 0.042433 0.000000 -0.039464
# 5 -0.003783 0.002794 0.002545 0.000000 0.031403 0.000000
# 6 0.000000 0.000000 0.000000 -0.039464 0.000000 0.168674
#
#
# Mechanical properties :
#
#
# Convention : Reuss Voigt Hill
#
# Bulk Modulus (GPa) = 62.20102 64.50947 63.35525
# Shear Modulus (GPa) = 15.68696 25.42408 20.55552
#
# Velocity S-wave (km/s) = 2.73536 3.48231 3.13119
# Velocity P-wave (km/s) = 6.29637 6.85111 6.57959
#
# Compressibility (1/GPa) = 0.01607691
#
# Stress axis : x y z
#
# Youngs Moduli (GPa) = 60.60943 89.91493 63.08695
#
# Poissons Ratio (x) = 0.39162 0.36257
# Poissons Ratio (y) = 0.26398 0.22679
# Poissons Ratio (z) = 0.34833 0.32324
#
# Static dielectric constant tensor:
#      x y z
#    x 1.786950 0.000000 0.004560 
#    y 0.000000 1.738870 0.000000 
#    z 0.004560 0.000000 1.762380 
# 
# From -- ./inp_files/251490.got.cif
#   From: 2010.05.17/outbox.cif.g08.bks.cpg/sg12_126_cif.got.tgz:251490.got - 2010.06.03 13:09:07.
