data_PCOD9206570
_publ_section_title
;
Structure prediction by ZEFSAII (Michael W. Deem and Ramdas Pophale) SiO2 
 PCOD9206570
Probable space group: C 2/M
;
_chemical_formula_sum "Si O2"
_cell_formula_units_Z 56
_cell_length_a 18.688333
_cell_length_b 8.193357
_cell_length_c 25.887871
_cell_angle_alpha 90.000000
_cell_angle_beta 42.347046
_cell_angle_gamma 90.000000
_cell_volume 2670.198179
_symmetry_space_group_name_H-M "C 2/M"
_symmetry_group_IT_number 12
_symmetry_cell_setting 'monoclinic'
loop_
_space_group_symop_operation_xyz
x,y,z
-x,y,-z
-x,-y,-z
x,-y,z
1/2+x,1/2+y,z
1/2-x,1/2+y,-z
1/2-x,1/2-y,-z
1/2+x,1/2-y,z
loop_
_atom_site_type_symbol
_atom_site_label
_atom_site_fract_x
_atom_site_fract_y
_atom_site_fract_z
Si Si1 0.839962 0.000000 0.541373
Si Si2 0.253926 0.311761 0.164811
Si Si3 0.951913 0.811380 0.767636
Si Si4 0.867072 0.688826 0.920373
Si Si5 0.083531 0.193196 0.001406
Si Si6 0.737398 0.817431 0.730309
Si Si7 0.199435 0.811220 0.639127
Si Si8 0.568930 0.500000 0.390245
O O1 0.771104 0.166501 0.576312
O O2 0.943734 0.000000 0.449571
O O3 0.893828 0.000000 0.569636
O O4 0.284303 0.500000 0.150691
O O5 0.129041 0.292525 0.223182
O O6 0.308666 0.245159 0.083719
O O7 0.295319 0.235804 0.195606
O O8 0.920273 0.781266 0.844252
O O9 0.075915 0.778275 0.693412
O O10 0.931826 0.000000 0.765384
O O11 0.858929 0.500000 0.909925
O O12 0.750000 0.750000 0.000000
O O13 0.935978 0.713239 0.935391
O O14 0.090910 0.000000 0.010503
O O15 0.000000 0.212205 0.000000
O O16 0.712266 0.706922 0.694700
O O17 0.695048 0.000000 0.741107
O O18 0.865597 0.845319 0.665893
O O19 0.225223 0.000000 0.611067
#
# Coordination Sequence:
#
# PCOD9206570 Si02
#       8
#     4   8   8   8   8   8   8   4
#     4   9  16  36  62  88 127 146 195 235 291 345
#     4  11  22  36  58  84 113 153 201 240 288 357
#     4  11  24  39  58  83 114 154 196 243 297 344
#     4  12  24  39  59  81 112 148 196 242 290 347
#     4  10  23  41  57  79 113 150 188 244 300 339
#     4   9  19  36  58  83 121 155 186 237 290 343
#     4  10  21  36  59  91 120 155 194 241 295 344
#     4   7  16  34  60  88 116 165 177 234 296 339
#
# _framework density 20.972225999999999
#
# number of rings (size 3 to 8) (size 9 to 14) (size 15 to 20)
#    0.429    1.429    2.143    2.571    4.000    0.857 
#    0.000    6.429    0.000    0.857    0.000    0.000 
#    0.000    0.000    0.000    0.000    0.000    0.000 
#
# Total GULP energy -156186.563286 kJ/mol
# GULP energy per Si atom -5578.091546 kJ/mol
# Density = 2.092449 g / cm^3
# Si number density = 20.972226 Si / 1000 Ang^3
#
#
#
# Elastic Constant Matrix: (Units=GPa)
#
#
# Indices 1 2 3 4 5 6 
#
# 1 38.9303 -3.5569 -0.2346 0.0000 -11.3243 0.0001
# 2 -3.5569 68.7901 15.6354 -0.0001 -17.0066 0.0001
# 3 -0.2346 15.6354 38.2944 0.0000 -22.2762 0.0000
# 4 0.0000 -0.0001 0.0000 13.3563 0.0000 -4.4624
# 5 -11.3243 -17.0066 -22.2762 0.0000 25.7624 0.0000
# 6 0.0001 0.0001 0.0000 -4.4624 0.0000 24.9990
#
#
#
# Elastic Compliance Matrix: (Units=1/GPa)
#
#
# Indices 1 2 3 4 5 6 
#
# 1 0.037399 0.006855 0.019367 0.000000 0.037711 0.000000
# 2 0.006855 0.018642 0.002700 0.000000 0.017654 0.000000
# 3 0.019367 0.002700 0.062612 0.000000 0.064435 0.000000
# 4 0.000000 0.000000 0.000000 0.079619 0.000000 0.014212
# 5 0.037711 0.017654 0.064435 0.000000 0.122762 0.000000
# 6 0.000000 0.000000 0.000000 0.014212 0.000000 0.042539
#
#
# Mechanical properties :
#
#
# Convention : Reuss Voigt Hill
#
# Bulk Modulus (GPa) = 5.66580 18.85585 12.26082
# Shear Modulus (GPa) = 13.71508 21.76829 17.74169
#
# Velocity S-wave (km/s) = 2.56005 3.22523 2.91170
# Velocity P-wave (km/s) = 3.38318 4.78329 4.14281
#
# Compressibility (1/GPa) = 0.17649772
#
# Stress axis : x y z
#
# Youngs Moduli (GPa) = 26.73836 53.64164 15.97137
#
# Poissons Ratio (x) = -0.36771 -0.30932
# Poissons Ratio (y) = -0.18329 -0.04312
# Poissons Ratio (z) = -0.51784 -0.14484
#
# Static dielectric constant tensor:
#      x y z
#    x 1.769240 0.000000 -0.031920 
#    y 0.000000 1.729380 0.000000 
#    z -0.031920 0.000000 1.832410 
# 
# From -- ./inp_files/377708.got.cif
#   From: 2010.05.17/outbox.cif.g08.bks.cpg/sg12_189_cif.got.tgz:377708.got - 2010.06.03 13:09:07.
