data_PCOD9206807
_publ_section_title
;
Structure prediction by ZEFSAII (Michael W. Deem and Ramdas Pophale) SiO2 
 PCOD9206807
Probable space group: C 2/M
;
_chemical_formula_sum "Si O2"
_cell_formula_units_Z 40
_cell_length_a 10.411800
_cell_length_b 18.989650
_cell_length_c 9.938149
_cell_angle_alpha 90.000000
_cell_angle_beta 90.449120
_cell_angle_gamma 90.000000
_cell_volume 1964.875053
_symmetry_space_group_name_H-M "C 2/M"
_symmetry_group_IT_number 12
_symmetry_cell_setting 'monoclinic'
loop_
_space_group_symop_operation_xyz
x,y,z
-x,y,-z
-x,-y,-z
x,-y,z
1/2+x,1/2+y,z
1/2-x,1/2+y,-z
1/2-x,1/2-y,-z
1/2+x,1/2-y,z
loop_
_atom_site_type_symbol
_atom_site_label
_atom_site_fract_x
_atom_site_fract_y
_atom_site_fract_z
Si Si1 0.392782 0.914610 0.394456
Si Si2 0.510267 0.317807 0.163871
Si Si3 0.732557 0.215155 0.147215
Si Si4 0.400659 0.584650 0.614702
Si Si5 0.935408 0.420286 0.854267
O O1 0.500000 0.888455 0.500000
O O2 0.246328 0.890233 0.410056
O O3 0.453065 0.899674 0.249319
O O4 0.387918 0.000000 0.407965
O O5 0.620849 0.263065 0.205916
O O6 0.373162 0.288318 0.210211
O O7 0.547847 0.388343 0.241570
O O8 0.500000 0.325383 0.000000
O O9 0.677790 0.136091 0.143971
O O10 0.750000 0.250000 0.000000
O O11 0.500000 0.608226 0.500000
O O12 0.398377 0.500000 0.613843
O O13 0.891877 0.500000 0.819671
O O14 0.000000 0.420858 0.000000
#
# Coordination Sequence:
#
# PCOD9206807 Si02
#       5
#     8   8   8   8   8
#     4   9  20  38  61  89 124 166 204 252 316 370
#     4  10  23  40  64  90 122 169 211 255 317 378
#     4  10  22  40  61  90 129 167 199 256 317 375
#     4  10  23  42  63  92 132 167 207 263 317 368
#     4  10  21  36  64  97 122 156 211 264 307 368
#
# _framework density 20.357530000000001
#
# number of rings (size 3 to 8) (size 9 to 14) (size 15 to 20)
#    0.000    2.200    0.000    1.800   11.200    1.200 
#    0.000    2.000    0.000    0.000    0.000    0.000 
#    0.000    0.000    0.000    0.000    0.000    0.000 
#
# Total GULP energy -111547.784335 kJ/mol
# GULP energy per Si atom -5577.389217 kJ/mol
# Density = 2.031120 g / cm^3
# Si number density = 20.357530 Si / 1000 Ang^3
#
#
#
# Elastic Constant Matrix: (Units=GPa)
#
#
# Indices 1 2 3 4 5 6 
#
# 1 198.0604 42.7508 57.1946 0.0000 -9.4896 0.0000
# 2 42.7508 51.6513 15.2517 0.0000 -17.1881 0.0000
# 3 57.1946 15.2517 88.0170 0.0000 -0.9527 0.0000
# 4 0.0000 0.0000 0.0000 -31.3004 0.0000 34.0272
# 5 -9.4896 -17.1881 -0.9527 0.0000 22.5483 0.0000
# 6 0.0000 0.0000 0.0000 34.0272 0.0000 -2.8684
#
#
#
# Elastic Compliance Matrix: (Units=1/GPa)
#
#
# Indices 1 2 3 4 5 6 
#
# 1 0.007220 -0.005221 -0.003799 0.000000 -0.001102 0.000000
# 2 -0.005221 0.031437 -0.001820 0.000000 0.021690 0.000000
# 3 -0.003799 -0.001820 0.014120 0.000000 -0.002390 0.000000
# 4 0.000000 0.000000 0.000000 0.002686 0.000000 0.031859
# 5 -0.001102 0.021690 -0.002390 0.000000 0.060318 0.000000
# 6 0.000000 0.000000 0.000000 0.031859 0.000000 0.029306
#
#
# Mechanical properties :
#
#
# Convention : Reuss Voigt Hill
#
# Bulk Modulus (GPa) = 32.15763 63.12476 47.64119
# Shear Modulus (GPa) = 28.22765 12.51134 20.36949
#
# Velocity S-wave (km/s) = 3.72774 2.48176 3.16664
# Velocity P-wave (km/s) = 5.86164 6.26798 6.06821
#
# Compressibility (1/GPa) = 0.03109682
#
# Stress axis : x y z
#
# Youngs Moduli (GPa) = 138.50181 31.80981 70.82348
#
# Poissons Ratio (x) = 0.16607 0.26906
# Poissons Ratio (y) = 0.72308 0.12891
# Poissons Ratio (z) = 0.52617 0.05790
#
# Static dielectric constant tensor:
#      x y z
#    x 1.725170 0.000000 -0.012080 
#    y 0.000000 1.755080 0.000000 
#    z -0.012080 0.000000 1.675870 
# 
# From -- ./inp_files/119072.got.cif
#   From: 2010.05.17/outbox.cif.g08.bks.cpg/sg12_60_cif.got.tgz:119072.got - 2010.06.03 13:09:07.
