data_PCOD9206048
_publ_section_title
;
Structure prediction by ZEFSAII (Michael W. Deem and Ramdas Pophale) SiO2 
 PCOD9206048
Probable space group: C 2/M
;
_chemical_formula_sum "Si O2"
_cell_formula_units_Z 48
_cell_length_a 9.884699
_cell_length_b 7.669135
_cell_length_c 25.811735
_cell_angle_alpha 90.000000
_cell_angle_beta 101.825297
_cell_angle_gamma 90.000000
_cell_volume 1915.185245
_symmetry_space_group_name_H-M "C 2/M"
_symmetry_group_IT_number 12
_symmetry_cell_setting 'monoclinic'
loop_
_space_group_symop_operation_xyz
x,y,z
-x,y,-z
-x,-y,-z
x,-y,z
1/2+x,1/2+y,z
1/2-x,1/2+y,-z
1/2-x,1/2-y,-z
1/2+x,1/2-y,z
loop_
_atom_site_type_symbol
_atom_site_label
_atom_site_fract_x
_atom_site_fract_y
_atom_site_fract_z
Si Si1 0.275090 0.211683 0.388832
Si Si2 0.090887 0.788011 0.276446
Si Si3 0.941681 0.203773 0.548544
Si Si4 0.397618 0.297184 0.106708
Si Si5 0.887999 0.297956 0.951776
Si Si6 0.808433 0.298712 0.212687
O O1 0.182328 0.264244 0.332788
O O2 0.430082 0.281248 0.401756
O O3 0.194164 0.274869 0.434128
O O4 0.280606 0.000000 0.389740
O O5 0.174260 0.729460 0.231661
O O6 0.936927 0.715362 0.262366
O O7 0.083550 0.000000 0.275341
O O8 0.000000 0.284775 0.500000
O O9 0.914034 0.000000 0.536615
O O10 0.414200 0.500000 0.095409
O O11 0.264586 0.221424 0.065566
O O12 0.536807 0.208854 0.098077
O O13 0.359729 0.286301 0.163867
O O14 0.869472 0.500000 0.964712
O O15 0.000000 0.219261 0.000000
O O16 0.781108 0.500000 0.197966
#
# Coordination Sequence:
#
# PCOD9206048 Si02
#       6
#     8   8   8   8   8   8
#     4  10  21  37  57  82 112 146 186 232 281 335
#     4  10  22  39  58  83 113 145 186 234 282 335
#     4  10  21  36  55  82 114 148 188 232 279 334
#     4  11  23  38  59  86 115 150 189 230 280 333
#     4  10  22  40  61  87 118 151 190 234 279 331
#     4  11  23  38  58  83 111 146 187 230 279 335
#
# _framework density 25.062849
#
# number of rings (size 3 to 8) (size 9 to 14) (size 15 to 20)
#    0.000    1.667    0.000    4.000    0.000    7.333 
#    0.000    0.000    0.000    0.000    0.000    0.000 
#    0.000    0.000    0.000    0.000    0.000    0.000 
#
# Total GULP energy -134339.398717 kJ/mol
# GULP energy per Si atom -5597.474947 kJ/mol
# Density = 2.500580 g / cm^3
# Si number density = 25.062849 Si / 1000 Ang^3
#
#
#
# Elastic Constant Matrix: (Units=GPa)
#
#
# Indices 1 2 3 4 5 6 
#
# 1 108.8282 -7.8002 -11.7870 0.0000 -5.6461 0.0000
# 2 -7.8002 59.1390 3.6193 0.0000 -7.4713 0.0000
# 3 -11.7870 3.6193 69.9077 0.0000 -4.2247 0.0000
# 4 0.0000 0.0000 0.0000 19.5075 0.0000 7.3233
# 5 -5.6461 -7.4713 -4.2247 0.0000 46.1290 0.0000
# 6 0.0000 0.0000 0.0000 7.3233 0.0000 10.0183
#
#
#
# Elastic Compliance Matrix: (Units=1/GPa)
#
#
# Indices 1 2 3 4 5 6 
#
# 1 0.009542 0.001353 0.001632 0.000000 0.001537 0.000000
# 2 0.001353 0.017491 -0.000499 0.000000 0.002953 0.000000
# 3 0.001632 -0.000499 0.014694 0.000000 0.001465 0.000000
# 4 0.000000 0.000000 0.000000 0.070650 0.000000 -0.051644
# 5 0.001537 0.002953 0.001465 0.000000 0.022479 0.000000
# 6 0.000000 0.000000 0.000000 -0.051644 0.000000 0.137568
#
#
# Mechanical properties :
#
#
# Convention : Reuss Voigt Hill
#
# Bulk Modulus (GPa) = 21.41391 22.88212 22.14802
# Shear Modulus (GPa) = 17.66662 32.05382 24.86022
#
# Velocity S-wave (km/s) = 2.65786 3.58010 3.15289
# Velocity P-wave (km/s) = 4.24047 5.12242 4.70217
#
# Compressibility (1/GPa) = 0.04669861
#
# Stress axis : x y z
#
# Youngs Moduli (GPa) = 104.79761 57.17116 68.05481
#
# Poissons Ratio (x) = -0.07734 -0.11105
# Poissons Ratio (y) = -0.14177 0.03396
# Poissons Ratio (z) = -0.17100 0.02853
#
# Static dielectric constant tensor:
#      x y z
#    x 1.924750 0.000000 0.013780 
#    y 0.000000 1.920260 0.000000 
#    z 0.013780 0.000000 2.060640 
# 
# From -- ./inp_files/334660.got.cif
#   From: 2010.05.17/outbox.cif.g08.bks.cpg/sg12_168_cif.got.tgz:334660.got - 2010.06.03 13:09:07.
