data_PCOD9206906
_publ_section_title
;
Structure prediction by ZEFSAII (Michael W. Deem and Ramdas Pophale) SiO2 
 PCOD9206906
Probable space group: C 2/M
;
_chemical_formula_sum "Si O2"
_cell_formula_units_Z 56
_cell_length_a 25.003798
_cell_length_b 7.671841
_cell_length_c 17.536227
_cell_angle_alpha 90.000000
_cell_angle_beta 135.447276
_cell_angle_gamma 90.000000
_cell_volume 2359.988233
_symmetry_space_group_name_H-M "C 2/M"
_symmetry_group_IT_number 12
_symmetry_cell_setting 'monoclinic'
loop_
_space_group_symop_operation_xyz
x,y,z
-x,y,-z
-x,-y,-z
x,-y,z
1/2+x,1/2+y,z
1/2-x,1/2+y,-z
1/2-x,1/2-y,-z
1/2+x,1/2-y,z
loop_
_atom_site_type_symbol
_atom_site_label
_atom_site_fract_x
_atom_site_fract_y
_atom_site_fract_z
Si Si1 0.208713 0.803009 0.817824
Si Si2 0.951407 0.210777 0.058627
Si Si3 0.618144 0.707271 0.277478
Si Si4 0.086637 0.297085 0.576986
Si Si5 0.095858 0.787572 0.825029
Si Si6 0.923500 0.788974 0.602729
Si Si7 0.326531 0.798904 0.821754
O O1 0.140521 0.808736 0.687045
O O2 0.167829 0.721880 0.850004
O O3 0.274020 0.712625 0.833671
O O4 0.232958 0.000000 0.863527
O O5 0.903837 0.260464 0.085973
O O6 0.036520 0.273365 0.163443
O O7 0.953847 0.000000 0.055427
O O8 0.910699 0.277796 0.942111
O O9 0.610959 0.500000 0.276803
O O10 0.623883 0.770036 0.370535
O O11 0.676898 0.739030 0.268977
O O12 0.091406 0.500000 0.604242
O O13 0.105485 0.279740 0.507093
O O14 0.000000 0.237502 0.500000
O O15 0.012615 0.736557 0.706799
O O16 0.096901 0.000000 0.822274
O O17 0.922226 0.000000 0.597407
O O18 0.304830 0.000000 0.797687
#
# Coordination Sequence:
#
# PCOD9206906 Si02
#       7
#     8   8   8   8   8   8   8
#     4  10  21  37  55  75 106 146 184 214 253 319
#     4   9  18  34  57  80 102 136 182 224 263 311
#     4   9  19  36  58  81 103 137 186 224 255 310
#     4  11  22  34  53  85 115 135 165 213 271 323
#     4   8  15  31  55  79 101 133 178 221 256 304
#     4   9  17  33  59  83 101 134 181 220 259 308
#     4  11  23  35  50  78 111 144 179 218 266 313
#
# _framework density 23.728930999999999
#
# number of rings (size 3 to 8) (size 9 to 14) (size 15 to 20)
#    0.000    2.429    1.429    3.000    0.000    5.143 
#    0.000    3.571    0.000    0.000    0.000    0.000 
#    0.000    0.000    0.000    0.000    0.000    0.000 
#
# Total GULP energy -156308.391114 kJ/mol
# GULP energy per Si atom -5582.442540 kJ/mol
# Density = 2.367492 g / cm^3
# Si number density = 23.728931 Si / 1000 Ang^3
#
#
#
# Elastic Constant Matrix: (Units=GPa)
#
#
# Indices 1 2 3 4 5 6 
#
# 1 122.0396 2.7171 5.3472 0.0000 -41.2211 0.0000
# 2 2.7171 45.0194 -5.4751 0.0000 3.2631 0.0000
# 3 5.3472 -5.4751 31.4809 0.0000 -19.4820 0.0000
# 4 0.0000 0.0000 0.0000 10.8680 0.0000 -4.1377
# 5 -41.2211 3.2631 -19.4820 0.0000 39.0281 0.0000
# 6 0.0000 0.0000 0.0000 -4.1377 0.0000 19.6269
#
#
#
# Elastic Compliance Matrix: (Units=1/GPa)
#
#
# Indices 1 2 3 4 5 6 
#
# 1 0.014800 -0.001166 0.010154 0.000000 0.020798 0.000000
# 2 -0.001166 0.022785 0.003212 0.000000 -0.001533 0.000000
# 3 0.010154 0.003212 0.053640 0.000000 0.037232 0.000000
# 4 0.000000 0.000000 0.000000 0.100043 0.000000 0.021091
# 5 0.020798 -0.001533 0.037232 0.000000 0.066303 0.000000
# 6 0.000000 0.000000 0.000000 0.021091 0.000000 0.055397
#
#
# Mechanical properties :
#
#
# Convention : Reuss Voigt Hill
#
# Bulk Modulus (GPa) = 8.64860 22.63536 15.64198
# Shear Modulus (GPa) = 15.28543 26.96797 21.12670
#
# Velocity S-wave (km/s) = 2.54080 3.37486 2.98709
# Velocity P-wave (km/s) = 3.50146 4.97455 4.30153
#
# Compressibility (1/GPa) = 0.11562567
#
# Stress axis : x y z
#
# Youngs Moduli (GPa) = 67.56799 43.88898 18.64266
#
# Poissons Ratio (x) = 0.05117 -0.18930
# Poissons Ratio (y) = 0.07877 -0.05988
# Poissons Ratio (z) = -0.68609 -0.14097
#
# Static dielectric constant tensor:
#      x y z
#    x 2.038520 0.000000 0.026780 
#    y 0.000000 1.897280 0.000000 
#    z 0.026780 0.000000 1.851560 
# 
# From -- ./inp_files/288382.got.cif
#   From: 2010.05.17/outbox.cif.g08.bks.cpg/sg12_145_cif.got.tgz:288382.got - 2010.06.03 13:09:07.
