data_PCOD9206405
_publ_section_title
;
Structure prediction by ZEFSAII (Michael W. Deem and Ramdas Pophale) SiO2 
 PCOD9206405
Probable space group: C 2/M
;
_chemical_formula_sum "Si O2"
_cell_formula_units_Z 40
_cell_length_a 27.101002
_cell_length_b 18.738906
_cell_length_c 9.137081
_cell_angle_alpha 90.000000
_cell_angle_beta 27.601325
_cell_angle_gamma 90.000000
_cell_volume 2149.883121
_symmetry_space_group_name_H-M "C 2/M"
_symmetry_group_IT_number 12
_symmetry_cell_setting 'monoclinic'
loop_
_space_group_symop_operation_xyz
x,y,z
-x,y,-z
-x,-y,-z
x,-y,z
1/2+x,1/2+y,z
1/2-x,1/2+y,-z
1/2-x,1/2-y,-z
1/2+x,1/2-y,z
loop_
_atom_site_type_symbol
_atom_site_label
_atom_site_fract_x
_atom_site_fract_y
_atom_site_fract_z
Si Si1 0.331398 0.500000 0.002412
Si Si2 0.251575 0.651104 0.134864
Si Si3 0.625277 0.646494 0.496778
Si Si4 0.481429 0.203312 0.217996
Si Si5 0.298370 0.218539 0.224361
Si Si6 0.965242 0.000000 0.344184
O O1 0.398073 0.500000 0.673994
O O2 0.413713 0.500000 0.919909
O O3 0.267347 0.574030 0.167726
O O4 0.126905 0.667347 0.441693
O O5 0.297826 0.715660 0.111403
O O6 0.314114 0.651226 0.818094
O O7 0.542660 0.711833 0.720208
O O8 0.715879 0.660773 0.378801
O O9 0.567278 0.571115 0.655235
O O10 0.500000 0.181796 0.000000
O O11 0.584643 0.190349 0.045244
O O12 0.250000 0.250000 0.500000
#
# Coordination Sequence:
#
# PCOD9206405 Si02
#       6
#     4   8   8   8   8   4
#     4   9  18  36  59  83 114 147 182 230 285 330
#     4  10  21  36  58  86 110 144 192 231 272 338
#     4  10  21  36  58  87 111 141 191 234 274 335
#     4  11  20  35  57  79 113 150 184 225 282 330
#     4  11  20  35  57  79 116 148 182 232 279 323
#     4   9  18  36  59  84 114 144 181 237 284 324
#
# _framework density 18.605661999999999
#
# number of rings (size 3 to 8) (size 9 to 14) (size 15 to 20)
#    0.000    1.800    4.000    3.600    0.000    4.800 
#    0.000    3.000    0.000    3.600    0.000    0.000 
#    0.000    0.000    0.000    0.000    0.000    0.000 
#
# Total GULP energy -111688.787353 kJ/mol
# GULP energy per Si atom -5584.439368 kJ/mol
# Density = 1.856332 g / cm^3
# Si number density = 18.605662 Si / 1000 Ang^3
#
#
#
# Elastic Constant Matrix: (Units=GPa)
#
#
# Indices 1 2 3 4 5 6 
#
# 1 125.8729 42.7245 19.6824 0.0000 -29.0429 0.0000
# 2 42.7245 99.9696 3.2751 0.0000 -22.6287 0.0000
# 3 19.6824 3.2751 38.3878 0.0000 -1.0824 0.0000
# 4 0.0000 0.0000 0.0000 -0.9579 0.0000 -4.2342
# 5 -29.0429 -22.6287 -1.0824 0.0000 39.0523 0.0000
# 6 0.0000 0.0000 0.0000 -4.2342 0.0000 20.3791
#
#
#
# Elastic Compliance Matrix: (Units=1/GPa)
#
#
# Indices 1 2 3 4 5 6 
#
# 1 0.011363 -0.003224 -0.005370 0.000000 0.006434 0.000000
# 2 -0.003224 0.012452 0.000727 0.000000 0.004838 0.000000
# 3 -0.005370 0.000727 0.028663 0.000000 -0.002778 0.000000
# 4 0.000000 0.000000 0.000000 -0.544178 0.000000 -0.113065
# 5 0.006434 0.004838 -0.002778 0.000000 0.033118 0.000000
# 6 0.000000 0.000000 0.000000 -0.113065 0.000000 0.025578
#
#
# Mechanical properties :
#
#
# Convention : Reuss Voigt Hill
#
# Bulk Modulus (GPa) = 27.21481 43.95493 35.58487
# Shear Modulus (GPa) = -12.34497 24.93126 6.29315
#
# Velocity S-wave (km/s) = -2.57866 3.66455 1.84112
# Velocity P-wave (km/s) = 2.40686 6.44833 4.86693
#
# Compressibility (1/GPa) = 0.03674470
#
# Stress axis : x y z
#
# Youngs Moduli (GPa) = 88.00581 80.30738 34.88858
#
# Poissons Ratio (x) = 0.25891 0.18734
# Poissons Ratio (y) = 0.28373 -0.02537
# Poissons Ratio (z) = 0.47255 -0.05839
#
# Static dielectric constant tensor:
#      x y z
#    x 1.645660 0.000000 0.013940 
#    y 0.000000 1.629060 0.000000 
#    z 0.013940 0.000000 1.632280 
# 
# From -- ./inp_files/63845.got.cif
#   From: 2010.05.17/outbox.cif.g08.bks.cpg/sg12_32_cif.got.tgz:63845.got - 2010.06.03 13:09:07.
