data_PCOD9206181
_publ_section_title
;
Structure prediction by ZEFSAII (Michael W. Deem and Ramdas Pophale) SiO2 
 PCOD9206181
Probable space group: C 2/M
;
_chemical_formula_sum "Si O2"
_cell_formula_units_Z 56
_cell_length_a 33.494314
_cell_length_b 9.066981
_cell_length_c 22.454656
_cell_angle_alpha 90.000000
_cell_angle_beta 25.172406
_cell_angle_gamma 90.000000
_cell_volume 2900.547426
_symmetry_space_group_name_H-M "C 2/M"
_symmetry_group_IT_number 12
_symmetry_cell_setting 'monoclinic'
loop_
_space_group_symop_operation_xyz
x,y,z
-x,y,-z
-x,-y,-z
x,-y,z
1/2+x,1/2+y,z
1/2-x,1/2+y,-z
1/2-x,1/2-y,-z
1/2+x,1/2-y,z
loop_
_atom_site_type_symbol
_atom_site_label
_atom_site_fract_x
_atom_site_fract_y
_atom_site_fract_z
Si Si1 0.721534 0.174890 0.818464
Si Si2 0.387661 0.827817 0.276991
Si Si3 0.709094 0.172447 0.464236
Si Si4 0.721050 0.324730 0.945198
Si Si5 0.551096 0.675113 0.993416
Si Si6 0.110116 0.176295 0.213494
Si Si7 0.893557 0.823855 0.507112
O O1 0.702374 0.246708 0.908057
O O2 0.827399 0.203645 0.653286
O O3 0.707193 0.000000 0.840571
O O4 0.650043 0.245149 0.867656
O O5 0.352663 0.815503 0.392181
O O6 0.304441 0.760847 0.348986
O O7 0.481348 0.736982 0.137917
O O8 0.402216 0.000000 0.243487
O O9 0.652180 0.239122 0.486382
O O10 0.731362 0.000000 0.424435
O O11 0.726401 0.500000 0.929648
O O12 0.817906 0.262599 0.841744
O O13 0.642559 0.294505 0.101677
O O14 0.562990 0.500000 0.982460
O O15 0.500000 0.707757 0.000000
O O16 0.002029 0.216861 0.369123
O O17 0.121024 0.000000 0.209111
O O18 0.890486 0.000000 0.499018
#
# Coordination Sequence:
#
# PCOD9206181 Si02
#       7
#     8   8   8   8   8   8   8
#     4  11  24  40  60  87 122 160 201 248 297 359
#     4  10  21  37  57  83 113 154 199 243 298 356
#     4  10  21  36  56  85 118 151 194 248 298 349
#     4  10  21  39  63  92 121 154 197 247 300 356
#     4  11  24  40  59  84 117 157 201 250 300 350
#     4   9  20  40  64  89 118 156 198 243 299 359
#     4  10  22  39  60  86 117 159 200 243 297 354
#
# _framework density 19.306698999999998
#
# number of rings (size 3 to 8) (size 9 to 14) (size 15 to 20)
#    0.000    1.857    0.000    3.000    2.000    8.000 
#    0.000    2.857    0.000    0.000    0.000    0.000 
#    0.000    0.000    0.000    0.000    0.000    0.000 
#
# Total GULP energy -156512.290489 kJ/mol
# GULP energy per Si atom -5589.724660 kJ/mol
# Density = 1.926276 g / cm^3
# Si number density = 19.306699 Si / 1000 Ang^3
#
#
#
# Elastic Constant Matrix: (Units=GPa)
#
#
# Indices 1 2 3 4 5 6 
#
# 1 66.1479 44.3623 29.0138 0.0004 2.0480 0.0005
# 2 44.3623 60.9181 42.6825 0.0022 3.5520 0.0003
# 3 29.0138 42.6825 103.4022 0.0022 -16.8730 -0.0003
# 4 0.0004 0.0022 0.0022 16.6819 -0.0005 -5.6858
# 5 2.0480 3.5520 -16.8730 -0.0005 16.8103 -0.0001
# 6 0.0005 0.0003 -0.0003 -5.6858 -0.0001 35.3035
#
#
#
# Elastic Compliance Matrix: (Units=1/GPa)
#
#
# Indices 1 2 3 4 5 6 
#
# 1 0.029690 -0.022886 0.001573 0.000002 0.002797 0.000000
# 2 -0.022886 0.045865 -0.016308 -0.000005 -0.023272 -0.000001
# 3 0.001573 -0.016308 0.019723 0.000000 0.023050 0.000000
# 4 0.000002 -0.000005 0.000000 0.063427 0.000003 0.010215
# 5 0.002797 -0.023272 0.023050 0.000003 0.087200 0.000001
# 6 0.000000 -0.000001 0.000000 0.010215 0.000001 0.029971
#
#
# Mechanical properties :
#
#
# Convention : Reuss Voigt Hill
#
# Bulk Modulus (GPa) = 49.91339 51.39838 50.65589
# Shear Modulus (GPa) = 13.97445 21.38643 17.68044
#
# Velocity S-wave (km/s) = 2.69330 3.33185 3.02945
# Velocity P-wave (km/s) = 5.96497 6.44061 6.20735
#
# Compressibility (1/GPa) = 0.02003470
#
# Stress axis : x y z
#
# Youngs Moduli (GPa) = 33.68174 21.80329 50.70309
#
# Poissons Ratio (x) = 0.49898 -0.07973
# Poissons Ratio (y) = 0.77083 0.82686
# Poissons Ratio (z) = -0.05297 0.35557
#
# Static dielectric constant tensor:
#      x y z
#    x 1.644730 0.000000 0.013490 
#    y 0.000000 1.641140 0.000000 
#    z 0.013490 0.000000 1.683600 
# 
# From -- ./inp_files/329559.got.cif
#   From: 2010.05.17/outbox.cif.g08.bks.cpg/sg12_165_cif.got.tgz:329559.got - 2010.06.03 13:09:07.
