data_PCOD9206384
_publ_section_title
;
Structure prediction by ZEFSAII (Michael W. Deem and Ramdas Pophale) SiO2 
 PCOD9206384
Probable space group: C 2/M
;
_chemical_formula_sum "Si O2"
_cell_formula_units_Z 64
_cell_length_a 9.844163
_cell_length_b 27.331643
_cell_length_c 16.317400
_cell_angle_alpha 90.000000
_cell_angle_beta 125.929926
_cell_angle_gamma 90.000000
_cell_volume 3554.991350
_symmetry_space_group_name_H-M "C 2/M"
_symmetry_group_IT_number 12
_symmetry_cell_setting 'monoclinic'
loop_
_space_group_symop_operation_xyz
x,y,z
-x,y,-z
-x,-y,-z
x,-y,z
1/2+x,1/2+y,z
1/2-x,1/2+y,-z
1/2-x,1/2-y,-z
1/2+x,1/2-y,z
loop_
_atom_site_type_symbol
_atom_site_label
_atom_site_fract_x
_atom_site_fract_y
_atom_site_fract_z
Si Si1 0.769669 0.905095 0.189575
Si Si2 0.576463 0.445723 0.911356
Si Si3 0.075604 0.442745 0.868509
Si Si4 0.245241 0.612807 0.789148
Si Si5 0.300838 0.187597 0.938911
Si Si6 0.813289 0.556786 0.397874
Si Si7 0.003563 0.942585 0.597322
Si Si8 0.199756 0.798768 0.083274
O O1 0.870143 0.940972 0.164350
O O2 0.577801 0.921013 0.134104
O O3 0.777271 0.853102 0.147172
O O4 0.862137 0.909309 0.308455
O O5 0.510549 0.500000 0.905400
O O6 0.429251 0.408131 0.877896
O O7 0.749302 0.438646 0.020797
O O8 0.042445 0.500000 0.842265
O O9 0.106218 0.414394 0.794981
O O10 0.218374 0.595318 0.686520
O O11 0.249199 0.668971 0.820441
O O12 0.240651 0.242382 0.895281
O O13 0.500000 0.186143 0.000000
O O14 0.266250 0.177989 0.022305
O O15 0.795984 0.500000 0.361251
O O16 0.674803 0.563266 0.420068
O O17 0.000000 0.561982 0.500000
O O18 0.000000 0.931725 0.500000
O O19 0.052524 0.000000 0.623304
O O20 0.000000 0.797553 0.000000
#
# Coordination Sequence:
#
# PCOD9206384 Si02
#       8
#     8   8   8   8   8   8   8   8
#     4  12  21  35  57  79 110 153 190 229 276 330
#     4  11  21  34  50  78 117 150 184 222 271 339
#     4  11  23  32  48  80 117 152 182 217 268 338
#     4  12  21  35  57  81 110 151 190 232 280 332
#     4  10  21  38  56  82 116 150 190 232 274 327
#     4  10  22  39  58  81 111 146 187 236 284 333
#     4  10  22  39  58  81 110 146 190 235 279 334
#     4  10  21  36  58  84 112 148 190 233 277 331
#
# _framework density 18.002856000000001
#
# number of rings (size 3 to 8) (size 9 to 14) (size 15 to 20)
#    0.000    1.250    1.250    6.750    1.750    2.000 
#    0.000    0.000    0.000    0.750    0.000    1.750 
#    0.000    0.000    0.000    0.000    0.000    0.000 
#
# Total GULP energy -178808.694285 kJ/mol
# GULP energy per Si atom -5587.771696 kJ/mol
# Density = 1.796188 g / cm^3
# Si number density = 18.002856 Si / 1000 Ang^3
#
#
#
# Elastic Constant Matrix: (Units=GPa)
#
#
# Indices 1 2 3 4 5 6 
#
# 1 72.9060 6.6598 14.4299 0.0000 -8.6414 0.0000
# 2 6.6598 104.0161 42.5531 0.0000 -9.2147 0.0000
# 3 14.4299 42.5531 96.4395 0.0000 -14.3689 0.0000
# 4 0.0000 0.0000 0.0000 30.4099 0.0000 -6.8550
# 5 -8.6414 -9.2147 -14.3689 0.0000 31.3557 0.0000
# 6 0.0000 0.0000 0.0000 -6.8550 0.0000 20.4956
#
#
#
# Elastic Compliance Matrix: (Units=1/GPa)
#
#
# Indices 1 2 3 4 5 6 
#
# 1 0.014429 0.000059 -0.001706 0.000000 0.003212 0.000000
# 2 0.000059 0.011771 -0.005028 0.000000 0.001171 0.000000
# 3 -0.001706 -0.005028 0.013473 0.000000 0.004226 0.000000
# 4 0.000000 0.000000 0.000000 0.035565 0.000000 0.011895
# 5 0.003212 0.001171 0.004226 0.000000 0.035058 0.000000
# 6 0.000000 0.000000 0.000000 0.011895 0.000000 0.052769
#
#
# Mechanical properties :
#
#
# Convention : Reuss Voigt Hill
#
# Bulk Modulus (GPa) = 37.99161 44.51636 41.25399
# Shear Modulus (GPa) = 26.99910 30.43350 28.71630
#
# Velocity S-wave (km/s) = 3.87681 4.11601 3.99820
# Velocity P-wave (km/s) = 6.41783 6.88257 6.65426
#
# Compressibility (1/GPa) = 0.02632160
#
# Stress axis : x y z
#
# Youngs Moduli (GPa) = 69.30314 84.95531 74.22378
#
# Poissons Ratio (x) = -0.00499 0.12665
# Poissons Ratio (y) = -0.00407 0.37320
# Poissons Ratio (z) = 0.11826 0.42716
#
# Static dielectric constant tensor:
#      x y z
#    x 1.639100 0.000000 -0.010770 
#    y 0.000000 1.640100 0.000000 
#    z -0.010770 0.000000 1.620730 
# 
# From -- ./inp_files/200937.got.cif
#   From: 2010.05.17/outbox.cif.g08.bks.cpg/sg12_101_cif.got.tgz:200937.got - 2010.06.03 13:09:07.
