data_PCOD9206410
_publ_section_title
;
Structure prediction by ZEFSAII (Michael W. Deem and Ramdas Pophale) SiO2 
 PCOD9206410
Probable space group: C 2/M
;
_chemical_formula_sum "Si O2"
_cell_formula_units_Z 40
_cell_length_a 21.878114
_cell_length_b 7.852639
_cell_length_c 11.296886
_cell_angle_alpha 90.000000
_cell_angle_beta 108.500979
_cell_angle_gamma 90.000000
_cell_volume 1840.510759
_symmetry_space_group_name_H-M "C 2/M"
_symmetry_group_IT_number 12
_symmetry_cell_setting 'monoclinic'
loop_
_space_group_symop_operation_xyz
x,y,z
-x,y,-z
-x,-y,-z
x,-y,z
1/2+x,1/2+y,z
1/2-x,1/2+y,-z
1/2-x,1/2-y,-z
1/2+x,1/2-y,z
loop_
_atom_site_type_symbol
_atom_site_label
_atom_site_fract_x
_atom_site_fract_y
_atom_site_fract_z
Si Si1 0.252429 0.197732 0.838433
Si Si2 0.546455 0.208291 0.417469
Si Si3 0.694098 0.203596 0.557171
Si Si4 0.856582 0.802479 0.049404
Si Si5 0.503612 0.806231 0.869499
O O1 0.220320 0.218215 0.693371
O O2 0.197907 0.262699 0.894739
O O3 0.264078 0.000000 0.870552
O O4 0.320596 0.288657 0.901179
O O5 0.500000 0.261226 0.500000
O O6 0.620901 0.259588 0.484003
O O7 0.525599 0.265471 0.271446
O O8 0.543087 0.000000 0.413416
O O9 0.750000 0.250000 0.500000
O O10 0.691296 0.000000 0.566892
O O11 0.920071 0.695363 0.103111
O O12 0.871108 0.000000 0.083733
O O13 0.477786 0.000000 0.865407
O O14 0.500000 0.724865 0.000000
#
# Coordination Sequence:
#
# PCOD9206410 Si02
#       5
#     8   8   8   8   8
#     4  10  21  38  60  85 117 155 198 245 297 361
#     4   9  19  37  60  85 116 158 204 245 292 358
#     4  11  23  38  60  89 123 159 201 250 304 362
#     4  10  21  37  59  88 118 152 194 246 304 359
#     4  10  21  36  58  86 116 155 200 245 296 357
#
# _framework density 21.733096
#
# number of rings (size 3 to 8) (size 9 to 14) (size 15 to 20)
#    0.000    2.000    0.000    3.000    2.800    4.400 
#    0.000    2.000    0.000    5.400    0.000    0.000 
#    0.000    0.000    0.000    0.000    0.000    0.000 
#
# Total GULP energy -111513.399802 kJ/mol
# GULP energy per Si atom -5575.669990 kJ/mol
# Density = 2.168363 g / cm^3
# Si number density = 21.733096 Si / 1000 Ang^3
#
#
#
# Elastic Constant Matrix: (Units=GPa)
#
#
# Indices 1 2 3 4 5 6 
#
# 1 74.8903 -4.7210 43.5955 0.0000 4.0328 0.0000
# 2 -4.7210 42.2571 -0.8033 0.0000 1.2405 0.0000
# 3 43.5955 -0.8033 171.5225 0.0000 1.2588 0.0000
# 4 0.0000 0.0000 0.0000 6.6199 0.0000 -3.6271
# 5 4.0328 1.2405 1.2588 0.0000 33.5744 0.0000
# 6 0.0000 0.0000 0.0000 -3.6271 0.0000 18.8917
#
#
#
# Elastic Compliance Matrix: (Units=1/GPa)
#
#
# Indices 1 2 3 4 5 6 
#
# 1 0.015902 0.001754 -0.004020 0.000000 -0.001824 0.000000
# 2 0.001754 0.023886 -0.000326 0.000000 -0.001081 0.000000
# 3 -0.004020 -0.000326 0.006849 0.000000 0.000238 0.000000
# 4 0.000000 0.000000 0.000000 0.168819 0.000000 0.032413
# 5 -0.001824 -0.001081 0.000238 0.000000 0.030035 0.000000
# 6 0.000000 0.000000 0.000000 0.032413 0.000000 0.059156
#
#
# Mechanical properties :
#
#
# Convention : Reuss Voigt Hill
#
# Bulk Modulus (GPa) = 24.12435 40.53469 32.32952
# Shear Modulus (GPa) = 15.44883 28.52379 21.98631
#
# Velocity S-wave (km/s) = 2.66906 3.62672 3.18410
# Velocity P-wave (km/s) = 4.54124 6.01906 5.33160
#
# Compressibility (1/GPa) = 0.04145189
#
# Stress axis : x y z
#
# Youngs Moduli (GPa) = 62.88573 41.86534 146.01406
#
# Poissons Ratio (x) = -0.07342 0.58700
# Poissons Ratio (y) = -0.11028 0.04759
# Poissons Ratio (z) = 0.25281 0.01365
#
# Static dielectric constant tensor:
#      x y z
#    x 1.552320 0.000000 0.336220 
#    y 0.000000 1.841070 0.000000 
#    z 0.336220 0.000000 1.308710 
# 
# From -- ./inp_files/162740.got.cif
#   From: 2010.05.17/outbox.cif.g08.bks.cpg/sg12_82_cif.got.tgz:162740.got - 2010.06.03 13:09:07.
