data_PCOD9206502
_publ_section_title
;
Structure prediction by ZEFSAII (Michael W. Deem and Ramdas Pophale) SiO2 
 PCOD9206502
Probable space group: C 2/M
;
_chemical_formula_sum "Si O2"
_cell_formula_units_Z 58
_cell_length_a 22.780659
_cell_length_b 9.343681
_cell_length_c 14.043007
_cell_angle_alpha 90.000000
_cell_angle_beta 109.294038
_cell_angle_gamma 90.000000
_cell_volume 2821.243896
_symmetry_space_group_name_H-M "C 2/M"
_symmetry_group_IT_number 12
_symmetry_cell_setting 'monoclinic'
loop_
_space_group_symop_operation_xyz
x,y,z
-x,y,-z
-x,-y,-z
x,-y,z
1/2+x,1/2+y,z
1/2-x,1/2+y,-z
1/2-x,1/2-y,-z
1/2+x,1/2-y,z
loop_
_atom_site_type_symbol
_atom_site_label
_atom_site_fract_x
_atom_site_fract_y
_atom_site_fract_z
Si Si1 0.931388 0.707677 0.449092
Si Si2 0.217450 0.833840 0.313231
Si Si3 0.878060 0.664466 0.621874
Si Si4 0.518186 0.669375 0.203417
Si Si5 0.671859 0.164338 0.749917
Si Si6 0.114463 0.839488 0.091191
Si Si7 0.389324 0.172438 0.099647
Si Si8 0.000000 0.000000 0.500000
O O1 0.888253 0.667724 0.514767
O O2 0.895722 0.666054 0.334863
O O3 0.000000 0.643594 0.500000
O O4 0.947171 0.874820 0.457680
O O5 0.184906 0.740203 0.376971
O O6 0.279717 0.771018 0.299109
O O7 0.168028 0.835056 0.199489
O O8 0.225701 0.000000 0.349433
O O9 0.880461 0.500000 0.656755
O O10 0.935311 0.755454 0.697064
O O11 0.512110 0.500000 0.223494
O O12 0.551687 0.681361 0.118648
O O13 0.453308 0.750349 0.163910
O O14 0.662848 0.219923 0.851699
O O15 0.693482 0.000000 0.770816
O O16 0.112577 0.000000 0.048066
O O17 0.123994 0.725678 0.013802
O O18 0.395236 0.000000 0.107303
#
# Coordination Sequence:
#
# PCOD9206502 Si02
#       8
#     8   8   8   8   8   8   8   2
#     4  10  22  39  61  85 121 149 188 233 279 334
#     4   9  21  41  63  79 111 157 196 235 280 342
#     4  11  22  36  59  91 118 149 189 237 293 337
#     4  10  21  36  59  83 116 155 193 232 284 350
#     4  10  22  41  58  82 113 152 195 235 287 342
#     4   9  19  37  56  81 110 149 195 237 286 346
#     4  11  22  34  56  85 117 150 189 243 295 339
#     4   8  24  40  58  92 116 154 198 228 268 356
#
# _framework density 20.558306000000002
#
# number of rings (size 3 to 8) (size 9 to 14) (size 15 to 20)
#    0.414    1.655    0.000    3.724    1.931    7.724 
#    2.483    0.000    0.000    0.000    0.000    0.000 
#    0.000    0.000    0.000    0.000    0.000    0.000 
#
# Total GULP energy -161562.183718 kJ/mol
# GULP energy per Si atom -5571.109783 kJ/mol
# Density = 2.051151 g / cm^3
# Si number density = 20.558306 Si / 1000 Ang^3
#
#
#
# Elastic Constant Matrix: (Units=GPa)
#
#
# Indices 1 2 3 4 5 6 
#
# 1 79.9960 14.8577 5.6940 0.0000 -19.0577 0.0000
# 2 14.8577 112.2723 13.5944 0.0000 -15.8168 0.0000
# 3 5.6940 13.5944 53.9724 0.0000 -21.8995 0.0000
# 4 0.0000 0.0000 0.0000 -247.1367 0.0000 75.4942
# 5 -19.0577 -15.8168 -21.8995 0.0000 24.2561 0.0000
# 6 0.0000 0.0000 0.0000 75.4942 0.0000 -18.9081
#
#
#
# Elastic Compliance Matrix: (Units=1/GPa)
#
#
# Indices 1 2 3 4 5 6 
#
# 1 0.016367 -0.000353 0.005502 0.000000 0.017596 0.000000
# 2 -0.000353 0.009817 0.000078 0.000000 0.006194 0.000000
# 3 0.005502 0.000078 0.031093 0.000000 0.032446 0.000000
# 4 0.000000 0.000000 0.000000 0.018420 0.000000 0.073546
# 5 0.017596 0.006194 0.032446 0.000000 0.088384 0.000000
# 6 0.000000 0.000000 0.000000 0.073546 0.000000 0.240758
#
#
# Mechanical properties :
#
#
# Convention : Reuss Voigt Hill
#
# Bulk Modulus (GPa) = 14.76457 34.94810 24.85633
# Shear Modulus (GPa) = 11.99152 -34.21811 -11.11329
#
# Velocity S-wave (km/s) = 2.41777 -4.08418 -2.32755
# Velocity P-wave (km/s) = 3.87189 2.28130 2.21215
#
# Compressibility (1/GPa) = 0.06772971
#
# Stress axis : x y z
#
# Youngs Moduli (GPa) = 61.10012 101.86571 32.16179
#
# Poissons Ratio (x) = 0.03598 -0.17695
# Poissons Ratio (y) = 0.02158 -0.00251
# Poissons Ratio (z) = -0.33617 -0.00794
#
# Static dielectric constant tensor:
#      x y z
#    x 1.778780 0.000000 -0.012300 
#    y 0.000000 1.710960 0.000000 
#    z -0.012300 0.000000 1.749320 
# 
# From -- ./inp_files/237709.got.cif
#   From: 2010.05.17/outbox.cif.g08.bks.cpg/sg12_119_cif.got.tgz:237709.got - 2010.06.03 13:09:07.
