data_PCOD9206348
_publ_section_title
;
Structure prediction by ZEFSAII (Michael W. Deem and Ramdas Pophale) SiO2 
 PCOD9206348
Probable space group: C 2/M
;
_chemical_formula_sum "Si O2"
_cell_formula_units_Z 48
_cell_length_a 11.224743
_cell_length_b 23.889976
_cell_length_c 10.307000
_cell_angle_alpha 90.000000
_cell_angle_beta 107.678233
_cell_angle_gamma 90.000000
_cell_volume 2633.392670
_symmetry_space_group_name_H-M "C 2/M"
_symmetry_group_IT_number 12
_symmetry_cell_setting 'monoclinic'
loop_
_space_group_symop_operation_xyz
x,y,z
-x,y,-z
-x,-y,-z
x,-y,z
1/2+x,1/2+y,z
1/2-x,1/2+y,-z
1/2-x,1/2-y,-z
1/2+x,1/2-y,z
loop_
_atom_site_type_symbol
_atom_site_label
_atom_site_fract_x
_atom_site_fract_y
_atom_site_fract_z
Si Si1 0.967435 0.598360 0.339764
Si Si2 0.401915 0.316272 0.568679
Si Si3 0.926439 0.500000 0.115505
Si Si4 0.684347 0.621997 0.218058
Si Si5 0.644660 0.500000 0.091767
Si Si6 0.353067 0.735995 0.926569
Si Si7 0.358893 0.201908 0.661299
O O1 0.960004 0.551849 0.223146
O O2 0.829903 0.624926 0.302798
O O3 0.000000 0.579838 0.500000
O O4 0.061137 0.645995 0.321000
O O5 0.500000 0.338115 0.500000
O O6 0.395218 0.357035 0.687416
O O7 0.436249 0.253464 0.624900
O O8 0.266427 0.309737 0.460053
O O9 0.773594 0.500000 0.046394
O O10 0.000000 0.500000 0.000000
O O11 0.657882 0.558394 0.172351
O O12 0.658822 0.669408 0.102719
O O13 0.500000 0.500000 0.000000
O O14 0.322460 0.773100 0.789205
O O15 0.500000 0.748076 0.000000
O O16 0.250000 0.750000 0.000000
#
# Coordination Sequence:
#
# PCOD9206348 Si02
#       7
#     8   8   4   8   4   8   8
#     4  11  20  40  65  92 118 159 205 258 309 364
#     4  10  21  36  57  89 123 151 200 245 305 359
#     4  10  25  43  64  93 122 159 209 260 310 366
#     4  10  22  39  64  87 116 159 205 247 304 364
#     4  10  22  45  65  85 121 167 204 245 303 374
#     4  11  24  38  56  90 126 161 200 247 299 372
#     4  10  22  35  61  86 120 162 193 249 308 362
#
# _framework density 18.227436999999998
#
# number of rings (size 3 to 8) (size 9 to 14) (size 15 to 20)
#    0.000    1.667    1.667    2.250    9.333    3.333 
#    3.000    0.417    0.000    0.000    0.000    0.000 
#    0.000    0.000    0.000    0.000    0.000    0.000 
#
# Total GULP energy -133720.908298 kJ/mol
# GULP energy per Si atom -5571.704512 kJ/mol
# Density = 1.818595 g / cm^3
# Si number density = 18.227437 Si / 1000 Ang^3
#
#
#
# Elastic Constant Matrix: (Units=GPa)
#
#
# Indices 1 2 3 4 5 6 
#
# 1 100.4461 49.0518 34.4901 0.0000 -19.7157 0.0000
# 2 49.0518 118.0362 40.6552 0.0000 -18.4087 0.0000
# 3 34.4901 40.6552 73.3952 0.0000 -19.8808 0.0000
# 4 0.0000 0.0000 0.0000 11.8880 0.0000 13.2735
# 5 -19.7157 -18.4087 -19.8808 0.0000 40.3956 0.0000
# 6 0.0000 0.0000 0.0000 13.2735 0.0000 9.3515
#
#
#
# Elastic Compliance Matrix: (Units=1/GPa)
#
#
# Indices 1 2 3 4 5 6 
#
# 1 0.013705 -0.004049 -0.003329 0.000000 0.003205 0.000000
# 2 -0.004049 0.011840 -0.004303 0.000000 0.001302 0.000000
# 3 -0.003329 -0.004303 0.019155 0.000000 0.005841 0.000000
# 4 0.000000 0.000000 0.000000 -0.143835 0.000000 0.204158
# 5 0.003205 0.001302 0.005841 0.000000 0.029788 0.000000
# 6 0.000000 0.000000 0.000000 0.204158 0.000000 -0.182847
#
#
# Mechanical properties :
#
#
# Convention : Reuss Voigt Hill
#
# Bulk Modulus (GPa) = 46.86565 60.03018 53.44792
# Shear Modulus (GPa) = -22.55101 23.50573 0.47736
#
# Velocity S-wave (km/s) = -3.52120 3.59497 0.51231
# Velocity P-wave (km/s) = 3.03901 7.08782 5.45311
#
# Compressibility (1/GPa) = 0.02133759
#
# Stress axis : x y z
#
# Youngs Moduli (GPa) = 72.96545 84.46247 52.20497
#
# Poissons Ratio (x) = 0.34196 0.17381
# Poissons Ratio (y) = 0.29542 0.22464
# Poissons Ratio (z) = 0.24293 0.36344
#
# Static dielectric constant tensor:
#      x y z
#    x 1.801970 0.000000 -0.095620 
#    y 0.000000 1.632880 0.000000 
#    z -0.095620 0.000000 1.734790 
# 
# From -- ./inp_files/51486.got.cif
#   From: 2010.05.17/outbox.cif.g08.bks.cpg/sg12_26_cif.got.tgz:51486.got - 2010.06.03 13:09:07.
