data_PCOD9206416
_publ_section_title
;
Structure prediction by ZEFSAII (Michael W. Deem and Ramdas Pophale) SiO2 
 PCOD9206416
Probable space group: C 2/M
;
_chemical_formula_sum "Si O2"
_cell_formula_units_Z 34
_cell_length_a 28.003148
_cell_length_b 12.385365
_cell_length_c 7.130087
_cell_angle_alpha 90.000000
_cell_angle_beta 139.830576
_cell_angle_gamma 90.000000
_cell_volume 1595.158604
_symmetry_space_group_name_H-M "C 2/M"
_symmetry_group_IT_number 12
_symmetry_cell_setting 'monoclinic'
loop_
_space_group_symop_operation_xyz
x,y,z
-x,y,-z
-x,-y,-z
x,-y,z
1/2+x,1/2+y,z
1/2-x,1/2+y,-z
1/2-x,1/2-y,-z
1/2+x,1/2-y,z
loop_
_atom_site_type_symbol
_atom_site_label
_atom_site_fract_x
_atom_site_fract_y
_atom_site_fract_z
Si Si1 0.924816 0.622108 0.551057
Si Si2 0.294789 0.879488 0.435923
Si Si3 0.464982 0.317696 0.198592
Si Si4 0.677723 0.204791 0.086178
Si Si5 0.000000 0.000000 0.000000
O O1 0.954283 0.500000 0.628509
O O2 0.876735 0.634022 0.595683
O O3 0.987695 0.711129 0.714805
O O4 0.865376 0.642140 0.205739
O O5 0.295005 0.869706 0.661817
O O6 0.243112 0.782205 0.210926
O O7 0.269584 0.000000 0.303757
O O8 0.500000 0.357177 0.500000
O O9 0.381846 0.283526 0.994802
O O10 0.471839 0.405996 0.061409
#
# Coordination Sequence:
#
# PCOD9206416 Si02
#       5
#     8   8   8   8   2
#     4  10  21  40  63  90 118 152 199 251 302 350
#     4  10  21  36  58  86 120 158 197 242 295 354
#     4  10  23  39  62  91 119 158 202 246 299 355
#     4  10  21  38  59  86 121 154 202 242 298 352
#     4  12  22  40  58  82 128 160 194 240 292 356
#
# _framework density 21.314495000000001
#
# number of rings (size 3 to 8) (size 9 to 14) (size 15 to 20)
#    0.000    1.882    0.000    3.176    1.647    5.176 
#    2.118    2.941   18.118    0.000    0.000    0.000 
#    0.000    0.000    0.000    0.000    0.000    0.000 
#
# Total GULP energy -94771.397583 kJ/mol
# GULP energy per Si atom -5574.788093 kJ/mol
# Density = 2.126598 g / cm^3
# Si number density = 21.314495 Si / 1000 Ang^3
#
#
#
# Elastic Constant Matrix: (Units=GPa)
#
#
# Indices 1 2 3 4 5 6 
#
# 1 64.6123 12.7388 -10.0380 0.0000 -4.3174 0.0000
# 2 12.7388 62.4521 1.3819 0.0000 -4.0394 0.0000
# 3 -10.0380 1.3819 36.6283 0.0000 0.8975 0.0000
# 4 0.0000 0.0000 0.0000 566.4590 0.0000 603.9105
# 5 -4.3174 -4.0394 0.8975 0.0000 21.1074 0.0000
# 6 0.0000 0.0000 0.0000 603.9105 0.0000 655.0928
#
#
#
# Elastic Compliance Matrix: (Units=1/GPa)
#
#
# Indices 1 2 3 4 5 6 
#
# 1 0.017063 -0.003415 0.004740 0.000000 0.002635 0.000000
# 2 -0.003415 0.016914 -0.001638 0.000000 0.002608 0.000000
# 3 0.004740 -0.001638 0.028676 0.000000 -0.000563 0.000000
# 4 0.000000 0.000000 0.000000 0.102755 0.000000 -0.094727
# 5 0.002635 0.002608 -0.000563 0.000000 0.048439 0.000000
# 6 0.000000 0.000000 0.000000 -0.094727 0.000000 0.088853
#
#
# Mechanical properties :
#
#
# Convention : Reuss Voigt Hill
#
# Bulk Modulus (GPa) = 16.12186 19.09535 17.60860
# Shear Modulus (GPa) = 15.43211 259.17250 137.30231
#
# Velocity S-wave (km/s) = 2.69368 11.03895 8.03475
# Velocity P-wave (km/s) = 4.15389 13.09413 9.71368
#
# Compressibility (1/GPa) = 0.06202759
#
# Stress axis : x y z
#
# Youngs Moduli (GPa) = 58.60729 59.12352 34.87243
#
# Poissons Ratio (x) = 0.20190 -0.16531
# Poissons Ratio (y) = 0.20014 0.05712
# Poissons Ratio (z) = -0.27782 0.09684
#
# Static dielectric constant tensor:
#      x y z
#    x 1.751740 0.000000 -0.043690 
#    y 0.000000 1.723880 0.000000 
#    z -0.043690 0.000000 1.797510 
# 
# From -- ./inp_files/102937.got.cif
#   From: 2010.05.17/outbox.cif.g08.bks.cpg/sg12_52_cif.got.tgz:102937.got - 2010.06.03 13:09:07.
