data_PCOD9206099
_publ_section_title
;
Structure prediction by ZEFSAII (Michael W. Deem and Ramdas Pophale) SiO2 
 PCOD9206099
Probable space group: C 2/M
;
_chemical_formula_sum "Si O2"
_cell_formula_units_Z 56
_cell_length_a 14.946040
_cell_length_b 8.964977
_cell_length_c 25.366084
_cell_angle_alpha 90.000000
_cell_angle_beta 63.365677
_cell_angle_gamma 90.000000
_cell_volume 3038.161158
_symmetry_space_group_name_H-M "C 2/M"
_symmetry_group_IT_number 12
_symmetry_cell_setting 'monoclinic'
loop_
_space_group_symop_operation_xyz
x,y,z
-x,y,-z
-x,-y,-z
x,-y,z
1/2+x,1/2+y,z
1/2-x,1/2+y,-z
1/2-x,1/2-y,-z
1/2+x,1/2-y,z
loop_
_atom_site_type_symbol
_atom_site_label
_atom_site_fract_x
_atom_site_fract_y
_atom_site_fract_z
Si Si1 0.632140 0.821181 0.682049
Si Si2 0.414946 0.820631 0.774363
Si Si3 0.593181 0.328926 0.436323
Si Si4 0.677235 0.819966 0.090604
Si Si5 0.100679 0.179829 0.004489
Si Si6 0.728138 0.672347 0.561154
Si Si7 0.835191 0.174630 0.691850
O O1 0.529912 0.771246 0.736477
O O2 0.647270 0.748438 0.620728
O O3 0.729197 0.787120 0.692290
O O4 0.629052 0.000000 0.676481
O O5 0.365842 0.768890 0.841894
O O6 0.357263 0.767062 0.737779
O O7 0.414142 0.000000 0.775839
O O8 0.500000 0.324121 0.500000
O O9 0.635897 0.500000 0.430142
O O10 0.669044 0.202958 0.434967
O O11 0.582053 0.307149 0.376641
O O12 0.615592 0.750693 0.058263
O O13 0.669660 0.000000 0.089442
O O14 0.795085 0.781924 0.052894
O O15 0.096745 0.000000 0.010558
O O16 0.000000 0.226895 0.000000
O O17 0.704914 0.500000 0.559461
O O18 0.750000 0.750000 0.500000
O O19 0.832815 0.000000 0.706385
#
# Coordination Sequence:
#
# PCOD9206099 Si02
#       7
#     8   8   8   8   8   8   8
#     4   9  20  39  55  73 104 142 178 221 277 333
#     4  10  21  36  56  79 109 145 182 226 274 322
#     4   9  19  36  55  76 104 136 171 220 279 334
#     4   9  19  35  53  80 113 145 184 226 266 316
#     4   9  18  34  56  81 113 149 182 221 268 317
#     4  11  22  35  53  77 103 133 174 223 275 332
#     4   9  19  35  53  75 105 138 176 219 271 331
#
# _framework density 18.432203000000001
#
# number of rings (size 3 to 8) (size 9 to 14) (size 15 to 20)
#    0.000    2.571    0.000    2.143    2.000    5.143 
#    0.000    0.000    0.000    0.000    0.000    0.000 
#    0.000    0.000    0.000    0.000    0.000    0.000 
#
# Total GULP energy -156064.657145 kJ/mol
# GULP energy per Si atom -5573.737755 kJ/mol
# Density = 1.839025 g / cm^3
# Si number density = 18.432203 Si / 1000 Ang^3
#
#
#
# Elastic Constant Matrix: (Units=GPa)
#
#
# Indices 1 2 3 4 5 6 
#
# 1 104.3341 28.0532 74.7798 0.0000 4.5071 0.0000
# 2 28.0532 22.2854 42.3882 0.0000 1.1602 0.0000
# 3 74.7798 42.3882 192.2889 0.0000 6.6825 0.0000
# 4 0.0000 0.0000 0.0000 26.3784 0.0000 9.0719
# 5 4.5071 1.1602 6.6825 0.0000 19.2653 0.0000
# 6 0.0000 0.0000 0.0000 9.0719 0.0000 27.5165
#
#
#
# Elastic Compliance Matrix: (Units=1/GPa)
#
#
# Indices 1 2 3 4 5 6 
#
# 1 0.015466 -0.013868 -0.002896 0.000000 -0.001779 0.000000
# 2 -0.013868 0.089738 -0.014488 0.000000 0.002866 0.000000
# 3 -0.002896 -0.014488 0.009582 0.000000 -0.001774 0.000000
# 4 0.000000 0.000000 0.000000 0.042758 0.000000 -0.014097
# 5 -0.001779 0.002866 -0.001774 0.000000 0.052766 0.000000
# 6 0.000000 0.000000 0.000000 -0.014097 0.000000 0.040989
#
#
# Mechanical properties :
#
#
# Convention : Reuss Voigt Hill
#
# Bulk Modulus (GPa) = 19.12713 67.70564 43.41638
# Shear Modulus (GPa) = 15.09525 26.21118 20.65322
#
# Velocity S-wave (km/s) = 2.86485 3.77508 3.35101
# Velocity P-wave (km/s) = 4.61982 7.47085 6.21113
#
# Compressibility (1/GPa) = 0.05228177
#
# Stress axis : x y z
#
# Youngs Moduli (GPa) = 64.65942 11.14353 104.36244
#
# Poissons Ratio (x) = 0.15454 0.30219
# Poissons Ratio (y) = 0.89671 1.51202
# Poissons Ratio (z) = 0.18722 0.16145
#
# Static dielectric constant tensor:
#      x y z
#    x 1.659030 0.000000 -0.017210 
#    y 0.000000 1.630140 0.000000 
#    z -0.017210 0.000000 1.646520 
# 
# From -- ./inp_files/338582.got.cif
#   From: 2010.05.17/outbox.cif.g08.bks.cpg/sg12_170_cif.got.tgz:338582.got - 2010.06.03 13:09:07.
