data_PCOD9206814
_publ_section_title
;
Structure prediction by ZEFSAII (Michael W. Deem and Ramdas Pophale) SiO2 
 PCOD9206814
Probable space group: C 2/M
;
_chemical_formula_sum "Si O2"
_cell_formula_units_Z 42
_cell_length_a 10.774537
_cell_length_b 21.555463
_cell_length_c 15.036286
_cell_angle_alpha 90.000000
_cell_angle_beta 36.134168
_cell_angle_gamma 90.000000
_cell_volume 2059.261707
_symmetry_space_group_name_H-M "C 2/M"
_symmetry_group_IT_number 12
_symmetry_cell_setting 'monoclinic'
loop_
_space_group_symop_operation_xyz
x,y,z
-x,y,-z
-x,-y,-z
x,-y,z
1/2+x,1/2+y,z
1/2-x,1/2+y,-z
1/2-x,1/2-y,-z
1/2+x,1/2-y,z
loop_
_atom_site_type_symbol
_atom_site_label
_atom_site_fract_x
_atom_site_fract_y
_atom_site_fract_z
Si Si1 0.325230 0.887845 0.981663
Si Si2 0.750846 0.930656 0.168221
Si Si3 0.794789 0.304027 0.264516
Si Si4 0.666480 0.680685 0.533374
Si Si5 0.843528 0.843074 0.270107
Si Si6 0.000000 0.500000 0.000000
O O1 0.353937 0.911602 0.863604
O O2 0.496428 0.833837 0.895753
O O3 0.370104 0.945080 0.020563
O O4 0.089547 0.861491 0.124450
O O5 0.727492 0.882185 0.261450
O O6 0.687826 0.000000 0.231415
O O7 0.000000 0.931742 0.000000
O O8 0.586813 0.317267 0.327498
O O9 0.750300 0.334971 0.387083
O O10 0.816304 0.230046 0.265301
O O11 0.750000 0.750000 0.500000
O O12 0.728264 0.644647 0.586873
#
# Coordination Sequence:
#
# PCOD9206814 Si02
#       6
#     8   8   8   8   8   2
#     4  11  22  39  62  90 124 151 209 246 297 361
#     4   9  19  37  58  84 122 163 196 244 300 356
#     4  10  21  38  61  93 122 158 195 256 304 346
#     4   9  20  38  58  87 124 163 195 236 311 368
#     4  10  21  36  65  92 122 157 197 252 302 357
#     4  12  24  40  62  86 122 174 190 242 304 362
#
# _framework density 20.395658999999998
#
# number of rings (size 3 to 8) (size 9 to 14) (size 15 to 20)
#    0.000    2.095    0.952    1.714    6.667    0.000 
#    8.571    0.000    2.095    3.429    0.000    0.000 
#    0.000    0.000    0.000    0.000    0.000    0.000 
#
# Total GULP energy -116931.456894 kJ/mol
# GULP energy per Si atom -5568.164614 kJ/mol
# Density = 2.034924 g / cm^3
# Si number density = 20.395659 Si / 1000 Ang^3
#
#
#
# Elastic Constant Matrix: (Units=GPa)
#
#
# Indices 1 2 3 4 5 6 
#
# 1 74.9684 26.3424 8.2134 0.0016 17.8862 0.0003
# 2 26.3424 88.0372 16.5507 0.0009 11.2456 0.0000
# 3 8.2134 16.5507 54.5119 0.0028 -7.1161 -0.0006
# 4 0.0016 0.0009 0.0028 4.1588 -0.0008 2.4667
# 5 17.8862 11.2456 -7.1161 -0.0008 28.0058 -0.0002
# 6 0.0003 0.0000 -0.0006 2.4667 -0.0002 30.3648
#
#
#
# Elastic Compliance Matrix: (Units=1/GPa)
#
#
# Indices 1 2 3 4 5 6 
#
# 1 0.017326 -0.003281 -0.002986 -0.000006 -0.010506 0.000000
# 2 -0.003281 0.013715 -0.004256 0.000000 -0.004493 0.000000
# 3 -0.002986 -0.004256 0.021264 -0.000011 0.009019 0.000001
# 4 -0.000006 0.000000 -0.000011 0.252628 0.000008 -0.020522
# 5 -0.010506 -0.004493 0.009019 0.000008 0.046513 0.000000
# 6 0.000000 0.000000 0.000001 -0.020522 0.000000 0.034600
#
#
# Mechanical properties :
#
#
# Convention : Reuss Voigt Hill
#
# Bulk Modulus (GPa) = 31.99121 35.52559 33.75840
# Shear Modulus (GPa) = 11.97574 23.59994 17.78784
#
# Velocity S-wave (km/s) = 2.42579 3.40532 2.95640
# Velocity P-wave (km/s) = 4.85441 5.73739 5.31427
#
# Compressibility (1/GPa) = 0.03125858
#
# Stress axis : x y z
#
# Youngs Moduli (GPa) = 57.71828 72.91499 47.02747
#
# Poissons Ratio (x) = 0.23921 0.14042
# Poissons Ratio (y) = 0.18936 0.20016
# Poissons Ratio (z) = 0.17234 0.31034
#
# Static dielectric constant tensor:
#      x y z
#    x 1.797580 0.000000 0.059090 
#    y 0.000000 1.680280 0.000000 
#    z 0.059090 0.000000 1.807330 
# 
# From -- ./inp_files/306552.got.cif
#   From: 2010.05.17/outbox.cif.g08.bks.cpg/sg12_154_cif.got.tgz:306552.got - 2010.06.03 13:09:07.
