data_PCOD9206169
_publ_section_title
;
Structure prediction by ZEFSAII (Michael W. Deem and Ramdas Pophale) SiO2 
 PCOD9206169
Probable space group: C 2/M
;
_chemical_formula_sum "Si O2"
_cell_formula_units_Z 40
_cell_length_a 11.778761
_cell_length_b 30.112910
_cell_length_c 9.083507
_cell_angle_alpha 90.000000
_cell_angle_beta 39.540286
_cell_angle_gamma 90.000000
_cell_volume 2051.098824
_symmetry_space_group_name_H-M "C 2/M"
_symmetry_group_IT_number 12
_symmetry_cell_setting 'monoclinic'
loop_
_space_group_symop_operation_xyz
x,y,z
-x,y,-z
-x,-y,-z
x,-y,z
1/2+x,1/2+y,z
1/2-x,1/2+y,-z
1/2-x,1/2-y,-z
1/2+x,1/2-y,z
loop_
_atom_site_type_symbol
_atom_site_label
_atom_site_fract_x
_atom_site_fract_y
_atom_site_fract_z
Si Si1 0.213210 0.795752 0.953494
Si Si2 0.000000 0.552622 0.675280
Si Si3 0.786890 0.113723 0.538193
Si Si4 0.713210 0.295752 0.620086
Si Si5 0.786890 0.886277 0.888027
O O1 0.284395 0.795188 0.715605
O O2 0.250000 0.750000 0.000000
O O3 0.272368 0.839038 0.984235
O O4 0.000000 0.799507 0.157710
O O5 0.000001 0.500000 0.701612
O O6 0.000000 0.560484 0.500000
O O7 0.172234 0.575739 0.575270
O O8 0.827766 0.575739 0.919738
O O9 0.727632 0.160962 0.528972
O O10 0.756152 0.113783 0.743848
O O11 1.000000 0.108271 0.300539
O O12 0.750000 0.250000 0.500000
#
# Coordination Sequence:
#
# PCOD9206169 Si02
#       5
#     8   8   8   8   8
#     4  10  21  36  56  84 119 160 203 245 297 359
#     4  11  25  43  65  93 123 161 207 255 312 373
#     4  10  22  41  64  90 123 161 204 255 309 366
#     4  10  21  36  56  84 119 160 203 245 297 359
#     4  10  22  41  64  90 123 161 204 255 309 366
#
# _framework density 19.501740999999999
#
# number of rings (size 3 to 8) (size 9 to 14) (size 15 to 20)
#    0.000    1.800    0.000    3.000    2.800    7.200 
#    0.000    4.000    0.000    0.000    0.000    0.000 
#    0.000    0.000    0.000    0.000    0.000    0.000 
#
# Total GULP energy -111781.760860 kJ/mol
# GULP energy per Si atom -5589.088043 kJ/mol
# Density = 1.945735 g / cm^3
# Si number density = 19.501741 Si / 1000 Ang^3
#
#
#
# Elastic Constant Matrix: (Units=GPa)
#
#
# Indices 1 2 3 4 5 6 
#
# 1 139.9897 101.6593 74.4441 0.0000 26.2390 0.0000
# 2 101.6593 184.8186 92.3250 0.0000 31.0669 0.0000
# 3 74.4441 92.3250 124.5204 0.0000 25.2475 0.0000
# 4 0.0000 0.0000 0.0000 37.0681 0.0000 1.0166
# 5 26.2390 31.0669 25.2475 0.0000 32.1320 0.0000
# 6 0.0000 0.0000 0.0000 1.0166 0.0000 37.3737
#
#
#
# Elastic Compliance Matrix: (Units=1/GPa)
#
#
# Indices 1 2 3 4 5 6 
#
# 1 0.013258 -0.004953 -0.003603 0.000000 -0.003206 0.000000
# 2 -0.004953 0.010882 -0.004513 0.000000 -0.002931 0.000000
# 3 -0.003603 -0.004513 0.014334 0.000000 -0.003956 0.000000
# 4 0.000000 0.000000 0.000000 0.026998 0.000000 -0.000734
# 5 -0.003206 -0.002931 -0.003956 0.000000 0.039681 0.000000
# 6 0.000000 0.000000 0.000000 -0.000734 0.000000 0.026777
#
#
# Mechanical properties :
#
#
# Convention : Reuss Voigt Hill
#
# Bulk Modulus (GPa) = 81.07879 109.57617 95.32748
# Shear Modulus (GPa) = 30.82985 33.37476 32.10231
#
# Velocity S-wave (km/s) = 3.98034 4.14136 4.06165
# Velocity P-wave (km/s) = 7.92398 8.89819 8.42518
#
# Compressibility (1/GPa) = 0.01233368
#
# Stress axis : x y z
#
# Youngs Moduli (GPa) = 75.42868 91.89069 69.76658
#
# Poissons Ratio (x) = 0.45518 0.25139
# Poissons Ratio (y) = 0.37363 0.31487
# Poissons Ratio (z) = 0.27179 0.41472
#
# Static dielectric constant tensor:
#      x y z
#    x 1.686230 0.000000 -0.014370 
#    y 0.000000 1.638550 0.000000 
#    z -0.014370 0.000000 1.690550 
# 
# From -- ./inp_files/53965.got.cif
#   From: 2010.05.17/outbox.cif.g08.bks.cpg/sg12_27_cif.got.tgz:53965.got - 2010.06.03 13:09:07.
