data_PCOD9206464
_publ_section_title
;
Structure prediction by ZEFSAII (Michael W. Deem and Ramdas Pophale) SiO2 
 PCOD9206464
Probable space group: C 2/M
;
_chemical_formula_sum "Si O2"
_cell_formula_units_Z 64
_cell_length_a 33.548621
_cell_length_b 17.998597
_cell_length_c 17.421383
_cell_angle_alpha 90.000000
_cell_angle_beta 162.469713
_cell_angle_gamma 90.000000
_cell_volume 3168.583793
_symmetry_space_group_name_H-M "C 2/M"
_symmetry_group_IT_number 12
_symmetry_cell_setting 'monoclinic'
loop_
_space_group_symop_operation_xyz
x,y,z
-x,y,-z
-x,-y,-z
x,-y,z
1/2+x,1/2+y,z
1/2-x,1/2+y,-z
1/2-x,1/2-y,-z
1/2+x,1/2-y,z
loop_
_atom_site_type_symbol
_atom_site_label
_atom_site_fract_x
_atom_site_fract_y
_atom_site_fract_z
Si Si1 0.174724 0.409496 0.941823
Si Si2 0.116196 0.410227 0.532795
Si Si3 0.671364 0.818073 0.481844
Si Si4 0.701468 0.409616 0.990346
Si Si5 0.040019 0.214313 0.984227
Si Si6 0.906501 0.090592 0.480890
Si Si7 0.650770 0.087648 0.295891
Si Si8 0.603486 0.411976 0.360156
O O1 0.177728 0.500000 0.946255
O O2 0.218056 0.384344 0.936659
O O3 0.027059 0.389732 0.695633
O O4 0.284051 0.384267 0.204235
O O5 0.119791 0.500000 0.528393
O O6 0.138861 0.368272 0.495080
O O7 0.226788 0.389524 0.798717
O O8 0.549620 0.767579 0.232206
O O9 0.700196 0.868975 0.460682
O O10 0.804866 0.772057 0.740461
O O11 0.701334 0.500000 0.987967
O O12 0.548785 0.385674 0.709409
O O13 0.003311 0.132475 0.885600
O O14 0.000000 0.220420 0.000000
O O15 0.896555 0.112652 0.551488
O O16 0.904290 0.000000 0.475510
O O17 0.752912 0.099909 0.414438
O O18 0.648557 0.000000 0.308356
O O19 0.500000 0.109735 0.000000
O O20 0.575313 0.500000 0.306497
#
# Coordination Sequence:
#
# PCOD9206464 Si02
#       8
#     8   8   8   8   8   8   8   8
#     4   9  17  29  51  85 121 156 192 236 294 353
#     4  10  21  36  58  89 123 156 197 249 297 352
#     4  12  26  42  62  86 119 161 207 251 302 359
#     4   9  16  30  51  81 122 159 191 235 295 355
#     4  12  26  44  63  86 115 162 206 255 303 361
#     4   9  17  29  50  82 121 157 191 234 285 353
#     4  10  22  38  61  89 122 161 201 250 303 355
#     4  10  22  39  61  91 124 158 201 249 302 356
#
# _framework density 20.198297
#
# number of rings (size 3 to 8) (size 9 to 14) (size 15 to 20)
#    0.000    1.875    1.250    2.625    3.500    5.250 
#    0.000    0.000    0.000    0.000    0.000   15.750 
#    0.000    0.000    0.000    0.000    0.000    0.000 
#
# Total GULP energy -178828.218804 kJ/mol
# GULP energy per Si atom -5588.381838 kJ/mol
# Density = 2.015233 g / cm^3
# Si number density = 20.198297 Si / 1000 Ang^3
#
#
#
# Elastic Constant Matrix: (Units=GPa)
#
#
# Indices 1 2 3 4 5 6 
#
# 1 73.9893 17.6764 -2.7483 0.0000 -7.3040 0.0000
# 2 17.6764 39.1215 17.3401 0.0000 -7.7149 0.0000
# 3 -2.7483 17.3401 97.4127 0.0000 -3.2756 0.0000
# 4 0.0000 0.0000 0.0000 26.8657 0.0000 -9.3647
# 5 -7.3040 -7.7149 -3.2756 0.0000 29.6463 0.0000
# 6 0.0000 0.0000 0.0000 -9.3647 0.0000 -2.7985
#
#
#
# Elastic Compliance Matrix: (Units=1/GPa)
#
#
# Indices 1 2 3 4 5 6 
#
# 1 0.015566 -0.007431 0.001833 0.000000 0.002104 0.000000
# 2 -0.007431 0.032691 -0.005826 0.000000 0.006033 0.000000
# 3 0.001833 -0.005826 0.011361 0.000000 0.000191 0.000000
# 4 0.000000 0.000000 0.000000 0.017181 0.000000 -0.057494
# 5 0.002104 0.006033 0.000191 0.000000 0.035840 0.000000
# 6 0.000000 0.000000 0.000000 -0.057494 0.000000 -0.164942
#
#
# Mechanical properties :
#
#
# Convention : Reuss Voigt Hill
#
# Bulk Modulus (GPa) = 27.19626 30.56222 28.87924
# Shear Modulus (GPa) = -290.75144 22.62638 -134.06253
#
# Velocity S-wave (km/s) = -12.01087 3.35059 -8.15581
# Velocity P-wave (km/s) = 13.37364 5.48931 8.62327
#
# Compressibility (1/GPa) = 0.03676976
#
# Stress axis : x y z
#
# Youngs Moduli (GPa) = 64.24054 30.58961 88.02214
#
# Poissons Ratio (x) = 0.22731 -0.16131
# Poissons Ratio (y) = 0.47736 0.51282
# Poissons Ratio (z) = -0.11773 0.17821
#
# Static dielectric constant tensor:
#      x y z
#    x 1.682630 0.000000 0.012160 
#    y 0.000000 1.723210 0.000000 
#    z 0.012160 0.000000 1.713580 
# 
# From -- ./inp_files/251930.got.cif
#   From: 2010.05.17/outbox.cif.g08.bks.cpg/sg12_126_cif.got.tgz:251930.got - 2010.06.03 13:09:07.
