data_PCOD9206089
_publ_section_title
;
Structure prediction by ZEFSAII (Michael W. Deem and Ramdas Pophale) SiO2 
 PCOD9206089
Probable space group: C 2/M
;
_chemical_formula_sum "Si O2"
_cell_formula_units_Z 56
_cell_length_a 11.936073
_cell_length_b 17.115382
_cell_length_c 13.545619
_cell_angle_alpha 90.000000
_cell_angle_beta 59.011572
_cell_angle_gamma 90.000000
_cell_volume 2372.275950
_symmetry_space_group_name_H-M "C 2/M"
_symmetry_group_IT_number 12
_symmetry_cell_setting 'monoclinic'
loop_
_space_group_symop_operation_xyz
x,y,z
-x,y,-z
-x,-y,-z
x,-y,z
1/2+x,1/2+y,z
1/2-x,1/2+y,-z
1/2-x,1/2-y,-z
1/2+x,1/2-y,z
loop_
_atom_site_type_symbol
_atom_site_label
_atom_site_fract_x
_atom_site_fract_y
_atom_site_fract_z
Si Si1 0.049507 0.326825 0.848853
Si Si2 0.210029 0.584494 0.471229
Si Si3 0.469303 0.350904 0.853716
Si Si4 0.461593 0.336520 0.408792
Si Si5 0.506942 0.164218 0.334130
Si Si6 0.808116 0.408048 0.050475
Si Si7 0.239516 0.914542 0.785812
O O1 0.990157 0.239170 0.877920
O O2 0.085616 0.334325 0.719431
O O3 0.167644 0.350009 0.867011
O O4 0.936693 0.388358 0.928880
O O5 0.255032 0.500000 0.488428
O O6 0.307094 0.650131 0.467545
O O7 0.062124 0.599397 0.569044
O O8 0.226940 0.584172 0.346353
O O9 0.486615 0.362974 0.725327
O O10 0.325910 0.383048 0.941104
O O11 0.587621 0.394177 0.855103
O O12 0.500000 0.369826 0.500000
O O13 0.502823 0.246385 0.389561
O O14 0.652660 0.147282 0.229441
O O15 0.803810 0.500000 0.078136
O O16 0.264449 0.000000 0.818193
#
# Coordination Sequence:
#
# PCOD9206089 Si02
#       7
#     8   8   8   8   8   8   8
#     4  10  24  41  67  93 124 162 218 263 316 383
#     4  10  21  36  55  86 126 168 206 254 311 370
#     4  10  23  41  67  92 129 167 212 256 325 380
#     4  10  22  37  59  89 126 161 210 254 305 371
#     4  11  22  37  63  90 124 164 210 258 311 374
#     4  11  24  46  70  94 128 167 213 273 327 376
#     4  10  21  38  59  90 129 166 206 254 312 382
#
# _framework density 23.606021999999999
#
# number of rings (size 3 to 8) (size 9 to 14) (size 15 to 20)
#    0.000    1.714    0.000    3.857    6.000    5.429 
#    0.000    0.000    0.000    1.714    0.000    0.000 
#    0.000    0.000    0.000    0.000    0.000    0.000 
#
# Total GULP energy -156233.370015 kJ/mol
# GULP energy per Si atom -5579.763215 kJ/mol
# Density = 2.355229 g / cm^3
# Si number density = 23.606022 Si / 1000 Ang^3
#
#
#
# Elastic Constant Matrix: (Units=GPa)
#
#
# Indices 1 2 3 4 5 6 
#
# 1 99.9711 13.2080 7.5687 0.0000 -15.1347 0.0000
# 2 13.2080 70.9695 -12.1382 0.0000 -13.6568 0.0000
# 3 7.5687 -12.1382 44.3135 0.0000 -4.5335 0.0000
# 4 0.0000 0.0000 0.0000 17.6686 0.0000 -24.6156
# 5 -15.1347 -13.6568 -4.5335 0.0000 48.8365 0.0000
# 6 0.0000 0.0000 0.0000 -24.6156 0.0000 128.0827
#
#
#
# Elastic Compliance Matrix: (Units=1/GPa)
#
#
# Indices 1 2 3 4 5 6 
#
# 1 0.010806 -0.001861 -0.002086 0.000000 0.002635 0.000000
# 2 -0.001861 0.016179 0.005203 0.000000 0.004431 0.000000
# 3 -0.002086 0.005203 0.024665 0.000000 0.003098 0.000000
# 4 0.000000 0.000000 0.000000 0.077293 0.000000 0.014855
# 5 0.002635 0.004431 0.003098 0.000000 0.022820 0.000000
# 6 0.000000 0.000000 0.000000 0.014855 0.000000 0.010662
#
#
# Mechanical properties :
#
#
# Convention : Reuss Voigt Hill
#
# Bulk Modulus (GPa) = 18.46292 25.83680 22.14986
# Shear Modulus (GPa) = 28.09531 52.69192 40.39362
#
# Velocity S-wave (km/s) = 3.45363 4.72968 4.14110
# Velocity P-wave (km/s) = 4.87255 6.38711 5.68053
#
# Compressibility (1/GPa) = 0.05416263
#
# Stress axis : x y z
#
# Youngs Moduli (GPa) = 92.54539 61.80721 40.54351
#
# Poissons Ratio (x) = 0.11501 0.08456
# Poissons Ratio (y) = 0.17220 -0.21094
# Poissons Ratio (z) = 0.19302 -0.32158
#
# Static dielectric constant tensor:
#      x y z
#    x 1.928340 0.000000 0.048970 
#    y 0.000000 1.881240 0.000000 
#    z 0.048970 0.000000 1.947330 
# 
# From -- ./inp_files/206549.got.cif
#   From: 2010.05.17/outbox.cif.g08.bks.cpg/sg12_104_cif.got.tgz:206549.got - 2010.06.03 13:09:07.
