data_PCOD9206964
_publ_section_title
;
Structure prediction by ZEFSAII (Michael W. Deem and Ramdas Pophale) SiO2 
 PCOD9206964
Probable space group: C 2/M
;
_chemical_formula_sum "Si O2"
_cell_formula_units_Z 48
_cell_length_a 14.342711
_cell_length_b 23.320429
_cell_length_c 12.303629
_cell_angle_alpha 90.000000
_cell_angle_beta 137.134487
_cell_angle_gamma 90.000000
_cell_volume 2799.552382
_symmetry_space_group_name_H-M "C 2/M"
_symmetry_group_IT_number 12
_symmetry_cell_setting 'monoclinic'
loop_
_space_group_symop_operation_xyz
x,y,z
-x,y,-z
-x,-y,-z
x,-y,z
1/2+x,1/2+y,z
1/2-x,1/2+y,-z
1/2-x,1/2-y,-z
1/2+x,1/2-y,z
loop_
_atom_site_type_symbol
_atom_site_label
_atom_site_fract_x
_atom_site_fract_y
_atom_site_fract_z
Si Si1 0.849011 0.232927 0.986753
Si Si2 0.766670 0.653401 0.494289
Si Si3 0.584249 0.564552 0.241819
Si Si4 0.671049 0.757733 0.271490
Si Si5 0.310664 0.598215 0.908839
Si Si6 0.497738 0.065507 0.366957
O O1 0.008004 0.246404 0.148627
O O2 0.750000 0.250000 0.000000
O O3 0.809095 0.264006 0.840078
O O4 0.834577 0.165718 0.946062
O O5 0.636483 0.611680 0.370697
O O6 0.750099 0.702386 0.387445
O O7 0.781768 0.687950 0.618596
O O8 0.896083 0.612359 0.585181
O O9 0.624081 0.500000 0.304805
O O10 0.654497 0.580639 0.185771
O O11 0.423329 0.568154 0.080396
O O12 0.156110 0.580532 0.800413
O O13 0.500000 0.068201 0.500000
O O14 0.531895 0.000000 0.364955
#
# Coordination Sequence:
#
# PCOD9206964 Si02
#       6
#     8   8   8   8   8   8
#     4  11  20  37  59  84 111 157 193 233 286 339
#     4  11  20  34  53  78 116 150 177 230 290 340
#     4  11  19  32  55  80 111 153 186 229 297 341
#     4  10  21  37  55  81 119 149 190 236 281 342
#     4  11  19  33  49  82 115 146 190 236 282 345
#     4  11  20  30  47  79 116 148 189 238 284 335
#
# _framework density 17.145598
#
# number of rings (size 3 to 8) (size 9 to 14) (size 15 to 20)
#    0.000    1.167    5.000    4.500    0.000    0.000 
#    0.000    2.500    0.000    0.000    0.000   28.000 
#    0.000    0.000    0.000    0.000    0.000    0.000 
#
# Total GULP energy -134006.217431 kJ/mol
# GULP energy per Si atom -5583.592393 kJ/mol
# Density = 1.710657 g / cm^3
# Si number density = 17.145598 Si / 1000 Ang^3
#
#
#
# Elastic Constant Matrix: (Units=GPa)
#
#
# Indices 1 2 3 4 5 6 
#
# 1 72.2963 27.4804 46.7330 0.0000 2.3143 0.0000
# 2 27.4804 132.6914 62.5678 0.0000 -5.3891 0.0000
# 3 46.7330 62.5678 115.4066 0.0000 11.7596 0.0000
# 4 0.0000 0.0000 0.0000 11.6762 0.0000 1.2356
# 5 2.3143 -5.3891 11.7596 0.0000 26.2903 0.0000
# 6 0.0000 0.0000 0.0000 1.2356 0.0000 24.1155
#
#
#
# Elastic Compliance Matrix: (Units=1/GPa)
#
#
# Indices 1 2 3 4 5 6 
#
# 1 0.018824 -0.000201 -0.007691 0.000000 0.001742 0.000000
# 2 -0.000201 0.010726 -0.006244 0.000000 0.005009 0.000000
# 3 -0.007691 -0.006244 0.015953 0.000000 -0.007739 0.000000
# 4 0.000000 0.000000 0.000000 0.086111 0.000000 -0.004412
# 5 0.001742 0.005009 -0.007739 0.000000 0.042372 0.000000
# 6 0.000000 0.000000 0.000000 -0.004412 0.000000 0.041693
#
#
# Mechanical properties :
#
#
# Convention : Reuss Voigt Hill
#
# Bulk Modulus (GPa) = 58.03610 65.99519 62.01565
# Shear Modulus (GPa) = 20.02445 24.65728 22.34086
#
# Velocity S-wave (km/s) = 3.42117 3.79636 3.61364
# Velocity P-wave (km/s) = 7.03764 7.60204 7.32528
#
# Compressibility (1/GPa) = 0.01723065
#
# Stress axis : x y z
#
# Youngs Moduli (GPa) = 53.12270 93.23559 62.68349
#
# Poissons Ratio (x) = 0.01875 0.48211
# Poissons Ratio (y) = 0.01068 0.39138
# Poissons Ratio (z) = 0.40858 0.58215
#
# Static dielectric constant tensor:
#      x y z
#    x 1.560660 0.000000 0.022430 
#    y 0.000000 1.586400 0.000000 
#    z 0.022430 0.000000 1.604040 
# 
# From -- ./inp_files/148032.got.cif
#   From: 2010.05.17/outbox.cif.g08.bks.cpg/sg12_75_cif.got.tgz:148032.got - 2010.06.03 13:09:07.
