data_PCOD9206659
_publ_section_title
;
Structure prediction by ZEFSAII (Michael W. Deem and Ramdas Pophale) SiO2 
 PCOD9206659
Probable space group: C 2/M
;
_chemical_formula_sum "Si O2"
_cell_formula_units_Z 40
_cell_length_a 18.388852
_cell_length_b 7.564344
_cell_length_c 16.913917
_cell_angle_alpha 90.000000
_cell_angle_beta 47.903334
_cell_angle_gamma 90.000000
_cell_volume 1745.752534
_symmetry_space_group_name_H-M "C 2/M"
_symmetry_group_IT_number 12
_symmetry_cell_setting 'monoclinic'
loop_
_space_group_symop_operation_xyz
x,y,z
-x,y,-z
-x,-y,-z
x,-y,z
1/2+x,1/2+y,z
1/2-x,1/2+y,-z
1/2-x,1/2-y,-z
1/2+x,1/2-y,z
loop_
_atom_site_type_symbol
_atom_site_label
_atom_site_fract_x
_atom_site_fract_y
_atom_site_fract_z
Si Si1 0.811010 0.210132 0.337729
Si Si2 0.661149 0.792093 0.007418
Si Si3 0.933804 0.000000 0.666055
Si Si4 0.654628 0.500000 0.439253
Si Si5 0.481250 0.790862 0.752410
Si Si6 0.598751 0.701534 0.892251
O O1 0.716643 0.329791 0.421714
O O2 0.903559 0.247207 0.326813
O O3 0.850133 0.273494 0.222670
O O4 0.789890 0.000000 0.352590
O O5 0.565091 0.742526 0.128329
O O6 0.658605 0.000000 0.994351
O O7 0.750000 0.750000 0.000000
O O8 0.668324 0.701509 0.917735
O O9 0.861447 0.000000 0.644323
O O10 0.045241 0.000000 0.552633
O O11 0.927595 0.827943 0.726327
O O12 0.466876 0.000000 0.750607
O O13 0.573147 0.500000 0.889310
O O14 0.500000 0.787637 0.000000
#
# Coordination Sequence:
#
# PCOD9206659 Si02
#       6
#     8   8   4   4   8   8
#     4  11  23  42  70 103 137 177 226 286 337 402
#     4  11  25  37  59  95 135 180 221 261 322 399
#     4  11  28  50  74  93 137 181 215 298 358 395
#     4  11  28  50  71 102 127 175 238 281 354 417
#     4  11  24  44  69 103 137 177 230 278 338 410
#     4  10  21  36  60  91 131 173 212 259 317 386
#
# _framework density 22.912752999999999
#
# number of rings (size 3 to 8) (size 9 to 14) (size 15 to 20)
#    0.000    1.200    4.000    0.600    7.000    2.800 
#    0.000    2.000    0.000    0.000    0.000    0.000 
#    0.000    0.000    0.000    0.000    0.000    0.000 
#
# Total GULP energy -111896.918505 kJ/mol
# GULP energy per Si atom -5594.845925 kJ/mol
# Density = 2.286060 g / cm^3
# Si number density = 22.912753 Si / 1000 Ang^3
#
#
#
# Elastic Constant Matrix: (Units=GPa)
#
#
# Indices 1 2 3 4 5 6 
#
# 1 89.5589 23.8586 -3.8472 0.0000 -1.4175 0.0002
# 2 23.8586 127.6691 16.3651 0.0000 0.8950 0.0003
# 3 -3.8472 16.3651 63.4825 0.0000 -1.3342 0.0001
# 4 0.0000 0.0000 0.0000 22.7229 0.0000 0.6977
# 5 -1.4175 0.8950 -1.3342 0.0000 42.5382 0.0000
# 6 0.0002 0.0003 0.0001 0.6977 0.0000 10.9097
#
#
#
# Elastic Compliance Matrix: (Units=1/GPa)
#
#
# Indices 1 2 3 4 5 6 
#
# 1 0.011869 -0.002394 0.001347 0.000000 0.000488 0.000000
# 2 -0.002394 0.008586 -0.002365 0.000000 -0.000335 0.000000
# 3 0.001347 -0.002365 0.016457 0.000000 0.000611 0.000000
# 4 0.000000 0.000000 0.000000 0.044095 0.000000 -0.002820
# 5 0.000488 -0.000335 0.000611 0.000000 0.023551 0.000000
# 6 0.000000 0.000000 0.000000 -0.002820 0.000000 0.091842
#
#
# Mechanical properties :
#
#
# Convention : Reuss Voigt Hill
#
# Bulk Modulus (GPa) = 33.23819 39.27374 36.25596
# Shear Modulus (GPa) = 23.44622 31.52307 27.48464
#
# Velocity S-wave (km/s) = 3.20235 3.71318 3.46719
# Velocity P-wave (km/s) = 5.31143 5.96334 5.64680
#
# Compressibility (1/GPa) = 0.03008588
#
# Stress axis : x y z
#
# Youngs Moduli (GPa) = 84.25152 116.47240 60.76583
#
# Poissons Ratio (x) = 0.27885 -0.08184
# Poissons Ratio (y) = 0.20171 0.14374
# Poissons Ratio (z) = -0.11347 0.27551
#
# Static dielectric constant tensor:
#      x y z
#    x 1.879340 0.000000 0.001370 
#    y 0.000000 1.818590 0.000000 
#    z 0.001370 0.000000 1.912460 
# 
# From -- ./inp_files/273965.got.cif
#   From: 2010.05.17/outbox.cif.g08.bks.cpg/sg12_137_cif.got.tgz:273965.got - 2010.06.03 13:09:07.
