data_PCOD9206219
_publ_section_title
;
Structure prediction by ZEFSAII (Michael W. Deem and Ramdas Pophale) SiO2 
 PCOD9206219
Probable space group: C 2/M
;
_chemical_formula_sum "Si O2"
_cell_formula_units_Z 58
_cell_length_a 23.111782
_cell_length_b 7.727876
_cell_length_c 20.466126
_cell_angle_alpha 90.000000
_cell_angle_beta 44.429482
_cell_angle_gamma 90.000000
_cell_volume 2558.859393
_symmetry_space_group_name_H-M "C 2/M"
_symmetry_group_IT_number 12
_symmetry_cell_setting 'monoclinic'
loop_
_space_group_symop_operation_xyz
x,y,z
-x,y,-z
-x,-y,-z
x,-y,z
1/2+x,1/2+y,z
1/2-x,1/2+y,-z
1/2-x,1/2-y,-z
1/2+x,1/2-y,z
loop_
_atom_site_type_symbol
_atom_site_label
_atom_site_fract_x
_atom_site_fract_y
_atom_site_fract_z
Si Si1 0.331245 0.791084 0.790692
Si Si2 0.296971 0.792183 0.675979
Si Si3 0.500000 0.000000 0.000000
Si Si4 0.813769 0.795168 0.006068
Si Si5 0.449247 0.297604 0.478462
Si Si6 0.111810 0.804236 0.865012
Si Si7 0.497881 0.700254 0.297421
Si Si8 0.499826 0.810964 0.153644
O O1 0.340883 0.737794 0.708204
O O2 0.402607 0.709055 0.776473
O O3 0.339007 0.000000 0.789862
O O4 0.239251 0.745898 0.887616
O O5 0.352508 0.717348 0.573703
O O6 0.200777 0.751302 0.763338
O O7 0.301760 0.000000 0.667451
O O8 0.428001 0.157143 0.057875
O O9 0.902171 0.710822 0.926913
O O10 0.827364 0.000000 0.995058
O O11 0.750000 0.750000 0.000000
O O12 0.500000 0.222683 0.500000
O O13 0.472583 0.500000 0.455326
O O14 0.467631 0.224880 0.391439
O O15 0.049750 0.814019 0.853198
O O16 0.118867 0.000000 0.888220
O O17 0.472261 0.500000 0.311892
O O18 0.473675 0.794690 0.250161
O O19 0.481332 0.000000 0.138523
#
# Coordination Sequence:
#
# PCOD9206219 Si02
#       8
#     8   8   2   8   8   8   8   8
#     4  10  21  36  56  88 125 164 209 262 325 400
#     4  10  23  41  65  94 131 172 217 279 342 399
#     4  12  26  48  72 106 126 188 232 268 340 392
#     4  11  22  36  56  87 125 168 211 265 327 395
#     4  10  21  38  62  96 132 169 219 279 343 406
#     4  11  26  48  70 102 141 179 231 284 333 402
#     4  11  22  38  61  92 126 172 216 270 339 397
#     4  12  25  43  64  92 130 178 228 275 337 410
#
# _framework density 22.666347999999999
#
# number of rings (size 3 to 8) (size 9 to 14) (size 15 to 20)
#    0.000    1.241    3.448    2.276    2.897    1.931 
#    0.000    0.690    0.000    0.000    0.000    0.000 
#    0.000    0.000    0.000    0.000    0.000    0.000 
#
# Total GULP energy -161916.791790 kJ/mol
# GULP energy per Si atom -5583.337648 kJ/mol
# Density = 2.261476 g / cm^3
# Si number density = 22.666348 Si / 1000 Ang^3
#
#
#
# Elastic Constant Matrix: (Units=GPa)
#
#
# Indices 1 2 3 4 5 6 
#
# 1 68.0819 1.0394 11.0659 -0.0003 -2.9461 0.0011
# 2 1.0394 80.9983 21.4807 0.0000 -3.6747 0.0073
# 3 11.0659 21.4807 119.1682 0.0010 -1.2620 -0.0019
# 4 -0.0003 0.0000 0.0010 28.6566 0.0002 -4.1447
# 5 -2.9461 -3.6747 -1.2620 0.0002 31.2419 -0.0008
# 6 0.0011 0.0073 -0.0019 -4.1447 -0.0008 23.4612
#
#
#
# Elastic Compliance Matrix: (Units=1/GPa)
#
#
# Indices 1 2 3 4 5 6 
#
# 1 0.014975 0.000247 -0.001421 0.000000 0.001384 -0.000001
# 2 0.000247 0.013034 -0.002357 -0.000001 0.001461 -0.000004
# 3 -0.001421 -0.002357 0.008948 0.000000 -0.000050 0.000002
# 4 0.000000 -0.000001 0.000000 0.035811 0.000000 0.006326
# 5 0.001384 0.001461 -0.000050 0.000000 0.032309 0.000001
# 6 -0.000001 -0.000004 0.000002 0.006326 0.000001 0.043741
#
#
# Mechanical properties :
#
#
# Convention : Reuss Voigt Hill
#
# Bulk Modulus (GPa) = 33.44842 37.26893 35.35867
# Shear Modulus (GPa) = 30.14885 32.31610 31.23247
#
# Velocity S-wave (km/s) = 3.65103 3.77998 3.71607
# Velocity P-wave (km/s) = 5.70634 5.96063 5.83487
#
# Compressibility (1/GPa) = 0.02989678
#
# Stress axis : x y z
#
# Youngs Moduli (GPa) = 66.77710 76.72169 111.76014
#
# Poissons Ratio (x) = -0.01898 0.15876
# Poissons Ratio (y) = -0.01652 0.26341
# Poissons Ratio (z) = 0.09486 0.18083
#
# Static dielectric constant tensor:
#      x y z
#    x 1.869660 -0.000020 0.032200 
#    y -0.000020 1.842790 -0.000020 
#    z 0.032200 -0.000020 1.822680 
# 
# From -- ./inp_files/324539.got.cif
#   From: 2010.05.17/outbox.cif.g08.bks.cpg/sg12_163_cif.got.tgz:324539.got - 2010.06.03 13:09:07.
