data_PCOD9206937
_publ_section_title
;
Structure prediction by ZEFSAII (Michael W. Deem and Ramdas Pophale) SiO2 
 PCOD9206937
Probable space group: C 2/M
;
_chemical_formula_sum "Si O2"
_cell_formula_units_Z 48
_cell_length_a 22.276582
_cell_length_b 8.978804
_cell_length_c 12.233506
_cell_angle_alpha 90.000000
_cell_angle_beta 72.986019
_cell_angle_gamma 90.000000
_cell_volume 2339.816981
_symmetry_space_group_name_H-M "C 2/M"
_symmetry_group_IT_number 12
_symmetry_cell_setting 'monoclinic'
loop_
_space_group_symop_operation_xyz
x,y,z
-x,y,-z
-x,-y,-z
x,-y,z
1/2+x,1/2+y,z
1/2-x,1/2+y,-z
1/2-x,1/2-y,-z
1/2+x,1/2-y,z
loop_
_atom_site_type_symbol
_atom_site_label
_atom_site_fract_x
_atom_site_fract_y
_atom_site_fract_z
Si Si1 0.265292 0.676683 0.876560
Si Si2 0.847365 0.826770 0.483459
Si Si3 0.402783 0.681029 0.845334
Si Si4 0.243576 0.829332 0.677368
Si Si5 0.041015 0.817279 0.713161
Si Si6 0.425738 0.331098 0.069370
O O1 0.258856 0.500000 0.887620
O O2 0.338926 0.714780 0.817443
O O3 0.226960 0.738635 0.794607
O O4 0.250000 0.750000 0.000000
O O5 0.807889 0.820933 0.391117
O O6 0.807308 0.733886 0.590192
O O7 0.916784 0.774407 0.412589
O O8 0.849522 0.000000 0.517875
O O9 0.406640 0.500000 0.852416
O O10 0.468222 0.728720 0.755992
O O11 0.398023 0.738303 0.973589
O O12 0.251334 0.000000 0.704615
O O13 0.072841 0.764216 0.810236
O O14 0.042589 0.000000 0.715900
O O15 0.399865 0.500000 0.093543
O O16 0.500000 0.343272 0.000000
#
# Coordination Sequence:
#
# PCOD9206937 Si02
#       6
#     8   8   8   8   8   8
#     4  11  23  37  55  78 108 144 180 215 260 317
#     4   9  18  33  58  84 105 133 176 227 272 310
#     4   8  15  27  45  73 106 135 169 216 264 307
#     4  10  21  37  55  78 109 142 178 217 262 317
#     4   8  13  24  47  78 104 128 167 222 271 304
#     4   7  10  18  36  65  99 127 153 198 256 301
#
# _framework density 20.514424000000002
#
# number of rings (size 3 to 8) (size 9 to 14) (size 15 to 20)
#    0.000    3.167    0.000    3.000    2.333    0.667 
#    0.000    0.833    0.000    7.000    0.000    1.167 
#    0.000    0.000    0.000    0.000    0.000    0.000 
#
# Total GULP energy -133749.321892 kJ/mol
# GULP energy per Si atom -5572.888412 kJ/mol
# Density = 2.046773 g / cm^3
# Si number density = 20.514424 Si / 1000 Ang^3
#
#
#
# Elastic Constant Matrix: (Units=GPa)
#
#
# Indices 1 2 3 4 5 6 
#
# 1 47.4667 16.1083 8.4206 0.0000 -11.9977 0.0000
# 2 16.1083 47.4996 33.0806 0.0000 0.7535 0.0000
# 3 8.4206 33.0806 71.2255 0.0000 -17.8371 0.0000
# 4 0.0000 0.0000 0.0000 25.8884 0.0000 1.6491
# 5 -11.9977 0.7535 -17.8371 0.0000 36.7582 0.0000
# 6 0.0000 0.0000 0.0000 1.6491 0.0000 8.2804
#
#
#
# Elastic Compliance Matrix: (Units=1/GPa)
#
#
# Indices 1 2 3 4 5 6 
#
# 1 0.027872 -0.014089 0.006373 0.000000 0.012479 0.000000
# 2 -0.014089 0.040899 -0.021277 0.000000 -0.015762 0.000000
# 3 0.006373 -0.021277 0.027091 0.000000 0.015662 0.000000
# 4 0.000000 0.000000 0.000000 0.039124 0.000000 -0.007792
# 5 0.012479 -0.015762 0.015662 0.000000 0.039201 0.000000
# 6 0.000000 0.000000 0.000000 -0.007792 0.000000 0.122319
#
#
# Mechanical properties :
#
#
# Convention : Reuss Voigt Hill
#
# Bulk Modulus (GPa) = 26.40115 31.26785 28.83450
# Shear Modulus (GPa) = 13.61968 21.42422 17.52195
#
# Velocity S-wave (km/s) = 2.57944 3.23514 2.92572
# Velocity P-wave (km/s) = 4.66571 5.40646 5.04969
#
# Compressibility (1/GPa) = 0.03787714
#
# Stress axis : x y z
#
# Youngs Moduli (GPa) = 35.87818 24.45059 36.91287
#
# Poissons Ratio (x) = 0.34448 -0.23526
# Poissons Ratio (y) = 0.50548 0.78539
# Poissons Ratio (z) = -0.22867 0.52023
#
# Static dielectric constant tensor:
#      x y z
#    x 1.786340 0.000000 -0.012960 
#    y 0.000000 1.693630 0.000000 
#    z -0.012960 0.000000 1.756280 
# 
# From -- ./inp_files/172886.got.cif
#   From: 2010.05.17/outbox.cif.g08.bks.cpg/sg12_87_cif.got.tgz:172886.got - 2010.06.03 13:09:07.
