data_PCOD9206361
_publ_section_title
;
Structure prediction by ZEFSAII (Michael W. Deem and Ramdas Pophale) SiO2 
 PCOD9206361
Probable space group: C 2/M
;
_chemical_formula_sum "Si O2"
_cell_formula_units_Z 64
_cell_length_a 14.800620
_cell_length_b 18.446763
_cell_length_c 17.719294
_cell_angle_alpha 90.000000
_cell_angle_beta 40.983656
_cell_angle_gamma 90.000000
_cell_volume 3172.830360
_symmetry_space_group_name_H-M "C 2/M"
_symmetry_group_IT_number 12
_symmetry_cell_setting 'monoclinic'
loop_
_space_group_symop_operation_xyz
x,y,z
-x,y,-z
-x,-y,-z
x,-y,z
1/2+x,1/2+y,z
1/2-x,1/2+y,-z
1/2-x,1/2-y,-z
1/2+x,1/2-y,z
loop_
_atom_site_type_symbol
_atom_site_label
_atom_site_fract_x
_atom_site_fract_y
_atom_site_fract_z
Si Si1 0.620356 0.082940 0.480842
Si Si2 0.931101 0.683148 0.234664
Si Si3 0.135401 0.824741 0.362245
Si Si4 0.425763 0.918968 0.743238
Si Si5 0.665043 0.213816 0.982574
Si Si6 0.649817 0.413798 0.199716
Si Si7 0.902201 0.842847 0.272609
Si Si8 0.217990 0.189028 0.805720
O O1 0.500000 0.106948 0.500000
O O2 0.553557 0.081316 0.604958
O O3 0.752320 0.132873 0.393899
O O4 0.657613 0.000000 0.435272
O O5 0.774850 0.658168 0.321400
O O6 0.026100 0.626867 0.216748
O O7 0.933237 0.760051 0.277175
O O8 0.010103 0.697032 0.106483
O O9 0.123351 0.881391 0.300581
O O10 0.176668 0.746290 0.300861
O O11 0.000000 0.822741 0.500000
O O12 0.301440 0.880530 0.779623
O O13 0.389884 0.000000 0.786903
O O14 0.736052 0.139292 0.909703
O O15 0.667945 0.269832 0.911758
O O16 0.750000 0.250000 0.000000
O O17 0.679825 0.500000 0.182126
O O18 0.514442 0.396570 0.235185
O O19 0.889677 0.837005 0.189780
#
# Coordination Sequence:
#
# PCOD9206361 Si02
#       8
#     8   8   8   8   8   8   8   8
#     4  10  21  36  57  90 139 178 205 254 324 404
#     4  11  24  42  68  94 123 175 222 274 324 381
#     4  10  25  44  67  98 131 170 221 274 321 385
#     4  11  23  38  59  96 135 170 212 269 334 397
#     4  11  21  47  68  93 131 169 224 275 323 379
#     4  11  25  44  67  96 132 175 218 271 333 397
#     4  11  22  38  64  97 126 172 216 268 326 395
#     4  10  22  39  67  98 129 172 219 270 323 391
#
# _framework density 20.171264999999998
#
# number of rings (size 3 to 8) (size 9 to 14) (size 15 to 20)
#    0.000    1.375    3.750    1.125    5.250    6.750 
#    0.000    0.625    0.000    0.750    0.000    0.000 
#    0.000    0.000    0.000    0.000    0.000    0.000 
#
# Total GULP energy -178756.778400 kJ/mol
# GULP energy per Si atom -5586.149325 kJ/mol
# Density = 2.012535 g / cm^3
# Si number density = 20.171265 Si / 1000 Ang^3
#
#
#
# Elastic Constant Matrix: (Units=GPa)
#
#
# Indices 1 2 3 4 5 6 
#
# 1 45.2035 2.8335 -18.3798 0.0000 3.2040 0.0000
# 2 2.8335 103.5922 -7.1507 0.0000 0.7382 0.0000
# 3 -18.3798 -7.1507 67.6131 0.0001 -2.8613 -0.0001
# 4 0.0000 0.0000 0.0001 19.8859 0.0000 -5.2433
# 5 3.2040 0.7382 -2.8613 0.0000 28.9842 0.0000
# 6 0.0000 0.0000 -0.0001 -5.2433 0.0000 12.1044
#
#
#
# Elastic Compliance Matrix: (Units=1/GPa)
#
#
# Indices 1 2 3 4 5 6 
#
# 1 0.025002 -0.000207 0.006686 0.000000 -0.002099 0.000000
# 2 -0.000207 0.009727 0.000967 0.000000 -0.000129 0.000000
# 3 0.006686 0.000967 0.016747 0.000000 0.000890 0.000000
# 4 0.000000 0.000000 0.000000 0.056771 0.000000 0.024592
# 5 -0.002099 -0.000129 0.000890 0.000000 0.034825 0.000000
# 6 0.000000 0.000000 0.000000 0.024592 0.000000 0.093267
#
#
# Mechanical properties :
#
#
# Convention : Reuss Voigt Hill
#
# Bulk Modulus (GPa) = 15.06777 19.00164 17.03471
# Shear Modulus (GPa) = 20.52790 28.13528 24.33159
#
# Velocity S-wave (km/s) = 3.19357 3.73878 3.47688
# Velocity P-wave (km/s) = 4.59180 5.29892 4.95799
#
# Compressibility (1/GPa) = 0.06636684
#
# Stress axis : x y z
#
# Youngs Moduli (GPa) = 39.99620 102.81116 59.71076
#
# Poissons Ratio (x) = 0.02132 -0.39922
# Poissons Ratio (y) = 0.00830 -0.05773
# Poissons Ratio (z) = -0.26741 -0.09940
#
# Static dielectric constant tensor:
#      x y z
#    x 1.753650 0.000000 0.002650 
#    y 0.000000 1.729680 0.000000 
#    z 0.002650 0.000000 1.729520 
# 
# From -- ./inp_files/271702.got.cif
#   From: 2010.05.17/outbox.cif.g08.bks.cpg/sg12_136_cif.got.tgz:271702.got - 2010.06.03 13:09:07.
