data_PCOD9206316
_publ_section_title
;
Structure prediction by ZEFSAII (Michael W. Deem and Ramdas Pophale) SiO2 
 PCOD9206316
Probable space group: C 2/M
;
_chemical_formula_sum "Si O2"
_cell_formula_units_Z 48
_cell_length_a 14.960985
_cell_length_b 15.856939
_cell_length_c 8.048328
_cell_angle_alpha 90.000000
_cell_angle_beta 101.790385
_cell_angle_gamma 90.000000
_cell_volume 1869.064503
_symmetry_space_group_name_H-M "C 2/M"
_symmetry_group_IT_number 12
_symmetry_cell_setting 'monoclinic'
loop_
_space_group_symop_operation_xyz
x,y,z
-x,y,-z
-x,-y,-z
x,-y,z
1/2+x,1/2+y,z
1/2-x,1/2+y,-z
1/2-x,1/2-y,-z
1/2+x,1/2-y,z
loop_
_atom_site_type_symbol
_atom_site_label
_atom_site_fract_x
_atom_site_fract_y
_atom_site_fract_z
Si Si1 0.282080 0.094622 0.237049
Si Si2 0.628500 0.832009 0.432747
Si Si3 0.063634 0.100608 0.862857
Si Si4 0.036922 0.602151 0.830804
Si Si5 0.308618 0.674617 0.315981
Si Si6 0.388622 0.597033 0.643765
O O1 0.337104 0.093598 0.433274
O O2 0.358047 0.131621 0.144887
O O3 0.185683 0.134224 0.254941
O O4 0.263049 0.000000 0.171453
O O5 0.529482 0.850656 0.323068
O O6 0.647375 0.752627 0.562719
O O7 0.700827 0.823927 0.309076
O O8 0.153471 0.154140 0.851810
O O9 0.990053 0.130923 0.696022
O O10 0.084342 0.000000 0.865747
O O11 0.000000 0.115212 0.000000
O O12 0.034302 0.500000 0.799625
O O13 0.000000 0.616974 0.000000
O O14 0.346172 0.599465 0.446568
O O15 0.398753 0.500000 0.697527
#
# Coordination Sequence:
#
# PCOD9206316 Si02
#       6
#     8   8   8   8   8   8
#     4   9  18  34  55  78 108 149 195 242 293 353
#     4  10  21  37  57  82 114 154 199 243 291 354
#     4  10  21  36  57  87 119 151 191 244 307 367
#     4  10  21  36  57  87 119 151 191 244 307 367
#     4  10  21  37  57  82 114 154 199 243 291 354
#     4   9  18  34  55  78 108 149 195 242 293 353
#
# _framework density 25.681298000000002
#
# number of rings (size 3 to 8) (size 9 to 14) (size 15 to 20)
#    0.000    2.333    0.000    2.000    0.000    8.667 
#    0.000    6.667    0.000    6.000    0.000    0.000 
#    0.000    0.000    0.000    0.000    0.000    0.000 
#
# Total GULP energy -133906.161379 kJ/mol
# GULP energy per Si atom -5579.423391 kJ/mol
# Density = 2.562285 g / cm^3
# Si number density = 25.681298 Si / 1000 Ang^3
#
#
#
# Elastic Constant Matrix: (Units=GPa)
#
#
# Indices 1 2 3 4 5 6 
#
# 1 157.6080 20.3871 27.7228 0.0000 -39.0570 0.0000
# 2 20.3871 73.5575 15.7605 0.0000 -11.8557 0.0000
# 3 27.7228 15.7605 80.1624 0.0000 -34.5455 0.0000
# 4 0.0000 0.0000 0.0000 10.6336 0.0000 -2.4636
# 5 -39.0570 -11.8557 -34.5455 0.0000 62.8128 0.0000
# 6 0.0000 0.0000 0.0000 -2.4636 0.0000 18.7946
#
#
#
# Elastic Compliance Matrix: (Units=1/GPa)
#
#
# Indices 1 2 3 4 5 6 
#
# 1 0.007657 -0.001322 -0.000582 0.000000 0.004192 0.000000
# 2 -0.001322 0.014529 -0.002060 0.000000 0.000787 0.000000
# 3 -0.000582 -0.002060 0.016720 0.000000 0.008445 0.000000
# 4 0.000000 0.000000 0.000000 0.096987 0.000000 0.012713
# 5 0.004192 0.000787 0.008445 0.000000 0.023320 0.000000
# 6 0.000000 0.000000 0.000000 0.012713 0.000000 0.054873
#
#
# Mechanical properties :
#
#
# Convention : Reuss Voigt Hill
#
# Bulk Modulus (GPa) = 32.27984 48.78541 40.53262
# Shear Modulus (GPa) = 21.52010 34.94537 28.23273
#
# Velocity S-wave (km/s) = 2.89791 3.69281 3.31924
# Velocity P-wave (km/s) = 4.87789 6.10084 5.52332
#
# Compressibility (1/GPa) = 0.03097909
#
# Stress axis : x y z
#
# Youngs Moduli (GPa) = 130.60104 68.82549 59.80755
#
# Poissons Ratio (x) = 0.09098 0.03479
# Poissons Ratio (y) = 0.17265 0.12321
# Poissons Ratio (z) = 0.07598 0.14179
#
# Static dielectric constant tensor:
#      x y z
#    x 2.043530 0.000000 -0.013760 
#    y 0.000000 2.116040 0.000000 
#    z -0.013760 0.000000 2.100690 
# 
# From -- ./inp_files/61741.got.cif
#   From: 2010.05.17/outbox.cif.g08.bks.cpg/sg12_31_cif.got.tgz:61741.got - 2010.06.03 13:09:07.
