data_PCOD9206039
_publ_section_title
;
Structure prediction by ZEFSAII (Michael W. Deem and Ramdas Pophale) SiO2 
 PCOD9206039
Probable space group: C 2/M
;
_chemical_formula_sum "Si O2"
_cell_formula_units_Z 56
_cell_length_a 10.078032
_cell_length_b 7.588855
_cell_length_c 31.783067
_cell_angle_alpha 90.000000
_cell_angle_beta 106.679332
_cell_angle_gamma 90.000000
_cell_volume 2328.519039
_symmetry_space_group_name_H-M "C 2/M"
_symmetry_group_IT_number 12
_symmetry_cell_setting 'monoclinic'
loop_
_space_group_symop_operation_xyz
x,y,z
-x,y,-z
-x,-y,-z
x,-y,z
1/2+x,1/2+y,z
1/2-x,1/2+y,-z
1/2-x,1/2-y,-z
1/2+x,1/2-y,z
loop_
_atom_site_type_symbol
_atom_site_label
_atom_site_fract_x
_atom_site_fract_y
_atom_site_fract_z
Si Si1 0.800811 0.789051 0.326678
Si Si2 0.100040 0.286163 0.047068
Si Si3 0.901017 0.293903 0.621967
Si Si4 0.105766 0.790419 0.230207
Si Si5 0.396994 0.794235 0.098297
Si Si6 0.595591 0.788811 0.471594
Si Si7 0.688240 0.204538 0.819625
O O1 0.723832 0.718943 0.361615
O O2 0.705371 0.743452 0.278495
O O3 0.956661 0.720848 0.339392
O O4 0.809062 0.000000 0.329465
O O5 0.104292 0.500000 0.047758
O O6 0.256419 0.219741 0.058341
O O7 0.025939 0.222896 0.083487
O O8 0.000000 0.232014 0.000000
O O9 0.868519 0.500000 0.613342
O O10 0.923891 0.217929 0.577486
O O11 0.185243 0.719815 0.195807
O O12 0.952827 0.712707 0.220257
O O13 0.089073 0.000000 0.224726
O O14 0.354983 0.713848 0.139495
O O15 0.428205 0.000000 0.108233
O O16 0.500000 0.716136 0.500000
O O17 0.750000 0.750000 0.500000
O O18 0.571659 0.000000 0.467575
O O19 0.723071 0.000000 0.830342
#
# Coordination Sequence:
#
# PCOD9206039 Si02
#       7
#     8   8   8   8   8   8   8
#     4  11  23  38  58  83 111 146 185 225 273 326
#     4  10  21  36  55  82 113 144 182 226 270 321
#     4  10  22  39  57  82 115 146 182 228 272 321
#     4  11  23  38  58  83 110 143 183 226 274 327
#     4  10  21  37  57  81 110 145 183 224 272 324
#     4  10  21  37  58  84 113 146 184 226 272 322
#     4  10  22  39  57  81 112 143 181 228 273 323
#
# _framework density 24.049621999999999
#
# number of rings (size 3 to 8) (size 9 to 14) (size 15 to 20)
#    0.000    1.714    0.000    3.857    0.000    8.000 
#    0.000    0.000    0.000    0.000    0.000    0.000 
#    0.000    0.000    0.000    0.000    0.000    0.000 
#
# Total GULP energy -156643.096909 kJ/mol
# GULP energy per Si atom -5594.396318 kJ/mol
# Density = 2.399488 g / cm^3
# Si number density = 24.049622 Si / 1000 Ang^3
#
#
#
# Elastic Constant Matrix: (Units=GPa)
#
#
# Indices 1 2 3 4 5 6 
#
# 1 98.9543 -11.2626 -15.9858 0.0000 -10.2428 0.0000
# 2 -11.2626 63.7412 -1.8447 0.0000 -15.7275 0.0000
# 3 -15.9858 -1.8447 70.0249 0.0000 -4.3567 0.0000
# 4 0.0000 0.0000 0.0000 12.0763 0.0000 16.3452
# 5 -10.2428 -15.7275 -4.3567 0.0000 45.1966 0.0000
# 6 0.0000 0.0000 0.0000 16.3452 0.0000 4.0947
#
#
#
# Elastic Compliance Matrix: (Units=1/GPa)
#
#
# Indices 1 2 3 4 5 6 
#
# 1 0.011327 0.003050 0.002909 0.000000 0.003909 0.000000
# 2 0.003050 0.018031 0.001614 0.000000 0.007121 0.000000
# 3 0.002909 0.001614 0.015154 0.000000 0.002682 0.000000
# 4 0.000000 0.000000 0.000000 -0.018807 0.000000 0.075076
# 5 0.003909 0.007121 0.002682 0.000000 0.025748 0.000000
# 6 0.000000 0.000000 0.000000 0.075076 0.000000 -0.055468
#
#
# Mechanical properties :
#
#
# Convention : Reuss Voigt Hill
#
# Bulk Modulus (GPa) = 16.76137 19.39270 18.07704
# Shear Modulus (GPa) = 6906.31080 29.72775 3468.01928
#
# Velocity S-wave (km/s) = 53.64631 3.51964 38.01522
# Velocity P-wave (km/s) = 62.00177 4.95966 43.98192
#
# Compressibility (1/GPa) = 0.05966098
#
# Stress axis : x y z
#
# Youngs Moduli (GPa) = 88.28094 55.45936 65.98823
#
# Poissons Ratio (x) = -0.16916 -0.19199
# Poissons Ratio (y) = -0.26927 -0.10653
# Poissons Ratio (z) = -0.25685 -0.08953
#
# Static dielectric constant tensor:
#      x y z
#    x 1.864710 0.000000 -0.040770 
#    y 0.000000 1.916570 0.000000 
#    z -0.040770 0.000000 1.955990 
# 
# From -- ./inp_files/357529.got.cif
#   From: 2010.05.17/outbox.cif.g08.bks.cpg/sg12_179_cif.got.tgz:357529.got - 2010.06.03 13:09:07.
