data_PCOD9206401
_publ_section_title
;
Structure prediction by ZEFSAII (Michael W. Deem and Ramdas Pophale) SiO2 
 PCOD9206401
Probable space group: C 2/M
;
_chemical_formula_sum "Si O2"
_cell_formula_units_Z 48
_cell_length_a 19.311664
_cell_length_b 9.230278
_cell_length_c 25.970933
_cell_angle_alpha 90.000000
_cell_angle_beta 145.497509
_cell_angle_gamma 90.000000
_cell_volume 2622.270735
_symmetry_space_group_name_H-M "C 2/M"
_symmetry_group_IT_number 12
_symmetry_cell_setting 'monoclinic'
loop_
_space_group_symop_operation_xyz
x,y,z
-x,y,-z
-x,-y,-z
x,-y,z
1/2+x,1/2+y,z
1/2-x,1/2+y,-z
1/2-x,1/2-y,-z
1/2+x,1/2-y,z
loop_
_atom_site_type_symbol
_atom_site_label
_atom_site_fract_x
_atom_site_fract_y
_atom_site_fract_z
Si Si1 0.118321 0.825713 0.419544
Si Si2 0.961586 0.666765 0.035570
Si Si3 0.739453 0.832282 0.940050
Si Si4 0.449138 0.676343 0.412969
Si Si5 0.462620 0.170038 0.731606
Si Si6 0.669426 0.824026 0.243631
O O1 0.250000 0.750000 0.500000
O O2 0.037949 0.782554 0.420341
O O3 0.056100 0.768966 0.329322
O O4 0.129997 0.000000 0.426971
O O5 0.934911 0.500000 0.035107
O O6 0.070026 0.720797 0.139773
O O7 0.840600 0.760577 0.966286
O O8 0.000000 0.665921 0.000000
O O9 0.602497 0.820448 0.835267
O O10 0.767410 0.000000 0.964775
O O11 0.750000 0.750000 0.000000
O O12 0.500000 0.722761 0.500000
O O13 0.447255 0.500000 0.412377
O O14 0.308516 0.725405 0.319701
O O15 0.378387 0.214232 0.728602
O O16 0.435157 0.000000 0.703006
O O17 0.671204 0.000000 0.242851
#
# Coordination Sequence:
#
# PCOD9206401 Si02
#       6
#     8   8   8   8   8   8
#     4  11  23  38  61  90 116 146 188 237 289 348
#     4  10  21  36  58  85 117 157 202 249 293 348
#     4  11  22  38  60  86 120 160 203 247 297 353
#     4   9  18  33  57  84 108 142 187 232 277 334
#     4  10  21  38  60  84 116 154 190 238 293 346
#     4   9  17  34  56  81 112 148 192 238 286 334
#
# _framework density 18.304745
#
# number of rings (size 3 to 8) (size 9 to 14) (size 15 to 20)
#    0.000    2.000    1.667    2.000    2.333    4.333 
#    0.000    0.000    0.000    9.000    0.000    0.000 
#    0.000    0.000    0.000    0.000    0.000    0.000 
#
# Total GULP energy -133934.126141 kJ/mol
# GULP energy per Si atom -5580.588589 kJ/mol
# Density = 1.826308 g / cm^3
# Si number density = 18.304745 Si / 1000 Ang^3
#
#
#
# Elastic Constant Matrix: (Units=GPa)
#
#
# Indices 1 2 3 4 5 6 
#
# 1 152.8882 48.8505 59.4293 0.0000 10.6952 0.0000
# 2 48.8505 63.1455 38.5290 0.0000 5.7460 0.0000
# 3 59.4293 38.5290 63.8359 0.0000 4.7658 0.0000
# 4 0.0000 0.0000 0.0000 28.0626 0.0000 0.5215
# 5 10.6952 5.7460 4.7658 0.0000 37.1176 0.0000
# 6 0.0000 0.0000 0.0000 0.5215 0.0000 25.8591
#
#
#
# Elastic Compliance Matrix: (Units=1/GPa)
#
#
# Indices 1 2 3 4 5 6 
#
# 1 0.010804 -0.003402 -0.007887 0.000000 -0.001574 0.000000
# 2 -0.003402 0.026282 -0.012585 0.000000 -0.001472 0.000000
# 3 -0.007887 -0.012585 0.030581 0.000000 0.000294 0.000000
# 4 0.000000 0.000000 0.000000 0.035648 0.000000 -0.000719
# 5 -0.001574 -0.001472 0.000294 0.000000 0.027585 0.000000
# 6 0.000000 0.000000 0.000000 -0.000719 0.000000 0.038686
#
#
# Mechanical properties :
#
#
# Convention : Reuss Voigt Hill
#
# Bulk Modulus (GPa) = 50.20584 63.72080 56.96332
# Shear Modulus (GPa) = 22.32409 27.07857 24.70133
#
# Velocity S-wave (km/s) = 3.49604 3.85037 3.67747
# Velocity P-wave (km/s) = 6.61692 7.39282 7.01560
#
# Compressibility (1/GPa) = 0.01991800
#
# Stress axis : x y z
#
# Youngs Moduli (GPa) = 92.56154 38.04943 32.69957
#
# Poissons Ratio (x) = 0.12946 0.25789
# Poissons Ratio (y) = 0.31494 0.41153
# Poissons Ratio (z) = 0.73001 0.47886
#
# Static dielectric constant tensor:
#      x y z
#    x 1.516380 0.000000 0.061000 
#    y 0.000000 1.632020 0.000000 
#    z 0.061000 0.000000 1.580910 
# 
# From -- ./inp_files/365539.got.cif
#   From: 2010.05.17/outbox.cif.g08.bks.cpg/sg12_183_cif.got.tgz:365539.got - 2010.06.03 13:09:07.
