data_PCOD9206742
_publ_section_title
;
Structure prediction by ZEFSAII (Michael W. Deem and Ramdas Pophale) SiO2 
 PCOD9206742
Probable space group: C 2/M
;
_chemical_formula_sum "Si O2"
_cell_formula_units_Z 56
_cell_length_a 13.815249
_cell_length_b 16.396770
_cell_length_c 19.537255
_cell_angle_alpha 90.000000
_cell_angle_beta 147.508740
_cell_angle_gamma 90.000000
_cell_volume 2377.349781
_symmetry_space_group_name_H-M "C 2/M"
_symmetry_group_IT_number 12
_symmetry_cell_setting 'monoclinic'
loop_
_space_group_symop_operation_xyz
x,y,z
-x,y,-z
-x,-y,-z
x,-y,z
1/2+x,1/2+y,z
1/2-x,1/2+y,-z
1/2-x,1/2-y,-z
1/2+x,1/2-y,z
loop_
_atom_site_type_symbol
_atom_site_label
_atom_site_fract_x
_atom_site_fract_y
_atom_site_fract_z
Si Si1 0.295029 0.207700 0.663101
Si Si2 0.478562 0.587532 0.887421
Si Si3 0.409483 0.386623 0.686460
Si Si4 0.306731 0.220792 0.254866
Si Si5 0.677913 0.840723 0.941657
Si Si6 0.705996 0.120212 0.110694
Si Si7 0.627947 0.094297 0.405859
O O1 0.372024 0.289312 0.672708
O O2 0.175701 0.237605 0.657766
O O3 0.471962 0.164495 0.799825
O O4 0.245044 0.141845 0.574546
O O5 0.429916 0.500000 0.886530
O O6 0.432750 0.585695 0.778520
O O7 0.361150 0.661302 0.841661
O O8 0.685657 0.611141 0.025039
O O9 0.591188 0.411905 0.754149
O O10 0.238929 0.414207 0.542054
O O11 0.239110 0.290426 0.162637
O O12 0.470097 0.161223 0.328770
O O13 0.750000 0.750000 0.000000
O O14 0.701922 0.884067 0.027297
O O15 0.500000 0.092775 0.000000
O O16 0.577115 0.000000 0.355098
#
# Coordination Sequence:
#
# PCOD9206742 Si02
#       7
#     8   8   8   8   8   8   8
#     4  11  22  39  65  99 132 183 233 278 328 410
#     4  10  21  36  61  97 134 173 217 279 350 403
#     4  10  22  41  65  91 132 182 231 274 329 408
#     4  11  22  38  67 104 135 173 229 274 334 413
#     4  11  17  36  60  89 131 177 217 271 329 400
#     4  11  19  35  67 102 123 166 230 283 320 393
#     4  12  26  45  67 100 144 182 221 286 353 400
#
# _framework density 23.555641000000001
#
# number of rings (size 3 to 8) (size 9 to 14) (size 15 to 20)
#    0.000    1.143    7.143    1.286    0.000    2.857 
#    0.000    3.571    0.000   19.286    0.000    0.000 
#    0.000    0.000    0.000    0.000    0.000    0.000 
#
# Total GULP energy -155927.958926 kJ/mol
# GULP energy per Si atom -5568.855676 kJ/mol
# Density = 2.350203 g / cm^3
# Si number density = 23.555641 Si / 1000 Ang^3
#
#
#
# Elastic Constant Matrix: (Units=GPa)
#
#
# Indices 1 2 3 4 5 6 
#
# 1 85.7452 36.1991 11.0543 0.0002 0.8595 -0.0003
# 2 36.1991 148.3101 18.2759 0.0005 -2.4532 0.0001
# 3 11.0543 18.2759 66.5536 0.0013 -8.4065 -0.0012
# 4 0.0002 0.0005 0.0013 -41.2540 0.0006 -16.6344
# 5 0.8595 -2.4532 -8.4065 0.0006 30.1411 -0.0001
# 6 -0.0003 0.0001 -0.0012 -16.6344 -0.0001 -22.9811
#
#
#
# Elastic Compliance Matrix: (Units=1/GPa)
#
#
# Indices 1 2 3 4 5 6 
#
# 1 0.013149 -0.003044 -0.001479 0.000000 -0.001035 0.000000
# 2 -0.003044 0.007684 -0.001570 0.000000 0.000274 0.000000
# 3 -0.001479 -0.001570 0.016264 0.000001 0.004451 -0.000002
# 4 0.000000 0.000000 0.000001 -0.034231 0.000001 0.024777
# 5 -0.001035 0.000274 0.004451 0.000001 0.034470 -0.000001
# 6 0.000000 0.000000 -0.000002 0.024777 -0.000001 -0.061448
#
#
# Mechanical properties :
#
#
# Convention : Reuss Voigt Hill
#
# Bulk Modulus (GPa) = 40.14231 47.96305 44.05268
# Shear Modulus (GPa) = -1380.12022 8.85317 -685.63352
#
# Velocity S-wave (km/s) = -24.23159 1.94076 -17.07928
# Velocity P-wave (km/s) = 27.67336 5.04261 19.24041
#
# Compressibility (1/GPa) = 0.02491137
#
# Stress axis : x y z
#
# Youngs Moduli (GPa) = 76.05348 130.14721 61.48432
#
# Poissons Ratio (x) = 0.39619 0.09092
# Poissons Ratio (y) = 0.23152 0.09651
# Poissons Ratio (z) = 0.11246 0.20429
#
# Static dielectric constant tensor:
#      x y z
#    x 1.942990 0.000000 -0.031640 
#    y 0.000000 1.914980 0.000000 
#    z -0.031640 0.000000 1.885110 
# 
# From -- ./inp_files/311768.got.cif
#   From: 2010.05.17/outbox.cif.g08.bks.cpg/sg12_156_cif.got.tgz:311768.got - 2010.06.03 13:09:07.
