data_PCOD9206627
_publ_section_title
;
Structure prediction by ZEFSAII (Michael W. Deem and Ramdas Pophale) SiO2 
 PCOD9206627
Probable space group: C 2/M
;
_chemical_formula_sum "Si O2"
_cell_formula_units_Z 52
_cell_length_a 17.327246
_cell_length_b 25.162053
_cell_length_c 7.429703
_cell_angle_alpha 90.000000
_cell_angle_beta 132.727203
_cell_angle_gamma 90.000000
_cell_volume 2379.543112
_symmetry_space_group_name_H-M "C 2/M"
_symmetry_group_IT_number 12
_symmetry_cell_setting 'monoclinic'
loop_
_space_group_symop_operation_xyz
x,y,z
-x,y,-z
-x,-y,-z
x,-y,z
1/2+x,1/2+y,z
1/2-x,1/2+y,-z
1/2-x,1/2-y,-z
1/2+x,1/2-y,z
loop_
_atom_site_type_symbol
_atom_site_label
_atom_site_fract_x
_atom_site_fract_y
_atom_site_fract_z
Si Si1 0.405946 0.141240 0.989812
Si Si2 0.722638 0.056981 0.781092
Si Si3 0.500000 0.097747 0.500000
Si Si4 0.848696 0.159519 0.907007
Si Si5 0.273925 0.561012 0.286151
Si Si6 0.424274 0.656947 0.616289
Si Si7 0.743023 0.263720 0.701681
O O1 0.453243 0.130982 0.261285
O O2 0.500000 0.148518 0.000000
O O3 0.331770 0.091363 0.815593
O O4 0.331528 0.192254 0.876365
O O5 0.597473 0.063931 0.579905
O O6 0.779919 0.106745 0.786888
O O7 0.753257 0.000000 0.752140
O O8 0.757362 0.058485 0.044854
O O9 0.893974 0.166501 0.777890
O O10 0.774383 0.208587 0.844342
O O11 0.950273 0.154560 0.195556
O O12 0.285945 0.500000 0.367864
O O13 0.369584 0.601210 0.477257
O O14 0.366781 0.707031 0.431442
O O15 0.750000 0.250000 0.500000
#
# Coordination Sequence:
#
# PCOD9206627 Si02
#       7
#     8   8   4   8   8   8   8
#     4  10  22  38  64  93 121 166 208 250 314 369
#     4  10  22  40  60  85 120 163 200 250 314 359
#     4  10  23  40  62  94 132 156 209 262 302 368
#     4  10  21  36  60  88 119 156 202 246 309 367
#     4   9  20  40  58  83 121 155 202 255 298 363
#     4   9  20  37  55  87 119 152 201 252 295 363
#     4   9  20  36  62  88 119 160 204 254 309 367
#
# _framework density 21.852934000000001
#
# number of rings (size 3 to 8) (size 9 to 14) (size 15 to 20)
#    0.000    2.462    0.000    0.231   10.769    2.769 
#    0.000   11.538    0.000    0.000    0.000    0.000 
#    0.000    0.000    0.000    0.000    0.000    0.000 
#
# Total GULP energy -145253.444865 kJ/mol
# GULP energy per Si atom -5586.670956 kJ/mol
# Density = 2.180320 g / cm^3
# Si number density = 21.852934 Si / 1000 Ang^3
#
#
#
# Elastic Constant Matrix: (Units=GPa)
#
#
# Indices 1 2 3 4 5 6 
#
# 1 53.7557 23.8862 15.8891 0.0000 14.9544 0.0000
# 2 23.8862 178.1090 68.9022 0.0000 33.0680 0.0000
# 3 15.8891 68.9022 129.4234 0.0000 25.1349 0.0000
# 4 0.0000 0.0000 0.0000 11.5659 0.0000 -2.0438
# 5 14.9544 33.0680 25.1349 0.0000 33.4905 0.0000
# 6 0.0000 0.0000 0.0000 -2.0438 0.0000 10.5040
#
#
#
# Elastic Compliance Matrix: (Units=1/GPa)
#
#
# Indices 1 2 3 4 5 6 
#
# 1 0.021520 -0.001222 -0.000421 0.000000 -0.008087 0.000000
# 2 -0.001222 0.007889 -0.003094 0.000000 -0.004922 0.000000
# 3 -0.000421 -0.003094 0.010296 0.000000 -0.004484 0.000000
# 4 0.000000 0.000000 0.000000 0.089540 0.000000 0.017422
# 5 -0.008087 -0.004922 -0.004484 0.000000 0.041696 0.000000
# 6 0.000000 0.000000 0.000000 0.017422 0.000000 0.098591
#
#
# Mechanical properties :
#
#
# Convention : Reuss Voigt Hill
#
# Bulk Modulus (GPa) = 33.07810 64.29367 48.68588
# Shear Modulus (GPa) = 17.29607 27.95280 22.62444
#
# Velocity S-wave (km/s) = 2.81637 3.58038 3.22111
# Velocity P-wave (km/s) = 5.07400 6.82474 6.01342
#
# Compressibility (1/GPa) = 0.03023148
#
# Stress axis : x y z
#
# Youngs Moduli (GPa) = 46.46917 126.75565 97.12097
#
# Poissons Ratio (x) = 0.15486 0.04089
# Poissons Ratio (y) = 0.05677 0.30051
# Poissons Ratio (z) = 0.01956 0.39220
#
# Static dielectric constant tensor:
#      x y z
#    x 1.809260 0.000000 -0.037630 
#    y 0.000000 1.791370 0.000000 
#    z -0.037630 0.000000 1.839810 
# 
# From -- ./inp_files/90724.got.cif
#   From: 2010.05.17/outbox.cif.g08.bks.cpg/sg12_46_cif.got.tgz:90724.got - 2010.06.03 13:09:07.
