data_PCOD9206954
_publ_section_title
;
Structure prediction by ZEFSAII (Michael W. Deem and Ramdas Pophale) SiO2 
 PCOD9206954
Probable space group: C 2/M
;
_chemical_formula_sum "Si O2"
_cell_formula_units_Z 58
_cell_length_a 26.713132
_cell_length_b 9.868107
_cell_length_c 12.340206
_cell_angle_alpha 90.000000
_cell_angle_beta 71.334214
_cell_angle_gamma 90.000000
_cell_volume 3081.876037
_symmetry_space_group_name_H-M "C 2/M"
_symmetry_group_IT_number 12
_symmetry_cell_setting 'monoclinic'
loop_
_space_group_symop_operation_xyz
x,y,z
-x,y,-z
-x,-y,-z
x,-y,z
1/2+x,1/2+y,z
1/2-x,1/2+y,-z
1/2-x,1/2-y,-z
1/2+x,1/2-y,z
loop_
_atom_site_type_symbol
_atom_site_label
_atom_site_fract_x
_atom_site_fract_y
_atom_site_fract_z
Si Si1 0.993159 0.739407 0.349328
Si Si2 0.353819 0.660193 0.278475
Si Si3 0.275310 0.658115 0.138350
Si Si4 0.892127 0.654181 0.693383
Si Si5 0.374717 0.153810 0.461681
Si Si6 0.974034 0.837530 0.130428
Si Si7 0.500000 0.500000 0.500000
Si Si8 0.178965 0.158604 0.129043
O O1 0.044724 0.664365 0.357232
O O2 0.988849 0.880712 0.416595
O O3 0.937970 0.662543 0.400943
O O4 0.999714 0.769282 0.217421
O O5 0.352684 0.500000 0.304189
O O6 0.308311 0.689232 0.223007
O O7 0.350045 0.745578 0.391116
O O8 0.411096 0.688369 0.184256
O O9 0.257537 0.500000 0.155693
O O10 0.227506 0.760576 0.150411
O O11 0.312384 0.668208 0.006064
O O12 0.877377 0.500000 0.731662
O O13 0.867246 0.688796 0.593306
O O14 0.872178 0.763401 0.793149
O O15 0.356685 0.000000 0.456796
O O16 0.981340 0.000000 0.132860
O O17 0.000000 0.792011 0.000000
O O18 0.178103 0.000000 0.158610
#
# Coordination Sequence:
#
# PCOD9206954 Si02
#       8
#     8   8   8   8   8   8   2   8
#     4  11  21  33  55  77 116 150 189 230 273 324
#     4   9  19  34  58  81 106 147 185 222 272 333
#     4   9  19  40  60  83 113 145 179 227 287 340
#     4  11  23  37  55  81 114 151 185 230 284 330
#     4  10  21  37  55  79 113 152 187 226 273 330
#     4   9  18  30  48  78 112 144 178 221 269 320
#     4  12  20  32  52  92 104 156 194 246 264 328
#     4  10  22  36  61  87 110 139 185 235 279 333
#
# _framework density 18.819704999999999
#
# number of rings (size 3 to 8) (size 9 to 14) (size 15 to 20)
#    0.000    2.069    2.069    0.828    3.862    2.759 
#    0.000    0.690    0.000    2.069    0.000    0.000 
#    0.000    0.000    0.000    0.000    0.000    0.000 
#
# Total GULP energy -161556.606194 kJ/mol
# GULP energy per Si atom -5570.917455 kJ/mol
# Density = 1.877687 g / cm^3
# Si number density = 18.819705 Si / 1000 Ang^3
#
#
#
# Elastic Constant Matrix: (Units=GPa)
#
#
# Indices 1 2 3 4 5 6 
#
# 1 42.9313 20.1277 4.2880 0.0000 19.7480 0.0000
# 2 20.1277 66.7704 16.1863 0.0000 7.9067 0.0000
# 3 4.2880 16.1863 46.8061 0.0000 18.7373 0.0000
# 4 0.0000 0.0000 0.0000 26.8182 0.0000 2.4952
# 5 19.7480 7.9067 18.7373 0.0000 29.9313 0.0000
# 6 0.0000 0.0000 0.0000 2.4952 0.0000 9.0001
#
#
#
# Elastic Compliance Matrix: (Units=1/GPa)
#
#
# Indices 1 2 3 4 5 6 
#
# 1 0.043420 -0.012438 0.013980 0.000000 -0.034114 0.000000
# 2 -0.012438 0.019934 -0.009249 0.000000 0.008731 0.000000
# 3 0.013980 -0.009249 0.034690 0.000000 -0.028497 0.000000
# 4 0.000000 0.000000 0.000000 0.038275 0.000000 -0.010612
# 5 -0.034114 0.008731 -0.028497 0.000000 0.071450 0.000000
# 6 0.000000 0.000000 0.000000 -0.010612 0.000000 0.114052
#
#
# Mechanical properties :
#
#
# Convention : Reuss Voigt Hill
#
# Bulk Modulus (GPa) = 12.10221 26.41243 19.25732
# Shear Modulus (GPa) = 13.70685 20.87696 17.29190
#
# Velocity S-wave (km/s) = 2.70168 3.33425 3.03449
# Velocity P-wave (km/s) = 4.02202 5.37474 4.74682
#
# Compressibility (1/GPa) = 0.08262956
#
# Stress axis : x y z
#
# Youngs Moduli (GPa) = 23.03075 50.16434 28.82655
#
# Poissons Ratio (x) = 0.62396 -0.40299
# Poissons Ratio (y) = 0.28646 0.26662
# Poissons Ratio (z) = -0.32196 0.46398
#
# Static dielectric constant tensor:
#      x y z
#    x 1.666690 0.000000 -0.019090 
#    y 0.000000 1.631700 0.000000 
#    z -0.019090 0.000000 1.658190 
# 
# From -- ./inp_files/186573.got.cif
#   From: 2010.05.17/outbox.cif.g08.bks.cpg/sg12_94_cif.got.tgz:186573.got - 2010.06.03 13:09:07.
