data_PCOD9206716
_publ_section_title
;
Structure prediction by ZEFSAII (Michael W. Deem and Ramdas Pophale) SiO2 
 PCOD9206716
Probable space group: C 2/M
;
_chemical_formula_sum "Si O2"
_cell_formula_units_Z 50
_cell_length_a 24.730065
_cell_length_b 9.397906
_cell_length_c 14.415009
_cell_angle_alpha 90.000000
_cell_angle_beta 55.889552
_cell_angle_gamma 90.000000
_cell_volume 2773.828621
_symmetry_space_group_name_H-M "C 2/M"
_symmetry_group_IT_number 12
_symmetry_cell_setting 'monoclinic'
loop_
_space_group_symop_operation_xyz
x,y,z
-x,y,-z
-x,-y,-z
x,-y,z
1/2+x,1/2+y,z
1/2-x,1/2+y,-z
1/2-x,1/2-y,-z
1/2+x,1/2-y,z
loop_
_atom_site_type_symbol
_atom_site_label
_atom_site_fract_x
_atom_site_fract_y
_atom_site_fract_z
Si Si1 0.130456 0.828562 0.617048
Si Si2 0.000000 0.500000 0.500000
Si Si3 0.519222 0.334620 0.224042
Si Si4 0.564812 0.168300 0.001043
Si Si5 0.937318 0.208972 0.613875
Si Si6 0.195468 0.835454 0.366601
Si Si7 0.176608 0.171071 0.780354
O O1 0.054897 0.783056 0.683250
O O2 0.173338 0.777961 0.489302
O O3 0.158022 0.792667 0.691323
O O4 0.129905 0.000000 0.609518
O O5 0.049463 0.375320 0.414225
O O6 0.515555 0.500000 0.196231
O O7 0.549124 0.237832 0.115276
O O8 0.558053 0.327512 0.282695
O O9 0.579237 0.000000 0.994207
O O10 0.500000 0.184447 0.000000
O O11 0.623247 0.253939 0.896340
O O12 0.869798 0.166297 0.632074
O O13 0.000000 0.144387 0.500000
O O14 0.252386 0.737731 0.271694
O O15 0.218049 0.000000 0.353384
O O16 0.175248 0.000000 0.791875
#
# Coordination Sequence:
#
# PCOD9206716 Si02
#       7
#     8   2   8   8   8   8   8
#     4   9  18  34  58  90 120 156 192 243 299 354
#     4   8  20  36  58  88 130 156 200 248 296 344
#     4  11  21  37  64  92 121 153 203 251 300 359
#     4  11  24  41  62  89 119 157 203 253 303 356
#     4  10  21  36  61  90 123 159 201 242 299 354
#     4  11  22  38  60  88 128 161 199 247 298 358
#     4  11  23  39  60  87 121 163 205 244 301 362
#
# _framework density 18.025627
#
# number of rings (size 3 to 8) (size 9 to 14) (size 15 to 20)
#    0.480    1.120    3.200    1.920    2.240    1.280 
#    0.000    1.600    0.000    0.000    0.000    0.000 
#    0.000    0.000    0.000    0.000    0.000    0.000 
#
# Total GULP energy -139234.197055 kJ/mol
# GULP energy per Si atom -5569.367882 kJ/mol
# Density = 1.798460 g / cm^3
# Si number density = 18.025627 Si / 1000 Ang^3
#
#
#
# Elastic Constant Matrix: (Units=GPa)
#
#
# Indices 1 2 3 4 5 6 
#
# 1 62.0829 22.3903 44.2983 0.0000 -11.3472 0.0000
# 2 22.3903 120.8136 53.9395 0.0000 -11.8083 0.0000
# 3 44.2983 53.9395 128.2662 0.0000 -9.3809 0.0000
# 4 0.0000 0.0000 0.0000 28.4865 0.0000 -3.2590
# 5 -11.3472 -11.8083 -9.3809 0.0000 34.0511 0.0000
# 6 0.0000 0.0000 0.0000 -3.2590 0.0000 0.0751
#
#
#
# Elastic Compliance Matrix: (Units=1/GPa)
#
#
# Indices 1 2 3 4 5 6 
#
# 1 0.022332 -0.000429 -0.007143 0.000000 0.005325 0.000000
# 2 -0.000429 0.010395 -0.004052 0.000000 0.002346 0.000000
# 3 -0.007143 -0.004052 0.011930 0.000000 -0.000498 0.000000
# 4 0.000000 0.000000 0.000000 -0.008849 0.000000 -0.384191
# 5 0.005325 0.002346 -0.000498 0.000000 0.031818 0.000000
# 6 0.000000 0.000000 0.000000 -0.384191 0.000000 -3.358188
#
#
# Mechanical properties :
#
#
# Convention : Reuss Voigt Hill
#
# Bulk Modulus (GPa) = 46.70612 61.37987 54.04300
# Shear Modulus (GPa) = -1.53366 25.22485 11.84559
#
# Velocity S-wave (km/s) = -0.92340 3.74490 2.56628
# Velocity P-wave (km/s) = 4.98300 7.26804 6.23116
#
# Compressibility (1/GPa) = 0.02141047
#
# Stress axis : x y z
#
# Youngs Moduli (GPa) = 44.77833 96.20090 83.81922
#
# Poissons Ratio (x) = 0.04130 0.59870
# Poissons Ratio (y) = 0.01922 0.33960
# Poissons Ratio (z) = 0.31984 0.38976
#
# Static dielectric constant tensor:
#      x y z
#    x 1.618870 0.000000 0.005140 
#    y 0.000000 1.608280 0.000000 
#    z 0.005140 0.000000 1.607320 
# 
# From -- ./inp_files/237240.got.cif
#   From: 2010.05.17/outbox.cif.g08.bks.cpg/sg12_119_cif.got.tgz:237240.got - 2010.06.03 13:09:07.
