data_PCOD9206212
_publ_section_title
;
Structure prediction by ZEFSAII (Michael W. Deem and Ramdas Pophale) SiO2 
 PCOD9206212
Probable space group: C 2/M
;
_chemical_formula_sum "Si O2"
_cell_formula_units_Z 44
_cell_length_a 18.633167
_cell_length_b 7.543932
_cell_length_c 27.623381
_cell_angle_alpha 90.000000
_cell_angle_beta 149.813740
_cell_angle_gamma 90.000000
_cell_volume 1952.394112
_symmetry_space_group_name_H-M "C 2/M"
_symmetry_group_IT_number 12
_symmetry_cell_setting 'monoclinic'
loop_
_space_group_symop_operation_xyz
x,y,z
-x,y,-z
-x,-y,-z
x,-y,z
1/2+x,1/2+y,z
1/2-x,1/2+y,-z
1/2-x,1/2-y,-z
1/2+x,1/2-y,z
loop_
_atom_site_type_symbol
_atom_site_label
_atom_site_fract_x
_atom_site_fract_y
_atom_site_fract_z
Si Si1 0.835511 0.715084 0.405325
Si Si2 0.331847 0.794065 0.790520
Si Si3 0.864194 0.500000 0.155809
Si Si4 0.666599 0.711458 0.401900
Si Si5 0.664455 0.285463 0.789610
Si Si6 0.405649 0.303144 0.109794
O O1 0.833855 0.500000 0.405840
O O2 0.760147 0.769442 0.311788
O O3 0.752749 0.778565 0.405238
O O4 0.000000 0.773142 0.500000
O O5 0.240843 0.739006 0.783883
O O6 0.480885 0.699353 0.867219
O O7 0.364872 0.000000 0.816645
O O8 0.778706 0.660000 0.134946
O O9 0.946150 0.654975 0.171728
O O10 0.657503 0.500000 0.391732
O O11 0.750000 0.750000 0.500000
O O12 0.502968 0.774270 0.309986
O O13 0.673337 0.500000 0.801532
O O14 0.404128 0.500000 0.130152
O O15 0.250000 0.250000 0.000000
#
# Coordination Sequence:
#
# PCOD9206212 Si02
#       6
#     8   8   4   8   8   8
#     4  10  21  36  59  93 132 181 239 291 346 412
#     4  11  23  42  68 100 138 185 236 289 351 417
#     4  12  24  44  75 104 133 184 219 284 356 408
#     4  10  21  36  56  87 132 182 232 293 347 402
#     4  10  24  42  64 101 141 180 238 287 346 420
#     4  12  25  47  75 107 139 177 232 285 351 435
#
# _framework density 22.536434
#
# number of rings (size 3 to 8) (size 9 to 14) (size 15 to 20)
#    0.000    1.273    1.818    3.273    3.818    2.545 
#    0.000    1.818    0.000    3.273    0.000    0.000 
#    0.000    0.000    0.000    0.000    0.000    0.000 
#
# Total GULP energy -122497.215284 kJ/mol
# GULP energy per Si atom -5568.055240 kJ/mol
# Density = 2.248514 g / cm^3
# Si number density = 22.536434 Si / 1000 Ang^3
#
#
#
# Elastic Constant Matrix: (Units=GPa)
#
#
# Indices 1 2 3 4 5 6 
#
# 1 199.9046 46.6469 29.5164 -0.0001 33.2259 -0.0003
# 2 46.6469 139.7769 10.8758 -0.0001 7.7894 -0.0008
# 3 29.5164 10.8758 75.0076 0.0000 28.7741 0.0000
# 4 -0.0001 -0.0001 0.0000 9.4438 0.0000 0.1648
# 5 33.2259 7.7894 28.7741 0.0000 29.6349 0.0000
# 6 -0.0003 -0.0008 0.0000 0.1648 0.0000 30.5971
#
#
#
# Elastic Compliance Matrix: (Units=1/GPa)
#
#
# Indices 1 2 3 4 5 6 
#
# 1 0.006582 -0.001824 0.000512 0.000000 -0.007397 0.000000
# 2 -0.001824 0.007778 -0.000654 0.000000 0.000635 0.000000
# 3 0.000512 -0.000654 0.021321 0.000000 -0.021104 0.000000
# 4 0.000000 0.000000 0.000000 0.105899 0.000000 -0.000570
# 5 -0.007397 0.000635 -0.021104 0.000000 0.062362 0.000000
# 6 0.000000 0.000000 0.000000 -0.000570 0.000000 0.032686
#
#
# Mechanical properties :
#
#
# Convention : Reuss Voigt Hill
#
# Bulk Modulus (GPa) = 31.49619 65.41859 48.45739
# Shear Modulus (GPa) = 19.90893 35.77849 27.84371
#
# Velocity S-wave (km/s) = 2.97545 3.98877 3.51878
# Velocity P-wave (km/s) = 5.08039 7.09258 6.16908
#
# Compressibility (1/GPa) = 0.03174988
#
# Stress axis : x y z
#
# Youngs Moduli (GPa) = 151.93137 128.55983 46.90182
#
# Poissons Ratio (x) = 0.23451 -0.02402
# Poissons Ratio (y) = 0.27715 0.03066
# Poissons Ratio (z) = -0.07781 0.08405
#
# Static dielectric constant tensor:
#      x y z
#    x 1.864530 0.000000 -0.014600 
#    y 0.000000 1.817150 0.000000 
#    z -0.014600 0.000000 1.900360 
# 
# From -- ./inp_files/377801.got.cif
#   From: 2010.05.17/outbox.cif.g08.bks.cpg/sg12_189_cif.got.tgz:377801.got - 2010.06.03 13:09:07.
