data_PCOD9206974
_publ_section_title
;
Structure prediction by ZEFSAII (Michael W. Deem and Ramdas Pophale) SiO2 
 PCOD9206974
Probable space group: C 2/M
;
_chemical_formula_sum "Si O2"
_cell_formula_units_Z 52
_cell_length_a 15.439140
_cell_length_b 9.633360
_cell_length_c 25.836130
_cell_angle_alpha 90.000000
_cell_angle_beta 140.992030
_cell_angle_gamma 90.000000
_cell_volume 2418.659609
_symmetry_space_group_name_H-M "C 2/M"
_symmetry_group_IT_number 12
_symmetry_cell_setting 'monoclinic'
loop_
_space_group_symop_operation_xyz
x,y,z
-x,y,-z
-x,-y,-z
x,-y,z
1/2+x,1/2+y,z
1/2-x,1/2+y,-z
1/2-x,1/2-y,-z
1/2+x,1/2-y,z
loop_
_atom_site_type_symbol
_atom_site_label
_atom_site_fract_x
_atom_site_fract_y
_atom_site_fract_z
Si Si1 0.564081 0.284543 0.428842
Si Si2 0.771167 0.163015 0.340264
Si Si3 0.927061 0.162357 0.688815
Si Si4 0.175598 0.658526 0.831468
Si Si5 0.846962 0.839183 0.807955
Si Si6 0.301998 0.000000 0.530987
Si Si7 0.850820 0.163540 0.011097
O O1 0.432056 0.319088 0.402278
O O2 0.539284 0.321669 0.356354
O O3 0.598644 0.122992 0.445743
O O4 0.694042 0.380212 0.501713
O O5 0.708791 0.253902 0.357884
O O6 0.694067 0.230829 0.254874
O O7 0.740156 0.000000 0.332639
O O8 0.052277 0.232799 0.778299
O O9 0.911041 0.000000 0.691889
O O10 0.125701 0.500000 0.817777
O O11 0.234674 0.663455 0.801226
O O12 0.299723 0.686625 0.928780
O O13 0.992594 0.803731 0.902026
O O14 0.853629 0.000000 0.791868
O O15 0.833264 0.000000 0.012968
O O16 0.750000 0.250000 0.000000
#
# Coordination Sequence:
#
# PCOD9206974 Si02
#       7
#     8   8   8   8   8   4   8
#     4  11  24  48  72  99 134 172 213 261 323 387
#     4  12  25  42  66  99 133 172 220 270 321 386
#     4  12  25  42  66  99 133 172 220 270 321 386
#     4  10  21  38  63  91 124 172 221 271 326 381
#     4  10  21  38  63  91 124 172 221 271 326 381
#     4  10  24  46  78  98 132 174 208 260 326 390
#     4  10  21  37  55  85 127 168 219 273 321 379
#
# _framework density 21.499510999999998
#
# number of rings (size 3 to 8) (size 9 to 14) (size 15 to 20)
#    0.000    1.231    3.077    2.308    4.308    5.538 
#    0.000    4.615    0.000    2.769    0.000    0.000 
#    0.000    0.000    0.000    0.000    0.000    0.000 
#
# Total GULP energy -144878.132328 kJ/mol
# GULP energy per Si atom -5572.235859 kJ/mol
# Density = 2.145058 g / cm^3
# Si number density = 21.499511 Si / 1000 Ang^3
#
#
#
# Elastic Constant Matrix: (Units=GPa)
#
#
# Indices 1 2 3 4 5 6 
#
# 1 65.5524 27.6901 18.5669 0.0000 18.3911 0.0000
# 2 27.6901 175.9766 41.5429 0.0000 9.0504 0.0000
# 3 18.5669 41.5429 53.5571 0.0000 3.4635 0.0000
# 4 0.0000 0.0000 0.0000 -12.1191 0.0000 34.6080
# 5 18.3911 9.0504 3.4635 0.0000 36.9749 0.0000
# 6 0.0000 0.0000 0.0000 34.6080 0.0000 13.9564
#
#
#
# Elastic Compliance Matrix: (Units=1/GPa)
#
#
# Indices 1 2 3 4 5 6 
#
# 1 0.019869 -0.001436 -0.005189 0.000000 -0.009045 0.000000
# 2 -0.001436 0.007114 -0.004984 0.000000 -0.000560 0.000000
# 3 -0.005189 -0.004984 0.024238 0.000000 0.001531 0.000000
# 4 0.000000 0.000000 0.000000 -0.010211 0.000000 0.025319
# 5 -0.009045 -0.000560 0.001531 0.000000 0.031538 0.000000
# 6 0.000000 0.000000 0.000000 0.025319 0.000000 0.008866
#
#
# Mechanical properties :
#
#
# Convention : Reuss Voigt Hill
#
# Bulk Modulus (GPa) = 35.71185 52.29843 44.00514
# Shear Modulus (GPa) = 43.87231 21.58153 32.72692
#
# Velocity S-wave (km/s) = 4.52222 3.17174 3.90579
# Velocity P-wave (km/s) = 6.62676 6.14748 6.39161
#
# Compressibility (1/GPa) = 0.02800191
#
# Stress axis : x y z
#
# Youngs Moduli (GPa) = 50.32947 140.56909 41.25827
#
# Poissons Ratio (x) = 0.20189 0.21409
# Poissons Ratio (y) = 0.07228 0.20563
# Poissons Ratio (z) = 0.26117 0.70059
#
# Static dielectric constant tensor:
#      x y z
#    x 1.798210 0.000000 -0.043470 
#    y 0.000000 1.737570 0.000000 
#    z -0.043470 0.000000 1.847450 
# 
# From -- ./inp_files/375723.got.cif
#   From: 2010.05.17/outbox.cif.g08.bks.cpg/sg12_188_cif.got.tgz:375723.got - 2010.06.03 13:09:07.
