data_PCOD9206167
_publ_section_title
;
Structure prediction by ZEFSAII (Michael W. Deem and Ramdas Pophale) SiO2 
 PCOD9206167
Probable space group: C 2/M
;
_chemical_formula_sum "Si O2"
_cell_formula_units_Z 64
_cell_length_a 30.700655
_cell_length_b 14.348037
_cell_length_c 9.247769
_cell_angle_alpha 90.000000
_cell_angle_beta 60.441085
_cell_angle_gamma 90.000000
_cell_volume 3543.406021
_symmetry_space_group_name_H-M "C 2/M"
_symmetry_group_IT_number 12
_symmetry_cell_setting 'monoclinic'
loop_
_space_group_symop_operation_xyz
x,y,z
-x,y,-z
-x,-y,-z
x,-y,z
1/2+x,1/2+y,z
1/2-x,1/2+y,-z
1/2-x,1/2-y,-z
1/2+x,1/2-y,z
loop_
_atom_site_type_symbol
_atom_site_label
_atom_site_fract_x
_atom_site_fract_y
_atom_site_fract_z
Si Si1 0.278714 0.888285 0.372366
Si Si2 0.544788 0.895835 0.314297
Si Si3 0.527863 0.891996 0.803239
Si Si4 0.862436 0.722578 0.732694
Si Si5 0.326394 0.610704 0.296051
Si Si6 0.169748 0.892415 0.052855
Si Si7 0.723472 0.890546 0.963235
Si Si8 0.631298 0.779134 0.619805
O O1 0.227497 0.867330 0.542578
O O2 0.273902 0.862945 0.210327
O O3 0.325677 0.838532 0.369676
O O4 0.285833 0.000000 0.367917
O O5 0.500000 0.904779 0.500000
O O6 0.515739 0.852051 0.227617
O O7 0.589007 0.837494 0.309103
O O8 0.563152 0.000000 0.244332
O O9 0.578242 0.831910 0.721123
O O10 0.539582 0.000000 0.738013
O O11 0.500000 0.897131 0.000000
O O12 0.866072 0.822117 0.804666
O O13 0.856439 0.729387 0.570468
O O14 0.815991 0.670452 0.884477
O O15 0.335547 0.500000 0.302249
O O16 0.365985 0.677972 0.309252
O O17 0.325130 0.629022 0.126031
O O18 0.223135 0.882325 0.045881
O O19 0.154290 0.000000 0.090948
O O20 0.709055 0.000000 0.992130
#
# Coordination Sequence:
#
# PCOD9206167 Si02
#       8
#     8   8   8   8   8   8   8   8
#     4  10  21  36  56  84 119 153 188 230 277 334
#     4  10  21  40  60  84 117 149 183 224 276 335
#     4  10  23  40  60  86 117 149 182 227 280 333
#     4  12  23  35  59  86 114 151 190 231 280 336
#     4  10  22  40  59  80 112 151 190 236 284 331
#     4  10  22  40  59  81 112 149 191 237 282 331
#     4  10  21  36  56  85 118 152 189 230 277 333
#     4  12  23  36  58  86 115 150 190 230 280 340
#
# _framework density 18.061717000000002
#
# number of rings (size 3 to 8) (size 9 to 14) (size 15 to 20)
#    0.000    1.500    1.250    3.750    3.500    4.000 
#    0.000    0.000    0.000    1.500    0.000    0.000 
#    0.000    0.000    0.000    0.000    0.000    0.000 
#
# Total GULP energy -178682.303243 kJ/mol
# GULP energy per Si atom -5583.821976 kJ/mol
# Density = 1.802061 g / cm^3
# Si number density = 18.061717 Si / 1000 Ang^3
#
#
#
# Elastic Constant Matrix: (Units=GPa)
#
#
# Indices 1 2 3 4 5 6 
#
# 1 79.6252 50.1813 37.6964 0.0000 28.1460 0.0000
# 2 50.1813 88.6055 45.7214 0.0000 6.4058 0.0000
# 3 37.6964 45.7214 113.3187 0.0000 26.1903 0.0000
# 4 0.0000 0.0000 0.0000 30.4280 0.0000 3.2019
# 5 28.1460 6.4058 26.1903 0.0000 31.0694 0.0000
# 6 0.0000 0.0000 0.0000 3.2019 0.0000 22.7919
#
#
#
# Elastic Compliance Matrix: (Units=1/GPa)
#
#
# Indices 1 2 3 4 5 6 
#
# 1 0.032282 -0.017754 0.002903 0.000000 -0.028031 0.000000
# 2 -0.017754 0.024160 -0.007958 0.000000 0.017811 0.000000
# 3 0.002903 -0.007958 0.014032 0.000000 -0.012818 0.000000
# 4 0.000000 0.000000 0.000000 0.033358 0.000000 -0.004686
# 5 -0.028031 0.017811 -0.012818 0.000000 0.064713 0.000000
# 6 0.000000 0.000000 0.000000 -0.004686 0.000000 0.044533
#
#
# Mechanical properties :
#
#
# Convention : Reuss Voigt Hill
#
# Bulk Modulus (GPa) = 40.23267 60.97195 50.60231
# Shear Modulus (GPa) = 18.72782 26.72122 22.72452
#
# Velocity S-wave (km/s) = 3.22355 3.85052 3.55090
# Velocity P-wave (km/s) = 6.01486 7.32117 6.69993
#
# Compressibility (1/GPa) = 0.02485542
#
# Stress axis : x y z
#
# Youngs Moduli (GPa) = 30.97691 41.39074 71.26358
#
# Poissons Ratio (x) = 0.73486 -0.20689
# Poissons Ratio (y) = 0.54997 0.56714
# Poissons Ratio (z) = -0.08993 0.32940
#
# Static dielectric constant tensor:
#      x y z
#    x 1.569440 0.000000 -0.020750 
#    y 0.000000 1.659370 0.000000 
#    z -0.020750 0.000000 1.435410 
# 
# From -- ./inp_files/104489.got.cif
#   From: 2010.05.17/outbox.cif.g08.bks.cpg/sg12_53_cif.got.tgz:104489.got - 2010.06.03 13:09:07.
