data_PCOD9206574
_publ_section_title
;
Structure prediction by ZEFSAII (Michael W. Deem and Ramdas Pophale) SiO2 
 PCOD9206574
Probable space group: C 2/M
;
_chemical_formula_sum "Si O2"
_cell_formula_units_Z 64
_cell_length_a 14.903582
_cell_length_b 9.268641
_cell_length_c 30.339172
_cell_angle_alpha 90.000000
_cell_angle_beta 130.507396
_cell_angle_gamma 90.000000
_cell_volume 3186.457096
_symmetry_space_group_name_H-M "C 2/M"
_symmetry_group_IT_number 12
_symmetry_cell_setting 'monoclinic'
loop_
_space_group_symop_operation_xyz
x,y,z
-x,y,-z
-x,-y,-z
x,-y,z
1/2+x,1/2+y,z
1/2-x,1/2+y,-z
1/2-x,1/2-y,-z
1/2+x,1/2-y,z
loop_
_atom_site_type_symbol
_atom_site_label
_atom_site_fract_x
_atom_site_fract_y
_atom_site_fract_z
Si Si1 0.862639 0.670839 0.587760
Si Si2 0.618963 0.827869 0.511388
Si Si3 0.401386 0.839146 0.869967
Si Si4 0.231080 0.169001 0.104741
Si Si5 0.847004 0.667057 0.002965
Si Si6 0.584256 0.668758 0.696954
Si Si7 0.159393 0.665912 0.251562
Si Si8 0.057164 0.166940 0.790641
O O1 0.852805 0.500000 0.591143
O O2 0.739650 0.745908 0.562403
O O3 0.888983 0.696862 0.543979
O O4 0.973089 0.736398 0.648625
O O5 0.500000 0.784087 0.500000
O O6 0.633914 0.000000 0.523170
O O7 0.331141 0.708613 0.869332
O O8 0.391357 0.832834 0.814497
O O9 0.353985 0.000000 0.868166
O O10 0.532355 0.830509 0.931220
O O11 0.153164 0.250227 0.043357
O O12 0.359734 0.240803 0.150484
O O13 0.239249 0.000000 0.098507
O O14 0.815901 0.500000 0.985529
O O15 0.750000 0.750000 0.000000
O O16 0.559946 0.500000 0.679569
O O17 0.703943 0.709223 0.709459
O O18 0.605242 0.678114 0.756102
O O19 0.153134 0.500000 0.265482
O O20 0.074462 0.769450 0.251412
O O21 0.057045 0.000000 0.803835
#
# Coordination Sequence:
#
# PCOD9206574 Si02
#       8
#     8   8   8   8   8   8   8   8
#     4  10  21  36  59  91 124 158 203 253 292 345
#     4   9  19  38  62  88 123 165 203 242 296 353
#     4  10  21  40  61  82 113 151 192 241 303 366
#     4  12  24  38  59  85 115 151 195 247 301 363
#     4  11  23  38  59  85 115 150 191 243 303 367
#     4  10  22  41  62  84 122 166 200 245 303 361
#     4  10  21  40  63  88 119 155 199 250 308 364
#     4  11  23  41  63  87 116 156 204 250 305 366
#
# _framework density 20.085003
#
# number of rings (size 3 to 8) (size 9 to 14) (size 15 to 20)
#    0.000    1.625    1.250    3.375    0.000    7.250 
#    0.000    3.750    0.000    0.000    0.000    0.000 
#    0.000    0.000    0.000    0.000    0.000    0.000 
#
# Total GULP energy -178759.849528 kJ/mol
# GULP energy per Si atom -5586.245298 kJ/mol
# Density = 2.003929 g / cm^3
# Si number density = 20.085003 Si / 1000 Ang^3
#
#
#
# Elastic Constant Matrix: (Units=GPa)
#
#
# Indices 1 2 3 4 5 6 
#
# 1 98.1728 41.9088 8.3654 0.0000 28.2141 0.0000
# 2 41.9088 103.4397 39.7432 0.0000 20.6689 0.0000
# 3 8.3654 39.7432 70.1799 0.0000 29.4669 0.0000
# 4 0.0000 0.0000 0.0000 26.2025 0.0000 3.0328
# 5 28.2141 20.6689 29.4669 0.0000 26.9538 0.0000
# 6 0.0000 0.0000 0.0000 3.0328 0.0000 34.6466
#
#
#
# Elastic Compliance Matrix: (Units=1/GPa)
#
#
# Indices 1 2 3 4 5 6 
#
# 1 0.022865 -0.008713 0.017473 0.000000 -0.036355 0.000000
# 2 -0.008713 0.015844 -0.012315 0.000000 0.010434 0.000000
# 3 0.017473 -0.012315 0.042248 0.000000 -0.055034 0.000000
# 4 0.000000 0.000000 0.000000 0.038555 0.000000 -0.003375
# 5 -0.036355 0.010434 -0.055034 0.000000 0.127320 0.000000
# 6 0.000000 0.000000 0.000000 -0.003375 0.000000 0.029158
#
#
# Mechanical properties :
#
#
# Convention : Reuss Voigt Hill
#
# Bulk Modulus (GPa) = 13.54137 50.20302 31.87219
# Shear Modulus (GPa) = 16.24882 29.67892 22.96387
#
# Velocity S-wave (km/s) = 2.84738 3.84821 3.38499
# Velocity P-wave (km/s) = 4.19127 6.69287 5.58396
#
# Compressibility (1/GPa) = 0.07384777
#
# Stress axis : x y z
#
# Youngs Moduli (GPa) = 43.73518 63.11402 23.66998
#
# Poissons Ratio (x) = 0.54991 -0.41360
# Poissons Ratio (y) = 0.38106 0.29150
# Poissons Ratio (z) = -0.76420 0.77725
#
# Static dielectric constant tensor:
#      x y z
#    x 1.765990 0.000000 -0.021700 
#    y 0.000000 1.694080 0.000000 
#    z -0.021700 0.000000 1.728830 
# 
# From -- ./inp_files/375586.got.cif
#   From: 2010.05.17/outbox.cif.g08.bks.cpg/sg12_188_cif.got.tgz:375586.got - 2010.06.03 13:09:07.
