data_PCOD9206051
_publ_section_title
;
Structure prediction by ZEFSAII (Michael W. Deem and Ramdas Pophale) SiO2 
 PCOD9206051
Probable space group: C 2/M
;
_chemical_formula_sum "Si O2"
_cell_formula_units_Z 48
_cell_length_a 18.314061
_cell_length_b 18.301854
_cell_length_c 15.506021
_cell_angle_alpha 90.000000
_cell_angle_beta 29.324375
_cell_angle_gamma 90.000000
_cell_volume 2545.409005
_symmetry_space_group_name_H-M "C 2/M"
_symmetry_group_IT_number 12
_symmetry_cell_setting 'monoclinic'
loop_
_space_group_symop_operation_xyz
x,y,z
-x,y,-z
-x,-y,-z
x,-y,z
1/2+x,1/2+y,z
1/2-x,1/2+y,-z
1/2-x,1/2-y,-z
1/2+x,1/2-y,z
loop_
_atom_site_type_symbol
_atom_site_label
_atom_site_fract_x
_atom_site_fract_y
_atom_site_fract_z
Si Si1 0.822919 0.340544 0.679091
Si Si2 0.823158 0.313017 0.196885
Si Si3 0.365063 0.915241 0.315148
Si Si4 0.367643 0.672658 0.956110
Si Si5 0.820432 0.345407 0.010705
Si Si6 0.337152 0.584592 0.309040
O O1 0.769752 0.261059 0.699498
O O2 0.749559 0.397990 0.689647
O O3 0.000000 0.346066 0.500000
O O4 0.753564 0.346045 0.845828
O O5 0.812501 0.363665 0.291171
O O6 0.774593 0.351932 0.157855
O O7 0.000000 0.295767 0.000000
O O8 0.538218 0.896191 0.152273
O O9 0.272177 0.902331 0.497534
O O10 0.349867 0.000000 0.306512
O O11 0.374203 0.760827 0.944493
O O12 0.522156 0.637537 0.825470
O O13 0.310495 0.643920 0.922947
O O14 0.384835 0.500000 0.261423
#
# Coordination Sequence:
#
# PCOD9206051 Si02
#       6
#     8   8   8   8   8   8
#     4  11  22  37  60  85 108 140 184 231 277 327
#     4   9  19  36  59  86 113 144 182 225 273 324
#     4  10  21  36  55  82 114 149 187 224 268 323
#     4  10  21  38  58  84 112 143 183 226 276 328
#     4   9  19  36  59  85 112 141 183 229 270 323
#     4  11  24  39  55  79 113 150 185 224 274 328
#
# _framework density 18.857479999999999
#
# number of rings (size 3 to 8) (size 9 to 14) (size 15 to 20)
#    0.000    2.000    0.000    4.500    0.000   12.000 
#    0.000    0.000    0.000    2.500    0.000    0.000 
#    0.000    0.000    0.000    0.000    0.000    0.000 
#
# Total GULP energy -134045.386459 kJ/mol
# GULP energy per Si atom -5585.224436 kJ/mol
# Density = 1.881456 g / cm^3
# Si number density = 18.857480 Si / 1000 Ang^3
#
#
#
# Elastic Constant Matrix: (Units=GPa)
#
#
# Indices 1 2 3 4 5 6 
#
# 1 98.9462 7.4916 -2.5756 -0.0006 -9.1020 -0.0006
# 2 7.4916 25.1712 12.4535 -0.0007 -1.1515 -0.0013
# 3 -2.5756 12.4535 30.7705 -0.0022 -9.3768 -0.0006
# 4 -0.0006 -0.0007 -0.0022 21.6011 -0.0002 7.0721
# 5 -9.1020 -1.1515 -9.3768 -0.0002 20.2801 0.0009
# 6 -0.0006 -0.0013 -0.0006 7.0721 0.0009 5.2229
#
#
#
# Elastic Compliance Matrix: (Units=1/GPa)
#
#
# Indices 1 2 3 4 5 6 
#
# 1 0.011361 -0.005778 0.005521 0.000002 0.007324 -0.000003
# 2 -0.005778 0.053623 -0.025665 -0.000009 -0.011415 0.000023
# 3 0.005521 -0.025665 0.050819 0.000011 0.024518 -0.000020
# 4 0.000002 -0.000009 0.000011 0.083159 0.000012 -0.112603
# 5 0.007324 -0.011415 0.024518 0.000012 0.063285 -0.000026
# 6 -0.000003 0.000023 -0.000020 -0.112603 -0.000026 0.343935
#
#
# Mechanical properties :
#
#
# Convention : Reuss Voigt Hill
#
# Bulk Modulus (GPa) = 15.63451 21.06965 18.35208
# Shear Modulus (GPa) = 7.36002 18.58871 12.97437
#
# Velocity S-wave (km/s) = 1.97774 3.14307 2.62586
# Velocity P-wave (km/s) = 3.67752 4.93652 4.35278
#
# Compressibility (1/GPa) = 0.06396107
#
# Stress axis : x y z
#
# Youngs Moduli (GPa) = 88.01705 18.64865 19.67760
#
# Poissons Ratio (x) = 0.10775 -0.10865
# Poissons Ratio (y) = 0.50857 0.50502
# Poissons Ratio (z) = -0.48597 0.47861
#
# Static dielectric constant tensor:
#      x y z
#    x 1.660940 0.000000 0.009580 
#    y 0.000000 1.640730 0.000000 
#    z 0.009580 0.000000 1.626320 
# 
# From -- ./inp_files/75085.got.cif
#   From: 2010.05.17/outbox.cif.g08.bks.cpg/sg12_38_cif.got.tgz:75085.got - 2010.06.03 13:09:07.
