data_PCOD9206254
_publ_section_title
;
Structure prediction by ZEFSAII (Michael W. Deem and Ramdas Pophale) SiO2 
 PCOD9206254
Probable space group: C 2/M
;
_chemical_formula_sum "Si O2"
_cell_formula_units_Z 64
_cell_length_a 24.855751
_cell_length_b 24.017223
_cell_length_c 17.629727
_cell_angle_alpha 90.000000
_cell_angle_beta 16.853254
_cell_angle_gamma 90.000000
_cell_volume 3051.234809
_symmetry_space_group_name_H-M "C 2/M"
_symmetry_group_IT_number 12
_symmetry_cell_setting 'monoclinic'
loop_
_space_group_symop_operation_xyz
x,y,z
-x,y,-z
-x,-y,-z
x,-y,z
1/2+x,1/2+y,z
1/2-x,1/2+y,-z
1/2-x,1/2-y,-z
1/2+x,1/2-y,z
loop_
_atom_site_type_symbol
_atom_site_label
_atom_site_fract_x
_atom_site_fract_y
_atom_site_fract_z
Si Si1 0.259227 0.332026 0.292553
Si Si2 0.513736 0.347444 0.690552
Si Si3 0.136088 0.562393 0.386417
Si Si4 0.698887 0.935685 0.762816
Si Si5 0.125490 0.627730 0.000773
Si Si6 0.777330 0.815118 0.442168
Si Si7 0.628422 0.880369 0.165993
Si Si8 0.633900 0.727509 0.390227
O O1 0.336592 0.325536 0.273855
O O2 0.274431 0.276951 0.222622
O O3 0.282270 0.390313 0.215733
O O4 0.032630 0.334143 0.609644
O O5 0.638644 0.397657 0.489083
O O6 0.585900 0.334317 0.676537
O O7 0.536470 0.296838 0.598554
O O8 0.302076 0.365979 0.982102
O O9 0.208122 0.500000 0.277128
O O10 0.986041 0.564964 0.657160
O O11 0.000000 0.578615 0.500000
O O12 0.725249 0.000000 0.707518
O O13 0.500000 0.915321 0.000000
O O14 0.669810 0.925936 0.891072
O O15 0.195932 0.617999 0.989871
O O16 0.912646 0.648842 0.291511
O O17 0.242126 0.677022 0.806674
O O18 0.750000 0.750000 0.500000
O O19 0.500000 0.742928 0.500000
#
# Coordination Sequence:
#
# PCOD9206254 Si02
#       8
#     8   8   8   8   8   8   8   8
#     4   9  21  37  56  85 111 146 201 231 290 349
#     4  11  21  37  57  85 120 154 191 238 286 335
#     4   9  19  39  64  86 114 148 193 251 298 341
#     4  10  21  36  57  83 117 159 194 230 281 347
#     4  10  21  38  56  82 120 151 191 233 288 345
#     4  11  21  38  54  81 118 156 194 239 282 344
#     4   9  21  37  57  86 115 146 190 241 285 346
#     4  11  20  33  59  83 119 153 184 234 291 344
#
# _framework density 20.975114000000001
#
# number of rings (size 3 to 8) (size 9 to 14) (size 15 to 20)
#    0.750    1.250    3.750    0.375    0.000    2.500 
#    0.000    1.250    0.000    0.000    0.000    1.750 
#    0.000    0.000    0.000    0.000    0.000    0.000 
#
# Total GULP energy -178320.826145 kJ/mol
# GULP energy per Si atom -5572.525817 kJ/mol
# Density = 2.092737 g / cm^3
# Si number density = 20.975114 Si / 1000 Ang^3
#
#
#
# Elastic Constant Matrix: (Units=GPa)
#
#
# Indices 1 2 3 4 5 6 
#
# 1 113.5751 16.8774 6.5443 -0.1590 -13.4746 0.1642
# 2 16.8774 61.5249 -2.8392 1.0307 -0.5213 -1.1638
# 3 6.5443 -2.8392 25.3018 -3.4341 -8.5493 3.8053
# 4 -0.1590 1.0307 -3.4341 342.7846 0.9902 -367.3235
# 5 -13.4746 -0.5213 -8.5493 0.9902 35.5881 -1.0763
# 6 0.1642 -1.1638 3.8053 -367.3235 -1.0763 434.4615
#
#
#
# Elastic Compliance Matrix: (Units=1/GPa)
#
#
# Indices 1 2 3 4 5 6 
#
# 1 0.009688 -0.002710 -0.001726 -0.000010 0.003214 0.000004
# 2 -0.002710 0.017114 0.002564 -0.000009 -0.000159 0.000017
# 3 -0.001726 0.002564 0.043643 0.000264 0.009857 -0.000127
# 4 -0.000010 -0.000009 0.000264 0.031034 -0.000010 0.026236
# 5 0.003214 -0.000159 0.009857 -0.000010 0.031682 -0.000018
# 6 0.000004 0.000017 -0.000127 0.026236 -0.000018 0.024485
#
#
# Mechanical properties :
#
#
# Convention : Reuss Voigt Hill
#
# Bulk Modulus (GPa) = 14.99202 26.84076 20.91639
# Shear Modulus (GPa) = 27.22970 174.55479 100.89224
#
# Velocity S-wave (km/s) = 3.60695 9.13239 6.94301
# Velocity P-wave (km/s) = 4.95074 11.13665 8.61786
#
# Compressibility (1/GPa) = 0.06670216
#
# Stress axis : x y z
#
# Youngs Moduli (GPa) = 103.21832 58.43041 22.91342
#
# Poissons Ratio (x) = 0.15834 0.03954
# Poissons Ratio (y) = 0.27970 -0.05875
# Poissons Ratio (z) = 0.17813 -0.14982
#
# Static dielectric constant tensor:
#      x y z
#    x 1.866490 -0.000100 -0.009780 
#    y -0.000100 1.756950 0.000080 
#    z -0.009780 0.000080 1.803750 
# 
# From -- ./inp_files/291083.got.cif
#   From: 2010.05.17/outbox.cif.g08.bks.cpg/sg12_146_cif.got.tgz:291083.got - 2010.06.03 13:09:07.
