data_PCOD9206180
_publ_section_title
;
Structure prediction by ZEFSAII (Michael W. Deem and Ramdas Pophale) SiO2 
 PCOD9206180
Probable space group: C 2/M
;
_chemical_formula_sum "Si O2"
_cell_formula_units_Z 48
_cell_length_a 8.138113
_cell_length_b 11.294178
_cell_length_c 23.174339
_cell_angle_alpha 90.000000
_cell_angle_beta 117.546949
_cell_angle_gamma 90.000000
_cell_volume 1888.553035
_symmetry_space_group_name_H-M "C 2/M"
_symmetry_group_IT_number 12
_symmetry_cell_setting 'monoclinic'
loop_
_space_group_symop_operation_xyz
x,y,z
-x,y,-z
-x,-y,-z
x,-y,z
1/2+x,1/2+y,z
1/2-x,1/2+y,-z
1/2-x,1/2-y,-z
1/2+x,1/2-y,z
loop_
_atom_site_type_symbol
_atom_site_label
_atom_site_fract_x
_atom_site_fract_y
_atom_site_fract_z
Si Si1 0.949995 0.628508 0.745923
Si Si2 0.160957 0.131301 0.598702
Si Si3 0.843187 0.126970 0.197586
Si Si4 0.954886 0.369093 0.560425
Si Si5 0.474040 0.873277 0.082419
Si Si6 0.606484 0.628608 0.954776
O O1 0.050181 0.500000 0.762493
O O2 0.844785 0.637551 0.668109
O O3 0.791357 0.622151 0.768643
O O4 0.045659 0.753258 0.595984
O O5 0.058107 0.252074 0.778372
O O6 0.240623 0.136587 0.546247
O O7 0.076933 0.000000 0.594785
O O8 0.695112 0.121624 0.120885
O O9 0.949026 0.000000 0.214263
O O10 0.020935 0.500000 0.592540
O O11 0.000000 0.370842 0.500000
O O12 0.446420 0.736777 0.094519
O O13 0.420024 0.000000 0.102616
O O14 0.325573 0.873414 0.005865
O O15 0.546703 0.500000 0.924624
O O16 0.500000 0.644920 0.000000
#
# Coordination Sequence:
#
# PCOD9206180 Si02
#       6
#     8   8   8   8   8   8
#     4  10  22  39  59  83 112 148 189 234 279 330
#     4  10  21  37  57  83 114 149 191 233 278 332
#     4  10  22  38  57  82 112 144 185 233 280 330
#     4  10  21  36  56  85 118 151 189 233 279 330
#     4   9  19  34  49  73 104 132 169 220 268 323
#     4   9  18  32  53  75  98 133 172 209 266 330
#
# _framework density 25.416281999999999
#
# number of rings (size 3 to 8) (size 9 to 14) (size 15 to 20)
#    0.000    2.333    0.000    1.500    2.333    3.333 
#    0.000    0.000    0.000    0.000    0.000    0.000 
#    0.000    0.000    0.000    0.000    0.000    0.000 
#
# Total GULP energy -133706.170692 kJ/mol
# GULP energy per Si atom -5571.090445 kJ/mol
# Density = 2.535843 g / cm^3
# Si number density = 25.416282 Si / 1000 Ang^3
#
#
#
# Elastic Constant Matrix: (Units=GPa)
#
#
# Indices 1 2 3 4 5 6 
#
# 1 59.1188 75.8613 2.8536 0.0000 -13.8437 0.0000
# 2 75.8613 359.8176 24.4120 0.0000 25.1541 0.0000
# 3 2.8536 24.4120 64.0381 0.0000 -2.8628 0.0000
# 4 0.0000 0.0000 0.0000 -670.7432 0.0000 21.3000
# 5 -13.8437 25.1541 -2.8628 0.0000 34.3207 0.0000
# 6 0.0000 0.0000 0.0000 21.3000 0.0000 39.4020
#
#
#
# Elastic Compliance Matrix: (Units=1/GPa)
#
#
# Indices 1 2 3 4 5 6 
#
# 1 0.031782 -0.008206 0.002564 0.000000 0.019048 0.000000
# 2 -0.008206 0.005146 -0.001920 0.000000 -0.007242 0.000000
# 3 0.002564 -0.001920 0.016404 0.000000 0.003809 0.000000
# 4 0.000000 0.000000 0.000000 -0.001466 0.000000 0.000792
# 5 0.019048 -0.007242 0.003809 0.000000 0.042445 0.000000
# 6 0.000000 0.000000 0.000000 0.000792 0.000000 0.024951
#
#
# Mechanical properties :
#
#
# Convention : Reuss Voigt Hill
#
# Bulk Modulus (GPa) = 26.17344 76.58094 51.37719
# Shear Modulus (GPa) = 33.98534 -94.08093 -30.04780
#
# Velocity S-wave (km/s) = 3.66067 -6.09068 -3.44208
# Velocity P-wave (km/s) = 5.30920 4.38928 2.11209
#
# Compressibility (1/GPa) = 0.03820667
#
# Stress axis : x y z
#
# Youngs Moduli (GPa) = 31.46444 194.33296 60.96234
#
# Poissons Ratio (x) = 1.59473 -0.15628
# Poissons Ratio (y) = 0.25820 0.11703
# Poissons Ratio (z) = -0.08066 0.37306
#
# Static dielectric constant tensor:
#      x y z
#    x 2.021020 0.000000 -0.093080 
#    y 0.000000 2.109760 0.000000 
#    z -0.093080 0.000000 2.148840 
# 
# From -- ./inp_files/303888.got.cif
#   From: 2010.05.17/outbox.cif.g08.bks.cpg/sg12_152_cif.got.tgz:303888.got - 2010.06.03 13:09:07.
