data_PCOD9206516
_publ_section_title
;
Structure prediction by ZEFSAII (Michael W. Deem and Ramdas Pophale) SiO2 
 PCOD9206516
Probable space group: C 2/M
;
_chemical_formula_sum "Si O2"
_cell_formula_units_Z 56
_cell_length_a 14.687367
_cell_length_b 20.910128
_cell_length_c 18.484373
_cell_angle_alpha 90.000000
_cell_angle_beta 31.305238
_cell_angle_gamma 90.000000
_cell_volume 2949.661533
_symmetry_space_group_name_H-M "C 2/M"
_symmetry_group_IT_number 12
_symmetry_cell_setting 'monoclinic'
loop_
_space_group_symop_operation_xyz
x,y,z
-x,y,-z
-x,-y,-z
x,-y,z
1/2+x,1/2+y,z
1/2-x,1/2+y,-z
1/2-x,1/2-y,-z
1/2+x,1/2-y,z
loop_
_atom_site_type_symbol
_atom_site_label
_atom_site_fract_x
_atom_site_fract_y
_atom_site_fract_z
Si Si1 0.683804 0.209932 0.332151
Si Si2 0.588983 0.178544 0.752619
Si Si3 0.205536 0.928766 0.356782
Si Si4 0.526928 0.643325 0.066033
Si Si5 0.707154 0.072205 0.013105
Si Si6 0.673727 0.759753 0.176260
Si Si7 0.707577 0.120238 0.862845
O O1 0.500000 0.204110 0.500000
O O2 0.789589 0.275380 0.280629
O O3 0.639381 0.209611 0.277557
O O4 0.840906 0.158011 0.230113
O O5 0.724444 0.124217 0.634778
O O6 0.437809 0.129408 0.883483
O O7 0.486596 0.223669 0.766957
O O8 0.247397 0.906645 0.246487
O O9 0.000000 0.930402 0.500000
O O10 0.274014 0.000000 0.322954
O O11 0.500000 0.623791 0.000000
O O12 0.639007 0.594770 0.037923
O O13 0.648537 0.707951 0.976779
O O14 0.654051 0.000000 0.068928
O O15 0.751968 0.072554 0.897826
O O16 0.701514 0.685842 0.174263
O O17 0.500000 0.132615 0.000000
#
# Coordination Sequence:
#
# PCOD9206516 Si02
#       7
#     8   8   8   8   8   8   8
#     4  11  21  37  58  86 119 150 188 238 297 356
#     4  11  21  37  58  84 119 151 190 240 289 346
#     4  11  24  41  57  79 120 164 195 228 284 354
#     4   9  20  39  59  84 116 150 189 243 297 343
#     4  11  22  36  60  89 112 148 203 246 285 339
#     4  10  21  36  59  86 116 149 192 241 299 350
#     4  12  21  36  60  87 115 150 189 243 293 339
#
# _framework density 18.985230000000001
#
# number of rings (size 3 to 8) (size 9 to 14) (size 15 to 20)
#    0.000    1.286    2.857    4.286    0.000    3.714 
#    2.571    0.000    0.000    0.429    0.000    0.000 
#    0.000    0.000    0.000    0.000    0.000    0.000 
#
# Total GULP energy -155963.801829 kJ/mol
# GULP energy per Si atom -5570.135780 kJ/mol
# Density = 1.894202 g / cm^3
# Si number density = 18.985230 Si / 1000 Ang^3
#
#
#
# Elastic Constant Matrix: (Units=GPa)
#
#
# Indices 1 2 3 4 5 6 
#
# 1 105.5555 32.4711 24.8880 -0.0078 -19.9106 0.0099
# 2 32.4711 56.3517 28.7782 -0.0184 -6.4655 0.0107
# 3 24.8880 28.7782 111.4711 -0.0307 -18.3048 0.0359
# 4 -0.0078 -0.0184 -0.0307 13.8449 0.0250 -12.5795
# 5 -19.9106 -6.4655 -18.3048 0.0250 16.1399 -0.0172
# 6 0.0099 0.0107 0.0359 -12.5795 -0.0172 34.9655
#
#
#
# Elastic Compliance Matrix: (Units=1/GPa)
#
#
# Indices 1 2 3 4 5 6 
#
# 1 0.014460 -0.007113 0.001314 -0.000035 0.016480 -0.000008
# 2 -0.007113 0.024036 -0.005502 0.000035 -0.005385 0.000010
# 3 0.001314 -0.005502 0.012291 -0.000011 0.013357 -0.000009
# 4 -0.000035 0.000035 -0.000011 0.107306 -0.000168 0.038605
# 5 0.016480 -0.005385 0.013357 -0.000168 0.095280 -0.000030
# 6 -0.000008 0.000010 -0.000009 0.038605 -0.000030 0.042489
#
#
# Mechanical properties :
#
#
# Convention : Reuss Voigt Hill
#
# Bulk Modulus (GPa) = 35.47749 49.51696 42.49723
# Shear Modulus (GPa) = 15.25051 25.47279 20.36165
#
# Velocity S-wave (km/s) = 2.83730 3.66692 3.27846
# Velocity P-wave (km/s) = 5.42781 6.63829 6.06333
#
# Compressibility (1/GPa) = 0.02818688
#
# Stress axis : x y z
#
# Youngs Moduli (GPa) = 69.15447 41.60458 81.35865
#
# Poissons Ratio (x) = 0.29591 -0.10689
# Poissons Ratio (y) = 0.49186 0.44760
# Poissons Ratio (z) = -0.09086 0.22889
#
# Static dielectric constant tensor:
#      x y z
#    x 1.665830 0.000000 -0.007660 
#    y 0.000000 1.695380 0.000010 
#    z -0.007660 0.000010 1.701910 
# 
# From -- ./inp_files/272350.got.cif
#   From: 2010.05.17/outbox.cif.g08.bks.cpg/sg12_137_cif.got.tgz:272350.got - 2010.06.03 13:09:07.
