data_PCOD9206368
_publ_section_title
;
Structure prediction by ZEFSAII (Michael W. Deem and Ramdas Pophale) SiO2 
 PCOD9206368
Probable space group: C 2/M
;
_chemical_formula_sum "Si O2"
_cell_formula_units_Z 60
_cell_length_a 18.996880
_cell_length_b 9.702239
_cell_length_c 22.403929
_cell_angle_alpha 90.000000
_cell_angle_beta 137.088230
_cell_angle_gamma 90.000000
_cell_volume 2811.534958
_symmetry_space_group_name_H-M "C 2/M"
_symmetry_group_IT_number 12
_symmetry_cell_setting 'monoclinic'
loop_
_space_group_symop_operation_xyz
x,y,z
-x,y,-z
-x,-y,-z
x,-y,z
1/2+x,1/2+y,z
1/2-x,1/2+y,-z
1/2-x,1/2-y,-z
1/2+x,1/2-y,z
loop_
_atom_site_type_symbol
_atom_site_label
_atom_site_fract_x
_atom_site_fract_y
_atom_site_fract_z
Si Si1 0.847031 0.839911 0.848672
Si Si2 0.107507 0.336680 0.876656
Si Si3 0.155060 0.836618 0.584623
Si Si4 0.735278 0.500000 0.474513
Si Si5 0.326636 0.335457 0.967753
Si Si6 0.395274 0.160093 0.332646
Si Si7 0.603359 0.250551 0.417806
Si Si8 0.387624 0.162993 0.760481
O O1 0.871583 0.797141 0.931384
O O2 0.722100 0.832790 0.763963
O O3 0.893067 0.747009 0.825342
O O4 0.877100 0.000000 0.859224
O O5 0.113503 0.500000 0.894138
O O6 0.202645 0.309204 0.891805
O O7 0.989559 0.308113 0.785144
O O8 0.129235 0.249254 0.949695
O O9 0.105270 0.749331 0.606924
O O10 0.117473 0.798483 0.495935
O O11 0.277726 0.805257 0.662920
O O12 0.139991 0.000000 0.585044
O O13 0.648137 0.378251 0.409228
O O14 0.823023 0.619300 0.544064
O O15 0.341882 0.500000 0.985218
O O16 0.482390 0.212506 0.341203
O O17 0.418097 0.000000 0.360813
O O18 0.385854 0.000000 0.772440
#
# Coordination Sequence:
#
# PCOD9206368 Si02
#       8
#     8   8   8   4   8   8   8   8
#     4   9  19  36  54  79 107 138 176 218 263 313
#     4   9  18  34  55  77 104 137 176 215 259 315
#     4  10  21  36  58  80 105 139 182 227 268 318
#     4  10  24  38  54  78 112 142 178 228 262 328
#     4   9  18  34  55  77 104 137 176 215 259 315
#     4  10  21  36  58  80 105 139 182 227 268 318
#     4  11  21  40  56  78 109 145 182 220 274 315
#     4   9  19  36  54  79 107 138 176 218 263 313
#
# _framework density 21.340655000000002
#
# number of rings (size 3 to 8) (size 9 to 14) (size 15 to 20)
#    0.000    2.400    1.333    0.400    1.867    2.667 
#    4.800    2.667    0.000    0.000    0.000    0.000 
#    0.000    0.000    0.000    0.000    0.000    0.000 
#
# Total GULP energy -167001.938569 kJ/mol
# GULP energy per Si atom -5566.731286 kJ/mol
# Density = 2.129208 g / cm^3
# Si number density = 21.340655 Si / 1000 Ang^3
#
#
#
# Elastic Constant Matrix: (Units=GPa)
#
#
# Indices 1 2 3 4 5 6 
#
# 1 81.4186 30.7773 27.3891 0.0000 17.6773 0.0000
# 2 30.7773 88.9072 5.9926 0.0000 8.9204 0.0000
# 3 27.3891 5.9926 27.2732 0.0000 13.6433 0.0000
# 4 0.0000 0.0000 0.0000 9.4490 0.0000 25.5645
# 5 17.6773 8.9204 13.6433 0.0000 49.3727 0.0000
# 6 0.0000 0.0000 0.0000 25.5645 0.0000 -18.9969
#
#
#
# Elastic Compliance Matrix: (Units=1/GPa)
#
#
# Indices 1 2 3 4 5 6 
#
# 1 0.021373 -0.005962 -0.019569 0.000000 -0.001167 0.000000
# 2 -0.005962 0.013189 0.003730 0.000000 -0.001279 0.000000
# 3 -0.019569 0.003730 0.060726 0.000000 -0.010448 0.000000
# 4 0.000000 0.000000 0.000000 0.022804 0.000000 0.030688
# 5 -0.001167 -0.001279 -0.010448 0.000000 0.023790 0.000000
# 6 0.000000 0.000000 0.000000 0.030688 0.000000 -0.011343
#
#
# Mechanical properties :
#
#
# Convention : Reuss Voigt Hill
#
# Bulk Modulus (GPa) = 19.34900 36.21301 27.78100
# Shear Modulus (GPa) = 26.12731 16.86095 21.49413
#
# Velocity S-wave (km/s) = 3.50279 2.81390 3.17707
# Velocity P-wave (km/s) = 5.04438 5.25007 5.14825
#
# Compressibility (1/GPa) = 0.05168226
#
# Stress axis : x y z
#
# Youngs Moduli (GPa) = 46.78876 75.82280 16.46751
#
# Poissons Ratio (x) = 0.45209 0.32226
# Poissons Ratio (y) = 0.27898 -0.06142
# Poissons Ratio (z) = 0.91563 -0.28279
#
# Static dielectric constant tensor:
#      x y z
#    x 1.798520 0.000000 0.043740 
#    y 0.000000 1.716960 0.000000 
#    z 0.043740 0.000000 1.809340 
# 
# From -- ./inp_files/365496.got.cif
#   From: 2010.05.17/outbox.cif.g08.bks.cpg/sg12_183_cif.got.tgz:365496.got - 2010.06.03 13:09:07.
