data_PCOD9206593
_publ_section_title
;
Structure prediction by ZEFSAII (Michael W. Deem and Ramdas Pophale) SiO2 
 PCOD9206593
Probable space group: C 2/M
;
_chemical_formula_sum "Si O2"
_cell_formula_units_Z 48
_cell_length_a 9.976533
_cell_length_b 28.584268
_cell_length_c 12.705568
_cell_angle_alpha 90.000000
_cell_angle_beta 34.815225
_cell_angle_gamma 90.000000
_cell_volume 2068.640378
_symmetry_space_group_name_H-M "C 2/M"
_symmetry_group_IT_number 12
_symmetry_cell_setting 'monoclinic'
loop_
_space_group_symop_operation_xyz
x,y,z
-x,y,-z
-x,-y,-z
x,-y,z
1/2+x,1/2+y,z
1/2-x,1/2+y,-z
1/2-x,1/2-y,-z
1/2+x,1/2-y,z
loop_
_atom_site_type_symbol
_atom_site_label
_atom_site_fract_x
_atom_site_fract_y
_atom_site_fract_z
Si Si1 0.697986 0.282522 0.135203
Si Si2 0.500000 0.292605 0.000000
Si Si3 0.346194 0.447618 0.782379
Si Si4 0.767531 0.945156 0.082777
Si Si5 0.762265 0.821333 0.351572
Si Si6 0.000000 0.630677 0.000000
Si Si7 0.363544 0.922592 0.484206
O O1 0.425170 0.291819 0.324074
O O2 0.750000 0.250000 0.000000
O O3 0.798516 0.246374 0.154572
O O4 0.841347 0.331255 0.038662
O O5 0.439682 0.325209 0.137083
O O6 0.266978 0.500000 0.802249
O O7 0.194367 0.405799 0.828026
O O8 0.628264 0.446456 0.592412
O O9 0.302866 0.440150 0.935757
O O10 0.553822 0.917175 0.270211
O O11 0.712223 0.000000 0.137752
O O12 0.000000 0.934863 0.000000
O O13 0.500000 0.804110 0.500000
O O14 0.724827 0.872523 0.421125
O O15 0.500000 0.943366 0.500000
#
# Coordination Sequence:
#
# PCOD9206593 Si02
#       7
#     8   4   8   8   8   4   8
#     4   9  19  40  67  94 120 170 212 263 327 397
#     4   9  20  38  65  86 126 161 200 264 325 396
#     4  11  23  39  65  95 133 180 220 265 326 391
#     4  10  21  37  60  92 128 170 221 274 324 375
#     4  10  21  36  59  94 122 158 208 265 328 382
#     4  11  21  42  67  92 136 171 223 262 329 402
#     4  11  21  36  60  95 130 167 219 274 321 375
#
# _framework density 23.203645999999999
#
# number of rings (size 3 to 8) (size 9 to 14) (size 15 to 20)
#    0.000    1.833    3.333    0.750    0.000    4.000 
#    0.000    0.833    3.667    3.000    0.000    0.000 
#    0.000    0.000    0.000    0.000    0.000    0.000 
#
# Total GULP energy -133675.434099 kJ/mol
# GULP energy per Si atom -5569.809754 kJ/mol
# Density = 2.315083 g / cm^3
# Si number density = 23.203646 Si / 1000 Ang^3
#
#
#
# Elastic Constant Matrix: (Units=GPa)
#
#
# Indices 1 2 3 4 5 6 
#
# 1 54.3601 28.7041 22.2276 0.0000 -38.6359 0.0000
# 2 28.7041 143.9939 46.1682 0.0000 -21.7526 0.0000
# 3 22.2276 46.1682 110.6014 0.0000 -24.1891 0.0000
# 4 0.0000 0.0000 0.0000 45.8774 0.0000 -26.8602
# 5 -38.6359 -21.7526 -24.1891 0.0000 48.8662 0.0000
# 6 0.0000 0.0000 0.0000 -26.8602 0.0000 48.7896
#
#
#
# Elastic Compliance Matrix: (Units=1/GPa)
#
#
# Indices 1 2 3 4 5 6 
#
# 1 0.043808 -0.003744 -0.000034 0.000000 0.032953 0.000000
# 2 -0.003744 0.008543 -0.002949 0.000000 -0.000617 0.000000
# 3 -0.000034 -0.002949 0.011199 0.000000 0.004204 0.000000
# 4 0.000000 0.000000 0.000000 0.032165 0.000000 0.017708
# 5 0.032953 -0.000617 0.004204 0.000000 0.048325 0.000000
# 6 0.000000 0.000000 0.000000 0.017708 0.000000 0.030245
#
#
# Mechanical properties :
#
#
# Convention : Reuss Voigt Hill
#
# Bulk Modulus (GPa) = 19.96159 55.90612 37.93386
# Shear Modulus (GPa) = 24.45755 42.83032 33.64393
#
# Velocity S-wave (km/s) = 3.25012 4.30099 3.81194
# Velocity P-wave (km/s) = 4.76506 6.98646 5.97982
#
# Compressibility (1/GPa) = 0.05009620
#
# Stress axis : x y z
#
# Youngs Moduli (GPa) = 22.82703 117.05078 89.29687
#
# Poissons Ratio (x) = 0.43820 0.00307
# Poissons Ratio (y) = 0.08546 0.26331
# Poissons Ratio (z) = 0.00078 0.34515
#
# Static dielectric constant tensor:
#      x y z
#    x 2.710960 0.000000 -0.122770 
#    y 0.000000 -7.684140 0.000000 
#    z -0.122770 0.000000 1.881900 
# 
# From -- ./inp_files/209324.got.cif
#   From: 2010.05.17/outbox.cif.g08.bks.cpg/sg12_105_cif.got.tgz:209324.got - 2010.06.03 13:09:07.
