data_PCOD9206231
_publ_section_title
;
Structure prediction by ZEFSAII (Michael W. Deem and Ramdas Pophale) SiO2 
 PCOD9206231
Probable space group: C 2/M
;
_chemical_formula_sum "Si O2"
_cell_formula_units_Z 36
_cell_length_a 8.548556
_cell_length_b 17.178562
_cell_length_c 10.803798
_cell_angle_alpha 90.000000
_cell_angle_beta 123.647873
_cell_angle_gamma 90.000000
_cell_volume 1320.744014
_symmetry_space_group_name_H-M "C 2/M"
_symmetry_group_IT_number 12
_symmetry_cell_setting 'monoclinic'
loop_
_space_group_symop_operation_xyz
x,y,z
-x,y,-z
-x,-y,-z
x,-y,z
1/2+x,1/2+y,z
1/2-x,1/2+y,-z
1/2-x,1/2-y,-z
1/2+x,1/2-y,z
loop_
_atom_site_type_symbol
_atom_site_label
_atom_site_fract_x
_atom_site_fract_y
_atom_site_fract_z
Si Si1 0.274170 0.500000 0.878361
Si Si2 0.857764 0.831441 0.554163
Si Si3 0.718790 0.664534 0.122962
Si Si4 0.644045 0.500000 0.445669
Si Si5 0.724421 0.332428 0.843087
Si Si6 0.259445 0.500000 0.157615
O O1 0.214693 0.582162 0.794281
O O2 0.201487 0.500000 0.988812
O O3 0.500000 0.500000 0.000000
O O4 0.750000 0.750000 0.500000
O O5 0.755646 0.916020 0.507803
O O6 0.000000 0.832404 0.500000
O O7 0.998479 0.835987 0.732764
O O8 0.743253 0.747243 0.198421
O O9 0.500000 0.656925 0.000000
O O10 0.800416 0.670910 0.017264
O O11 0.500000 0.500000 0.500000
O O12 0.487883 0.500000 0.267774
O O13 0.793973 0.414306 0.816089
#
# Coordination Sequence:
#
# PCOD9206231 Si02
#       6
#     4   8   8   4   8   4
#     4   8  14  26  43  68  93 126 157 191 251 312
#     4  10  21  36  57  79 106 140 179 219 260 312
#     4   9  17  29  49  71  98 126 162 205 251 303
#     4   8  16  34  54  73  99 142 179 204 254 323
#     4   9  18  31  49  72  96 129 166 208 252 301
#     4   8  14  28  47  65  91 126 168 199 237 307
#
# _framework density 27.257362000000001
#
# number of rings (size 3 to 8) (size 9 to 14) (size 15 to 20)
#    0.000    3.111    0.000    0.000    3.111    0.000 
#    0.000    2.222    0.000    0.000    0.000    0.000 
#    0.000    0.000    0.000    0.000    0.000    0.000 
#
# Total GULP energy -100307.182286 kJ/mol
# GULP energy per Si atom -5572.621238 kJ/mol
# Density = 2.719532 g / cm^3
# Si number density = 27.257362 Si / 1000 Ang^3
#
#
#
# Elastic Constant Matrix: (Units=GPa)
#
#
# Indices 1 2 3 4 5 6 
#
# 1 38.9923 30.5263 21.3271 0.0000 -15.8631 0.0000
# 2 30.5263 447.3447 33.3128 0.0000 21.2224 0.0000
# 3 21.3271 33.3128 67.4356 0.0000 -11.0483 0.0000
# 4 0.0000 0.0000 0.0000 19.6116 0.0000 21.1317
# 5 -15.8631 21.2224 -11.0483 0.0000 38.6481 0.0000
# 6 0.0000 0.0000 0.0000 21.1317 0.0000 21.8069
#
#
#
# Elastic Compliance Matrix: (Units=1/GPa)
#
#
# Indices 1 2 3 4 5 6 
#
# 1 0.038376 -0.002699 -0.008372 0.000000 0.014840 0.000000
# 2 -0.002699 0.002620 -0.000900 0.000000 -0.002804 0.000000
# 3 -0.008372 -0.000900 0.018296 0.000000 0.002288 0.000000
# 4 0.000000 0.000000 0.000000 -1.154837 0.000000 1.119083
# 5 0.014840 -0.002804 0.002288 0.000000 0.034159 0.000000
# 6 0.000000 0.000000 0.000000 1.119083 0.000000 -1.038579
#
#
# Mechanical properties :
#
#
# Convention : Reuss Voigt Hill
#
# Bulk Modulus (GPa) = 28.28893 80.45613 54.37253
# Shear Modulus (GPa) = -2.42220 47.25374 22.41577
#
# Velocity S-wave (km/s) = -0.94370 4.16819 2.87082
# Velocity P-wave (km/s) = 3.03538 7.26267 5.56596
#
# Compressibility (1/GPa) = 0.03534952
#
# Stress axis : x y z
#
# Youngs Moduli (GPa) = 26.05805 381.73499 54.65679
#
# Poissons Ratio (x) = 1.03043 0.45758
# Poissons Ratio (y) = 0.07034 0.04918
# Poissons Ratio (z) = 0.21816 0.34345
#
# Static dielectric constant tensor:
#      x y z
#    x 2.241610 0.000000 -0.077020 
#    y 0.000000 2.212570 0.000000 
#    z -0.077020 0.000000 2.126450 
# 
# From -- ./inp_files/195772.got.cif
#   From: 2010.05.17/outbox.cif.g08.bks.cpg/sg12_98_cif.got.tgz:195772.got - 2010.06.03 13:09:07.
