data_PCOD9206248
_publ_section_title
;
Structure prediction by ZEFSAII (Michael W. Deem and Ramdas Pophale) SiO2 
 PCOD9206248
Probable space group: C 2/M
;
_chemical_formula_sum "Si O2"
_cell_formula_units_Z 56
_cell_length_a 16.461909
_cell_length_b 13.817955
_cell_length_c 11.349366
_cell_angle_alpha 90.000000
_cell_angle_beta 88.533687
_cell_angle_gamma 90.000000
_cell_volume 2580.793975
_symmetry_space_group_name_H-M "C 2/M"
_symmetry_group_IT_number 12
_symmetry_cell_setting 'monoclinic'
loop_
_space_group_symop_operation_xyz
x,y,z
-x,y,-z
-x,-y,-z
x,-y,z
1/2+x,1/2+y,z
1/2-x,1/2+y,-z
1/2-x,1/2-y,-z
1/2+x,1/2-y,z
loop_
_atom_site_type_symbol
_atom_site_label
_atom_site_fract_x
_atom_site_fract_y
_atom_site_fract_z
Si Si1 0.832927 0.895345 0.255961
Si Si2 0.378640 0.224137 0.419989
Si Si3 0.211135 0.610463 0.750975
Si Si4 0.009082 0.890770 0.134282
Si Si5 0.190040 0.706614 0.157708
Si Si6 0.404532 0.112140 0.030632
Si Si7 0.439819 0.234904 0.676633
O O1 0.840625 0.816511 0.356898
O O2 0.918313 0.897008 0.187027
O O3 0.765774 0.864030 0.165794
O O4 0.815236 0.000000 0.307196
O O5 0.318738 0.139390 0.379026
O O6 0.393076 0.249105 0.555350
O O7 0.469171 0.206208 0.363139
O O8 0.240477 0.500000 0.756529
O O9 0.274398 0.689564 0.800867
O O10 0.129346 0.618192 0.835055
O O11 0.051986 0.822801 0.229282
O O12 0.044192 0.000000 0.129242
O O13 0.000000 0.855480 0.000000
O O14 0.148423 0.693171 0.034002
O O15 0.119969 0.666573 0.248172
O O16 0.387156 0.000000 0.993935
O O17 0.500000 0.127437 0.000000
#
# Coordination Sequence:
#
# PCOD9206248 Si02
#       7
#     8   8   8   8   8   8   8
#     4   9  19  36  58  84 115 150 188 234 289 346
#     4   9  20  40  59  80 110 150 196 242 283 335
#     4  10  22  39  58  82 115 153 192 237 289 344
#     4   9  19  36  58  84 115 152 193 236 283 339
#     4  11  22  36  57  85 117 150 186 236 293 346
#     4  10  21  38  61  87 114 149 193 237 286 345
#     4  10  21  36  57  83 113 148 194 239 285 339
#
# _framework density 21.698747999999998
#
# number of rings (size 3 to 8) (size 9 to 14) (size 15 to 20)
#    0.000    2.286    0.000    1.714    0.000    8.571 
#    0.000   10.714    0.000    0.429    0.000    0.000 
#    0.000    0.000    0.000    0.000    0.000    0.000 
#
# Total GULP energy -156092.351346 kJ/mol
# GULP energy per Si atom -5574.726834 kJ/mol
# Density = 2.164936 g / cm^3
# Si number density = 21.698748 Si / 1000 Ang^3
#
#
#
# Elastic Constant Matrix: (Units=GPa)
#
#
# Indices 1 2 3 4 5 6 
#
# 1 80.2101 26.1059 11.9283 0.0000 19.2449 0.0000
# 2 26.1059 71.1717 24.6447 0.0000 21.0929 0.0000
# 3 11.9283 24.6447 114.3845 0.0000 24.6571 0.0000
# 4 0.0000 0.0000 0.0000 -21.8739 0.0000 -31.0516
# 5 19.2449 21.0929 24.6571 0.0000 33.4523 0.0000
# 6 0.0000 0.0000 0.0000 -31.0516 0.0000 -10.7249
#
#
#
# Elastic Compliance Matrix: (Units=1/GPa)
#
#
# Indices 1 2 3 4 5 6 
#
# 1 0.015254 -0.003795 0.000717 0.000000 -0.006911 0.000000
# 2 -0.003795 0.018485 -0.001837 0.000000 -0.008118 0.000000
# 3 0.000717 -0.001837 0.010584 0.000000 -0.007056 0.000000
# 4 0.000000 0.000000 0.000000 0.014700 0.000000 -0.042559
# 5 -0.006911 -0.008118 -0.007056 0.000000 0.044188 0.000000
# 6 0.000000 0.000000 0.000000 -0.042559 0.000000 0.029980
#
#
# Mechanical properties :
#
#
# Convention : Reuss Voigt Hill
#
# Bulk Modulus (GPa) = 28.99225 43.45825 36.22525
# Shear Modulus (GPa) = 32.35839 13.70986 23.03413
#
# Velocity S-wave (km/s) = 3.86587 2.51634 3.26167
# Velocity P-wave (km/s) = 5.77207 5.33986 5.56017
#
# Compressibility (1/GPa) = 0.03449197
#
# Stress axis : x y z
#
# Youngs Moduli (GPa) = 65.55653 54.09925 94.47854
#
# Poissons Ratio (x) = 0.20532 -0.06771
# Poissons Ratio (y) = 0.24880 0.17355
# Poissons Ratio (z) = -0.04698 0.09938
#
# Static dielectric constant tensor:
#      x y z
#    x 1.795490 0.000000 0.000810 
#    y 0.000000 1.849610 0.000000 
#    z 0.000810 0.000000 1.839730 
# 
# From -- ./inp_files/143733.got.cif
#   From: 2010.05.17/outbox.cif.g08.bks.cpg/sg12_72_cif.got.tgz:143733.got - 2010.06.03 13:09:07.
