data_PCOD9206538
_publ_section_title
;
Structure prediction by ZEFSAII (Michael W. Deem and Ramdas Pophale) SiO2 
 PCOD9206538
Probable space group: C 2/M
;
_chemical_formula_sum "Si O2"
_cell_formula_units_Z 56
_cell_length_a 28.538143
_cell_length_b 8.198010
_cell_length_c 19.185592
_cell_angle_alpha 90.000000
_cell_angle_beta 36.914943
_cell_angle_gamma 90.000000
_cell_volume 2695.972677
_symmetry_space_group_name_H-M "C 2/M"
_symmetry_group_IT_number 12
_symmetry_cell_setting 'monoclinic'
loop_
_space_group_symop_operation_xyz
x,y,z
-x,y,-z
-x,-y,-z
x,-y,z
1/2+x,1/2+y,z
1/2-x,1/2+y,-z
1/2-x,1/2-y,-z
1/2+x,1/2-y,z
loop_
_atom_site_type_symbol
_atom_site_label
_atom_site_fract_x
_atom_site_fract_y
_atom_site_fract_z
Si Si1 0.762596 0.800100 0.705722
Si Si2 0.069855 0.807621 0.463974
Si Si3 0.288208 0.805137 0.382594
Si Si4 0.459112 0.692036 0.207628
Si Si5 0.001061 0.693260 0.311624
Si Si6 0.332588 0.804124 0.930379
Si Si7 0.879252 0.302710 0.030092
O O1 0.842145 0.741703 0.647784
O O2 0.758510 0.747951 0.630101
O O3 0.683282 0.749207 0.838378
O O4 0.764141 0.000000 0.705374
O O5 0.046056 0.784813 0.572753
O O6 0.000000 0.736083 0.500000
O O7 0.074195 0.000000 0.442287
O O8 0.250000 0.750000 0.500000
O O9 0.376936 0.744820 0.273952
O O10 0.288602 0.000000 0.381028
O O11 0.459208 0.500000 0.219894
O O12 0.470604 0.776872 0.269446
O O13 0.532717 0.738547 0.072082
O O14 0.997715 0.500000 0.329801
O O15 0.091557 0.750156 0.203363
O O16 0.334791 0.000000 0.928040
O O17 0.250000 0.750000 0.000000
O O18 0.346459 0.750651 0.993421
O O19 0.883110 0.500000 0.026861
#
# Coordination Sequence:
#
# PCOD9206538 Si02
#       7
#     8   8   8   8   8   8   8
#     4   9  20  38  59  85 117 154 196 239 287 351
#     4  10  21  36  59  88 118 154 195 241 295 352
#     4  11  22  38  62  89 119 157 201 244 291 348
#     4  11  22  38  60  87 118 150 193 245 300 354
#     4  10  21  38  57  81 113 151 195 241 291 349
#     4   9  19  32  53  80 108 144 189 238 287 341
#     4   9  19  38  59  81 115 155 195 237 287 350
#
# _framework density 20.771723999999999
#
# number of rings (size 3 to 8) (size 9 to 14) (size 15 to 20)
#    0.000    2.143    0.000    3.857    2.000    4.857 
#    0.000    5.714    0.000    0.000    0.000    0.000 
#    0.000    0.000    0.000    0.000    0.000    0.000 
#
# Total GULP energy -156369.479256 kJ/mol
# GULP energy per Si atom -5584.624259 kJ/mol
# Density = 2.072445 g / cm^3
# Si number density = 20.771724 Si / 1000 Ang^3
#
#
#
# Elastic Constant Matrix: (Units=GPa)
#
#
# Indices 1 2 3 4 5 6 
#
# 1 80.7119 2.6226 52.3220 0.0049 -29.2251 -0.0019
# 2 2.6226 13.5483 5.6718 0.0075 -7.5677 -0.0016
# 3 52.3220 5.6718 117.6535 0.0012 -15.2620 -0.0009
# 4 0.0049 0.0075 0.0012 26.7791 -0.0031 -1.3243
# 5 -29.2251 -7.5677 -15.2620 -0.0031 36.1771 0.0018
# 6 -0.0019 -0.0016 -0.0009 -1.3243 0.0018 20.5421
#
#
#
# Elastic Compliance Matrix: (Units=1/GPa)
#
#
# Indices 1 2 3 4 5 6 
#
# 1 0.024326 0.008951 -0.008947 -0.000004 0.017749 0.000001
# 2 0.008951 0.087257 -0.005164 -0.000023 0.023305 0.000004
# 3 -0.008947 -0.005164 0.012324 0.000002 -0.003109 0.000000
# 4 -0.000004 -0.000023 0.000002 0.037462 -0.000004 0.002415
# 5 0.017749 0.023305 -0.003109 -0.000004 0.045543 -0.000001
# 6 0.000001 0.000004 0.000000 0.002415 -0.000001 0.048836
#
#
# Mechanical properties :
#
#
# Convention : Reuss Voigt Hill
#
# Bulk Modulus (GPa) = 8.80389 37.01627 22.91008
# Shear Modulus (GPa) = 16.45114 26.78615 21.61865
#
# Velocity S-wave (km/s) = 2.81730 3.59492 3.22960
# Velocity P-wave (km/s) = 3.85104 5.92372 4.99605
#
# Compressibility (1/GPa) = 0.11358613
#
# Stress axis : x y z
#
# Youngs Moduli (GPa) = 41.10898 11.46044 81.14209
#
# Poissons Ratio (x) = -0.10258 0.72598
# Poissons Ratio (y) = -0.36796 0.41901
# Poissons Ratio (z) = 0.36780 0.05918
#
# Static dielectric constant tensor:
#      x y z
#    x 1.738530 0.000000 -0.017180 
#    y 0.000000 1.738180 0.000010 
#    z -0.017180 0.000010 1.746160 
# 
# From -- ./inp_files/292440.got.cif
#   From: 2010.05.17/outbox.cif.g08.bks.cpg/sg12_147_cif.got.tgz:292440.got - 2010.06.03 13:09:07.
