data_PCOD9206058
_publ_section_title
;
Structure prediction by ZEFSAII (Michael W. Deem and Ramdas Pophale) SiO2 
 PCOD9206058
Probable space group: C 2/M
;
_chemical_formula_sum "Si O2"
_cell_formula_units_Z 64
_cell_length_a 27.102693
_cell_length_b 22.379699
_cell_length_c 17.896270
_cell_angle_alpha 90.000000
_cell_angle_beta 160.596808
_cell_angle_gamma 90.000000
_cell_volume 3606.174359
_symmetry_space_group_name_H-M "C 2/M"
_symmetry_group_IT_number 12
_symmetry_cell_setting 'monoclinic'
loop_
_space_group_symop_operation_xyz
x,y,z
-x,y,-z
-x,-y,-z
x,-y,z
1/2+x,1/2+y,z
1/2-x,1/2+y,-z
1/2-x,1/2-y,-z
1/2+x,1/2-y,z
loop_
_atom_site_type_symbol
_atom_site_label
_atom_site_fract_x
_atom_site_fract_y
_atom_site_fract_z
Si Si1 0.625962 0.232342 0.120240
Si Si2 0.102410 0.071252 0.907307
Si Si3 0.886963 0.929352 0.901586
Si Si4 0.595689 0.333324 0.431405
Si Si5 0.595610 0.234626 0.320820
Si Si6 0.393245 0.293042 0.277189
Si Si7 0.850860 0.336747 0.452378
Si Si8 0.826194 0.339093 0.148567
O O1 0.732772 0.181326 0.307077
O O2 0.732622 0.287902 0.252552
O O3 0.500000 0.250985 0.000000
O O4 0.532258 0.211996 0.915738
O O5 0.963130 0.099924 0.663273
O O6 0.120681 0.000000 0.921305
O O7 0.077080 0.081310 0.959728
O O8 0.242623 0.110542 0.077553
O O9 0.731855 0.898925 0.663066
O O10 0.878333 0.000000 0.880223
O O11 0.000000 0.905681 0.000000
O O12 0.550580 0.297619 0.292818
O O13 0.505661 0.299814 0.368126
O O14 0.750000 0.250000 0.500000
O O15 0.618071 0.189470 0.421064
O O16 0.500000 0.306811 0.500000
O O17 0.322796 0.226824 0.181860
O O18 0.258401 0.333819 0.052992
O O19 0.999883 0.345786 0.618507
#
# Coordination Sequence:
#
# PCOD9206058 Si02
#       8
#     8   8   8   8   8   8   8   8
#     4  11  20  33  53  89 123 155 193 229 295 359
#     4  10  23  42  63  82 113 159 202 250 291 343
#     4  10  23  40  59  84 114 155 200 238 290 352
#     4  10  21  36  57  86 115 153 197 236 293 358
#     4  11  21  34  54  88 123 157 188 233 296 354
#     4  10  21  36  55  82 117 151 182 237 291 347
#     4  11  22  34  55  87 122 155 186 242 290 349
#     4  10  22  36  55  88 115 149 200 231 290 352
#
# _framework density 17.747339
#
# number of rings (size 3 to 8) (size 9 to 14) (size 15 to 20)
#    0.000    1.625    5.000    1.125    5.250    0.500 
#    0.000    1.250    0.000    7.125    0.000    0.000 
#    0.000    0.000    0.000    0.000    0.000    0.000 
#
# Total GULP energy -178298.419768 kJ/mol
# GULP energy per Si atom -5571.825618 kJ/mol
# Density = 1.770695 g / cm^3
# Si number density = 17.747339 Si / 1000 Ang^3
#
#
#
# Elastic Constant Matrix: (Units=GPa)
#
#
# Indices 1 2 3 4 5 6 
#
# 1 79.4811 48.2423 31.0920 0.0000 15.5325 0.0000
# 2 48.2423 80.0928 35.8036 0.0000 1.3227 0.0000
# 3 31.0920 35.8036 104.4605 0.0000 9.8732 0.0000
# 4 0.0000 0.0000 0.0000 22.4681 0.0000 1.8878
# 5 15.5325 1.3227 9.8732 0.0000 35.0166 0.0000
# 6 0.0000 0.0000 0.0000 1.8878 0.0000 21.9074
#
#
#
# Elastic Compliance Matrix: (Units=1/GPa)
#
#
# Indices 1 2 3 4 5 6 
#
# 1 0.022804 -0.012918 -0.001490 0.000000 -0.009207 0.000000
# 2 -0.012918 0.022089 -0.004304 0.000000 0.006109 0.000000
# 3 -0.001490 -0.004304 0.011726 0.000000 -0.002483 0.000000
# 4 0.000000 0.000000 0.000000 0.044832 0.000000 -0.003863
# 5 -0.009207 0.006109 -0.002483 0.000000 0.033111 0.000000
# 6 0.000000 0.000000 0.000000 -0.003863 0.000000 0.045980
#
#
# Mechanical properties :
#
#
# Convention : Reuss Voigt Hill
#
# Bulk Modulus (GPa) = 52.09003 54.92337 53.50670
# Shear Modulus (GPa) = 22.28524 25.80486 24.04505
#
# Velocity S-wave (km/s) = 3.54742 3.81729 3.68483
# Velocity P-wave (km/s) = 6.79658 7.10236 6.95115
#
# Compressibility (1/GPa) = 0.01919753
#
# Stress axis : x y z
#
# Youngs Moduli (GPa) = 43.85137 45.27120 85.27965
#
# Poissons Ratio (x) = 0.58480 0.12705
# Poissons Ratio (y) = 0.56646 0.36700
# Poissons Ratio (z) = 0.06533 0.19483
#
# Static dielectric constant tensor:
#      x y z
#    x 1.672760 0.000000 -0.000030 
#    y 0.000000 1.602570 0.000000 
#    z -0.000030 0.000000 1.650380 
# 
# From -- ./inp_files/294308.got.cif
#   From: 2010.05.17/outbox.cif.g08.bks.cpg/sg12_148_cif.got.tgz:294308.got - 2010.06.03 13:09:07.
