data_PCOD9206050
_publ_section_title
;
Structure prediction by ZEFSAII (Michael W. Deem and Ramdas Pophale) SiO2 
 PCOD9206050
Probable space group: C 2/M
;
_chemical_formula_sum "Si O2"
_cell_formula_units_Z 48
_cell_length_a 9.955154
_cell_length_b 8.005431
_cell_length_c 25.416921
_cell_angle_alpha 90.000000
_cell_angle_beta 89.544901
_cell_angle_gamma 90.000000
_cell_volume 2025.545206
_symmetry_space_group_name_H-M "C 2/M"
_symmetry_group_IT_number 12
_symmetry_cell_setting 'monoclinic'
loop_
_space_group_symop_operation_xyz
x,y,z
-x,y,-z
-x,-y,-z
x,-y,z
1/2+x,1/2+y,z
1/2-x,1/2+y,-z
1/2-x,1/2-y,-z
1/2+x,1/2-y,z
loop_
_atom_site_type_symbol
_atom_site_label
_atom_site_fract_x
_atom_site_fract_y
_atom_site_fract_z
Si Si1 0.670216 0.693197 0.551503
Si Si2 0.924154 0.802239 0.949542
Si Si3 0.826877 0.297432 0.111155
Si Si4 0.414763 0.695535 0.608065
Si Si5 0.300420 0.702389 0.776717
Si Si6 0.545994 0.195089 0.714025
O O1 0.642483 0.500000 0.544096
O O2 0.750000 0.750000 0.500000
O O3 0.526458 0.768692 0.567409
O O4 0.772993 0.717738 0.599400
O O5 0.027709 0.775770 0.901335
O O6 0.778581 0.737046 0.933217
O O7 0.907327 0.000000 0.958348
O O8 0.000000 0.727702 0.000000
O O9 0.835568 0.500000 0.109626
O O10 0.762777 0.250579 0.167140
O O11 0.390838 0.500000 0.597566
O O12 0.479615 0.713064 0.665056
O O13 0.313150 0.500000 0.775582
O O14 0.442780 0.781826 0.762664
O O15 0.191855 0.752566 0.732616
O O16 0.556043 0.000000 0.700241
#
# Coordination Sequence:
#
# PCOD9206050 Si02
#       6
#     8   8   8   8   8   8
#     4  11  24  41  63  91 121 156 197 239 287 341
#     4  10  21  36  55  82 114 148 189 236 286 341
#     4  10  21  37  57  82 112 148 190 234 284 342
#     4  11  24  41  61  87 119 154 193 237 286 340
#     4  10  22  39  58  83 115 149 188 236 287 341
#     4  11  23  38  59  86 113 147 191 234 283 342
#
# _framework density 23.697323000000001
#
# number of rings (size 3 to 8) (size 9 to 14) (size 15 to 20)
#    0.000    1.500    0.000    4.500    0.000   10.333 
#    0.000    0.000    0.000    0.000    0.000    0.000 
#    0.000    0.000    0.000    0.000    0.000    0.000 
#
# Total GULP energy -134305.570109 kJ/mol
# GULP energy per Si atom -5596.065421 kJ/mol
# Density = 2.364339 g / cm^3
# Si number density = 23.697323 Si / 1000 Ang^3
#
#
#
# Elastic Constant Matrix: (Units=GPa)
#
#
# Indices 1 2 3 4 5 6 
#
# 1 94.2566 -9.0592 -16.7896 0.0000 2.4879 0.0000
# 2 -9.0592 17.9617 -6.2663 0.0000 5.7880 0.0000
# 3 -16.7896 -6.2663 61.0058 0.0000 3.2860 0.0000
# 4 0.0000 0.0000 0.0000 25.9315 0.0000 -7.6099
# 5 2.4879 5.7880 3.2860 0.0000 40.8902 0.0000
# 6 0.0000 0.0000 0.0000 -7.6099 0.0000 15.3712
#
#
#
# Elastic Compliance Matrix: (Units=1/GPa)
#
#
# Indices 1 2 3 4 5 6 
#
# 1 0.012259 0.008444 0.004365 0.000000 -0.002292 0.000000
# 2 0.008444 0.066806 0.009765 0.000000 -0.010755 0.000000
# 3 0.004365 0.009765 0.018766 0.000000 -0.003156 0.000000
# 4 0.000000 0.000000 0.000000 0.045118 0.000000 0.022337
# 5 -0.002292 -0.010755 -0.003156 0.000000 0.026371 0.000000
# 6 0.000000 0.000000 0.000000 0.022337 0.000000 0.076116
#
#
# Mechanical properties :
#
#
# Convention : Reuss Voigt Hill
#
# Bulk Modulus (GPa) = 6.99405 12.11041 9.55223
# Shear Modulus (GPa) = 20.16560 30.12783 25.14672
#
# Velocity S-wave (km/s) = 2.92030 3.56948 3.26108
# Velocity P-wave (km/s) = 3.78532 4.70211 4.26840
#
# Compressibility (1/GPa) = 0.14297877
#
# Stress axis : x y z
#
# Youngs Moduli (GPa) = 81.57354 14.96882 53.28745
#
# Poissons Ratio (x) = -0.12640 -0.23258
# Poissons Ratio (y) = -0.68882 -0.52037
# Poissons Ratio (z) = -0.35604 -0.14618
#
# Static dielectric constant tensor:
#      x y z
#    x 1.879920 0.000000 -0.010430 
#    y 0.000000 1.843630 0.000000 
#    z -0.010430 0.000000 1.971790 
# 
# From -- ./inp_files/334629.got.cif
#   From: 2010.05.17/outbox.cif.g08.bks.cpg/sg12_168_cif.got.tgz:334629.got - 2010.06.03 13:09:07.
