data_PCOD9206523
_publ_section_title
;
Structure prediction by ZEFSAII (Michael W. Deem and Ramdas Pophale) SiO2 
 PCOD9206523
Probable space group: C 2/M
;
_chemical_formula_sum "Si O2"
_cell_formula_units_Z 40
_cell_length_a 9.997618
_cell_length_b 27.505253
_cell_length_c 9.289156
_cell_angle_alpha 90.000000
_cell_angle_beta 50.969526
_cell_angle_gamma 90.000000
_cell_volume 1984.284230
_symmetry_space_group_name_H-M "C 2/M"
_symmetry_group_IT_number 12
_symmetry_cell_setting 'monoclinic'
loop_
_space_group_symop_operation_xyz
x,y,z
-x,y,-z
-x,-y,-z
x,-y,z
1/2+x,1/2+y,z
1/2-x,1/2+y,-z
1/2-x,1/2-y,-z
1/2+x,1/2-y,z
loop_
_atom_site_type_symbol
_atom_site_label
_atom_site_fract_x
_atom_site_fract_y
_atom_site_fract_z
Si Si1 0.641919 0.307788 0.276840
Si Si2 0.333793 0.154542 0.703078
Si Si3 0.874269 0.758817 0.277968
Si Si4 0.794177 0.945942 0.152757
Si Si5 0.842683 0.613834 0.998833
O O1 0.500000 0.310740 0.500000
O O2 0.820726 0.285387 0.212432
O O3 0.559956 0.271029 0.215663
O O4 0.683770 0.360470 0.186280
O O5 0.500000 0.168684 0.500000
O O6 0.187491 0.192727 0.763379
O O7 0.273266 0.099485 0.707563
O O8 0.381131 0.150521 0.839019
O O9 0.750000 0.750000 0.500000
O O10 0.747691 0.000000 0.233676
O O11 0.714553 0.934093 0.049353
O O12 0.000000 0.942488 0.000000
O O13 0.000000 0.606793 0.000000
#
# Coordination Sequence:
#
# PCOD9206523 Si02
#       5
#     8   8   8   8   8
#     4  10  22  37  59  81 120 158 198 238 294 348
#     4  10  22  38  61  86 122 152 201 242 289 354
#     4  10  21  36  59  86 119 159 194 248 288 341
#     4   9  20  40  64  88 118 151 195 250 301 350
#     4  10  24  39  58  92 117 158 196 247 296 349
#
# _framework density 20.158404000000001
#
# number of rings (size 3 to 8) (size 9 to 14) (size 15 to 20)
#    1.200    1.000    0.000    3.000    8.400    1.600 
#    0.000    0.000    0.000    0.600    0.000    0.000 
#    0.000    0.000    0.000    0.000    0.000    0.000 
#
# Total GULP energy -111493.192136 kJ/mol
# GULP energy per Si atom -5574.659607 kJ/mol
# Density = 2.011252 g / cm^3
# Si number density = 20.158404 Si / 1000 Ang^3
#
#
#
# Elastic Constant Matrix: (Units=GPa)
#
#
# Indices 1 2 3 4 5 6 
#
# 1 97.3802 -9.1691 21.2464 0.0000 15.1131 0.0000
# 2 -9.1691 63.6823 -5.4569 0.0000 1.3830 0.0000
# 3 21.2464 -5.4569 53.4675 0.0000 5.5548 0.0000
# 4 0.0000 0.0000 0.0000 24.8385 0.0000 -9.9568
# 5 15.1131 1.3830 5.5548 0.0000 26.5468 0.0000
# 6 0.0000 0.0000 0.0000 -9.9568 0.0000 -60.4728
#
#
#
# Elastic Compliance Matrix: (Units=1/GPa)
#
#
# Indices 1 2 3 4 5 6 
#
# 1 0.012268 0.001552 -0.004071 0.000000 -0.006213 0.000000
# 2 0.001552 0.016075 0.001229 0.000000 -0.001978 0.000000
# 3 -0.004071 0.001229 0.020661 0.000000 -0.002070 0.000000
# 4 0.000000 0.000000 0.000000 0.037767 0.000000 -0.006218
# 5 -0.006213 -0.001978 -0.002070 0.000000 0.041743 0.000000
# 6 0.000000 0.000000 0.000000 -0.006218 0.000000 -0.015513
#
#
# Mechanical properties :
#
#
# Convention : Reuss Voigt Hill
#
# Bulk Modulus (GPa) = 21.54011 25.30787 23.42399
# Shear Modulus (GPa) = 38.15213 12.04315 25.09764
#
# Velocity S-wave (km/s) = 4.35514 2.44688 3.53231
# Velocity P-wave (km/s) = 5.99986 4.53483 5.31804
#
# Compressibility (1/GPa) = 0.04642502
#
# Stress axis : x y z
#
# Youngs Moduli (GPa) = 81.51545 62.20932 48.40020
#
# Poissons Ratio (x) = -0.09657 0.19703
# Poissons Ratio (y) = -0.12655 -0.05950
# Poissons Ratio (z) = 0.33184 -0.07647
#
# Static dielectric constant tensor:
#      x y z
#    x 1.728090 0.000000 0.023450 
#    y 0.000000 1.715690 0.000000 
#    z 0.023450 0.000000 1.739230 
# 
# From -- ./inp_files/49886.got.cif
#   From: 2010.05.17/outbox.cif.g08.bks.cpg/sg12_25_cif.got.tgz:49886.got - 2010.06.03 13:09:07.
