data_PCOD9206366
_publ_section_title
;
Structure prediction by ZEFSAII (Michael W. Deem and Ramdas Pophale) SiO2 
 PCOD9206366
Probable space group: C 2/M
;
_chemical_formula_sum "Si O2"
_cell_formula_units_Z 56
_cell_length_a 21.970375
_cell_length_b 17.384305
_cell_length_c 22.210253
_cell_angle_alpha 90.000000
_cell_angle_beta 160.947447
_cell_angle_gamma 90.000000
_cell_volume 2769.142996
_symmetry_space_group_name_H-M "C 2/M"
_symmetry_group_IT_number 12
_symmetry_cell_setting 'monoclinic'
loop_
_space_group_symop_operation_xyz
x,y,z
-x,y,-z
-x,-y,-z
x,-y,z
1/2+x,1/2+y,z
1/2-x,1/2+y,-z
1/2-x,1/2-y,-z
1/2+x,1/2-y,z
loop_
_atom_site_type_symbol
_atom_site_label
_atom_site_fract_x
_atom_site_fract_y
_atom_site_fract_z
Si Si1 0.502133 0.085527 0.929484
Si Si2 0.710103 0.361531 0.189757
Si Si3 0.933281 0.087926 0.501785
Si Si4 0.159006 0.252549 0.039933
Si Si5 0.538272 0.695202 0.358805
Si Si6 0.399816 0.087764 0.484029
Si Si7 0.649288 0.678201 0.331481
O O1 0.288979 0.085800 0.709026
O O2 0.580229 0.000000 0.988794
O O3 0.500000 0.093864 0.000000
O O4 0.596079 0.159144 0.987072
O O5 0.681451 0.281955 0.127843
O O6 0.806132 0.358826 0.344894
O O7 0.876310 0.402414 0.307015
O O8 0.500000 0.395537 0.000000
O O9 0.987711 0.136192 0.610751
O O10 0.000000 0.121371 0.500000
O O11 0.004372 0.000000 0.571332
O O12 0.356509 0.251140 0.191047
O O13 0.011568 0.200282 0.866247
O O14 0.563676 0.660189 0.316537
O O15 0.720697 0.746274 0.541769
O O16 0.288682 0.112005 0.439150
O O17 0.359156 0.000000 0.428931
#
# Coordination Sequence:
#
# PCOD9206366 Si02
#       7
#     8   8   8   8   8   8   8
#     4  10  21  36  57  93 133 164 205 262 319 376
#     4  11  22  39  66  99 128 167 216 269 326 386
#     4  10  21  39  64  94 127 165 208 260 322 378
#     4  12  22  40  66  95 128 172 213 266 319 383
#     4  11  24  41  67  89 130 167 217 262 312 381
#     4  11  25  44  65  94 133 170 215 272 332 387
#     4  11  24  44  62  94 123 172 220 261 312 385
#
# _framework density 20.222864000000001
#
# number of rings (size 3 to 8) (size 9 to 14) (size 15 to 20)
#    0.000    1.143    4.286    2.571    0.000    4.571 
#    0.000    0.000    0.000    0.000    0.000    0.000 
#    0.000    0.000    0.000    0.000    0.000    0.000 
#
# Total GULP energy -156271.001564 kJ/mol
# GULP energy per Si atom -5581.107199 kJ/mol
# Density = 2.017684 g / cm^3
# Si number density = 20.222864 Si / 1000 Ang^3
#
#
#
# Elastic Constant Matrix: (Units=GPa)
#
#
# Indices 1 2 3 4 5 6 
#
# 1 124.1560 40.9028 29.7950 -0.0192 15.5080 0.0364
# 2 40.9028 55.6308 21.9869 0.0144 -5.9462 -0.0176
# 3 29.7950 21.9869 117.5544 -0.0504 18.3416 0.0895
# 4 -0.0192 0.0144 -0.0504 85.8439 -0.0263 -152.7894
# 5 15.5080 -5.9462 18.3416 -0.0263 20.7299 0.0513
# 6 0.0364 -0.0176 0.0895 -152.7894 0.0513 303.3763
#
#
#
# Elastic Compliance Matrix: (Units=1/GPa)
#
#
# Indices 1 2 3 4 5 6 
#
# 1 0.013536 -0.011918 0.001058 0.000009 -0.014480 0.000004
# 2 -0.011918 0.031954 -0.006702 -0.000024 0.024012 -0.000011
# 3 0.001058 -0.006702 0.011504 0.000011 -0.012892 0.000004
# 4 0.000009 -0.000024 0.000011 0.112427 -0.000020 0.056622
# 5 -0.014480 0.024012 -0.012892 -0.000020 0.077367 -0.000016
# 6 0.000004 -0.000011 0.000004 0.056622 -0.000016 0.031813
#
#
# Mechanical properties :
#
#
# Convention : Reuss Voigt Hill
#
# Bulk Modulus (GPa) = 45.72862 53.63451 49.68157
# Shear Modulus (GPa) = 15.57564 95.63379 55.60471
#
# Velocity S-wave (km/s) = 2.77826 6.88423 5.24935
# Velocity P-wave (km/s) = 5.74047 9.47467 7.83334
#
# Compressibility (1/GPa) = 0.02186814
#
# Stress axis : x y z
#
# Youngs Moduli (GPa) = 73.87941 31.29515 86.92861
#
# Poissons Ratio (x) = 0.37297 -0.09195
# Poissons Ratio (y) = 0.88049 0.58262
# Poissons Ratio (z) = -0.07814 0.20975
#
# Static dielectric constant tensor:
#      x y z
#    x 1.727530 0.000000 0.013650 
#    y 0.000000 1.710750 -0.000010 
#    z 0.013650 -0.000010 1.744880 
# 
# From -- ./inp_files/322720.got.cif
#   From: 2010.05.17/outbox.cif.g08.bks.cpg/sg12_162_cif.got.tgz:322720.got - 2010.06.03 13:09:07.
