data_PCOD9206081
_publ_section_title
;
Structure prediction by ZEFSAII (Michael W. Deem and Ramdas Pophale) SiO2 
 PCOD9206081
Probable space group: C 2/M
;
_chemical_formula_sum "Si O2"
_cell_formula_units_Z 42
_cell_length_a 29.109650
_cell_length_b 7.639597
_cell_length_c 15.397790
_cell_angle_alpha 90.000000
_cell_angle_beta 35.037466
_cell_angle_gamma 90.000000
_cell_volume 1965.904518
_symmetry_space_group_name_H-M "C 2/M"
_symmetry_group_IT_number 12
_symmetry_cell_setting 'monoclinic'
loop_
_space_group_symop_operation_xyz
x,y,z
-x,y,-z
-x,-y,-z
x,-y,z
1/2+x,1/2+y,z
1/2-x,1/2+y,-z
1/2-x,1/2-y,-z
1/2+x,1/2-y,z
loop_
_atom_site_type_symbol
_atom_site_label
_atom_site_fract_x
_atom_site_fract_y
_atom_site_fract_z
Si Si1 0.997166 0.294176 0.873166
Si Si2 0.969668 0.212779 0.723229
Si Si3 0.676746 0.795170 0.551491
Si Si4 0.350225 0.290252 0.596647
Si Si5 0.000000 0.000000 0.000000
Si Si6 0.826245 0.789978 0.824290
O O1 0.995893 0.500000 0.900562
O O2 0.089593 0.223611 0.715738
O O3 0.956790 0.278432 0.841031
O O4 0.962537 0.157345 0.995172
O O5 0.904427 0.273363 0.754896
O O6 0.058315 0.270399 0.557881
O O7 0.969008 0.000000 0.726720
O O8 0.750000 0.750000 0.500000
O O9 0.693954 0.750825 0.424752
O O10 0.664536 0.000000 0.574515
O O11 0.352133 0.500000 0.598357
O O12 0.318881 0.222829 0.737182
O O13 0.834254 0.000000 0.806565
O O14 0.750000 0.750000 0.000000
#
# Coordination Sequence:
#
# PCOD9206081 Si02
#       6
#     8   8   8   8   2   8
#     4  10  22  39  60  91 120 158 206 251 298 366
#     4   9  17  36  62  82 110 156 202 246 296 351
#     4  10  21  37  60  87 118 152 198 252 300 354
#     4   9  18  35  60  84 109 150 203 245 290 353
#     4  12  22  40  64  86 126 160 202 248 316 354
#     4  10  21  36  55  85 120 153 190 240 303 363
#
# _framework density 21.364211999999998
#
# number of rings (size 3 to 8) (size 9 to 14) (size 15 to 20)
#    0.000    2.286    0.952    1.429    2.667    3.810 
#    3.429    0.000    0.000    5.714    0.000    0.000 
#    0.000    0.000    0.000    0.000    0.000    0.000 
#
# Total GULP energy -116941.399869 kJ/mol
# GULP energy per Si atom -5568.638089 kJ/mol
# Density = 2.131559 g / cm^3
# Si number density = 21.364212 Si / 1000 Ang^3
#
#
#
# Elastic Constant Matrix: (Units=GPa)
#
#
# Indices 1 2 3 4 5 6 
#
# 1 175.9124 9.7925 52.8381 0.0002 18.1955 0.0000
# 2 9.7925 86.0291 2.4117 0.0010 7.7562 -0.0001
# 3 52.8381 2.4117 39.5347 0.0004 17.8344 0.0000
# 4 0.0002 0.0010 0.0004 13.7311 -0.0001 2.5998
# 5 18.1955 7.7562 17.8344 -0.0001 26.2590 0.0000
# 6 0.0000 -0.0001 0.0000 2.5998 0.0000 19.9099
#
#
#
# Elastic Compliance Matrix: (Units=1/GPa)
#
#
# Indices 1 2 3 4 5 6 
#
# 1 0.009741 -0.001008 -0.014485 0.000000 0.003386 0.000000
# 2 -0.001008 0.012089 0.002747 -0.000001 -0.004738 0.000000
# 3 -0.014485 0.002747 0.058136 -0.000002 -0.030259 0.000000
# 4 0.000000 -0.000001 -0.000002 0.074673 0.000002 -0.009751
# 5 0.003386 -0.004738 -0.030259 0.000002 0.057687 0.000000
# 6 0.000000 0.000000 0.000000 -0.009751 0.000000 0.051500
#
#
# Mechanical properties :
#
#
# Convention : Reuss Voigt Hill
#
# Bulk Modulus (GPa) = 18.35730 47.95121 33.15426
# Shear Modulus (GPa) = 16.26141 27.74226 22.00183
#
# Velocity S-wave (km/s) = 2.76189 3.60743 3.21260
# Velocity P-wave (km/s) = 4.33381 6.31227 5.41418
#
# Compressibility (1/GPa) = 0.05447423
#
# Stress axis : x y z
#
# Youngs Moduli (GPa) = 102.65419 82.72073 17.20099
#
# Poissons Ratio (x) = 0.08338 0.24916
# Poissons Ratio (y) = 0.10348 -0.04725
# Poissons Ratio (z) = 1.48697 -0.22724
#
# Static dielectric constant tensor:
#      x y z
#    x 1.776160 0.000000 -0.015040 
#    y 0.000000 1.798300 0.000000 
#    z -0.015040 0.000000 1.934900 
# 
# From -- ./inp_files/221122.got.cif
#   From: 2010.05.17/outbox.cif.g08.bks.cpg/sg12_111_cif.got.tgz:221122.got - 2010.06.03 13:09:07.
