data_PCOD9206823
_publ_section_title
;
Structure prediction by ZEFSAII (Michael W. Deem and Ramdas Pophale) SiO2 
 PCOD9206823
Probable space group: C 2/M
;
_chemical_formula_sum "Si O2"
_cell_formula_units_Z 36
_cell_length_a 26.896106
_cell_length_b 15.464775
_cell_length_c 10.725668
_cell_angle_alpha 90.000000
_cell_angle_beta 158.152807
_cell_angle_gamma 90.000000
_cell_volume 1660.179086
_symmetry_space_group_name_H-M "C 2/M"
_symmetry_group_IT_number 12
_symmetry_cell_setting 'monoclinic'
loop_
_space_group_symop_operation_xyz
x,y,z
-x,y,-z
-x,-y,-z
x,-y,z
1/2+x,1/2+y,z
1/2-x,1/2+y,-z
1/2-x,1/2-y,-z
1/2+x,1/2-y,z
loop_
_atom_site_type_symbol
_atom_site_label
_atom_site_fract_x
_atom_site_fract_y
_atom_site_fract_z
Si Si1 0.439099 0.674288 0.679201
Si Si2 0.344977 0.000000 0.152007
Si Si3 0.190876 0.842967 0.885697
Si Si4 0.279070 0.323046 0.762879
Si Si5 0.839212 0.500000 0.623678
Si Si6 0.180459 0.000000 0.512301
O O1 0.403172 0.646827 0.453037
O O2 0.335713 0.749231 0.484623
O O3 0.407093 0.586952 0.680160
O O4 0.595551 0.701154 0.035785
O O5 0.500000 0.000000 0.500000
O O6 0.299495 0.916752 0.121517
O O7 0.276194 0.000000 0.856727
O O8 0.250000 0.750000 0.000000
O O9 0.156392 0.840850 0.950324
O O10 0.213177 0.412312 0.563858
O O11 0.772418 0.500000 0.604872
O O12 0.000000 0.500000 0.000000
#
# Coordination Sequence:
#
# PCOD9206823 Si02
#       6
#     8   4   8   8   4   4
#     4  10  23  43  72 103 134 176 218 279 337 401
#     4  10  21  36  67  96 129 177 218 284 336 390
#     4   9  20  37  63 104 138 168 212 272 338 402
#     4  11  24  43  70 100 138 178 222 273 339 396
#     4  12  30  47  67  94 135 184 233 281 322 400
#     4  10  25  45  63  94 137 172 230 274 334 400
#
# _framework density 21.684408000000001
#
# number of rings (size 3 to 8) (size 9 to 14) (size 15 to 20)
#    0.000    1.778    0.000    2.000    6.222   11.556 
#    0.000    4.444    0.000    0.000    0.000    0.000 
#    0.000    0.000    0.000    0.000    0.000    0.000 
#
# Total GULP energy -100427.264016 kJ/mol
# GULP energy per Si atom -5579.292445 kJ/mol
# Density = 2.163505 g / cm^3
# Si number density = 21.684408 Si / 1000 Ang^3
#
#
#
# Elastic Constant Matrix: (Units=GPa)
#
#
# Indices 1 2 3 4 5 6 
#
# 1 160.4194 81.0548 66.8128 0.0000 29.1007 0.0000
# 2 81.0548 178.6401 59.5111 0.0000 41.9438 0.0000
# 3 66.8128 59.5111 109.9412 0.0000 44.3197 0.0000
# 4 0.0000 0.0000 0.0000 -4.3004 0.0000 2.9223
# 5 29.1007 41.9438 44.3197 0.0000 57.3951 0.0000
# 6 0.0000 0.0000 0.0000 2.9223 0.0000 31.9409
#
#
#
# Elastic Compliance Matrix: (Units=1/GPa)
#
#
# Indices 1 2 3 4 5 6 
#
# 1 0.009456 -0.003002 -0.004462 0.000000 0.000845 0.000000
# 2 -0.003002 0.008185 -0.001174 0.000000 -0.003553 0.000000
# 3 -0.004462 -0.001174 0.016240 0.000000 -0.009420 0.000000
# 4 0.000000 0.000000 0.000000 -0.218923 0.000000 0.020029
# 5 0.000845 -0.003553 -0.009420 0.000000 0.026865 0.000000
# 6 0.000000 0.000000 0.000000 0.020029 0.000000 0.029475
#
#
# Mechanical properties :
#
#
# Convention : Reuss Voigt Hill
#
# Bulk Modulus (GPa) = 60.22221 95.97311 78.09766
# Shear Modulus (GPa) = -47.21883 33.11524 -7.05179
#
# Velocity S-wave (km/s) = -4.67148 3.91211 -1.80529
# Velocity P-wave (km/s) = 1.12454 8.04744 5.63457
#
# Compressibility (1/GPa) = 0.01660517
#
# Stress axis : x y z
#
# Youngs Moduli (GPa) = 105.75672 122.16821 61.57524
#
# Poissons Ratio (x) = 0.36680 0.27474
# Poissons Ratio (y) = 0.31752 0.07228
# Poissons Ratio (z) = 0.47188 0.14340
#
# Static dielectric constant tensor:
#      x y z
#    x 1.797860 0.000000 -0.043100 
#    y 0.000000 1.726700 0.000000 
#    z -0.043100 0.000000 1.808020 
# 
# From -- ./inp_files/189578.got.cif
#   From: 2010.05.17/outbox.cif.g08.bks.cpg/sg12_95_cif.got.tgz:189578.got - 2010.06.03 13:09:07.
