data_PCOD9206567
_publ_section_title
;
Structure prediction by ZEFSAII (Michael W. Deem and Ramdas Pophale) SiO2 
 PCOD9206567
Probable space group: C 2/M
;
_chemical_formula_sum "Si O2"
_cell_formula_units_Z 60
_cell_length_a 9.267814
_cell_length_b 23.428876
_cell_length_c 20.420162
_cell_angle_alpha 90.000000
_cell_angle_beta 137.798556
_cell_angle_gamma 90.000000
_cell_volume 2978.438775
_symmetry_space_group_name_H-M "C 2/M"
_symmetry_group_IT_number 12
_symmetry_cell_setting 'monoclinic'
loop_
_space_group_symop_operation_xyz
x,y,z
-x,y,-z
-x,-y,-z
x,-y,z
1/2+x,1/2+y,z
1/2-x,1/2+y,-z
1/2-x,1/2-y,-z
1/2+x,1/2-y,z
loop_
_atom_site_type_symbol
_atom_site_label
_atom_site_fract_x
_atom_site_fract_y
_atom_site_fract_z
Si Si1 0.235742 0.066639 0.546520
Si Si2 0.878520 0.170054 0.580835
Si Si3 0.083992 0.633545 0.911783
Si Si4 0.217589 0.225862 0.105716
Si Si5 0.000000 0.753028 0.500000
Si Si6 0.128926 0.841927 0.793435
Si Si7 0.536873 0.379978 0.129421
Si Si8 0.049667 0.564637 0.767879
O O1 0.230697 0.114359 0.488446
O O2 0.404100 0.085900 0.658973
O O3 0.000000 0.066690 0.500000
O O4 0.282055 0.000000 0.543118
O O5 0.704974 0.211900 0.557123
O O6 0.996987 0.206024 0.563024
O O7 0.041382 0.149895 0.691506
O O8 0.142009 0.696667 0.904130
O O9 0.031553 0.598243 0.829025
O O10 0.869577 0.634162 0.881447
O O11 0.300737 0.612267 0.019280
O O12 0.349284 0.274600 0.185198
O O13 0.139274 0.175506 0.127636
O O14 0.000000 0.249669 0.000000
O O15 0.983554 0.868601 0.800835
O O16 0.702068 0.429859 0.169361
O O17 0.983185 0.500000 0.756675
#
# Coordination Sequence:
#
# PCOD9206567 Si02
#       8
#     8   8   8   8   4   8   8   8
#     4  10  21  42  70  93 120 159 215 275 314 369
#     4  11  25  41  63  93 129 170 209 263 320 389
#     4  10  21  36  59  90 125 161 204 253 300 366
#     4   9  19  35  56  84 122 164 206 242 291 362
#     4  10  26  42  60  90 138 166 208 256 334 382
#     4  12  23  34  60  88 124 170 199 251 302 369
#     4  10  22  37  57  91 128 159 202 254 302 367
#     4  10  22  41  69  90 111 159 211 258 314 370
#
# _framework density 20.144780999999998
#
# number of rings (size 3 to 8) (size 9 to 14) (size 15 to 20)
#    0.000    1.733    0.667    4.000    5.600    5.333 
#    0.000    1.667    0.000    1.600    0.000    0.000 
#    0.000    0.000    0.000    0.000    0.000    0.000 
#
# Total GULP energy -167546.425033 kJ/mol
# GULP energy per Si atom -5584.880834 kJ/mol
# Density = 2.009893 g / cm^3
# Si number density = 20.144781 Si / 1000 Ang^3
#
#
#
# Elastic Constant Matrix: (Units=GPa)
#
#
# Indices 1 2 3 4 5 6 
#
# 1 87.4625 4.6466 3.0261 0.0000 -3.9360 0.0000
# 2 4.6466 54.8853 23.1133 0.0000 -14.3644 0.0000
# 3 3.0261 23.1133 91.4995 0.0000 -18.9053 0.0000
# 4 0.0000 0.0000 0.0000 39.7494 0.0000 -8.7537
# 5 -3.9360 -14.3644 -18.9053 0.0000 27.7826 0.0000
# 6 0.0000 0.0000 0.0000 -8.7537 0.0000 24.6198
#
#
#
# Elastic Compliance Matrix: (Units=1/GPa)
#
#
# Indices 1 2 3 4 5 6 
#
# 1 0.011526 -0.000651 0.000059 0.000000 0.001337 0.000000
# 2 -0.000651 0.022163 -0.003757 0.000000 0.008810 0.000000
# 3 0.000059 -0.003757 0.013354 0.000000 0.007153 0.000000
# 4 0.000000 0.000000 0.000000 0.027295 0.000000 0.009705
# 5 0.001337 0.008810 0.007153 0.000000 0.045606 0.000000
# 6 0.000000 0.000000 0.000000 0.009705 0.000000 0.044068
#
#
# Mechanical properties :
#
#
# Convention : Reuss Voigt Hill
#
# Bulk Modulus (GPa) = 26.07792 32.82438 29.45115
# Shear Modulus (GPa) = 26.95560 31.96778 29.46169
#
# Velocity S-wave (km/s) = 3.66196 3.98791 3.82841
# Velocity P-wave (km/s) = 5.55458 6.12652 5.84754
#
# Compressibility (1/GPa) = 0.03834661
#
# Stress axis : x y z
#
# Youngs Moduli (GPa) = 86.75913 45.12092 74.88427
#
# Poissons Ratio (x) = 0.02937 -0.00445
# Poissons Ratio (y) = 0.05648 0.28131
# Poissons Ratio (z) = -0.00516 0.16950
#
# Static dielectric constant tensor:
#      x y z
#    x 1.704140 0.000000 0.011950 
#    y 0.000000 1.706210 0.000000 
#    z 0.011950 0.000000 1.713640 
# 
# From -- ./inp_files/302467.got.cif
#   From: 2010.05.17/outbox.cif.g08.bks.cpg/sg12_152_cif.got.tgz:302467.got - 2010.06.03 13:09:07.
