data_PCOD9206702
_publ_section_title
;
Structure prediction by ZEFSAII (Michael W. Deem and Ramdas Pophale) SiO2 
 PCOD9206702
Probable space group: C 2/M
;
_chemical_formula_sum "Si O2"
_cell_formula_units_Z 50
_cell_length_a 18.246962
_cell_length_b 8.073410
_cell_length_c 14.687765
_cell_angle_alpha 90.000000
_cell_angle_beta 95.456162
_cell_angle_gamma 90.000000
_cell_volume 2153.927773
_symmetry_space_group_name_H-M "C 2/M"
_symmetry_group_IT_number 12
_symmetry_cell_setting 'monoclinic'
loop_
_space_group_symop_operation_xyz
x,y,z
-x,y,-z
-x,-y,-z
x,-y,z
1/2+x,1/2+y,z
1/2-x,1/2+y,-z
1/2-x,1/2-y,-z
1/2+x,1/2-y,z
loop_
_atom_site_type_symbol
_atom_site_label
_atom_site_fract_x
_atom_site_fract_y
_atom_site_fract_z
Si Si1 0.778370 0.807024 0.789590
Si Si2 0.000000 0.000000 0.000000
Si Si3 0.356100 0.811514 0.634409
Si Si4 0.872195 0.692204 0.144600
Si Si5 0.600411 0.188772 0.060996
Si Si6 0.515441 0.305342 0.711716
Si Si7 0.585466 0.690122 0.543737
O O1 0.798093 0.792755 0.685675
O O2 0.699065 0.742546 0.811285
O O3 0.839840 0.710154 0.853341
O O4 0.781350 0.000000 0.816870
O O5 0.049067 0.850270 0.054757
O O6 0.437229 0.780325 0.687921
O O7 0.366707 0.773489 0.528911
O O8 0.334851 0.000000 0.643658
O O9 0.883147 0.500000 0.169535
O O10 0.944682 0.784431 0.187910
O O11 0.863046 0.700895 0.035291
O O12 0.568514 0.000000 0.065172
O O13 0.502841 0.500000 0.691831
O O14 0.574583 0.240140 0.643678
O O15 0.500000 0.692310 0.500000
O O16 0.610030 0.500000 0.552684
#
# Coordination Sequence:
#
# PCOD9206702 Si02
#       7
#     8   2   8   8   8   8   8
#     4  11  23  43  64  87 121 168 209 250 313 372
#     4  12  26  44  68 102 124 166 208 252 328 350
#     4  11  22  35  58  90 121 156 202 257 308 364
#     4  10  24  42  63  89 121 162 207 255 307 369
#     4  11  25  44  66  96 131 163 209 258 305 375
#     4  10  21  36  61  88 119 157 201 251 308 371
#     4   8  16  34  55  83 116 155 197 246 309 372
#
# _framework density 23.213405000000002
#
# number of rings (size 3 to 8) (size 9 to 14) (size 15 to 20)
#    0.000    1.760    0.800    4.080    3.360    4.800 
#    0.000    0.800    0.000    0.000    0.000    0.000 
#    0.000    0.000    0.000    0.000    0.000    0.000 
#
# Total GULP energy -139448.203437 kJ/mol
# GULP energy per Si atom -5577.928137 kJ/mol
# Density = 2.316057 g / cm^3
# Si number density = 23.213405 Si / 1000 Ang^3
#
#
#
# Elastic Constant Matrix: (Units=GPa)
#
#
# Indices 1 2 3 4 5 6 
#
# 1 64.8446 26.6368 24.6107 0.0000 -26.3059 0.0000
# 2 26.6368 103.6869 2.5962 0.0000 -4.6485 0.0000
# 3 24.6107 2.5962 69.1152 0.0000 -33.0412 0.0000
# 4 0.0000 0.0000 0.0000 26.8759 0.0000 21.6532
# 5 -26.3059 -4.6485 -33.0412 0.0000 28.5434 0.0000
# 6 0.0000 0.0000 0.0000 21.6532 0.0000 70.7555
#
#
#
# Elastic Compliance Matrix: (Units=1/GPa)
#
#
# Indices 1 2 3 4 5 6 
#
# 1 0.028689 -0.006098 0.004878 0.000000 0.031093 0.000000
# 2 -0.006098 0.011035 -0.000158 0.000000 -0.004006 0.000000
# 3 0.004878 -0.000158 0.033305 0.000000 0.043023 0.000000
# 4 0.000000 0.000000 0.000000 0.049384 0.000000 -0.015113
# 5 0.031093 -0.004006 0.043023 0.000000 0.112840 0.000000
# 6 0.000000 0.000000 0.000000 -0.015113 0.000000 0.018758
#
#
# Mechanical properties :
#
#
# Convention : Reuss Voigt Hill
#
# Bulk Modulus (GPa) = 14.23034 38.37046 26.30040
# Shear Modulus (GPa) = 17.84482 37.48850 27.66666
#
# Velocity S-wave (km/s) = 2.77560 4.02300 3.45605
# Velocity P-wave (km/s) = 4.05160 6.17614 5.22304
#
# Compressibility (1/GPa) = 0.07027240
#
# Stress axis : x y z
#
# Youngs Moduli (GPa) = 34.85653 90.61750 30.02543
#
# Poissons Ratio (x) = 0.55261 -0.14646
# Poissons Ratio (y) = 0.21256 0.00475
# Poissons Ratio (z) = -0.17003 0.01434
#
# Static dielectric constant tensor:
#      x y z
#    x 1.883880 0.000000 -0.040600 
#    y 0.000000 1.152640 0.000000 
#    z -0.040600 0.000000 1.914210 
# 
# From -- ./inp_files/230247.got.cif
#   From: 2010.05.17/outbox.cif.g08.bks.cpg/sg12_116_cif.got.tgz:230247.got - 2010.06.03 13:09:07.
