data_PCOD9206176
_publ_section_title
;
Structure prediction by ZEFSAII (Michael W. Deem and Ramdas Pophale) SiO2 
 PCOD9206176
Probable space group: C 2/M
;
_chemical_formula_sum "Si O2"
_cell_formula_units_Z 64
_cell_length_a 14.816266
_cell_length_b 8.567069
_cell_length_c 23.297459
_cell_angle_alpha 90.000000
_cell_angle_beta 86.230501
_cell_angle_gamma 90.000000
_cell_volume 2950.794872
_symmetry_space_group_name_H-M "C 2/M"
_symmetry_group_IT_number 12
_symmetry_cell_setting 'monoclinic'
loop_
_space_group_symop_operation_xyz
x,y,z
-x,y,-z
-x,-y,-z
x,-y,z
1/2+x,1/2+y,z
1/2-x,1/2+y,-z
1/2-x,1/2-y,-z
1/2+x,1/2-y,z
loop_
_atom_site_type_symbol
_atom_site_label
_atom_site_fract_x
_atom_site_fract_y
_atom_site_fract_z
Si Si1 0.480172 0.813932 0.098650
Si Si2 0.660054 0.313947 0.131091
Si Si3 0.280404 0.186042 0.627164
Si Si4 0.075628 0.814067 0.652314
Si Si5 0.050251 0.687988 0.441244
Si Si6 0.810548 0.183499 0.048831
Si Si7 0.904530 0.681849 0.227132
Si Si8 0.688279 0.681482 0.254097
O O1 0.576406 0.729071 0.094015
O O2 0.407322 0.763234 0.054529
O O3 0.438087 0.770883 0.162859
O O4 0.493133 0.000000 0.095684
O O5 0.677524 0.500000 0.129515
O O6 0.748369 0.224242 0.106273
O O7 0.639004 0.267793 0.197836
O O8 0.177549 0.245134 0.633217
O O9 0.347658 0.245856 0.575110
O O10 0.324133 0.224694 0.687162
O O11 0.274214 0.000000 0.622234
O O12 0.007729 0.733371 0.611724
O O13 0.058919 0.776046 0.719833
O O14 0.071445 0.000000 0.644741
O O15 0.054204 0.500000 0.445336
O O16 0.000000 0.748784 0.500000
O O17 0.822474 0.000000 0.041540
O O18 0.750000 0.250000 0.000000
O O19 0.928353 0.500000 0.234070
O O20 0.795336 0.692480 0.234647
O O21 0.666705 0.500000 0.266226
#
# Coordination Sequence:
#
# PCOD9206176 Si02
#       8
#     8   8   8   8   8   8   8   8
#     4  11  23  41  64  95 129 166 209 257 310 369
#     4  11  23  41  63  95 131 165 208 257 308 371
#     4   9  20  37  56  82 115 152 194 243 297 358
#     4  10  21  36  56  85 117 149 192 248 302 353
#     4  10  22  40  59  80 112 157 203 244 296 364
#     4  12  26  46  70  94 125 169 213 260 313 367
#     4   9  18  36  60  86 121 161 198 241 298 364
#     4   9  18  35  59  87 121 158 196 244 300 359
#
# _framework density 21.689073
#
# number of rings (size 3 to 8) (size 9 to 14) (size 15 to 20)
#    0.000    1.875    1.250    2.250    1.750    4.250 
#    0.000    2.500    0.000    0.000    0.000    0.000 
#    0.000    0.000    0.000    0.000    0.000    0.000 
#
# Total GULP energy -178859.603678 kJ/mol
# GULP energy per Si atom -5589.362615 kJ/mol
# Density = 2.163971 g / cm^3
# Si number density = 21.689073 Si / 1000 Ang^3
#
#
#
# Elastic Constant Matrix: (Units=GPa)
#
#
# Indices 1 2 3 4 5 6 
#
# 1 55.5299 -3.6491 -7.1965 0.0000 4.9314 0.0000
# 2 -3.6491 20.6163 -4.7514 0.0000 -3.0063 0.0000
# 3 -7.1965 -4.7514 28.9206 0.0000 -6.9876 0.0000
# 4 0.0000 0.0000 0.0000 25.3010 0.0000 4.9487
# 5 4.9314 -3.0063 -6.9876 0.0000 27.7415 0.0000
# 6 0.0000 0.0000 0.0000 4.9487 0.0000 21.1818
#
#
#
# Elastic Compliance Matrix: (Units=1/GPa)
#
#
# Indices 1 2 3 4 5 6 
#
# 1 0.019094 0.004304 0.005059 0.000000 -0.001653 0.000000
# 2 0.004304 0.053126 0.011719 0.000000 0.007944 0.000000
# 3 0.005059 0.011719 0.040304 0.000000 0.010522 0.000000
# 4 0.000000 0.000000 0.000000 0.041417 0.000000 -0.009676
# 5 -0.001653 0.007944 0.010522 0.000000 0.039852 0.000000
# 6 0.000000 0.000000 0.000000 -0.009676 0.000000 0.049471
#
#
# Mechanical properties :
#
#
# Convention : Reuss Voigt Hill
#
# Bulk Modulus (GPa) = 6.46465 8.20807 7.33636
# Shear Modulus (GPa) = 19.78925 22.88912 21.33919
#
# Velocity S-wave (km/s) = 3.02388 3.25211 3.14007
# Velocity P-wave (km/s) = 3.89601 4.23016 4.06652
#
# Compressibility (1/GPa) = 0.15468746
#
# Stress axis : x y z
#
# Youngs Moduli (GPa) = 52.37344 18.82308 24.81152
#
# Poissons Ratio (x) = -0.08102 -0.12552
# Poissons Ratio (y) = -0.22544 -0.29075
# Poissons Ratio (z) = -0.26495 -0.22058
#
# Static dielectric constant tensor:
#      x y z
#    x 1.837600 0.000000 -0.038900 
#    y 0.000000 1.728770 0.000000 
#    z -0.038900 0.000000 1.816830 
# 
# From -- ./inp_files/338852.got.cif
#   From: 2010.05.17/outbox.cif.g08.bks.cpg/sg12_170_cif.got.tgz:338852.got - 2010.06.03 13:09:07.
