data_PCOD9206300
_publ_section_title
;
Structure prediction by ZEFSAII (Michael W. Deem and Ramdas Pophale) SiO2 
 PCOD9206300
Probable space group: C 2/M
;
_chemical_formula_sum "Si O2"
_cell_formula_units_Z 48
_cell_length_a 25.953680
_cell_length_b 20.804599
_cell_length_c 8.819304
_cell_angle_alpha 90.000000
_cell_angle_beta 27.572529
_cell_angle_gamma 90.000000
_cell_volume 2204.208425
_symmetry_space_group_name_H-M "C 2/M"
_symmetry_group_IT_number 12
_symmetry_cell_setting 'monoclinic'
loop_
_space_group_symop_operation_xyz
x,y,z
-x,y,-z
-x,-y,-z
x,-y,z
1/2+x,1/2+y,z
1/2-x,1/2+y,-z
1/2-x,1/2-y,-z
1/2+x,1/2-y,z
loop_
_atom_site_type_symbol
_atom_site_label
_atom_site_fract_x
_atom_site_fract_y
_atom_site_fract_z
Si Si1 0.789328 0.340145 0.730463
Si Si2 0.440986 0.364661 0.506897
Si Si3 0.506473 0.244357 0.804490
Si Si4 0.713806 0.824517 0.607277
Si Si5 0.905039 0.428606 0.649773
Si Si6 0.685063 0.427767 0.430174
O O1 0.866398 0.277775 0.549695
O O2 0.774640 0.351694 0.591541
O O3 0.865222 0.395401 0.602918
O O4 0.675621 0.339141 0.119902
O O5 0.500000 0.395503 0.500000
O O6 0.511568 0.304613 0.258325
O O7 0.410801 0.407921 0.439852
O O8 0.500000 0.261503 0.000000
O O9 0.416820 0.187302 0.011351
O O10 0.750000 0.750000 0.500000
O O11 0.785273 0.870059 0.531009
O O12 0.946489 0.500000 0.504718
O O13 0.000000 0.394366 0.500000
O O14 0.796994 0.431937 0.037689
O O15 0.664912 0.500000 0.546155
#
# Coordination Sequence:
#
# PCOD9206300 Si02
#       6
#     8   8   8   8   8   8
#     4  10  21  36  57  86 118 155 200 248 302 359
#     4  11  23  38  59  85 118 158 205 256 303 358
#     4  10  21  37  59  88 124 159 197 247 307 365
#     4  11  22  39  62  90 125 159 199 253 306 363
#     4   9  18  34  56  84 119 156 197 244 296 358
#     4  10  22  40  61  86 119 161 204 249 304 364
#
# _framework density 21.776524999999999
#
# number of rings (size 3 to 8) (size 9 to 14) (size 15 to 20)
#    0.000    1.833    0.000    4.500    0.000    5.667 
#    0.000    0.000    0.000   17.500    0.000    0.000 
#    0.000    0.000    0.000    0.000    0.000    0.000 
#
# Total GULP energy -133911.835878 kJ/mol
# GULP energy per Si atom -5579.659828 kJ/mol
# Density = 2.172696 g / cm^3
# Si number density = 21.776525 Si / 1000 Ang^3
#
#
#
# Elastic Constant Matrix: (Units=GPa)
#
#
# Indices 1 2 3 4 5 6 
#
# 1 185.2278 85.3750 10.3514 0.0000 6.0110 0.0000
# 2 85.3750 99.3608 23.3626 0.0000 14.2647 0.0000
# 3 10.3514 23.3626 52.5948 0.0000 -8.7001 0.0000
# 4 0.0000 0.0000 0.0000 11.9455 0.0000 -9.3294
# 5 6.0110 14.2647 -8.7001 0.0000 24.5303 0.0000
# 6 0.0000 0.0000 0.0000 -9.3294 0.0000 10.3225
#
#
#
# Elastic Compliance Matrix: (Units=1/GPa)
#
#
# Indices 1 2 3 4 5 6 
#
# 1 0.009440 -0.009436 0.003036 0.000000 0.004251 0.000000
# 2 -0.009436 0.022809 -0.010715 0.000000 -0.014752 0.000000
# 3 0.003036 -0.010715 0.025584 0.000000 0.014561 0.000000
# 4 0.000000 0.000000 0.000000 0.284596 0.000000 0.257214
# 5 0.004251 -0.014752 0.014561 0.000000 0.053467 0.000000
# 6 0.000000 0.000000 0.000000 0.257214 0.000000 0.329343
#
#
# Mechanical properties :
#
#
# Convention : Reuss Voigt Hill
#
# Bulk Modulus (GPa) = 42.36411 63.92904 53.14658
# Shear Modulus (GPa) = 6.51606 23.89930 15.20768
#
# Velocity S-wave (km/s) = 1.73169 3.31642 2.64550
# Velocity P-wave (km/s) = 4.84712 6.63969 5.81292
#
# Compressibility (1/GPa) = 0.02360488
#
# Stress axis : x y z
#
# Youngs Moduli (GPa) = 105.93040 43.84237 39.08722
#
# Poissons Ratio (x) = 0.41368 -0.11869
# Poissons Ratio (y) = 0.99951 0.41882
# Poissons Ratio (z) = -0.32165 0.46977
#
# Static dielectric constant tensor:
#      x y z
#    x 1.805260 0.000000 -0.041150 
#    y 0.000000 1.830140 0.000000 
#    z -0.041150 0.000000 1.851890 
# 
# From -- ./inp_files/106495.got.cif
#   From: 2010.05.17/outbox.cif.g08.bks.cpg/sg12_54_cif.got.tgz:106495.got - 2010.06.03 13:09:07.
