data_PCOD9206777
_publ_section_title
;
Structure prediction by ZEFSAII (Michael W. Deem and Ramdas Pophale) SiO2 
 PCOD9206777
Probable space group: C 2/M
;
_chemical_formula_sum "Si O2"
_cell_formula_units_Z 36
_cell_length_a 13.311720
_cell_length_b 14.377188
_cell_length_c 22.562360
_cell_angle_alpha 90.000000
_cell_angle_beta 24.176792
_cell_angle_gamma 90.000000
_cell_volume 1768.492958
_symmetry_space_group_name_H-M "C 2/M"
_symmetry_group_IT_number 12
_symmetry_cell_setting 'monoclinic'
loop_
_space_group_symop_operation_xyz
x,y,z
-x,y,-z
-x,-y,-z
x,-y,z
1/2+x,1/2+y,z
1/2-x,1/2+y,-z
1/2-x,1/2-y,-z
1/2+x,1/2-y,z
loop_
_atom_site_type_symbol
_atom_site_label
_atom_site_fract_x
_atom_site_fract_y
_atom_site_fract_z
Si Si1 0.979610 0.888881 0.775383
Si Si2 0.146721 0.784012 0.799082
Si Si3 0.911213 0.107759 0.615036
Si Si4 0.500000 0.216791 0.000000
Si Si5 0.346717 0.109585 0.475198
O O1 0.009196 0.843284 0.823492
O O2 0.215750 0.865500 0.607726
O O3 0.962831 0.000000 0.787656
O O4 0.741327 0.846863 0.872203
O O5 0.202146 0.680589 0.744894
O O6 0.412248 0.831177 0.665191
O O7 0.010788 0.776777 0.934582
O O8 0.000000 0.122271 0.500000
O O9 0.142826 0.122188 0.534062
O O10 0.833194 0.000000 0.663730
O O11 0.410324 0.000000 0.443192
#
# Coordination Sequence:
#
# PCOD9206777 Si02
#       5
#     8   8   8   4   8
#     4  11  24  45  69  96 126 170 220 268 320 381
#     4  12  24  41  67  97 129 168 217 269 321 379
#     4  10  21  36  62  99 130 163 211 267 327 376
#     4  12  27  42  63  92 138 180 211 252 323 394
#     4  10  21  41  69  97 125 165 218 274 323 374
#
# _framework density 20.356314999999999
#
# number of rings (size 3 to 8) (size 9 to 14) (size 15 to 20)
#    0.000    1.111    2.222    4.333    3.111    2.667 
#    0.000    2.222    0.000    0.000    0.000    0.000 
#    0.000    0.000    0.000    0.000    0.000    0.000 
#
# Total GULP energy -100755.740876 kJ/mol
# GULP energy per Si atom -5597.541160 kJ/mol
# Density = 2.030998 g / cm^3
# Si number density = 20.356315 Si / 1000 Ang^3
#
#
#
# Elastic Constant Matrix: (Units=GPa)
#
#
# Indices 1 2 3 4 5 6 
#
# 1 86.6470 20.9092 7.7599 -0.0006 30.0523 0.0011
# 2 20.9092 52.1458 19.6307 -0.0074 7.1637 -0.0039
# 3 7.7599 19.6307 54.4976 -0.0137 10.5813 -0.0074
# 4 -0.0006 -0.0074 -0.0137 12.5093 -0.0044 1.4424
# 5 30.0523 7.1637 10.5813 -0.0044 29.5861 0.0041
# 6 0.0011 -0.0039 -0.0074 1.4424 0.0041 33.0544
#
#
#
# Elastic Compliance Matrix: (Units=1/GPa)
#
#
# Indices 1 2 3 4 5 6 
#
# 1 0.019551 -0.006407 0.003308 -0.000006 -0.019491 0.000002
# 2 -0.006407 0.024488 -0.008619 0.000006 0.003662 0.000000
# 3 0.003308 -0.008619 0.022815 0.000016 -0.009433 0.000004
# 4 -0.000006 0.000006 0.000016 0.080345 0.000012 -0.003506
# 5 -0.019491 0.003662 -0.009433 0.000012 0.056085 -0.000008
# 6 0.000002 0.000000 0.000004 -0.003506 -0.000008 0.030406
#
#
# Mechanical properties :
#
#
# Convention : Reuss Voigt Hill
#
# Bulk Modulus (GPa) = 23.03238 32.21001 27.62119
# Shear Modulus (GPa) = 18.40950 24.69601 21.55275
#
# Velocity S-wave (km/s) = 3.01053 3.48686 3.25741
# Velocity P-wave (km/s) = 4.83979 5.66290 5.26744
#
# Compressibility (1/GPa) = 0.04341714
#
# Stress axis : x y z
#
# Youngs Moduli (GPa) = 51.14784 40.83631 43.83140
#
# Poissons Ratio (x) = 0.26165 -0.14502
# Poissons Ratio (y) = 0.32772 0.37780
# Poissons Ratio (z) = -0.16922 0.35199
#
# Static dielectric constant tensor:
#      x y z
#    x 1.716660 0.000000 0.000550 
#    y 0.000000 1.710370 0.000010 
#    z 0.000550 0.000010 1.696640 
# 
# From -- ./inp_files/141735.got.cif
#   From: 2010.05.17/outbox.cif.g08.bks.cpg/sg12_71_cif.got.tgz:141735.got - 2010.06.03 13:09:07.
