data_PCOD9206129
_publ_section_title
;
Structure prediction by ZEFSAII (Michael W. Deem and Ramdas Pophale) SiO2 
 PCOD9206129
Probable space group: C 2/M
;
_chemical_formula_sum "Si O2"
_cell_formula_units_Z 64
_cell_length_a 31.284973
_cell_length_b 8.607700
_cell_length_c 12.018406
_cell_angle_alpha 90.000000
_cell_angle_beta 91.945530
_cell_angle_gamma 90.000000
_cell_volume 3234.590884
_symmetry_space_group_name_H-M "C 2/M"
_symmetry_group_IT_number 12
_symmetry_cell_setting 'monoclinic'
loop_
_space_group_symop_operation_xyz
x,y,z
-x,y,-z
-x,-y,-z
x,-y,z
1/2+x,1/2+y,z
1/2-x,1/2+y,-z
1/2-x,1/2-y,-z
1/2+x,1/2-y,z
loop_
_atom_site_type_symbol
_atom_site_label
_atom_site_fract_x
_atom_site_fract_y
_atom_site_fract_z
Si Si1 0.197061 0.183909 0.328865
Si Si2 0.344967 0.816886 0.884440
Si Si3 0.365543 0.689434 0.486717
Si Si4 0.525457 0.187888 0.825676
Si Si5 0.062149 0.689079 0.062935
Si Si6 0.459569 0.688057 0.420640
Si Si7 0.711866 0.315799 0.674959
Si Si8 0.787006 0.681795 0.080972
O O1 0.186190 0.229888 0.202098
O O2 0.157324 0.239456 0.400881
O O3 0.243127 0.250692 0.365464
O O4 0.199716 0.000000 0.340315
O O5 0.393187 0.756803 0.883282
O O6 0.343193 0.000000 0.855340
O O7 0.329216 0.803704 0.009506
O O8 0.367118 0.500000 0.486781
O O9 0.413821 0.741963 0.466725
O O10 0.330919 0.739524 0.390972
O O11 0.478046 0.233157 0.864510
O O12 0.536016 0.256505 0.706484
O O13 0.527100 0.000000 0.818183
O O14 0.554949 0.236099 0.933591
O O15 0.063098 0.500000 0.061289
O O16 0.500000 0.739110 0.500000
O O17 0.459614 0.500000 0.420689
O O18 0.713480 0.500000 0.662786
O O19 0.709557 0.269897 0.803461
O O20 0.778875 0.500000 0.102066
O O21 0.750000 0.750000 0.000000
#
# Coordination Sequence:
#
# PCOD9206129 Si02
#       8
#     8   8   8   8   8   8   8   8
#     4  11  22  38  60  84 114 148 195 241 285 338
#     4  10  21  36  56  82 115 152 188 229 283 339
#     4   9  22  41  59  83 113 152 192 237 288 337
#     4   9  18  36  61  85 112 146 188 233 283 333
#     4   8  17  35  58  84 115 149 182 231 287 335
#     4  10  22  40  60  82 116 154 187 229 285 339
#     4  11  22  39  61  82 114 151 191 238 289 340
#     4  11  22  36  56  83 117 150 186 228 281 337
#
# _framework density 19.786117999999998
#
# number of rings (size 3 to 8) (size 9 to 14) (size 15 to 20)
#    0.000    2.125    1.250    2.250    3.500    0.750 
#    0.000    5.625    0.000    0.000    0.000    0.000 
#    0.000    0.000    0.000    0.000    0.000    0.000 
#
# Total GULP energy -178581.455931 kJ/mol
# GULP energy per Si atom -5580.670498 kJ/mol
# Density = 1.974108 g / cm^3
# Si number density = 19.786118 Si / 1000 Ang^3
#
#
#
# Elastic Constant Matrix: (Units=GPa)
#
#
# Indices 1 2 3 4 5 6 
#
# 1 143.2224 27.1318 47.2241 0.0000 2.1933 0.0000
# 2 27.1318 24.2874 13.0063 0.0000 -3.8573 0.0000
# 3 47.2241 13.0063 100.1020 0.0000 -11.5574 0.0000
# 4 0.0000 0.0000 0.0000 26.0150 0.0000 -7.2322
# 5 2.1933 -3.8573 -11.5574 0.0000 22.7704 0.0000
# 6 0.0000 0.0000 0.0000 -7.2322 0.0000 14.9946
#
#
#
# Elastic Compliance Matrix: (Units=1/GPa)
#
#
# Indices 1 2 3 4 5 6 
#
# 1 0.010323 -0.010091 -0.004112 0.000000 -0.004791 0.000000
# 2 -0.010091 0.054629 -0.001229 0.000000 0.009602 0.000000
# 3 -0.004112 -0.001229 0.012865 0.000000 0.006718 0.000000
# 4 0.000000 0.000000 0.000000 0.044392 0.000000 0.021411
# 5 -0.004791 0.009602 0.006718 0.000000 0.049414 0.000000
# 6 0.000000 0.000000 0.000000 0.021411 0.000000 0.077017
#
#
# Mechanical properties :
#
#
# Convention : Reuss Voigt Hill
#
# Bulk Modulus (GPa) = 21.29757 49.14848 35.22302
# Shear Modulus (GPa) = 16.94025 24.77264 20.85645
#
# Velocity S-wave (km/s) = 2.92921 3.54223 3.25021
# Velocity P-wave (km/s) = 4.71462 6.45164 5.65028
#
# Compressibility (1/GPa) = 0.04695371
#
# Stress axis : x y z
#
# Youngs Moduli (GPa) = 96.87209 18.30526 77.73054
#
# Poissons Ratio (x) = 0.18471 0.31963
# Poissons Ratio (y) = 0.97750 0.09553
# Poissons Ratio (z) = 0.39833 0.02250
#
# Static dielectric constant tensor:
#      x y z
#    x 1.713880 0.000000 -0.010480 
#    y 0.000000 1.677180 0.000000 
#    z -0.010480 0.000000 1.680660 
# 
# From -- ./inp_files/187484.got.cif
#   From: 2010.05.17/outbox.cif.g08.bks.cpg/sg12_94_cif.got.tgz:187484.got - 2010.06.03 13:09:07.
