data_PCOD9206581
_publ_section_title
;
Structure prediction by ZEFSAII (Michael W. Deem and Ramdas Pophale) SiO2 
 PCOD9206581
Probable space group: C 2/M
;
_chemical_formula_sum "Si O2"
_cell_formula_units_Z 60
_cell_length_a 13.531778
_cell_length_b 22.608161
_cell_length_c 19.588064
_cell_angle_alpha 90.000000
_cell_angle_beta 149.513530
_cell_angle_gamma 90.000000
_cell_volume 3040.229288
_symmetry_space_group_name_H-M "C 2/M"
_symmetry_group_IT_number 12
_symmetry_cell_setting 'monoclinic'
loop_
_space_group_symop_operation_xyz
x,y,z
-x,y,-z
-x,-y,-z
x,-y,z
1/2+x,1/2+y,z
1/2-x,1/2+y,-z
1/2-x,1/2-y,-z
1/2+x,1/2-y,z
loop_
_atom_site_type_symbol
_atom_site_label
_atom_site_fract_x
_atom_site_fract_y
_atom_site_fract_z
Si Si1 0.577759 0.166772 0.699303
Si Si2 0.889257 0.152449 0.585340
Si Si3 0.443484 0.569378 0.198595
Si Si4 0.500000 0.678332 0.500000
Si Si5 0.896690 0.241337 0.189997
Si Si6 0.168987 0.259607 0.239478
Si Si7 0.083663 0.648629 0.982538
Si Si8 0.337227 0.068897 0.348330
O O1 0.344034 0.160469 0.550986
O O2 0.612003 0.189770 0.796550
O O3 0.707188 0.215223 0.733750
O O4 0.653703 0.105064 0.715873
O O5 0.966923 0.147021 0.553593
O O6 0.976830 0.099717 0.684085
O O7 0.973862 0.210144 0.674479
O O8 0.400693 0.500000 0.182412
O O9 0.255327 0.605662 0.059747
O O10 0.626145 0.574925 0.256445
O O11 0.684517 0.721084 0.614345
O O12 0.693114 0.208553 0.071407
O O13 0.988820 0.229948 0.170960
O O14 0.090948 0.322340 0.163800
O O15 0.000000 0.617920 0.000000
O O16 0.500000 0.091561 0.500000
O O17 0.380847 0.000000 0.362993
#
# Coordination Sequence:
#
# PCOD9206581 Si02
#       8
#     8   8   8   4   8   8   8   8
#     4  12  20  33  58  87 122 162 196 241 313 374
#     4  11  21  36  56  90 126 160 205 255 307 373
#     4  10  22  42  67  90 119 162 212 266 310 358
#     4  12  22  36  55  84 131 158 198 260 318 362
#     4  11  22  35  54  87 122 164 203 246 307 368
#     4  12  23  35  59  88 126 166 202 252 311 378
#     4  11  22  41  57  87 129 162 209 258 298 363
#     4  10  21  36  59  92 122 152 203 262 308 358
#
# _framework density 19.735354000000001
#
# number of rings (size 3 to 8) (size 9 to 14) (size 15 to 20)
#    0.000    0.933    5.333    4.000    0.933    0.267 
#    0.000    0.333    0.000    1.600    0.000    3.733 
#    0.000    0.000    0.000    0.000    0.000    0.000 
#
# Total GULP energy -167130.195087 kJ/mol
# GULP energy per Si atom -5571.006503 kJ/mol
# Density = 1.969044 g / cm^3
# Si number density = 19.735354 Si / 1000 Ang^3
#
#
#
# Elastic Constant Matrix: (Units=GPa)
#
#
# Indices 1 2 3 4 5 6 
#
# 1 105.8459 27.9843 9.2518 -0.0008 10.6815 -0.0009
# 2 27.9843 83.1851 19.6276 0.0016 6.5648 0.0003
# 3 9.2518 19.6276 56.5230 0.0032 18.9024 -0.0002
# 4 -0.0008 0.0016 0.0032 22.4336 0.0003 3.1720
# 5 10.6815 6.5648 18.9024 0.0003 25.2857 -0.0014
# 6 -0.0009 0.0003 -0.0002 3.1720 -0.0014 28.5852
#
#
#
# Elastic Compliance Matrix: (Units=1/GPa)
#
#
# Indices 1 2 3 4 5 6 
#
# 1 0.010723 -0.003478 0.000887 0.000001 -0.004290 0.000000
# 2 -0.003478 0.014222 -0.004835 0.000000 0.001391 0.000000
# 3 0.000887 -0.004835 0.025241 -0.000003 -0.017989 0.000000
# 4 0.000001 0.000000 -0.000003 0.045287 0.000001 -0.005025
# 5 -0.004290 0.001391 -0.017989 0.000001 0.054447 0.000002
# 6 0.000000 0.000000 0.000000 -0.005025 0.000002 0.035541
#
#
# Mechanical properties :
#
#
# Convention : Reuss Voigt Hill
#
# Bulk Modulus (GPa) = 28.29997 39.92016 34.11007
# Shear Modulus (GPa) = 23.57494 27.84025 25.70759
#
# Velocity S-wave (km/s) = 3.45998 3.75998 3.61309
# Velocity P-wave (km/s) = 5.50752 6.25472 5.89298
#
# Compressibility (1/GPa) = 0.03533572
#
# Stress axis : x y z
#
# Youngs Moduli (GPa) = 93.26102 70.31175 39.61759
#
# Poissons Ratio (x) = 0.24454 -0.03515
# Poissons Ratio (y) = 0.32436 0.19153
# Poissons Ratio (z) = -0.08275 0.33993
#
# Static dielectric constant tensor:
#      x y z
#    x 1.794160 0.000000 0.004120 
#    y 0.000000 1.708550 0.000000 
#    z 0.004120 0.000000 1.721620 
# 
# From -- ./inp_files/312371.got.cif
#   From: 2010.05.17/outbox.cif.g08.bks.cpg/sg12_157_cif.got.tgz:312371.got - 2010.06.03 13:09:07.
