data_PCOD9206911
_publ_section_title
;
Structure prediction by ZEFSAII (Michael W. Deem and Ramdas Pophale) SiO2 
 PCOD9206911
Probable space group: C 2/M
;
_chemical_formula_sum "Si O2"
_cell_formula_units_Z 64
_cell_length_a 20.521875
_cell_length_b 8.783266
_cell_length_c 20.607068
_cell_angle_alpha 90.000000
_cell_angle_beta 89.907577
_cell_angle_gamma 90.000000
_cell_volume 3714.400359
_symmetry_space_group_name_H-M "C 2/M"
_symmetry_group_IT_number 12
_symmetry_cell_setting 'monoclinic'
loop_
_space_group_symop_operation_xyz
x,y,z
-x,y,-z
-x,-y,-z
x,-y,z
1/2+x,1/2+y,z
1/2-x,1/2+y,-z
1/2-x,1/2-y,-z
1/2+x,1/2-y,z
loop_
_atom_site_type_symbol
_atom_site_label
_atom_site_fract_x
_atom_site_fract_y
_atom_site_fract_z
Si Si1 0.805034 0.682625 0.800195
Si Si2 0.051419 0.314551 0.553163
Si Si3 0.300111 0.182473 0.948955
Si Si4 0.200196 0.316469 0.551582
Si Si5 0.049870 0.683644 0.701964
Si Si6 0.550507 0.816118 0.055817
Si Si7 0.701654 0.183268 0.701028
Si Si8 0.947576 0.181382 0.802752
O O1 0.810259 0.500000 0.798347
O O2 0.786944 0.727898 0.874245
O O3 0.751295 0.739751 0.750115
O O4 0.876162 0.752071 0.786172
O O5 0.050975 0.500000 0.552263
O O6 0.125609 0.267748 0.538282
O O7 0.035590 0.271154 0.627298
O O8 0.000000 0.260356 0.500000
O O9 0.375245 0.225718 0.962629
O O10 0.296137 0.000000 0.952229
O O11 0.250000 0.250000 0.000000
O O12 0.201896 0.500000 0.548558
O O13 0.250000 0.250000 0.500000
O O14 0.215482 0.273418 0.626105
O O15 0.043703 0.500000 0.706414
O O16 0.125850 0.721255 0.714715
O O17 0.000907 0.760205 0.751865
O O18 0.535838 0.742384 0.125276
O O19 0.548371 0.000000 0.063430
O O20 0.500000 0.772485 0.000000
O O21 0.707608 0.000000 0.705763
O O22 0.944794 0.000000 0.803011
#
# Coordination Sequence:
#
# PCOD9206911 Si02
#       8
#     8   8   8   8   8   8   8   8
#     4  10  21  37  55  76 103 136 177 218 258 310
#     4   8  15  30  52  75  98 129 172 213 248 297
#     4   9  19  34  52  75 101 129 163 206 253 303
#     4   9  18  32  50  75 105 134 168 211 256 304
#     4   9  18  34  54  75 104 140 174 212 259 310
#     4   9  19  37  57  76 101 135 175 214 253 302
#     4   9  19  35  53  75 105 139 175 216 261 308
#     4  11  22  35  53  78 108 138 172 216 261 308
#
# _framework density 17.230236999999999
#
# number of rings (size 3 to 8) (size 9 to 14) (size 15 to 20)
#    0.000    2.750    0.000    3.750    0.000    5.750 
#    0.000    6.875    0.000    0.750    0.000    0.000 
#    0.000    0.000    0.000    0.000    0.000    0.000 
#
# Total GULP energy -178462.532575 kJ/mol
# GULP energy per Si atom -5576.954143 kJ/mol
# Density = 1.719102 g / cm^3
# Si number density = 17.230237 Si / 1000 Ang^3
#
#
#
# Elastic Constant Matrix: (Units=GPa)
#
#
# Indices 1 2 3 4 5 6 
#
# 1 150.9988 53.1982 144.7555 0.0000 0.1078 0.0000
# 2 53.1982 37.1983 53.8689 0.0000 -0.0560 0.0000
# 3 144.7555 53.8689 161.5513 0.0000 -0.2850 0.0000
# 4 0.0000 0.0000 0.0000 28.9363 0.0000 -4.0607
# 5 0.1078 -0.0560 -0.2850 0.0000 43.2740 0.0000
# 6 0.0000 0.0000 0.0000 -4.0607 0.0000 30.3022
#
#
#
# Elastic Compliance Matrix: (Units=1/GPa)
#
#
# Indices 1 2 3 4 5 6 
#
# 1 0.049934 -0.012796 -0.040476 0.000000 -0.000408 0.000000
# 2 -0.012796 0.055266 -0.006962 0.000000 0.000057 0.000000
# 3 -0.040476 -0.006962 0.044780 0.000000 0.000387 0.000000
# 4 0.000000 0.000000 0.000000 0.035221 0.000000 0.004720
# 5 -0.000408 0.000057 0.000387 0.000000 0.023112 0.000000
# 6 0.000000 0.000000 0.000000 0.004720 0.000000 0.033633
#
#
# Mechanical properties :
#
#
# Convention : Reuss Voigt Hill
#
# Bulk Modulus (GPa) = 33.88644 94.82151 64.35398
# Shear Modulus (GPa) = 13.43176 27.03089 20.23132
#
# Velocity S-wave (km/s) = 2.79506 3.96511 3.43034
# Velocity P-wave (km/s) = 5.48872 8.72435 7.28836
#
# Compressibility (1/GPa) = 0.02951033
#
# Stress axis : x y z
#
# Youngs Moduli (GPa) = 20.02659 18.09443 22.33127
#
# Poissons Ratio (x) = 0.23154 0.90388
# Poissons Ratio (y) = 0.25626 0.15548
# Poissons Ratio (z) = 0.81060 0.12598
#
# Static dielectric constant tensor:
#      x y z
#    x 1.565740 0.000000 0.008960 
#    y 0.000000 1.581840 0.000000 
#    z 0.008960 0.000000 1.567110 
# 
# From -- ./inp_files/314217.got.cif
#   From: 2010.05.17/outbox.cif.g08.bks.cpg/sg12_158_cif.got.tgz:314217.got - 2010.06.03 13:09:07.
