data_PCOD9206632
_publ_section_title
;
Structure prediction by ZEFSAII (Michael W. Deem and Ramdas Pophale) SiO2 
 PCOD9206632
Probable space group: C 2/M
;
_chemical_formula_sum "Si O2"
_cell_formula_units_Z 56
_cell_length_a 28.036585
_cell_length_b 8.959023
_cell_length_c 17.720964
_cell_angle_alpha 90.000000
_cell_angle_beta 140.083129
_cell_angle_gamma 90.000000
_cell_volume 2856.199673
_symmetry_space_group_name_H-M "C 2/M"
_symmetry_group_IT_number 12
_symmetry_cell_setting 'monoclinic'
loop_
_space_group_symop_operation_xyz
x,y,z
-x,y,-z
-x,-y,-z
x,-y,z
1/2+x,1/2+y,z
1/2-x,1/2+y,-z
1/2-x,1/2-y,-z
1/2+x,1/2-y,z
loop_
_atom_site_type_symbol
_atom_site_label
_atom_site_fract_x
_atom_site_fract_y
_atom_site_fract_z
Si Si1 0.055056 0.676387 0.666788
Si Si2 0.655688 0.674093 0.672144
Si Si3 0.670501 0.322492 0.919592
Si Si4 0.411507 0.325018 0.562120
Si Si5 0.331015 0.319233 0.618268
Si Si6 0.189012 0.823316 0.111632
Si Si7 0.584847 0.318202 0.123738
O O1 0.055582 0.500000 0.658983
O O2 0.085253 0.747878 0.625895
O O3 0.114182 0.735289 0.799072
O O4 0.978130 0.731786 0.608053
O O5 0.651435 0.500000 0.685366
O O6 0.653115 0.690457 0.578654
O O7 0.732013 0.742565 0.793640
O O8 0.671086 0.500000 0.904181
O O9 0.750000 0.250000 0.000000
O O10 0.651597 0.303208 0.984849
O O11 0.433685 0.500000 0.590576
O O12 0.383761 0.282592 0.610948
O O13 0.322349 0.500000 0.610632
O O14 0.250000 0.250000 0.500000
O O15 0.373971 0.272584 0.747795
O O16 0.137608 0.773295 0.118108
O O17 0.203290 0.000000 0.138266
O O18 0.582204 0.500000 0.123193
O O19 0.500000 0.269932 0.000000
#
# Coordination Sequence:
#
# PCOD9206632 Si02
#       7
#     8   8   8   8   8   8   8
#     4  12  25  39  58  86 119 156 198 247 299 354
#     4  11  22  38  60  85 119 158 195 241 296 361
#     4  11  22  37  59  87 120 158 197 243 291 354
#     4  10  23  40  60  88 118 157 198 241 302 359
#     4  10  21  39  65  91 122 159 202 253 303 363
#     4  10  21  36  60  89 117 154 200 243 289 351
#     4   9  19  36  61  92 120 155 202 251 300 353
#
# _framework density 19.606472
#
# number of rings (size 3 to 8) (size 9 to 14) (size 15 to 20)
#    0.000    1.571    1.429    3.429    2.000    4.000 
#    0.000    0.000    0.000    0.857    0.000    0.000 
#    0.000    0.000    0.000    0.000    0.000    0.000 
#
# Total GULP energy -156306.831895 kJ/mol
# GULP energy per Si atom -5582.386853 kJ/mol
# Density = 1.956185 g / cm^3
# Si number density = 19.606472 Si / 1000 Ang^3
#
#
#
# Elastic Constant Matrix: (Units=GPa)
#
#
# Indices 1 2 3 4 5 6 
#
# 1 141.8887 39.7549 56.5229 0.0000 -18.3452 0.0000
# 2 39.7549 39.5415 20.5712 0.0000 -3.1224 0.0000
# 3 56.5229 20.5712 107.6900 0.0000 -7.6875 0.0000
# 4 0.0000 0.0000 0.0000 27.5055 0.0000 7.3870
# 5 -18.3452 -3.1224 -7.6875 0.0000 37.4227 0.0000
# 6 0.0000 0.0000 0.0000 7.3870 0.0000 22.6606
#
#
#
# Elastic Compliance Matrix: (Units=1/GPa)
#
#
# Indices 1 2 3 4 5 6 
#
# 1 0.011890 -0.009473 -0.004132 0.000000 0.004189 0.000000
# 2 -0.009473 0.035687 -0.001993 0.000000 -0.002076 0.000000
# 3 -0.004132 -0.001993 0.011853 0.000000 0.000243 0.000000
# 4 0.000000 0.000000 0.000000 0.039845 0.000000 -0.012989
# 5 0.004189 -0.002076 0.000243 0.000000 0.028652 0.000000
# 6 0.000000 0.000000 0.000000 -0.012989 0.000000 0.048364
#
#
# Mechanical properties :
#
#
# Convention : Reuss Voigt Hill
#
# Bulk Modulus (GPa) = 35.41930 58.09090 46.75510
# Shear Modulus (GPa) = 23.05235 29.00252 26.02744
#
# Velocity S-wave (km/s) = 3.43264 3.85025 3.64743
# Velocity P-wave (km/s) = 5.81507 7.03269 6.45266
#
# Compressibility (1/GPa) = 0.02823319
#
# Stress axis : x y z
#
# Youngs Moduli (GPa) = 84.10652 28.02111 84.36966
#
# Poissons Ratio (x) = 0.26546 0.34860
# Poissons Ratio (y) = 0.79678 0.16814
# Poissons Ratio (z) = 0.34751 0.05584
#
# Static dielectric constant tensor:
#      x y z
#    x 1.674880 0.000000 -0.025470 
#    y 0.000000 1.662080 0.000000 
#    z -0.025470 0.000000 1.689660 
# 
# From -- ./inp_files/292587.got.cif
#   From: 2010.05.17/outbox.cif.g08.bks.cpg/sg12_147_cif.got.tgz:292587.got - 2010.06.03 13:09:07.
