data_PCOD9206268
_publ_section_title
;
Structure prediction by ZEFSAII (Michael W. Deem and Ramdas Pophale) SiO2 
 PCOD9206268
Probable space group: C 2/M
;
_chemical_formula_sum "Si O2"
_cell_formula_units_Z 50
_cell_length_a 9.222103
_cell_length_b 10.691519
_cell_length_c 26.769908
_cell_angle_alpha 90.000000
_cell_angle_beta 110.736954
_cell_angle_gamma 90.000000
_cell_volume 2468.471518
_symmetry_space_group_name_H-M "C 2/M"
_symmetry_group_IT_number 12
_symmetry_cell_setting 'monoclinic'
loop_
_space_group_symop_operation_xyz
x,y,z
-x,y,-z
-x,-y,-z
x,-y,z
1/2+x,1/2+y,z
1/2-x,1/2+y,-z
1/2-x,1/2-y,-z
1/2+x,1/2-y,z
loop_
_atom_site_type_symbol
_atom_site_label
_atom_site_fract_x
_atom_site_fract_y
_atom_site_fract_z
Si Si1 0.000000 0.500000 0.000000
Si Si2 0.720681 0.854272 0.767980
Si Si3 0.870719 0.641882 0.602020
Si Si4 0.363681 0.141733 0.720950
Si Si5 0.290130 0.231417 0.946927
Si Si6 0.633421 0.858126 0.558173
Si Si7 0.965373 0.856555 0.885206
O O1 0.895710 0.608649 0.959310
O O2 0.540928 0.843378 0.760901
O O3 0.761098 0.751388 0.731450
O O4 0.836718 0.828646 0.827967
O O5 0.743270 0.000000 0.754524
O O6 0.819485 0.500000 0.581837
O O7 0.871624 0.649895 0.661887
O O8 0.759429 0.750237 0.568251
O O9 0.040605 0.656879 0.598900
O O10 0.310400 0.000000 0.727342
O O11 0.388144 0.335021 0.929931
O O12 0.123343 0.220235 0.900304
O O13 0.250000 0.250000 0.000000
O O14 0.500000 0.848137 0.500000
O O15 0.697830 0.000000 0.563585
O O16 0.010793 0.000000 0.885637
#
# Coordination Sequence:
#
# PCOD9206268 Si02
#       7
#     2   8   8   8   8   8   8
#     4  12  24  40  56  88 120 144 190 234 276 328
#     4  10  22  41  61  87 115 151 190 241 289 344
#     4  10  21  36  57  84 115 154 193 239 287 344
#     4  10  21  39  59  84 117 149 192 238 291 342
#     4  12  24  40  60  86 114 152 186 231 280 336
#     4  10  21  37  57  85 119 155 196 241 289 340
#     4  11  24  40  62  85 115 148 190 230 284 340
#
# _framework density 20.25545
#
# number of rings (size 3 to 8) (size 9 to 14) (size 15 to 20)
#    0.000    1.440    2.400    2.400    1.120    4.160 
#    1.440    0.000    0.000    0.000    0.000    0.000 
#    0.000    0.000    0.000    0.000    0.000    0.000 
#
# Total GULP energy -139318.407622 kJ/mol
# GULP energy per Si atom -5572.736305 kJ/mol
# Density = 2.020935 g / cm^3
# Si number density = 20.255450 Si / 1000 Ang^3
#
#
#
# Elastic Constant Matrix: (Units=GPa)
#
#
# Indices 1 2 3 4 5 6 
#
# 1 46.8155 28.9247 -2.6986 0.0000 6.1446 0.0000
# 2 28.9247 87.5576 16.1441 0.0000 5.7311 0.0000
# 3 -2.6986 16.1441 42.5576 0.0000 3.2661 0.0000
# 4 0.0000 0.0000 0.0000 26.3189 0.0000 6.9213
# 5 6.1446 5.7311 3.2661 0.0000 38.2148 0.0000
# 6 0.0000 0.0000 0.0000 6.9213 0.0000 23.6594
#
#
#
# Elastic Compliance Matrix: (Units=1/GPa)
#
#
# Indices 1 2 3 4 5 6 
#
# 1 0.028535 -0.010298 0.005989 0.000000 -0.003556 0.000000
# 2 -0.010298 0.016077 -0.006738 0.000000 -0.000179 0.000000
# 3 0.005989 -0.006738 0.026604 0.000000 -0.002226 0.000000
# 4 0.000000 0.000000 0.000000 0.041162 0.000000 -0.012042
# 5 -0.003556 -0.000179 -0.002226 0.000000 0.026957 0.000000
# 6 0.000000 0.000000 0.000000 -0.012042 0.000000 0.045789
#
#
# Mechanical properties :
#
#
# Convention : Reuss Voigt Hill
#
# Bulk Modulus (GPa) = 20.35755 29.07458 24.71606
# Shear Modulus (GPa) = 22.36207 26.60933 24.48570
#
# Velocity S-wave (km/s) = 3.32626 3.62841 3.48062
# Velocity P-wave (km/s) = 4.98239 5.65146 5.32744
#
# Compressibility (1/GPa) = 0.04912182
#
# Stress axis : x y z
#
# Youngs Moduli (GPa) = 35.04474 62.20008 37.58795
#
# Poissons Ratio (x) = 0.64054 -0.22511
# Poissons Ratio (y) = 0.36089 0.25327
# Poissons Ratio (z) = -0.20988 0.41911
#
# Static dielectric constant tensor:
#      x y z
#    x 1.680970 0.000000 0.006140 
#    y 0.000000 1.698630 0.000000 
#    z 0.006140 0.000000 1.748150 
# 
# From -- ./inp_files/355694.got.cif
#   From: 2010.05.17/outbox.cif.g08.bks.cpg/sg12_178_cif.got.tgz:355694.got - 2010.06.03 13:09:07.
