data_PCOD9206824
_publ_section_title
;
Structure prediction by ZEFSAII (Michael W. Deem and Ramdas Pophale) SiO2 
 PCOD9206824
Probable space group: C 2/M
;
_chemical_formula_sum "Si O2"
_cell_formula_units_Z 60
_cell_length_a 23.129361
_cell_length_b 14.318145
_cell_length_c 28.965424
_cell_angle_alpha 90.000000
_cell_angle_beta 163.035914
_cell_angle_gamma 90.000000
_cell_volume 2798.815168
_symmetry_space_group_name_H-M "C 2/M"
_symmetry_group_IT_number 12
_symmetry_cell_setting 'monoclinic'
loop_
_space_group_symop_operation_xyz
x,y,z
-x,y,-z
-x,-y,-z
x,-y,z
1/2+x,1/2+y,z
1/2-x,1/2+y,-z
1/2-x,1/2-y,-z
1/2+x,1/2-y,z
loop_
_atom_site_type_symbol
_atom_site_label
_atom_site_fract_x
_atom_site_fract_y
_atom_site_fract_z
Si Si1 0.078865 0.500000 0.447702
Si Si2 0.313968 0.391883 0.183897
Si Si3 0.859574 0.888737 0.049849
Si Si4 0.081937 0.330083 0.614232
Si Si5 0.023397 0.603815 0.181969
Si Si6 0.895445 0.845821 0.674834
Si Si7 0.846467 0.824903 0.489805
Si Si8 0.508614 0.249898 0.923141
O O1 0.959216 0.418065 0.384805
O O2 0.221344 0.418931 0.532775
O O3 0.250033 0.500000 0.138418
O O4 0.414466 0.371092 0.210743
O O5 0.492155 0.372643 0.355091
O O6 0.143599 0.313626 0.059548
O O7 0.868488 0.829843 0.009986
O O8 0.038485 0.860589 0.221109
O O9 0.871495 0.000000 0.050791
O O10 0.660411 0.867862 0.925992
O O11 0.311088 0.299484 0.789886
O O12 0.000000 0.349962 0.500000
O O13 0.958142 0.243883 0.540010
O O14 0.982674 0.500000 0.133129
O O15 0.215260 0.604984 0.360361
O O16 0.051318 0.675993 0.162315
O O17 0.808422 0.742720 0.601663
#
# Coordination Sequence:
#
# PCOD9206824 Si02
#       8
#     4   8   8   8   8   8   8   8
#     4  10  21  36  68 105 136 168 218 279 334 417
#     4  12  25  43  67  96 131 180 229 275 339 398
#     4  11  21  35  65 102 135 167 216 283 348 399
#     4  11  23  41  66  98 133 173 225 271 334 398
#     4  11  21  38  61  92 132 169 223 285 330 385
#     4  11  19  38  66 100 134 168 218 279 345 399
#     4  11  24  42  63  94 132 177 219 282 331 398
#     4  12  23  40  65  96 135 172 226 272 332 400
#
# _framework density 21.437643000000001
#
# number of rings (size 3 to 8) (size 9 to 14) (size 15 to 20)
#    0.000    0.800    5.333    3.400    0.933    0.533 
#    0.000    4.000    5.867    3.200    0.000    0.000 
#    0.000    0.000    0.000    0.000    0.000    0.000 
#
# Total GULP energy -167242.508308 kJ/mol
# GULP energy per Si atom -5574.750277 kJ/mol
# Density = 2.138885 g / cm^3
# Si number density = 21.437643 Si / 1000 Ang^3
#
#
#
# Elastic Constant Matrix: (Units=GPa)
#
#
# Indices 1 2 3 4 5 6 
#
# 1 23.5104 5.1904 10.6220 0.0006 12.5852 0.0115
# 2 5.1904 74.8326 18.9547 0.0090 6.0301 -0.0038
# 3 10.6220 18.9547 96.2371 0.0831 -5.4446 -0.0182
# 4 0.0006 0.0090 0.0831 19.3506 -0.0029 3.9006
# 5 12.5852 6.0301 -5.4446 -0.0029 36.3437 -0.0016
# 6 0.0115 -0.0038 -0.0182 3.9006 -0.0016 13.9322
#
#
#
# Elastic Compliance Matrix: (Units=1/GPa)
#
#
# Indices 1 2 3 4 5 6 
#
# 1 0.057112 -0.000409 -0.007401 0.000041 -0.020818 -0.000071
# 2 -0.000409 0.014350 -0.002933 0.000006 -0.002679 -0.000002
# 3 -0.007401 -0.002933 0.012060 -0.000057 0.004856 0.000038
# 4 0.000041 0.000006 -0.000057 0.054769 -0.000020 -0.015334
# 5 -0.020818 -0.002679 0.004856 -0.000020 0.035896 0.000033
# 6 -0.000071 -0.000002 0.000038 -0.015334 0.000033 0.076069
#
#
# Mechanical properties :
#
#
# Convention : Reuss Voigt Hill
#
# Bulk Modulus (GPa) = 16.11940 29.34603 22.73272
# Shear Modulus (GPa) = 17.09857 24.57949 20.83903
#
# Velocity S-wave (km/s) = 2.82724 3.38976 3.12120
# Velocity P-wave (km/s) = 4.26535 5.38882 4.85966
#
# Compressibility (1/GPa) = 0.06203706
#
# Stress axis : x y z
#
# Youngs Moduli (GPa) = 17.50938 69.68523 82.91680
#
# Poissons Ratio (x) = 0.02852 0.61366
# Poissons Ratio (y) = 0.00716 0.24318
# Poissons Ratio (z) = 0.12958 0.20437
#
# Static dielectric constant tensor:
#      x y z
#    x 1.785010 0.000000 -0.016820 
#    y 0.000000 1.746630 -0.000030 
#    z -0.016820 -0.000030 1.814200 
# 
# From -- ./inp_files/366552.got.cif
#   From: 2010.05.17/outbox.cif.g08.bks.cpg/sg12_184_cif.got.tgz:366552.got - 2010.06.03 13:09:07.
