data_PCOD9206601
_publ_section_title
;
Structure prediction by ZEFSAII (Michael W. Deem and Ramdas Pophale) SiO2 
 PCOD9206601
Probable space group: C 2/M
;
_chemical_formula_sum "Si O2"
_cell_formula_units_Z 56
_cell_length_a 12.402882
_cell_length_b 15.604216
_cell_length_c 19.500956
_cell_angle_alpha 90.000000
_cell_angle_beta 47.064052
_cell_angle_gamma 90.000000
_cell_volume 2763.122669
_symmetry_space_group_name_H-M "C 2/M"
_symmetry_group_IT_number 12
_symmetry_cell_setting 'monoclinic'
loop_
_space_group_symop_operation_xyz
x,y,z
-x,y,-z
-x,-y,-z
x,-y,z
1/2+x,1/2+y,z
1/2-x,1/2+y,-z
1/2-x,1/2-y,-z
1/2+x,1/2-y,z
loop_
_atom_site_type_symbol
_atom_site_label
_atom_site_fract_x
_atom_site_fract_y
_atom_site_fract_z
Si Si1 0.208073 0.598152 0.699759
Si Si2 0.761062 0.344840 0.462730
Si Si3 0.116422 0.397039 0.151248
Si Si4 0.882671 0.897922 0.247317
Si Si5 0.085553 0.659996 0.319843
Si Si6 0.516535 0.638771 0.336530
Si Si7 0.917651 0.895771 0.964913
O O1 0.189458 0.500000 0.682796
O O2 0.250653 0.653446 0.614615
O O3 0.332725 0.598159 0.702747
O O4 0.049667 0.629429 0.795332
O O5 0.750000 0.250000 0.500000
O O6 0.618905 0.389832 0.556323
O O7 0.925320 0.379905 0.407352
O O8 0.122911 0.500000 0.144251
O O9 0.134462 0.372887 0.223476
O O10 0.250133 0.364225 0.046831
O O11 0.720284 0.857449 0.312091
O O12 0.964438 0.880215 0.282760
O O13 0.987284 0.865244 0.140544
O O14 0.862670 0.000000 0.247745
O O15 0.049950 0.760213 0.329252
O O16 0.913830 0.000000 0.961117
O O17 0.000000 0.875360 0.000000
#
# Coordination Sequence:
#
# PCOD9206601 Si02
#       7
#     8   8   8   8   8   8   8
#     4  10  21  38  62  86 115 155 204 242 285 357
#     4   9  21  39  59  84 112 157 200 240 291 356
#     4   9  17  34  61  88 110 149 203 250 289 351
#     4  11  23  39  62  91 121 154 201 254 302 354
#     4  10  21  36  60  83 117 153 198 245 298 350
#     4  11  24  38  57  83 125 159 192 238 304 359
#     4   9  16  32  60  88 114 150 197 246 300 357
#
# _framework density 20.266925000000001
#
# number of rings (size 3 to 8) (size 9 to 14) (size 15 to 20)
#    0.000    2.143    1.429    1.286    6.000    2.857 
#    0.000    2.143    3.143    3.429    0.000    0.000 
#    0.000    0.000    0.000    0.000    0.000    0.000 
#
# Total GULP energy -156211.382817 kJ/mol
# GULP energy per Si atom -5578.977958 kJ/mol
# Density = 2.022080 g / cm^3
# Si number density = 20.266925 Si / 1000 Ang^3
#
#
#
# Elastic Constant Matrix: (Units=GPa)
#
#
# Indices 1 2 3 4 5 6 
#
# 1 144.5462 7.3740 80.4632 0.0000 -16.3839 0.0000
# 2 7.3740 25.6183 14.1337 0.0000 -2.0956 0.0000
# 3 80.4632 14.1337 117.6316 -0.0001 -28.5205 0.0000
# 4 0.0000 0.0000 -0.0001 9.6191 0.0000 -2.3395
# 5 -16.3839 -2.0956 -28.5205 0.0000 22.5702 0.0000
# 6 0.0000 0.0000 0.0000 -2.3395 0.0000 25.5283
#
#
#
# Elastic Compliance Matrix: (Units=1/GPa)
#
#
# Indices 1 2 3 4 5 6 
#
# 1 0.011286 0.001213 -0.008437 0.000000 -0.002356 0.000000
# 2 0.001213 0.042135 -0.006820 0.000000 -0.003825 0.000000
# 3 -0.008437 -0.006820 0.019395 0.000000 0.017751 0.000000
# 4 0.000000 0.000000 0.000000 0.106330 0.000000 0.009745
# 5 -0.002356 -0.003825 0.017751 0.000000 0.064672 0.000000
# 6 0.000000 0.000000 0.000000 0.009745 0.000000 0.040065
#
#
# Mechanical properties :
#
#
# Convention : Reuss Voigt Hill
#
# Bulk Modulus (GPa) = 22.35663 54.63754 38.49708
# Shear Modulus (GPa) = 15.29616 23.93187 19.61401
#
# Velocity S-wave (km/s) = 2.75022 3.44005 3.11430
# Velocity P-wave (km/s) = 4.59783 6.54187 5.65403
#
# Compressibility (1/GPa) = 0.04472947
#
# Stress axis : x y z
#
# Youngs Moduli (GPa) = 88.60828 23.73322 51.55884
#
# Poissons Ratio (x) = -0.02880 0.43498
# Poissons Ratio (y) = -0.10751 0.35163
# Poissons Ratio (z) = 0.74756 0.16186
#
# Static dielectric constant tensor:
#      x y z
#    x 1.723560 0.000000 -0.044530 
#    y 0.000000 1.779080 0.000000 
#    z -0.044530 0.000000 1.730840 
# 
# From -- ./inp_files/264214.got.cif
#   From: 2010.05.17/outbox.cif.g08.bks.cpg/sg12_133_cif.got.tgz:264214.got - 2010.06.03 13:09:07.
