data_PCOD9206825
_publ_section_title
;
Structure prediction by ZEFSAII (Michael W. Deem and Ramdas Pophale) SiO2 
 PCOD9206825
Probable space group: C 2/M
;
_chemical_formula_sum "Si O2"
_cell_formula_units_Z 52
_cell_length_a 15.329582
_cell_length_b 29.935818
_cell_length_c 8.302053
_cell_angle_alpha 90.000000
_cell_angle_beta 39.327458
_cell_angle_gamma 90.000000
_cell_volume 2414.493534
_symmetry_space_group_name_H-M "C 2/M"
_symmetry_group_IT_number 12
_symmetry_cell_setting 'monoclinic'
loop_
_space_group_symop_operation_xyz
x,y,z
-x,y,-z
-x,-y,-z
x,-y,z
1/2+x,1/2+y,z
1/2-x,1/2+y,-z
1/2-x,1/2-y,-z
1/2+x,1/2-y,z
loop_
_atom_site_type_symbol
_atom_site_label
_atom_site_fract_x
_atom_site_fract_y
_atom_site_fract_z
Si Si1 0.395160 0.050165 0.383458
Si Si2 0.198339 0.630250 0.657631
Si Si3 0.462313 0.827671 0.816651
Si Si4 0.092068 0.234387 0.204646
Si Si5 0.111169 0.951437 0.984044
Si Si6 0.514406 0.636159 0.286610
Si Si7 0.000000 0.614038 0.500000
O O1 0.351888 0.079046 0.289696
O O2 0.490498 0.079272 0.364328
O O3 0.442668 0.000000 0.282925
O O4 0.257117 0.048385 0.688004
O O5 0.361447 0.633892 0.427825
O O6 0.117668 0.654356 0.626289
O O7 0.135035 0.652933 0.905730
O O8 0.467822 0.774667 0.815100
O O9 0.408556 0.848376 0.725305
O O10 0.079044 0.184413 0.155743
O O11 0.000000 0.234594 0.500000
O O12 0.250000 0.250000 0.000000
O O13 0.095550 0.907413 0.112149
O O14 0.092468 0.000000 0.093748
O O15 0.000000 0.948934 0.000000
O O16 0.500000 0.633588 0.500000
#
# Coordination Sequence:
#
# PCOD9206825 Si02
#       7
#     8   8   8   8   8   8   4
#     4  10  21  39  62  91 125 161 212 263 316 379
#     4  10  22  40  60  91 125 166 207 261 324 373
#     4  10  21  41  62  89 128 164 206 262 318 382
#     4  11  24  42  66  97 129 170 214 267 324 378
#     4  10  21  40  63  90 126 163 203 260 321 375
#     4  11  24  40  64  92 125 166 215 262 315 388
#     4  10  21  36  68  88 118 166 209 248 316 380
#
# _framework density 21.536608000000001
#
# number of rings (size 3 to 8) (size 9 to 14) (size 15 to 20)
#    0.000    1.692    2.308    2.077    4.308    0.923 
#    2.769    6.923    0.000    0.000    0.000    0.000 
#    0.000    0.000    0.000    0.000    0.000    0.000 
#
# Total GULP energy -144864.219734 kJ/mol
# GULP energy per Si atom -5571.700759 kJ/mol
# Density = 2.148759 g / cm^3
# Si number density = 21.536608 Si / 1000 Ang^3
#
#
#
# Elastic Constant Matrix: (Units=GPa)
#
#
# Indices 1 2 3 4 5 6 
#
# 1 30.8842 29.2930 2.0081 0.0000 -1.3452 0.0000
# 2 29.2930 227.8457 36.8886 0.0000 18.6979 0.0000
# 3 2.0081 36.8886 55.1119 0.0000 0.0182 0.0000
# 4 0.0000 0.0000 0.0000 37.0148 0.0000 5.1443
# 5 -1.3452 18.6979 0.0182 0.0000 34.4374 0.0000
# 6 0.0000 0.0000 0.0000 5.1443 0.0000 29.7928
#
#
#
# Elastic Compliance Matrix: (Units=1/GPa)
#
#
# Indices 1 2 3 4 5 6 
#
# 1 0.037740 -0.005608 0.002377 0.000000 0.004518 0.000000
# 2 -0.005608 0.006014 -0.003820 0.000000 -0.003482 0.000000
# 3 0.002377 -0.003820 0.020614 0.000000 0.002156 0.000000
# 4 0.000000 0.000000 0.000000 0.027681 0.000000 -0.004780
# 5 0.004518 -0.003482 0.002156 0.000000 0.031104 0.000000
# 6 0.000000 0.000000 0.000000 -0.004780 0.000000 0.034390
#
#
# Mechanical properties :
#
#
# Convention : Reuss Voigt Hill
#
# Bulk Modulus (GPa) = 19.89382 50.02459 34.95920
# Shear Modulus (GPa) = 26.53911 36.62580 31.58246
#
# Velocity S-wave (km/s) = 3.51419 4.12834 3.83359
# Velocity P-wave (km/s) = 5.07182 6.78251 5.98856
#
# Compressibility (1/GPa) = 0.05026686
#
# Stress axis : x y z
#
# Youngs Moduli (GPa) = 26.49710 166.27533 48.50957
#
# Poissons Ratio (x) = 0.93240 -0.11529
# Poissons Ratio (y) = 0.14858 0.18531
# Poissons Ratio (z) = -0.06298 0.63517
#
# Static dielectric constant tensor:
#      x y z
#    x 1.892990 0.000000 -0.015700 
#    y 0.000000 1.828100 0.000000 
#    z -0.015700 0.000000 1.834070 
# 
# From -- ./inp_files/68526.got.cif
#   From: 2010.05.17/outbox.cif.g08.bks.cpg/sg12_35_cif.got.tgz:68526.got - 2010.06.03 13:09:07.
