data_PCOD9206549
_publ_section_title
;
Structure prediction by ZEFSAII (Michael W. Deem and Ramdas Pophale) SiO2 
 PCOD9206549
Probable space group: C 2/M
;
_chemical_formula_sum "Si O2"
_cell_formula_units_Z 48
_cell_length_a 14.908022
_cell_length_b 8.524905
_cell_length_c 30.828592
_cell_angle_alpha 90.000000
_cell_angle_beta 142.501477
_cell_angle_gamma 90.000000
_cell_volume 2385.040732
_symmetry_space_group_name_H-M "C 2/M"
_symmetry_group_IT_number 12
_symmetry_cell_setting 'monoclinic'
loop_
_space_group_symop_operation_xyz
x,y,z
-x,y,-z
-x,-y,-z
x,-y,z
1/2+x,1/2+y,z
1/2-x,1/2+y,-z
1/2-x,1/2-y,-z
1/2+x,1/2-y,z
loop_
_atom_site_type_symbol
_atom_site_label
_atom_site_fract_x
_atom_site_fract_y
_atom_site_fract_z
Si Si1 0.139757 0.181802 0.021895
Si Si2 0.116774 0.810539 0.760737
Si Si3 0.091234 0.189327 0.492711
Si Si4 0.944601 0.184181 0.168029
Si Si5 0.552064 0.184242 0.124185
Si Si6 0.569903 0.812450 0.390434
O O1 0.274347 0.286991 0.089458
O O2 0.187248 0.000000 0.040552
O O3 0.000000 0.200731 0.000000
O O4 0.076834 0.227568 0.950844
O O5 0.038318 0.765699 0.775569
O O6 0.287133 0.759578 0.828883
O O7 0.039335 0.743909 0.688766
O O8 0.117264 0.000000 0.758567
O O9 0.263370 0.239384 0.558464
O O10 0.031659 0.246869 0.423374
O O11 0.000000 0.243752 0.500000
O O12 0.088069 0.000000 0.491714
O O13 0.037621 0.282080 0.169442
O O14 0.978921 0.000000 0.177222
O O15 0.538160 0.000000 0.109581
O O16 0.569443 0.000000 0.392544
#
# Coordination Sequence:
#
# PCOD9206549 Si02
#       6
#     8   8   8   8   8   8
#     4  11  22  37  60  86 112 147 193 246 295 342
#     4  10  23  41  59  80 116 158 190 230 286 347
#     4   9  19  38  62  87 117 153 190 226 275 336
#     4  11  23  40  60  84 114 151 195 241 293 347
#     4  11  23  40  60  83 112 151 196 240 293 349
#     4  10  21  36  59  89 118 149 188 236 279 328
#
# _framework density 20.125443000000001
#
# number of rings (size 3 to 8) (size 9 to 14) (size 15 to 20)
#    0.000    1.667    1.667    2.500    0.000    5.667 
#    0.000    5.000    0.000    0.000    0.000    0.000 
#    0.000    0.000    0.000    0.000    0.000    0.000 
#
# Total GULP energy -134116.713776 kJ/mol
# GULP energy per Si atom -5588.196407 kJ/mol
# Density = 2.007964 g / cm^3
# Si number density = 20.125443 Si / 1000 Ang^3
#
#
#
# Elastic Constant Matrix: (Units=GPa)
#
#
# Indices 1 2 3 4 5 6 
#
# 1 97.6275 3.8196 19.5628 0.0000 -29.8424 0.0000
# 2 3.8196 7.3497 -3.6492 0.0000 -2.4393 0.0000
# 3 19.5628 -3.6492 80.6800 0.0000 -26.4732 0.0000
# 4 0.0000 0.0000 0.0000 25.6559 0.0000 -3.1618
# 5 -29.8424 -2.4393 -26.4732 0.0000 26.1939 0.0000
# 6 0.0000 0.0000 0.0000 -3.1618 0.0000 25.7162
#
#
#
# Elastic Compliance Matrix: (Units=1/GPa)
#
#
# Indices 1 2 3 4 5 6 
#
# 1 0.016249 0.000407 0.003240 0.000000 0.021825 0.000000
# 2 0.000407 0.155549 0.017718 0.000000 0.032856 0.000000
# 3 0.003240 0.017718 0.021190 0.000000 0.026757 0.000000
# 4 0.000000 0.000000 0.000000 0.039577 0.000000 0.004866
# 5 0.021825 0.032856 0.026757 0.000000 0.093143 0.000000
# 6 0.000000 0.000000 0.000000 0.004866 0.000000 0.039484
#
#
# Mechanical properties :
#
#
# Convention : Reuss Voigt Hill
#
# Bulk Modulus (GPa) = 4.24236 25.01372 14.62804
# Shear Modulus (GPa) = 12.46770 26.57480 19.52125
#
# Velocity S-wave (km/s) = 2.49168 3.63775 3.11783
# Velocity P-wave (km/s) = 3.22342 5.48637 4.49948
#
# Compressibility (1/GPa) = 0.23571770
#
# Stress axis : x y z
#
# Youngs Moduli (GPa) = 61.54146 6.42884 47.19180
#
# Poissons Ratio (x) = -0.00262 -0.15288
# Poissons Ratio (y) = -0.02507 -0.83613
# Poissons Ratio (z) = -0.19937 -0.11390
#
# Static dielectric constant tensor:
#      x y z
#    x 1.747510 0.000000 -0.001890 
#    y 0.000000 1.676070 0.000000 
#    z -0.001890 0.000000 1.683310 
# 
# From -- ./inp_files/360216.got.cif
#   From: 2010.05.17/outbox.cif.g08.bks.cpg/sg12_181_cif.got.tgz:360216.got - 2010.06.03 13:09:07.
