data_PCOD9206920
_publ_section_title
;
Structure prediction by ZEFSAII (Michael W. Deem and Ramdas Pophale) SiO2 
 PCOD9206920
Probable space group: C 2/M
;
_chemical_formula_sum "Si O2"
_cell_formula_units_Z 56
_cell_length_a 12.421055
_cell_length_b 14.146303
_cell_length_c 24.722575
_cell_angle_alpha 90.000000
_cell_angle_beta 40.665310
_cell_angle_gamma 90.000000
_cell_volume 2830.755705
_symmetry_space_group_name_H-M "C 2/M"
_symmetry_group_IT_number 12
_symmetry_cell_setting 'monoclinic'
loop_
_space_group_symop_operation_xyz
x,y,z
-x,y,-z
-x,-y,-z
x,-y,z
1/2+x,1/2+y,z
1/2-x,1/2+y,-z
1/2-x,1/2-y,-z
1/2+x,1/2-y,z
loop_
_atom_site_type_symbol
_atom_site_label
_atom_site_fract_x
_atom_site_fract_y
_atom_site_fract_z
Si Si1 0.283963 0.611173 0.994845
Si Si2 0.731284 0.242300 0.724770
Si Si3 0.070718 0.612270 0.175920
Si Si4 0.743911 0.890608 0.884079
Si Si5 0.526086 0.392315 0.302626
Si Si6 0.618697 0.293855 0.882382
Si Si7 0.667245 0.890065 0.403089
O O1 0.319403 0.500000 0.984593
O O2 0.266336 0.633289 0.938306
O O3 0.439547 0.664040 0.960903
O O4 0.124861 0.628082 0.092703
O O5 0.591941 0.174333 0.751629
O O6 0.871335 0.177847 0.699342
O O7 0.646793 0.295222 0.807348
O O8 0.809683 0.316169 0.653790
O O9 0.045130 0.500000 0.193780
O O10 0.227938 0.649178 0.149952
O O11 0.909688 0.883127 0.784168
O O12 0.629183 0.812809 0.900458
O O13 0.686872 0.000000 0.901446
O O14 0.564991 0.500000 0.303831
O O15 0.330769 0.378002 0.377506
O O16 0.500000 0.874561 0.500000
O O17 0.668986 0.000000 0.383731
#
# Coordination Sequence:
#
# PCOD9206920 Si02
#       7
#     8   8   8   8   8   8   8
#     4  10  21  37  55  76 110 155 199 245 290 328
#     4  11  22  38  61  84 112 150 186 229 283 340
#     4  11  24  39  55  81 115 152 196 241 285 333
#     4   9  19  36  56  80 113 153 198 242 282 330
#     4   9  18  36  60  85 115 151 189 230 281 335
#     4  11  21  34  57  84 112 150 196 242 288 336
#     4  10  22  41  65  92 118 143 178 225 276 339
#
# _framework density 19.782703000000001
#
# number of rings (size 3 to 8) (size 9 to 14) (size 15 to 20)
#    0.000    1.857    0.000    4.714    0.000    8.000 
#    0.000    2.143    0.000   15.429    0.000    0.000 
#    0.000    0.000    0.000    0.000    0.000    0.000 
#
# Total GULP energy -156600.865621 kJ/mol
# GULP energy per Si atom -5592.888058 kJ/mol
# Density = 1.973768 g / cm^3
# Si number density = 19.782703 Si / 1000 Ang^3
#
#
#
# Elastic Constant Matrix: (Units=GPa)
#
#
# Indices 1 2 3 4 5 6 
#
# 1 61.3209 59.6885 35.4450 0.0001 0.5930 0.0000
# 2 59.6885 109.9372 67.1782 0.0000 1.6809 0.0000
# 3 35.4450 67.1782 100.2161 0.0000 -15.6337 0.0000
# 4 0.0001 0.0000 0.0000 32.4893 0.0000 3.6505
# 5 0.5930 1.6809 -15.6337 0.0000 22.2806 0.0000
# 6 0.0000 0.0000 0.0000 3.6505 0.0000 30.6631
#
#
#
# Elastic Compliance Matrix: (Units=1/GPa)
#
#
# Indices 1 2 3 4 5 6 
#
# 1 0.034632 -0.019396 0.000940 0.000000 0.001201 0.000000
# 2 -0.019396 0.028268 -0.013858 0.000000 -0.011340 0.000000
# 3 0.000940 -0.013858 0.021442 0.000000 0.016066 0.000000
# 4 0.000000 0.000000 0.000000 0.031197 0.000000 -0.003714
# 5 0.001201 -0.011340 0.016066 0.000000 0.056978 0.000000
# 6 0.000000 0.000000 0.000000 -0.003714 0.000000 0.033055
#
#
# Mechanical properties :
#
#
# Convention : Reuss Voigt Hill
#
# Bulk Modulus (GPa) = 50.72440 66.23308 58.47874
# Shear Modulus (GPa) = 18.06549 24.36410 21.21480
#
# Velocity S-wave (km/s) = 3.02519 3.51320 3.27829
# Velocity P-wave (km/s) = 6.15620 7.07176 6.62980
#
# Compressibility (1/GPa) = 0.01971438
#
# Stress axis : x y z
#
# Youngs Moduli (GPa) = 28.87513 35.37538 46.63779
#
# Poissons Ratio (x) = 0.68613 -0.04384
# Poissons Ratio (y) = 0.56005 0.64632
# Poissons Ratio (z) = -0.02715 0.49024
#
# Static dielectric constant tensor:
#      x y z
#    x 1.704270 0.000000 -0.008160 
#    y 0.000000 1.712220 0.000000 
#    z -0.008160 0.000000 1.686810 
# 
# From -- ./inp_files/358179.got.cif
#   From: 2010.05.17/outbox.cif.g08.bks.cpg/sg12_180_cif.got.tgz:358179.got - 2010.06.03 13:09:07.
