data_PCOD9206766
_publ_section_title
;
Structure prediction by ZEFSAII (Michael W. Deem and Ramdas Pophale) SiO2 
 PCOD9206766
Probable space group: C 2/M
;
_chemical_formula_sum "Si O2"
_cell_formula_units_Z 64
_cell_length_a 21.799107
_cell_length_b 17.210799
_cell_length_c 24.326152
_cell_angle_alpha 90.000000
_cell_angle_beta 161.919376
_cell_angle_gamma 90.000000
_cell_volume 2832.512650
_symmetry_space_group_name_H-M "C 2/M"
_symmetry_group_IT_number 12
_symmetry_cell_setting 'monoclinic'
loop_
_space_group_symop_operation_xyz
x,y,z
-x,y,-z
-x,-y,-z
x,-y,z
1/2+x,1/2+y,z
1/2-x,1/2+y,-z
1/2-x,1/2-y,-z
1/2+x,1/2-y,z
loop_
_atom_site_type_symbol
_atom_site_label
_atom_site_fract_x
_atom_site_fract_y
_atom_site_fract_z
Si Si1 0.112412 0.688061 0.247518
Si Si2 0.430481 0.090292 0.383520
Si Si3 0.503484 0.590387 0.398204
Si Si4 0.187405 0.909443 0.078276
Si Si5 0.992088 0.325268 0.259554
Si Si6 0.351888 0.912903 0.823655
Si Si7 0.141192 0.873347 0.280904
Si Si8 0.946303 0.142363 0.674617
O O1 0.318614 0.648810 0.439955
O O2 0.073799 0.650671 0.155890
O O3 0.137054 0.780243 0.270626
O O4 0.964149 0.665402 0.170278
O O5 0.500000 0.128940 0.500000
O O6 0.251281 0.120966 0.193183
O O7 0.634903 0.096761 0.523834
O O8 0.383490 0.000000 0.355275
O O9 0.559509 0.500000 0.449285
O O10 0.351178 0.605348 0.317792
O O11 0.443255 0.604477 0.283210
O O12 0.322259 0.864045 0.149959
O O13 0.242351 0.000000 0.125318
O O14 0.967698 0.904263 0.866435
O O15 0.998735 0.233341 0.276985
O O16 0.208353 0.358802 0.459944
O O17 0.338389 0.000000 0.787063
O O18 0.500000 0.917551 0.000000
O O19 0.032123 0.891810 0.245650
#
# Coordination Sequence:
#
# PCOD9206766 Si02
#       8
#     8   8   8   8   8   8   8   8
#     4  10  22  39  60  90 124 169 212 260 317 374
#     4  10  23  44  66  88 125 169 207 262 322 378
#     4  10  21  36  62  93 123 169 221 262 310 380
#     4  11  24  40  66  98 126 164 214 261 314 385
#     4   9  19  38  61  89 124 166 207 258 322 377
#     4  10  22  40  58  85 129 171 210 263 318 372
#     4  11  23  42  64  96 130 166 209 266 321 380
#     4   9  19  37  63  88 127 166 203 263 323 371
#
# _framework density 22.59478
#
# number of rings (size 3 to 8) (size 9 to 14) (size 15 to 20)
#    0.000    2.000    1.250    1.875    0.000   10.000 
#    2.250    3.125    0.000    0.000    0.000    0.000 
#    0.000    0.000    0.000    0.000    0.000    0.000 
#
# Total GULP energy -178664.184162 kJ/mol
# GULP energy per Si atom -5583.255755 kJ/mol
# Density = 2.254335 g / cm^3
# Si number density = 22.594780 Si / 1000 Ang^3
#
#
#
# Elastic Constant Matrix: (Units=GPa)
#
#
# Indices 1 2 3 4 5 6 
#
# 1 102.1103 33.2649 16.7908 0.1305 -35.4004 0.2606
# 2 33.2649 43.2042 0.9180 0.0812 -3.3094 0.1320
# 3 16.7908 0.9180 66.7939 0.0398 -23.2291 0.1213
# 4 0.1305 0.0812 0.0398 -18.3856 0.0318 -119.4925
# 5 -35.4004 -3.3094 -23.2291 0.0318 36.1445 0.0627
# 6 0.2606 0.1320 0.1213 -119.4925 0.0627 -206.0802
#
#
#
# Elastic Compliance Matrix: (Units=1/GPa)
#
#
# Indices 1 2 3 4 5 6 
#
# 1 0.021776 -0.015179 0.002149 0.000013 0.021318 0.000018
# 2 -0.015179 0.033905 -0.000954 -0.000011 -0.012375 0.000005
# 3 0.002149 -0.000954 0.019505 0.000014 0.014553 0.000010
# 4 0.000013 -0.000011 0.000014 0.019646 0.000024 -0.011392
# 5 0.021318 -0.012375 0.014553 0.000024 0.056766 0.000031
# 6 0.000018 0.000005 0.000010 -0.011392 0.000031 0.001753
#
#
# Mechanical properties :
#
#
# Convention : Reuss Voigt Hill
#
# Bulk Modulus (GPa) = 21.17863 34.89508 28.03686
# Shear Modulus (GPa) = 25.37312 -26.92196 -0.77442
#
# Velocity S-wave (km/s) = 3.35470 -3.45557 -0.58608
# Velocity P-wave (km/s) = 4.93953 0.66627 3.46085
#
# Compressibility (1/GPa) = 0.04721741
#
# Stress axis : x y z
#
# Youngs Moduli (GPa) = 45.92279 29.49401 51.26790
#
# Poissons Ratio (x) = 0.44769 -0.11015
# Poissons Ratio (y) = 0.69706 0.04891
# Poissons Ratio (z) = -0.09867 0.02814
#
# Static dielectric constant tensor:
#      x y z
#    x 1.961970 -0.000010 0.005720 
#    y -0.000010 1.796390 -0.000070 
#    z 0.005720 -0.000070 1.933150 
# 
# From -- ./inp_files/347926.got.cif
#   From: 2010.05.17/outbox.cif.g08.bks.cpg/sg12_174_cif.got.tgz:347926.got - 2010.06.03 13:09:07.
