data_PCOD9206003
_publ_section_title
;
Structure prediction by ZEFSAII (Michael W. Deem and Ramdas Pophale) SiO2 
 PCOD9206003
Probable space group: C 2/M
;
_chemical_formula_sum "Si O2"
_cell_formula_units_Z 48
_cell_length_a 9.844041
_cell_length_b 7.492614
_cell_length_c 25.297753
_cell_angle_alpha 90.000000
_cell_angle_beta 88.797629
_cell_angle_gamma 90.000000
_cell_volume 1865.490690
_symmetry_space_group_name_H-M "C 2/M"
_symmetry_group_IT_number 12
_symmetry_cell_setting 'monoclinic'
loop_
_space_group_symop_operation_xyz
x,y,z
-x,y,-z
-x,-y,-z
x,-y,z
1/2+x,1/2+y,z
1/2-x,1/2+y,-z
1/2-x,1/2-y,-z
1/2+x,1/2-y,z
loop_
_atom_site_type_symbol
_atom_site_label
_atom_site_fract_x
_atom_site_fract_y
_atom_site_fract_z
Si Si1 0.186401 0.712897 0.057389
Si Si2 0.085026 0.792607 0.547499
Si Si3 0.433003 0.705776 0.119437
Si Si4 0.080226 0.216967 0.222773
Si Si5 0.830908 0.717028 0.610990
Si Si6 0.828330 0.207368 0.285973
O O1 0.176159 0.500000 0.062842
O O2 0.291824 0.785505 0.100678
O O3 0.038052 0.788025 0.069828
O O4 0.250000 0.750000 0.000000
O O5 0.982026 0.781388 0.597973
O O6 0.000000 0.708927 0.500000
O O7 0.230300 0.721247 0.564479
O O8 0.107249 0.000000 0.534740
O O9 0.405517 0.500000 0.133034
O O10 0.514963 0.781932 0.168517
O O11 0.974808 0.280954 0.269002
O O12 0.230216 0.279714 0.235829
O O13 0.083612 0.000000 0.222451
O O14 0.834816 0.500000 0.611559
O O15 0.758554 0.783367 0.664879
O O16 0.849686 0.000000 0.298267
#
# Coordination Sequence:
#
# PCOD9206003 Si02
#       6
#     8   8   8   8   8   8
#     4  11  23  39  60  85 114 148 185 227 275 326
#     4  10  21  37  57  81 109 143 184 228 274 327
#     4  10  22  39  58  83 114 147 185 228 274 325
#     4  10  21  38  59  82 111 147 185 227 274 324
#     4  10  21  36  55  81 112 145 182 226 275 327
#     4  10  21  37  56  81 113 146 183 227 274 326
#
# _framework density 25.730495999999999
#
# number of rings (size 3 to 8) (size 9 to 14) (size 15 to 20)
#    0.000    1.833    0.000    3.500    0.000    9.000 
#    0.000    0.000    0.000    0.000    0.000    0.000 
#    0.000    0.000    0.000    0.000    0.000    0.000 
#
# Total GULP energy -134341.205174 kJ/mol
# GULP energy per Si atom -5597.550216 kJ/mol
# Density = 2.567193 g / cm^3
# Si number density = 25.730496 Si / 1000 Ang^3
#
#
#
# Elastic Constant Matrix: (Units=GPa)
#
#
# Indices 1 2 3 4 5 6 
#
# 1 122.0756 -7.0869 -8.4183 0.0000 0.7318 0.0000
# 2 -7.0869 91.6121 -1.9802 0.0000 1.8290 0.0000
# 3 -8.4183 -1.9802 72.6273 0.0000 -0.6185 0.0000
# 4 0.0000 0.0000 0.0000 18.3415 0.0000 -2.9447
# 5 0.7318 1.8290 -0.6185 0.0000 48.3210 0.0000
# 6 0.0000 0.0000 0.0000 -2.9447 0.0000 14.1881
#
#
#
# Elastic Compliance Matrix: (Units=1/GPa)
#
#
# Indices 1 2 3 4 5 6 
#
# 1 0.008299 0.000666 0.000979 0.000000 -0.000138 0.000000
# 2 0.000666 0.010984 0.000373 0.000000 -0.000421 0.000000
# 3 0.000979 0.000373 0.013894 0.000000 0.000149 0.000000
# 4 0.000000 0.000000 0.000000 0.056401 0.000000 0.011706
# 5 -0.000138 -0.000421 0.000149 0.000000 0.020715 0.000000
# 6 0.000000 0.000000 0.000000 0.011706 0.000000 0.072911
#
#
# Mechanical properties :
#
#
# Convention : Reuss Voigt Hill
#
# Bulk Modulus (GPa) = 26.87328 27.92713 27.40021
# Shear Modulus (GPa) = 26.09997 36.42347 31.26172
#
# Velocity S-wave (km/s) = 3.18836 3.76650 3.48942
# Velocity P-wave (km/s) = 4.90112 5.45826 5.18717
#
# Compressibility (1/GPa) = 0.03721169
#
# Stress axis : x y z
#
# Youngs Moduli (GPa) = 120.50173 91.04503 71.97442
#
# Poissons Ratio (x) = -0.06063 -0.07045
# Poissons Ratio (y) = -0.08024 -0.02685
# Poissons Ratio (z) = -0.11796 -0.03397
#
# Static dielectric constant tensor:
#      x y z
#    x 1.943370 0.000000 0.007310 
#    y 0.000000 1.983440 0.000000 
#    z 0.007310 0.000000 2.113670 
# 
# From -- ./inp_files/332037.got.cif
#   From: 2010.05.17/outbox.cif.g08.bks.cpg/sg12_167_cif.got.tgz:332037.got - 2010.06.03 13:09:07.
