data_PCOD9206817
_publ_section_title
;
Structure prediction by ZEFSAII (Michael W. Deem and Ramdas Pophale) SiO2 
 PCOD9206817
Probable space group: C 2/M
;
_chemical_formula_sum "Si O2"
_cell_formula_units_Z 48
_cell_length_a 8.286242
_cell_length_b 16.821800
_cell_length_c 17.350646
_cell_angle_alpha 90.000000
_cell_angle_beta 91.166308
_cell_angle_gamma 90.000000
_cell_volume 2417.996918
_symmetry_space_group_name_H-M "C 2/M"
_symmetry_group_IT_number 12
_symmetry_cell_setting 'monoclinic'
loop_
_space_group_symop_operation_xyz
x,y,z
-x,y,-z
-x,-y,-z
x,-y,z
1/2+x,1/2+y,z
1/2-x,1/2+y,-z
1/2-x,1/2-y,-z
1/2+x,1/2-y,z
loop_
_atom_site_type_symbol
_atom_site_label
_atom_site_fract_x
_atom_site_fract_y
_atom_site_fract_z
Si Si1 0.744391 0.365681 0.330859
Si Si2 0.998372 0.265820 0.271342
Si Si3 0.436699 0.500000 0.585633
Si Si4 0.578692 0.000000 0.761014
Si Si5 0.276129 0.652566 0.185991
Si Si6 0.352977 0.000000 0.060536
Si Si7 0.302022 0.500000 0.276788
Si Si8 0.808277 0.340650 0.989801
O O1 0.896396 0.305626 0.339338
O O2 0.603017 0.307240 0.303037
O O3 0.673942 0.422997 0.395803
O O4 0.814969 0.425403 0.267033
O O5 0.883014 0.229951 0.204243
O O6 0.112707 0.328389 0.230613
O O7 0.500000 0.500000 0.500000
O O8 0.592601 0.500000 0.644440
O O9 0.396384 0.000000 0.722690
O O10 0.573133 0.000000 0.853265
O O11 0.350689 0.576843 0.228311
O O12 0.242938 0.637301 0.097187
O O13 0.260524 0.916150 0.043568
O O14 0.500000 0.000000 0.000000
O O15 0.750000 0.250000 0.000000
O O16 0.000000 0.335058 0.000000
#
# Coordination Sequence:
#
# PCOD9206817 Si02
#       8
#     8   8   4   4   8   4   4   8
#     4  10  22  41  65  97 123 165 208 257 315 380
#     4  10  21  36  66  91 124 155 219 265 303 362
#     4  11  25  47  67  97 135 161 196 259 327 393
#     4  11  22  39  65  91 128 168 224 260 308 387
#     4  11  21  36  61  89 122 167 223 265 309 381
#     4  10  23  39  55  86 127 172 214 272 327 375
#     4  12  20  39  67  95 117 174 211 256 314 387
#     4  11  23  38  56  84 127 171 216 270 339 367
#
# _framework density 19.851140999999998
#
# number of rings (size 3 to 8) (size 9 to 14) (size 15 to 20)
#    0.000    1.333    3.333    3.500    4.667    0.000 
#    0.000    2.917    0.000    0.000    0.000    0.000 
#    0.000    0.000    0.000    0.000    0.000    0.000 
#
# Total GULP energy -133787.283001 kJ/mol
# GULP energy per Si atom -5574.470125 kJ/mol
# Density = 1.980596 g / cm^3
# Si number density = 19.851141 Si / 1000 Ang^3
#
#
#
# Elastic Constant Matrix: (Units=GPa)
#
#
# Indices 1 2 3 4 5 6 
#
# 1 43.4835 39.3833 0.4771 0.0000 -2.9105 0.0000
# 2 39.3833 131.8464 21.1360 0.0000 3.8980 0.0000
# 3 0.4771 21.1360 61.5850 0.0000 0.1511 0.0000
# 4 0.0000 0.0000 0.0000 4.1371 0.0000 -0.5808
# 5 -2.9105 3.8980 0.1511 0.0000 20.2554 0.0000
# 6 0.0000 0.0000 0.0000 -0.5808 0.0000 40.3386
#
#
#
# Elastic Compliance Matrix: (Units=1/GPa)
#
#
# Indices 1 2 3 4 5 6 
#
# 1 0.033014 -0.010601 0.003366 0.000000 0.006759 0.000000
# 2 -0.010601 0.011477 -0.003848 0.000000 -0.003703 0.000000
# 3 0.003366 -0.003848 0.017530 0.000000 0.001093 0.000000
# 4 0.000000 0.000000 0.000000 0.242207 0.000000 0.003487
# 5 0.006759 -0.003703 0.001093 0.000000 0.051045 0.000000
# 6 0.000000 0.000000 0.000000 0.003487 0.000000 0.024840
#
#
# Mechanical properties :
#
#
# Convention : Reuss Voigt Hill
#
# Bulk Modulus (GPa) = 25.09076 39.87862 32.48469
# Shear Modulus (GPa) = 12.03182 24.67411 18.35296
#
# Velocity S-wave (km/s) = 2.46459 3.52938 3.04391
# Velocity P-wave (km/s) = 4.55695 6.06145 5.36223
#
# Compressibility (1/GPa) = 0.03985531
#
# Stress axis : x y z
#
# Youngs Moduli (GPa) = 30.29022 87.12734 57.04650
#
# Poissons Ratio (x) = 0.92363 -0.19201
# Poissons Ratio (y) = 0.32110 0.21951
# Poissons Ratio (z) = -0.10195 0.33525
#
# Static dielectric constant tensor:
#      x y z
#    x 1.745880 0.000000 -0.009300 
#    y 0.000000 1.819680 0.000000 
#    z -0.009300 0.000000 1.640810 
# 
# From -- ./inp_files/196050.got.cif
#   From: 2010.05.17/outbox.cif.g08.bks.cpg/sg12_99_cif.got.tgz:196050.got - 2010.06.03 13:09:07.
