data_PCOD9206867
_publ_section_title
;
Structure prediction by ZEFSAII (Michael W. Deem and Ramdas Pophale) SiO2 
 PCOD9206867
Probable space group: C 2/M
;
_chemical_formula_sum "Si O2"
_cell_formula_units_Z 64
_cell_length_a 14.496770
_cell_length_b 9.048273
_cell_length_c 30.935759
_cell_angle_alpha 90.000000
_cell_angle_beta 60.609038
_cell_angle_gamma 90.000000
_cell_volume 3535.583235
_symmetry_space_group_name_H-M "C 2/M"
_symmetry_group_IT_number 12
_symmetry_cell_setting 'monoclinic'
loop_
_space_group_symop_operation_xyz
x,y,z
-x,y,-z
-x,-y,-z
x,-y,z
1/2+x,1/2+y,z
1/2-x,1/2+y,-z
1/2-x,1/2-y,-z
1/2+x,1/2-y,z
loop_
_atom_site_type_symbol
_atom_site_label
_atom_site_fract_x
_atom_site_fract_y
_atom_site_fract_z
Si Si1 0.222716 0.677572 0.140766
Si Si2 0.140664 0.176886 0.508839
Si Si3 0.213970 0.823665 0.400848
Si Si4 0.940939 0.325507 0.392502
Si Si5 0.523428 0.822464 0.128595
Si Si6 0.672072 0.175370 0.319159
Si Si7 0.458717 0.322656 0.056236
Si Si8 0.211757 0.676652 0.786826
O O1 0.217459 0.500000 0.148399
O O2 0.334312 0.711059 0.091645
O O3 0.227075 0.756097 0.186064
O O4 0.123414 0.723019 0.134402
O O5 0.250000 0.250000 0.500000
O O6 0.136201 0.213630 0.459007
O O7 0.058150 0.236377 0.562761
O O8 0.146974 0.000000 0.510139
O O9 0.333123 0.794926 0.391247
O O10 0.196081 0.733453 0.361677
O O11 0.204505 0.000000 0.394756
O O12 0.939514 0.500000 0.403483
O O13 0.046782 0.294747 0.341381
O O14 0.519849 0.750075 0.082210
O O15 0.412070 0.784925 0.177355
O O16 0.527072 0.000000 0.122932
O O17 0.742030 0.256814 0.267575
O O18 0.689145 0.000000 0.312635
O O19 0.470864 0.500000 0.056031
O O20 0.500000 0.273540 0.000000
O O21 0.220963 0.500000 0.784441
#
# Coordination Sequence:
#
# PCOD9206867 Si02
#       8
#     8   8   8   8   8   8   8   8
#     4   9  18  35  56  76 103 140 178 213 256 309
#     4   9  17  31  53  77 103 135 169 206 251 304
#     4   9  19  36  54  74 102 134 166 203 250 304
#     4   9  20  37  54  74 103 136 168 205 253 310
#     4   9  19  35  55  77 102 139 180 214 255 307
#     4  11  23  37  54  77 103 133 170 212 261 313
#     4   9  18  32  51  79 114 145 174 214 258 299
#     4  10  21  37  54  74 101 131 170 219 263 305
#
# _framework density 18.101682
#
# number of rings (size 3 to 8) (size 9 to 14) (size 15 to 20)
#    0.000    2.625    0.000    1.875    0.000    6.750 
#    0.000    7.500    0.000    0.000    0.000    0.000 
#    0.000    0.000    0.000    0.000    0.000    0.000 
#
# Total GULP energy -178506.171542 kJ/mol
# GULP energy per Si atom -5578.317861 kJ/mol
# Density = 1.806048 g / cm^3
# Si number density = 18.101682 Si / 1000 Ang^3
#
#
#
# Elastic Constant Matrix: (Units=GPa)
#
#
# Indices 1 2 3 4 5 6 
#
# 1 92.9291 28.1292 34.6508 0.0000 11.6757 0.0000
# 2 28.1292 28.6019 41.6209 0.0000 3.3548 0.0000
# 3 34.6508 41.6209 125.2944 0.0000 11.5087 0.0000
# 4 0.0000 0.0000 0.0000 34.7657 0.0000 6.7487
# 5 11.6757 3.3548 11.5087 0.0000 12.8849 0.0000
# 6 0.0000 0.0000 0.0000 6.7487 0.0000 24.9996
#
#
#
# Elastic Compliance Matrix: (Units=1/GPa)
#
#
# Indices 1 2 3 4 5 6 
#
# 1 0.017310 -0.019888 0.003033 0.000000 -0.013217 0.000000
# 2 -0.019888 0.090611 -0.026241 0.000000 0.017867 0.000000
# 3 0.003033 -0.026241 0.016868 0.000000 -0.010983 0.000000
# 4 0.000000 0.000000 0.000000 0.030355 0.000000 -0.008194
# 5 -0.013217 0.017867 -0.010983 0.000000 0.094745 0.000000
# 6 0.000000 0.000000 0.000000 -0.008194 0.000000 0.042213
#
#
# Mechanical properties :
#
#
# Convention : Reuss Voigt Hill
#
# Bulk Modulus (GPa) = 25.90765 50.62522 38.26644
# Shear Modulus (GPa) = 12.78253 24.02499 18.40376
#
# Velocity S-wave (km/s) = 2.66023 3.64706 3.19201
# Velocity P-wave (km/s) = 4.87639 6.76481 5.89668
#
# Compressibility (1/GPa) = 0.03859864
#
# Stress axis : x y z
#
# Youngs Moduli (GPa) = 57.76851 11.03617 59.28415
#
# Poissons Ratio (x) = 0.21949 -0.17982
# Poissons Ratio (y) = 1.14890 1.55566
# Poissons Ratio (z) = -0.17522 0.28960
#
# Static dielectric constant tensor:
#      x y z
#    x 1.639540 0.000000 -0.033040 
#    y 0.000000 1.601970 0.000000 
#    z -0.033040 0.000000 1.615910 
# 
# From -- ./inp_files/375050.got.cif
#   From: 2010.05.17/outbox.cif.g08.bks.cpg/sg12_188_cif.got.tgz:375050.got - 2010.06.03 13:09:07.
