data_PCOD9206127
_publ_section_title
;
Structure prediction by ZEFSAII (Michael W. Deem and Ramdas Pophale) SiO2 
 PCOD9206127
Probable space group: C 2/M
;
_chemical_formula_sum "Si O2"
_cell_formula_units_Z 48
_cell_length_a 29.674530
_cell_length_b 11.067457
_cell_length_c 8.969670
_cell_angle_alpha 90.000000
_cell_angle_beta 56.116549
_cell_angle_gamma 90.000000
_cell_volume 2445.552236
_symmetry_space_group_name_H-M "C 2/M"
_symmetry_group_IT_number 12
_symmetry_cell_setting 'monoclinic'
loop_
_space_group_symop_operation_xyz
x,y,z
-x,y,-z
-x,-y,-z
x,-y,z
1/2+x,1/2+y,z
1/2-x,1/2+y,-z
1/2-x,1/2-y,-z
1/2+x,1/2-y,z
loop_
_atom_site_type_symbol
_atom_site_label
_atom_site_fract_x
_atom_site_fract_y
_atom_site_fract_z
Si Si1 0.660789 0.137295 0.525227
Si Si2 0.206993 0.191857 0.194365
Si Si3 0.488352 0.365963 0.696973
Si Si4 0.803997 0.365224 0.217672
Si Si5 0.965712 0.363049 0.215005
Si Si6 0.641008 0.367990 0.035527
O O1 0.674053 0.217233 0.359089
O O2 0.697834 0.157465 0.602046
O O3 0.598629 0.151125 0.692503
O O4 0.669005 0.000000 0.461855
O O5 0.246327 0.127933 0.240775
O O6 0.164726 0.130886 0.160080
O O7 0.250000 0.250000 0.000000
O O8 0.500000 0.362564 0.500000
O O9 0.506698 0.500000 0.718545
O O10 0.515655 0.249689 0.720576
O O11 0.423787 0.359085 0.841918
O O12 0.830034 0.500000 0.150827
O O13 0.835297 0.250592 0.089397
O O14 0.973703 0.500000 0.263601
O O15 0.000000 0.358009 0.000000
O O16 0.656252 0.500000 0.940026
#
# Coordination Sequence:
#
# PCOD9206127 Si02
#       6
#     8   8   8   8   8   8
#     4  10  21  38  60  87 119 154 192 238 290 343
#     4  10  21  36  56  82 113 151 192 234 281 336
#     4  10  21  37  56  81 115 153 193 238 287 341
#     4  10  21  38  61  87 114 148 191 237 287 343
#     4  10  21  38  61  89 119 151 191 239 289 343
#     4  10  21  37  57  83 116 153 192 236 288 343
#
# _framework density 19.627469000000001
#
# number of rings (size 3 to 8) (size 9 to 14) (size 15 to 20)
#    0.000    2.000    0.000    3.000    0.000    8.000 
#    0.000    3.333    0.000    0.000    0.000    0.000 
#    0.000    0.000    0.000    0.000    0.000    0.000 
#
# Total GULP energy -133723.538460 kJ/mol
# GULP energy per Si atom -5571.814103 kJ/mol
# Density = 1.958280 g / cm^3
# Si number density = 19.627469 Si / 1000 Ang^3
#
#
#
# Elastic Constant Matrix: (Units=GPa)
#
#
# Indices 1 2 3 4 5 6 
#
# 1 57.9866 38.1758 -8.1832 0.0000 5.7926 0.0000
# 2 38.1758 159.8510 40.4596 0.0000 7.1869 0.0000
# 3 -8.1832 40.4596 61.8027 0.0000 -0.1424 0.0000
# 4 0.0000 0.0000 0.0000 42.9292 0.0000 2.0147
# 5 5.7926 7.1869 -0.1424 0.0000 23.1919 0.0000
# 6 0.0000 0.0000 0.0000 2.0147 0.0000 35.3664
#
#
#
# Elastic Compliance Matrix: (Units=1/GPa)
#
#
# Indices 1 2 3 4 5 6 
#
# 1 0.023704 -0.007545 0.008070 0.000000 -0.003533 0.000000
# 2 -0.007545 0.010030 -0.007568 0.000000 -0.001270 0.000000
# 3 0.008070 -0.007568 0.022205 0.000000 0.000466 0.000000
# 4 0.000000 0.000000 0.000000 0.023357 0.000000 -0.001331
# 5 -0.003533 -0.001270 0.000466 0.000000 0.044397 0.000000
# 6 0.000000 0.000000 0.000000 -0.001331 0.000000 0.028351
#
#
# Mechanical properties :
#
#
# Convention : Reuss Voigt Hill
#
# Bulk Modulus (GPa) = 23.89337 46.72721 35.31029
# Shear Modulus (GPa) = 27.76505 34.24337 31.00421
#
# Velocity S-wave (km/s) = 3.76520 4.18145 3.97877
# Velocity P-wave (km/s) = 5.57693 6.86815 6.25594
#
# Compressibility (1/GPa) = 0.04185262
#
# Stress axis : x y z
#
# Youngs Moduli (GPa) = 42.18653 99.69674 45.03528
#
# Poissons Ratio (x) = 0.75219 -0.36342
# Poissons Ratio (y) = 0.31829 0.34085
# Poissons Ratio (z) = -0.34043 0.75455
#
# Static dielectric constant tensor:
#      x y z
#    x 1.682160 0.000000 -0.005650 
#    y 0.000000 1.493790 0.000000 
#    z -0.005650 0.000000 1.584740 
# 
# From -- ./inp_files/102400.got.cif
#   From: 2010.05.17/outbox.cif.g08.bks.cpg/sg12_52_cif.got.tgz:102400.got - 2010.06.03 13:09:07.
