data_PCOD9206091
_publ_section_title
;
Structure prediction by ZEFSAII (Michael W. Deem and Ramdas Pophale) SiO2 
 PCOD9206091
Probable space group: C 2/M
;
_chemical_formula_sum "Si O2"
_cell_formula_units_Z 64
_cell_length_a 13.675967
_cell_length_b 22.505059
_cell_length_c 10.113934
_cell_angle_alpha 90.000000
_cell_angle_beta 89.011657
_cell_angle_gamma 90.000000
_cell_volume 3112.387758
_symmetry_space_group_name_H-M "C 2/M"
_symmetry_group_IT_number 12
_symmetry_cell_setting 'monoclinic'
loop_
_space_group_symop_operation_xyz
x,y,z
-x,y,-z
-x,-y,-z
x,-y,z
1/2+x,1/2+y,z
1/2-x,1/2+y,-z
1/2-x,1/2-y,-z
1/2+x,1/2-y,z
loop_
_atom_site_type_symbol
_atom_site_label
_atom_site_fract_x
_atom_site_fract_y
_atom_site_fract_z
Si Si1 0.637745 0.256942 0.047805
Si Si2 0.820206 0.637147 0.830682
Si Si3 0.393935 0.071127 0.060938
Si Si4 0.397698 0.118372 0.555842
Si Si5 0.105373 0.187833 0.777617
Si Si6 0.866299 0.753598 0.496064
Si Si7 0.277658 0.071163 0.319859
Si Si8 0.404417 0.348521 0.721073
O O1 0.618443 0.194706 0.121272
O O2 0.631527 0.308180 0.156121
O O3 0.750000 0.250000 0.000000
O O4 0.585160 0.276140 0.913392
O O5 0.815837 0.594848 0.956965
O O6 0.873137 0.605032 0.707753
O O7 0.712796 0.658838 0.787174
O O8 0.395054 0.000000 0.064865
O O9 0.500000 0.089764 0.000000
O O10 0.356419 0.091681 0.205785
O O11 0.500000 0.093716 0.500000
O O12 0.400934 0.190010 0.546743
O O13 0.314325 0.095901 0.458958
O O14 0.104424 0.232855 0.654704
O O15 0.018640 0.141199 0.750380
O O16 0.750000 0.750000 0.500000
O O17 0.897409 0.807173 0.590870
O O18 0.170981 0.097836 0.291763
O O19 0.275566 0.000000 0.321207
#
# Coordination Sequence:
#
# PCOD9206091 Si02
#       8
#     8   8   8   8   8   8   8   8
#     4  10  21  36  55  88 122 155 196 250 306 366
#     4  11  22  40  59  93 125 158 203 254 311 374
#     4  10  23  43  64  87 120 165 209 259 318 366
#     4  12  24  39  64  95 126 162 208 255 321 380
#     4  11  23  36  60  90 126 165 201 245 313 366
#     4  12  21  40  61  92 130 167 198 253 314 377
#     4  11  25  43  66  91 123 168 215 264 308 366
#     4  12  22  41  62  87 129 165 205 253 310 375
#
# _framework density 20.562989999999999
#
# number of rings (size 3 to 8) (size 9 to 14) (size 15 to 20)
#    0.000    0.875    3.750    4.500    1.750    1.750 
#    0.000    0.625    0.000    6.750    0.000    0.000 
#    0.000    0.000    0.000    0.000    0.000    0.000 
#
# Total GULP energy -178808.292888 kJ/mol
# GULP energy per Si atom -5587.759153 kJ/mol
# Density = 2.051619 g / cm^3
# Si number density = 20.562990 Si / 1000 Ang^3
#
#
#
# Elastic Constant Matrix: (Units=GPa)
#
#
# Indices 1 2 3 4 5 6 
#
# 1 78.9349 14.5483 4.2725 0.0000 9.2632 0.0000
# 2 14.5483 39.1439 18.7150 0.0000 -1.7220 0.0000
# 3 4.2725 18.7150 145.4269 0.0000 -5.4314 0.0000
# 4 0.0000 0.0000 0.0000 17.0243 0.0000 -11.4373
# 5 9.2632 -1.7220 -5.4314 0.0000 26.1031 0.0000
# 6 0.0000 0.0000 0.0000 -11.4373 0.0000 4.3439
#
#
#
# Elastic Compliance Matrix: (Units=1/GPa)
#
#
# Indices 1 2 3 4 5 6 
#
# 1 0.014336 -0.005614 0.000098 0.000000 -0.005437 0.000000
# 2 -0.005614 0.029450 -0.003505 0.000000 0.003206 0.000000
# 3 0.000098 -0.003505 0.007372 0.000000 0.001268 0.000000
# 4 0.000000 0.000000 0.000000 -0.076398 0.000000 -0.201151
# 5 -0.005437 0.003206 0.001268 0.000000 0.040715 0.000000
# 6 0.000000 0.000000 0.000000 -0.201151 0.000000 -0.299411
#
#
# Mechanical properties :
#
#
# Convention : Reuss Voigt Hill
#
# Bulk Modulus (GPa) = 30.19729 37.61969 33.90849
# Shear Modulus (GPa) = -19.61903 24.55892 2.46995
#
# Velocity S-wave (km/s) = -3.09219 3.45965 1.09716
# Velocity P-wave (km/s) = 1.40295 5.85606 4.25804
#
# Compressibility (1/GPa) = 0.03311555
#
# Stress axis : x y z
#
# Youngs Moduli (GPa) = 69.75340 33.95548 135.65091
#
# Poissons Ratio (x) = 0.19064 -0.01333
# Poissons Ratio (y) = 0.39162 0.47549
# Poissons Ratio (z) = -0.00685 0.11902
#
# Static dielectric constant tensor:
#      x y z
#    x 1.810010 0.000000 -0.012010 
#    y 0.000000 1.707020 0.000000 
#    z -0.012010 0.000000 1.732420 
# 
# From -- ./inp_files/65897.got.cif
#   From: 2010.05.17/outbox.cif.g08.bks.cpg/sg12_33_cif.got.tgz:65897.got - 2010.06.03 13:09:07.
