data_PCOD9206912
_publ_section_title
;
Structure prediction by ZEFSAII (Michael W. Deem and Ramdas Pophale) SiO2 
 PCOD9206912
Probable space group: C 2/M
;
_chemical_formula_sum "Si O2"
_cell_formula_units_Z 48
_cell_length_a 14.575784
_cell_length_b 19.500575
_cell_length_c 7.989424
_cell_angle_alpha 90.000000
_cell_angle_beta 80.098331
_cell_angle_gamma 90.000000
_cell_volume 2237.056915
_symmetry_space_group_name_H-M "C 2/M"
_symmetry_group_IT_number 12
_symmetry_cell_setting 'monoclinic'
loop_
_space_group_symop_operation_xyz
x,y,z
-x,y,-z
-x,-y,-z
x,-y,z
1/2+x,1/2+y,z
1/2-x,1/2+y,-z
1/2-x,1/2-y,-z
1/2+x,1/2-y,z
loop_
_atom_site_type_symbol
_atom_site_label
_atom_site_fract_x
_atom_site_fract_y
_atom_site_fract_z
Si Si1 0.396277 0.578840 0.205367
Si Si2 0.301024 0.422437 0.600651
Si Si3 0.607574 0.078020 0.800328
Si Si4 0.950289 0.827930 0.699318
Si Si5 0.794829 0.579959 0.870160
Si Si6 0.046449 0.670367 0.302056
O O1 0.425924 0.500000 0.169514
O O2 0.342833 0.580875 0.401797
O O3 0.482992 0.629045 0.199397
O O4 0.314456 0.597808 0.102408
O O5 0.319183 0.500000 0.659420
O O6 0.190680 0.412511 0.641184
O O7 0.354499 0.367489 0.695968
O O8 0.526196 0.131201 0.794580
O O9 0.570541 0.000000 0.798653
O O10 0.659965 0.084657 0.960615
O O11 0.939391 0.749207 0.753078
O O12 0.000000 0.827980 0.500000
O O13 0.801318 0.500000 0.814230
O O14 0.857030 0.629353 0.737106
O O15 0.000000 0.668283 0.500000
#
# Coordination Sequence:
#
# PCOD9206912 Si02
#       6
#     8   8   8   8   8   8
#     4   9  17  33  58  82 103 133 174 214 253 303
#     4   9  17  33  58  82 103 133 174 214 253 303
#     4  10  21  37  55  76 104 136 172 217 263 304
#     4   9  19  34  53  80 110 137 168 212 260 301
#     4  10  21  37  55  76 104 136 172 217 263 304
#     4  11  22  35  53  77 106 139 174 212 256 309
#
# _framework density 21.456762000000001
#
# number of rings (size 3 to 8) (size 9 to 14) (size 15 to 20)
#    0.000    2.333    0.000    2.500    0.000    7.333 
#    0.000   10.833    0.000    4.000    0.000    0.000 
#    0.000    0.000    0.000    0.000    0.000    0.000 
#
# Total GULP energy -134163.772735 kJ/mol
# GULP energy per Si atom -5590.157197 kJ/mol
# Density = 2.140793 g / cm^3
# Si number density = 21.456762 Si / 1000 Ang^3
#
#
#
# Elastic Constant Matrix: (Units=GPa)
#
#
# Indices 1 2 3 4 5 6 
#
# 1 77.5748 59.3875 15.5373 0.0000 24.5266 0.0000
# 2 59.3875 114.6886 29.2827 0.0000 30.0956 0.0000
# 3 15.5373 29.2827 59.4611 0.0000 7.1394 0.0000
# 4 0.0000 0.0000 0.0000 -43.1774 0.0000 -32.2981
# 5 24.5266 30.0956 7.1394 0.0000 38.5300 0.0000
# 6 0.0000 0.0000 0.0000 -32.2981 0.0000 -3.6543
#
#
#
# Elastic Compliance Matrix: (Units=1/GPa)
#
#
# Indices 1 2 3 4 5 6 
#
# 1 0.022621 -0.009920 -0.000232 0.000000 -0.006608 0.000000
# 2 -0.009920 0.016618 -0.004900 0.000000 -0.005758 0.000000
# 3 -0.000232 -0.004900 0.019242 0.000000 0.000410 0.000000
# 4 0.000000 0.000000 0.000000 0.004127 0.000000 -0.036479
# 5 -0.006608 -0.005758 0.000410 0.000000 0.034581 0.000000
# 6 0.000000 0.000000 0.000000 -0.036479 0.000000 0.048767
#
#
# Mechanical properties :
#
#
# Convention : Reuss Voigt Hill
#
# Bulk Modulus (GPa) = 35.24103 51.12662 43.18382
# Shear Modulus (GPa) = 26.95108 8.17412 17.56260
#
# Velocity S-wave (km/s) = 3.54794 1.95393 2.86407
# Velocity P-wave (km/s) = 5.76574 5.38237 5.57735
#
# Compressibility (1/GPa) = 0.02837602
#
# Stress axis : x y z
#
# Youngs Moduli (GPa) = 44.20692 60.17528 51.96841
#
# Poissons Ratio (x) = 0.59695 0.01206
# Poissons Ratio (y) = 0.43854 0.25467
# Poissons Ratio (z) = 0.01026 0.29489
#
# Static dielectric constant tensor:
#      x y z
#    x 1.751010 0.000000 -0.020340 
#    y 0.000000 1.730240 0.000000 
#    z -0.020340 0.000000 1.847670 
# 
# From -- ./inp_files/61686.got.cif
#   From: 2010.05.17/outbox.cif.g08.bks.cpg/sg12_31_cif.got.tgz:61686.got - 2010.06.03 13:09:07.
