data_PCOD9206427
_publ_section_title
;
Structure prediction by ZEFSAII (Michael W. Deem and Ramdas Pophale) SiO2 
 PCOD9206427
Probable space group: C 2/M
;
_chemical_formula_sum "Si O2"
_cell_formula_units_Z 64
_cell_length_a 19.131915
_cell_length_b 32.064914
_cell_length_c 9.729552
_cell_angle_alpha 90.000000
_cell_angle_beta 145.092796
_cell_angle_gamma 90.000000
_cell_volume 3415.595244
_symmetry_space_group_name_H-M "C 2/M"
_symmetry_group_IT_number 12
_symmetry_cell_setting 'monoclinic'
loop_
_space_group_symop_operation_xyz
x,y,z
-x,y,-z
-x,-y,-z
x,-y,z
1/2+x,1/2+y,z
1/2-x,1/2+y,-z
1/2-x,1/2-y,-z
1/2+x,1/2-y,z
loop_
_atom_site_type_symbol
_atom_site_label
_atom_site_fract_x
_atom_site_fract_y
_atom_site_fract_z
Si Si1 0.286740 0.951912 0.829502
Si Si2 0.550554 0.871858 0.933731
Si Si3 0.017819 0.917055 0.367753
Si Si4 0.742381 0.545697 0.083617
Si Si5 0.420371 0.276418 0.241886
Si Si6 0.834784 0.629122 0.362947
Si Si7 0.561755 0.341485 0.953178
Si Si8 0.656793 0.185421 0.889125
O O1 0.150566 0.937600 0.563812
O O2 0.310441 0.000000 0.825455
O O3 0.385118 0.917038 0.945689
O O4 0.281696 0.951159 0.987813
O O5 0.438011 0.871427 0.644795
O O6 0.646979 0.841272 0.012786
O O7 0.500000 0.858031 0.000000
O O8 0.000000 0.905434 0.500000
O O9 0.996284 0.877348 0.236804
O O10 0.904066 0.947496 0.151468
O O11 0.773567 0.500000 0.186677
O O12 0.806111 0.582257 0.269285
O O13 0.500000 0.288848 0.500000
O O14 0.455210 0.298797 0.157292
O O15 0.426353 0.226530 0.236110
O O16 0.288132 0.294669 0.068646
O O17 0.868470 0.655204 0.280456
O O18 0.705594 0.648443 0.202293
O O19 0.500000 0.340995 0.000000
#
# Coordination Sequence:
#
# PCOD9206427 Si02
#       8
#     8   8   8   8   8   8   8   8
#     4  10  21  36  58  87 118 154 197 246 292 343
#     4  12  26  38  58  81 118 164 199 239 291 351
#     4   9  18  34  60  87 118 149 189 243 296 354
#     4   9  17  33  61  91 109 141 197 251 296 338
#     4  10  21  37  66  92 116 151 194 248 286 349
#     4  10  21  40  59  82 114 157 196 239 285 351
#     4  10  22  35  60  91 121 148 189 239 299 349
#     4  10  22  42  61  88 118 155 200 236 296 346
#
# _framework density 18.737583999999998
#
# number of rings (size 3 to 8) (size 9 to 14) (size 15 to 20)
#    0.000    2.000    1.250    1.875    5.250    2.750 
#    0.000    1.250    0.000    7.875    0.000    0.000 
#    0.000    0.000    0.000    0.000    0.000    0.000 
#
# Total GULP energy -178568.059063 kJ/mol
# GULP energy per Si atom -5580.251846 kJ/mol
# Density = 1.869494 g / cm^3
# Si number density = 18.737584 Si / 1000 Ang^3
#
#
#
# Elastic Constant Matrix: (Units=GPa)
#
#
# Indices 1 2 3 4 5 6 
#
# 1 100.7839 50.3436 11.3050 0.0000 -13.0930 0.0000
# 2 50.3436 120.2267 28.5840 0.0000 -8.5095 0.0000
# 3 11.3050 28.5840 55.7498 0.0000 -8.8120 0.0000
# 4 0.0000 0.0000 0.0000 8.7844 0.0000 3.7300
# 5 -13.0930 -8.5095 -8.8120 0.0000 14.7296 0.0000
# 6 0.0000 0.0000 0.0000 3.7300 0.0000 6.0020
#
#
#
# Elastic Compliance Matrix: (Units=1/GPa)
#
#
# Indices 1 2 3 4 5 6 
#
# 1 0.013760 -0.005427 0.001579 0.000000 0.010041 0.000000
# 2 -0.005427 0.011721 -0.005082 0.000000 -0.001093 0.000000
# 3 0.001579 -0.005082 0.022067 0.000000 0.011670 0.000000
# 4 0.000000 0.000000 0.000000 0.154646 0.000000 -0.096106
# 5 0.010041 -0.001093 0.011670 0.000000 0.083166 0.000000
# 6 0.000000 0.000000 0.000000 -0.096106 0.000000 0.226338
#
#
# Mechanical properties :
#
#
# Convention : Reuss Voigt Hill
#
# Bulk Modulus (GPa) = 33.68185 50.80284 42.24235
# Shear Modulus (GPa) = 9.26863 18.33837 13.80350
#
# Velocity S-wave (km/s) = 2.22650 3.13180 2.71712
# Velocity P-wave (km/s) = 4.96229 6.34423 5.69533
#
# Compressibility (1/GPa) = 0.02968958
#
# Stress axis : x y z
#
# Youngs Moduli (GPa) = 72.67297 85.31796 45.31630
#
# Poissons Ratio (x) = 0.46300 -0.07156
# Poissons Ratio (y) = 0.39438 0.23029
# Poissons Ratio (z) = -0.11476 0.43357
#
# Static dielectric constant tensor:
#      x y z
#    x 1.638140 0.000000 0.038490 
#    y 0.000000 1.660800 0.000000 
#    z 0.038490 0.000000 1.646470 
# 
# From -- ./inp_files/80756.got.cif
#   From: 2010.05.17/outbox.cif.g08.bks.cpg/sg12_41_cif.got.tgz:80756.got - 2010.06.03 13:09:07.
