data_PCOD9206071
_publ_section_title
;
Structure prediction by ZEFSAII (Michael W. Deem and Ramdas Pophale) SiO2 
 PCOD9206071
Probable space group: C 2/M
;
_chemical_formula_sum "Si O2"
_cell_formula_units_Z 48
_cell_length_a 20.834628
_cell_length_b 17.908076
_cell_length_c 20.437238
_cell_angle_alpha 90.000000
_cell_angle_beta 159.317848
_cell_angle_gamma 90.000000
_cell_volume 2693.129280
_symmetry_space_group_name_H-M "C 2/M"
_symmetry_group_IT_number 12
_symmetry_cell_setting 'monoclinic'
loop_
_space_group_symop_operation_xyz
x,y,z
-x,y,-z
-x,-y,-z
x,-y,z
1/2+x,1/2+y,z
1/2-x,1/2+y,-z
1/2-x,1/2-y,-z
1/2+x,1/2-y,z
loop_
_atom_site_type_symbol
_atom_site_label
_atom_site_fract_x
_atom_site_fract_y
_atom_site_fract_z
Si Si1 0.392564 0.189584 0.282544
Si Si2 0.194013 0.770987 0.218626
Si Si3 0.870367 0.914655 0.616829
Si Si4 0.109432 0.197186 0.902222
Si Si5 0.240761 0.214700 0.584273
Si Si6 0.193623 0.415889 0.593357
O O1 0.337901 0.230053 0.297275
O O2 0.553071 0.237245 0.400260
O O3 0.485640 0.111221 0.389546
O O4 0.212513 0.179939 0.068035
O O5 0.227448 0.710582 0.307402
O O6 0.213144 0.851530 0.273780
O O7 0.000000 0.763025 0.000000
O O8 0.779101 0.860441 0.476263
O O9 0.769786 0.913960 0.591617
O O10 0.063852 0.877046 0.818320
O O11 0.881037 0.000000 0.605079
O O12 0.917343 0.239768 0.727900
O O13 0.250000 0.250000 0.000000
O O14 0.214574 0.500000 0.638271
#
# Coordination Sequence:
#
# PCOD9206071 Si02
#       6
#     8   8   8   8   8   8
#     4  11  21  36  61  86 116 154 202 238 284 344
#     4  11  21  36  58  88 113 154 206 240 282 346
#     4  11  22  38  59  88 121 154 191 241 300 346
#     4  12  21  36  64  88 114 154 195 242 290 345
#     4  11  21  39  60  83 120 150 197 245 285 340
#     4  10  21  36  55  83 124 160 189 234 294 351
#
# _framework density 17.823132000000001
#
# number of rings (size 3 to 8) (size 9 to 14) (size 15 to 20)
#    0.000    1.000    6.667    3.500    0.000    2.333 
#    0.000    0.833    0.000    2.500    0.000    0.000 
#    0.000    0.000    0.000    0.000    0.000    0.000 
#
# Total GULP energy -133826.052855 kJ/mol
# GULP energy per Si atom -5576.085536 kJ/mol
# Density = 1.778257 g / cm^3
# Si number density = 17.823132 Si / 1000 Ang^3
#
#
#
# Elastic Constant Matrix: (Units=GPa)
#
#
# Indices 1 2 3 4 5 6 
#
# 1 59.8641 10.0308 31.5503 0.0023 1.0266 0.0002
# 2 10.0308 72.0440 47.4032 0.0084 -5.0060 -0.0004
# 3 31.5503 47.4032 120.8441 0.0036 -14.7445 -0.0053
# 4 0.0023 0.0084 0.0036 17.8523 -0.0039 -2.4213
# 5 1.0266 -5.0060 -14.7445 -0.0039 44.2348 -0.0057
# 6 0.0002 -0.0004 -0.0053 -2.4213 -0.0057 24.5904
#
#
#
# Elastic Compliance Matrix: (Units=1/GPa)
#
#
# Indices 1 2 3 4 5 6 
#
# 1 0.019625 0.000894 -0.005752 -0.000003 -0.002271 -0.000002
# 2 0.000894 0.018755 -0.007645 -0.000008 -0.000446 -0.000002
# 3 -0.005752 -0.007645 0.013224 0.000003 0.003676 0.000004
# 4 -0.000003 -0.000008 0.000003 0.056773 0.000006 0.005590
# 5 -0.002271 -0.000446 0.003676 0.000006 0.023834 0.000007
# 6 -0.000002 -0.000002 0.000004 0.005590 0.000007 0.041217
#
#
# Mechanical properties :
#
#
# Convention : Reuss Voigt Hill
#
# Bulk Modulus (GPa) = 37.59479 47.85786 42.72632
# Shear Modulus (GPa) = 24.11967 28.25337 26.18652
#
# Velocity S-wave (km/s) = 3.68268 3.98579 3.83723
# Velocity P-wave (km/s) = 6.26274 6.93483 6.60734
#
# Compressibility (1/GPa) = 0.02659943
#
# Stress axis : x y z
#
# Youngs Moduli (GPa) = 50.95560 53.31899 75.61908
#
# Poissons Ratio (x) = -0.04768 0.43493
# Poissons Ratio (y) = -0.04556 0.57810
# Poissons Ratio (z) = 0.29308 0.40762
#
# Static dielectric constant tensor:
#      x y z
#    x 1.677680 -0.000010 -0.003660 
#    y -0.000010 1.599430 -0.000010 
#    z -0.003660 -0.000010 1.638120 
# 
# From -- ./inp_files/322575.got.cif
#   From: 2010.05.17/outbox.cif.g08.bks.cpg/sg12_162_cif.got.tgz:322575.got - 2010.06.03 13:09:07.
