data_PCOD9206329
_publ_section_title
;
Structure prediction by ZEFSAII (Michael W. Deem and Ramdas Pophale) SiO2 
 PCOD9206329
Probable space group: C 2/M
;
_chemical_formula_sum "Si O2"
_cell_formula_units_Z 56
_cell_length_a 15.612207
_cell_length_b 14.833772
_cell_length_c 13.815104
_cell_angle_alpha 90.000000
_cell_angle_beta 125.763398
_cell_angle_gamma 90.000000
_cell_volume 2596.121701
_symmetry_space_group_name_H-M "C 2/M"
_symmetry_group_IT_number 12
_symmetry_cell_setting 'monoclinic'
loop_
_space_group_symop_operation_xyz
x,y,z
-x,y,-z
-x,-y,-z
x,-y,z
1/2+x,1/2+y,z
1/2-x,1/2+y,-z
1/2-x,1/2-y,-z
1/2+x,1/2-y,z
loop_
_atom_site_type_symbol
_atom_site_label
_atom_site_fract_x
_atom_site_fract_y
_atom_site_fract_z
Si Si1 0.506658 0.905303 0.118503
Si Si2 0.732551 0.708881 0.312722
Si Si3 0.623512 0.603039 0.072284
Si Si4 0.307795 0.335803 0.087249
Si Si5 0.418020 0.898365 0.533517
Si Si6 0.988324 0.742357 0.740099
Si Si7 0.250185 0.399919 0.252916
O O1 0.465449 0.817039 0.141070
O O2 0.632203 0.905694 0.218517
O O3 0.459748 0.000000 0.122652
O O4 0.500000 0.900867 0.000000
O O5 0.696014 0.667082 0.185977
O O6 0.810954 0.643639 0.420858
O O7 0.623721 0.717931 0.301104
O O8 0.786851 0.806474 0.327727
O O9 0.631232 0.500000 0.113420
O O10 0.500000 0.630758 0.000000
O O11 0.659905 0.606630 0.985206
O O12 0.418208 0.311853 0.214804
O O13 0.243531 0.382097 0.132385
O O14 0.250000 0.250000 0.000000
O O15 0.500000 0.903384 0.500000
O O16 0.466267 0.829475 0.642329
O O17 0.402654 0.000000 0.562059
O O18 0.299170 0.500000 0.300352
#
# Coordination Sequence:
#
# PCOD9206329 Si02
#       7
#     8   8   8   8   8   8   8
#     4   9  18  33  55  84 118 154 200 251 302 366
#     4  11  22  43  67  88 125 168 217 266 318 381
#     4  11  23  40  63  92 129 173 217 261 317 388
#     4  12  22  36  61  92 132 174 207 260 317 384
#     4  11  25  45  66  94 128 164 214 272 324 384
#     4  11  23  38  64  90 123 170 212 257 316 379
#     4  10  21  36  57  87 122 159 203 258 316 367
#
# _framework density 21.570637999999999
#
# number of rings (size 3 to 8) (size 9 to 14) (size 15 to 20)
#    0.000    1.286    2.857    3.429    2.000    0.571 
#    0.000    1.429    0.000    4.714    0.000    0.000 
#    0.000    0.000    0.000    0.000    0.000    0.000 
#
# Total GULP energy -156303.330148 kJ/mol
# GULP energy per Si atom -5582.261791 kJ/mol
# Density = 2.152154 g / cm^3
# Si number density = 21.570638 Si / 1000 Ang^3
#
#
#
# Elastic Constant Matrix: (Units=GPa)
#
#
# Indices 1 2 3 4 5 6 
#
# 1 73.1597 21.6005 7.8196 0.0000 2.2991 0.0000
# 2 21.6005 95.3037 39.3164 0.0000 10.1573 0.0000
# 3 7.8196 39.3164 67.3682 0.0000 7.9058 0.0000
# 4 0.0000 0.0000 0.0000 38.4385 0.0000 -20.3311
# 5 2.2991 10.1573 7.9058 0.0000 23.4270 0.0000
# 6 0.0000 0.0000 0.0000 -20.3311 0.0000 36.1358
#
#
#
# Elastic Compliance Matrix: (Units=1/GPa)
#
#
# Indices 1 2 3 4 5 6 
#
# 1 0.014654 -0.003446 0.000316 0.000000 -0.000051 0.000000
# 2 -0.003446 0.014897 -0.007888 0.000000 -0.003459 0.000000
# 3 0.000316 -0.007888 0.019797 0.000000 -0.003292 0.000000
# 4 0.000000 0.000000 0.000000 0.037037 0.000000 0.020838
# 5 -0.000051 -0.003459 -0.003292 0.000000 0.045301 0.000000
# 6 0.000000 0.000000 0.000000 0.020838 0.000000 0.039398
#
#
# Mechanical properties :
#
#
# Convention : Reuss Voigt Hill
#
# Bulk Modulus (GPa) = 36.61449 41.47830 39.04640
# Shear Modulus (GPa) = 24.72515 30.73994 27.73254
#
# Velocity S-wave (km/s) = 3.38929 3.77912 3.58950
# Velocity P-wave (km/s) = 5.68573 6.18976 5.94309
#
# Compressibility (1/GPa) = 0.02731159
#
# Stress axis : x y z
#
# Youngs Moduli (GPa) = 68.24039 67.12973 50.51344
#
# Poissons Ratio (x) = 0.23136 -0.01598
# Poissons Ratio (y) = 0.23519 0.39844
# Poissons Ratio (z) = -0.02159 0.52950
#
# Static dielectric constant tensor:
#      x y z
#    x 1.781190 0.000000 0.000200 
#    y 0.000000 1.845380 0.000000 
#    z 0.000200 0.000000 1.774800 
# 
# From -- ./inp_files/225394.got.cif
#   From: 2010.05.17/outbox.cif.g08.bks.cpg/sg12_113_cif.got.tgz:225394.got - 2010.06.03 13:09:07.
