data_PCOD9206461
_publ_section_title
;
Structure prediction by ZEFSAII (Michael W. Deem and Ramdas Pophale) SiO2 
 PCOD9206461
Probable space group: C 2/M
;
_chemical_formula_sum "Si O2"
_cell_formula_units_Z 48
_cell_length_a 20.222567
_cell_length_b 13.903799
_cell_length_c 11.705523
_cell_angle_alpha 90.000000
_cell_angle_beta 132.253809
_cell_angle_gamma 90.000000
_cell_volume 2436.094189
_symmetry_space_group_name_H-M "C 2/M"
_symmetry_group_IT_number 12
_symmetry_cell_setting 'monoclinic'
loop_
_space_group_symop_operation_xyz
x,y,z
-x,y,-z
-x,-y,-z
x,-y,z
1/2+x,1/2+y,z
1/2-x,1/2+y,-z
1/2-x,1/2-y,-z
1/2+x,1/2-y,z
loop_
_atom_site_type_symbol
_atom_site_label
_atom_site_fract_x
_atom_site_fract_y
_atom_site_fract_z
Si Si1 0.762925 0.885282 0.915910
Si Si2 0.182509 0.889404 0.768017
Si Si3 0.617833 0.268146 0.363016
Si Si4 0.097568 0.708586 0.595162
Si Si5 0.038538 0.887655 0.916810
Si Si6 0.221618 0.388153 0.362609
O O1 0.678634 0.841948 0.754066
O O2 0.756575 0.000000 0.898468
O O3 0.768691 0.862550 0.057523
O O4 0.858300 0.856815 0.972189
O O5 0.102029 0.816880 0.650786
O O6 0.246467 0.881704 0.731826
O O7 0.153125 0.000000 0.743576
O O8 0.616596 0.215329 0.483241
O O9 0.525070 0.320579 0.231810
O O10 0.695194 0.349375 0.464078
O O11 0.644293 0.188193 0.300638
O O12 0.000000 0.665552 0.500000
O O13 0.033676 0.000000 0.874152
O O14 0.000000 0.882876 0.000000
O O15 0.201339 0.500000 0.363856
#
# Coordination Sequence:
#
# PCOD9206461 Si02
#       6
#     8   8   8   8   8   8
#     4  10  22  40  62  87 118 154 195 243 292 344
#     4   9  19  37  61  87 116 152 196 244 290 338
#     4  10  21  36  58  89 120 157 194 245 292 347
#     4  11  23  38  59  90 119 155 194 236 296 352
#     4  10  22  38  61  91 118 152 197 246 294 343
#     4   9  19  35  59  89 120 158 197 239 294 349
#
# _framework density 19.703672000000001
#
# number of rings (size 3 to 8) (size 9 to 14) (size 15 to 20)
#    0.000    2.167    0.000    2.000    7.000    2.000 
#    0.000    0.000    0.000    1.500    0.000    0.000 
#    0.000    0.000    0.000    0.000    0.000    0.000 
#
# Total GULP energy -134002.812346 kJ/mol
# GULP energy per Si atom -5583.450514 kJ/mol
# Density = 1.965883 g / cm^3
# Si number density = 19.703672 Si / 1000 Ang^3
#
#
#
# Elastic Constant Matrix: (Units=GPa)
#
#
# Indices 1 2 3 4 5 6 
#
# 1 81.4851 47.4724 62.0687 0.0000 9.3358 0.0000
# 2 47.4724 76.0893 48.1295 0.0000 5.6470 0.0000
# 3 62.0687 48.1295 115.5157 0.0000 16.0406 0.0000
# 4 0.0000 0.0000 0.0000 18.4111 0.0000 -4.4755
# 5 9.3358 5.6470 16.0406 0.0000 33.7137 0.0000
# 6 0.0000 0.0000 0.0000 -4.4755 0.0000 21.5311
#
#
#
# Elastic Compliance Matrix: (Units=1/GPa)
#
#
# Indices 1 2 3 4 5 6 
#
# 1 0.025151 -0.009717 -0.009342 0.000000 -0.000892 0.000000
# 2 -0.009717 0.021610 -0.003913 0.000000 0.000933 0.000000
# 3 -0.009342 -0.003913 0.015907 0.000000 -0.004326 0.000000
# 4 0.000000 0.000000 0.000000 0.057205 0.000000 0.011891
# 5 -0.000892 0.000933 -0.004326 0.000000 0.031811 0.000000
# 6 0.000000 0.000000 0.000000 0.011891 0.000000 0.048916
#
#
# Mechanical properties :
#
#
# Convention : Reuss Voigt Hill
#
# Bulk Modulus (GPa) = 59.78416 65.38127 62.58272
# Shear Modulus (GPa) = 19.83198 22.42581 21.12890
#
# Velocity S-wave (km/s) = 3.17600 3.37731 3.27820
# Velocity P-wave (km/s) = 6.62245 6.96151 6.79409
#
# Compressibility (1/GPa) = 0.01672684
#
# Stress axis : x y z
#
# Youngs Moduli (GPa) = 39.75992 46.27430 62.86457
#
# Poissons Ratio (x) = 0.44963 0.58726
# Poissons Ratio (y) = 0.38633 0.24596
# Poissons Ratio (z) = 0.37143 0.18105
#
# Static dielectric constant tensor:
#      x y z
#    x 1.719300 0.000000 -0.015880 
#    y 0.000000 1.713270 0.000000 
#    z -0.015880 0.000000 1.665020 
# 
# From -- ./inp_files/167627.got.cif
#   From: 2010.05.17/outbox.cif.g08.bks.cpg/sg12_84_cif.got.tgz:167627.got - 2010.06.03 13:09:07.
