data_PCOD9206204
_publ_section_title
;
Structure prediction by ZEFSAII (Michael W. Deem and Ramdas Pophale) SiO2 
 PCOD9206204
Probable space group: C 2/M
;
_chemical_formula_sum "Si O2"
_cell_formula_units_Z 60
_cell_length_a 26.133490
_cell_length_b 15.784647
_cell_length_c 7.821865
_cell_angle_alpha 90.000000
_cell_angle_beta 106.070975
_cell_angle_gamma 90.000000
_cell_volume 3100.484855
_symmetry_space_group_name_H-M "C 2/M"
_symmetry_group_IT_number 12
_symmetry_cell_setting 'monoclinic'
loop_
_space_group_symop_operation_xyz
x,y,z
-x,y,-z
-x,-y,-z
x,-y,z
1/2+x,1/2+y,z
1/2-x,1/2+y,-z
1/2-x,1/2-y,-z
1/2+x,1/2-y,z
loop_
_atom_site_type_symbol
_atom_site_label
_atom_site_fract_x
_atom_site_fract_y
_atom_site_fract_z
Si Si1 0.361639 0.784886 0.857361
Si Si2 0.774622 0.593798 0.894951
Si Si3 0.683981 0.093215 0.685048
Si Si4 0.106433 0.262646 0.715951
Si Si5 0.546223 0.904244 0.186849
Si Si6 0.784300 0.831515 0.594963
Si Si7 0.000000 0.652812 0.500000
Si Si8 0.335662 0.598059 0.305236
O O1 0.311325 0.848286 0.814755
O O2 0.409180 0.832380 0.802159
O O3 0.334811 0.701907 0.751052
O O4 0.380580 0.772217 0.070489
O O5 0.770705 0.500000 0.816518
O O6 0.714059 0.623802 0.863812
O O7 0.803094 0.588746 0.102233
O O8 0.644008 0.172860 0.640534
O O9 0.740143 0.113444 0.650665
O O10 0.663091 0.000000 0.611684
O O11 0.118709 0.166450 0.677694
O O12 0.047280 0.290796 0.619450
O O13 0.522325 0.897772 0.356023
O O14 0.567897 0.000000 0.180161
O O15 0.500000 0.892821 0.000000
O O16 0.750000 0.750000 0.500000
O O17 0.808911 0.884601 0.463245
O O18 0.350160 0.500000 0.293784
#
# Coordination Sequence:
#
# PCOD9206204 Si02
#       8
#     8   8   8   8   8   8   4   8
#     4  11  21  39  62  85 123 166 207 251 315 368
#     4   9  18  33  56  85 119 157 197 242 298 369
#     4  10  21  36  56  86 124 162 202 246 302 371
#     4  11  23  41  63  88 118 165 214 267 314 375
#     4  11  24  42  63  94 130 168 217 266 313 373
#     4  12  21  35  55  88 125 162 201 245 309 374
#     4  12  25  44  63  92 124 168 218 262 324 370
#     4  11  22  38  59  89 122 159 204 257 318 377
#
# _framework density 19.351811999999999
#
# number of rings (size 3 to 8) (size 9 to 14) (size 15 to 20)
#    0.000    1.200    4.000    2.600    0.000    3.733 
#    0.000    1.000    0.000    0.000    0.000    1.867 
#    0.000    0.000    0.000    0.000    0.000    0.000 
#
# Total GULP energy -167454.445916 kJ/mol
# GULP energy per Si atom -5581.814864 kJ/mol
# Density = 1.930777 g / cm^3
# Si number density = 19.351812 Si / 1000 Ang^3
#
#
#
# Elastic Constant Matrix: (Units=GPa)
#
#
# Indices 1 2 3 4 5 6 
#
# 1 68.3474 41.3499 22.2192 0.0000 -1.1781 0.0000
# 2 41.3499 88.5763 21.0153 0.0000 3.6062 0.0000
# 3 22.2192 21.0153 79.0286 0.0000 6.8294 0.0000
# 4 0.0000 0.0000 0.0000 14.6473 0.0000 -8.7163
# 5 -1.1781 3.6062 6.8294 0.0000 37.7775 0.0000
# 6 0.0000 0.0000 0.0000 -8.7163 0.0000 15.5782
#
#
#
# Elastic Compliance Matrix: (Units=1/GPa)
#
#
# Indices 1 2 3 4 5 6 
#
# 1 0.021476 -0.009220 -0.003779 0.000000 0.002233 0.000000
# 2 -0.009220 0.016021 -0.001535 0.000000 -0.001539 0.000000
# 3 -0.003779 -0.001535 0.014346 0.000000 -0.002565 0.000000
# 4 0.000000 0.000000 0.000000 0.102350 0.000000 0.057267
# 5 0.002233 -0.001539 -0.002565 0.000000 0.027151 0.000000
# 6 0.000000 0.000000 0.000000 0.057267 0.000000 0.096234
#
#
# Mechanical properties :
#
#
# Convention : Reuss Voigt Hill
#
# Bulk Modulus (GPa) = 43.90883 45.01346 44.46114
# Shear Modulus (GPa) = 15.91145 23.69179 19.80162
#
# Velocity S-wave (km/s) = 2.87055 3.50275 3.20229
# Velocity P-wave (km/s) = 5.80739 6.29842 6.05788
#
# Compressibility (1/GPa) = 0.02277446
#
# Stress axis : x y z
#
# Youngs Moduli (GPa) = 46.56286 62.41925 69.70556
#
# Poissons Ratio (x) = 0.57551 0.26344
# Poissons Ratio (y) = 0.42931 0.10700
# Poissons Ratio (z) = 0.17598 0.09581
#
# Static dielectric constant tensor:
#      x y z
#    x 1.673320 0.000000 0.003530 
#    y 0.000000 1.717060 0.000000 
#    z 0.003530 0.000000 1.732640 
# 
# From -- ./inp_files/96922.got.cif
#   From: 2010.05.17/outbox.cif.g08.bks.cpg/sg12_49_cif.got.tgz:96922.got - 2010.06.03 13:09:07.
