data_PCOD9206505
_publ_section_title
;
Structure prediction by ZEFSAII (Michael W. Deem and Ramdas Pophale) SiO2 
 PCOD9206505
Probable space group: C 2/M
;
_chemical_formula_sum "Si O2"
_cell_formula_units_Z 64
_cell_length_a 19.679921
_cell_length_b 23.699795
_cell_length_c 12.241239
_cell_angle_alpha 90.000000
_cell_angle_beta 146.088872
_cell_angle_gamma 90.000000
_cell_volume 3185.331129
_symmetry_space_group_name_H-M "C 2/M"
_symmetry_group_IT_number 12
_symmetry_cell_setting 'monoclinic'
loop_
_space_group_symop_operation_xyz
x,y,z
-x,y,-z
-x,-y,-z
x,-y,z
1/2+x,1/2+y,z
1/2-x,1/2+y,-z
1/2-x,1/2-y,-z
1/2+x,1/2-y,z
loop_
_atom_site_type_symbol
_atom_site_label
_atom_site_fract_x
_atom_site_fract_y
_atom_site_fract_z
Si Si1 0.403343 0.650362 0.286709
Si Si2 0.868626 0.725800 0.765119
Si Si3 0.009712 0.242813 0.287568
Si Si4 0.255238 0.747071 0.832778
Si Si5 0.604257 0.156449 0.566491
Si Si6 0.802688 0.433489 0.948130
Si Si7 0.642781 0.903100 0.222041
Si Si8 0.587846 0.063202 0.379965
O O1 0.500000 0.624667 0.500000
O O2 0.483010 0.680582 0.298778
O O3 0.337879 0.704458 0.256667
O O4 0.296043 0.605664 0.123348
O O5 0.783343 0.753306 0.741405
O O6 0.829185 0.660956 0.707077
O O7 0.892590 0.753697 0.680300
O O8 0.000000 0.725454 0.000000
O O9 0.043792 0.289718 0.423041
O O10 0.879031 0.259398 0.061672
O O11 0.202274 0.684709 0.778109
O O12 0.500000 0.128494 0.500000
O O13 0.645258 0.110858 0.533243
O O14 0.783266 0.500000 0.940146
O O15 0.791737 0.420759 0.802594
O O16 0.944025 0.421135 0.169245
O O17 0.651336 0.936903 0.345833
O O18 0.500000 0.906470 0.000000
O O19 0.592567 0.000000 0.432033
#
# Coordination Sequence:
#
# PCOD9206505 Si02
#       8
#     8   8   8   8   8   8   8   8
#     4  12  22  36  53  82 114 150 188 228 279 335
#     4   9  18  32  55  85 110 141 183 226 281 336
#     4  11  21  37  56  80 115 150 182 235 277 336
#     4  11  21  36  57  82 113 150 183 227 283 338
#     4  12  23  35  53  85 112 148 189 221 278 335
#     4  10  21  36  59  84 110 150 191 230 286 340
#     4   9  15  30  57  83 110 137 176 232 288 341
#     4  10  21  37  56  81 113 145 184 235 285 333
#
# _framework density 20.092103999999999
#
# number of rings (size 3 to 8) (size 9 to 14) (size 15 to 20)
#    0.000    1.500    5.000    1.500    1.750    2.500 
#    2.250    0.000    0.000    0.000    0.000    0.000 
#    0.000    3.000    0.000    0.000    0.000    0.000 
#
# Total GULP energy -178532.256491 kJ/mol
# GULP energy per Si atom -5579.133015 kJ/mol
# Density = 2.004637 g / cm^3
# Si number density = 20.092104 Si / 1000 Ang^3
#
#
#
# Elastic Constant Matrix: (Units=GPa)
#
#
# Indices 1 2 3 4 5 6 
#
# 1 65.5191 18.9930 -3.1323 0.0000 -7.9102 0.0000
# 2 18.9930 77.4117 6.3694 0.0000 2.6162 0.0000
# 3 -3.1323 6.3694 49.0289 0.0000 2.5819 0.0000
# 4 0.0000 0.0000 0.0000 8.4378 0.0000 3.0465
# 5 -7.9102 2.6162 2.5819 0.0000 20.6821 0.0000
# 6 0.0000 0.0000 0.0000 3.0465 0.0000 18.0462
#
#
#
# Elastic Compliance Matrix: (Units=1/GPa)
#
#
# Indices 1 2 3 4 5 6 
#
# 1 0.017537 -0.004655 0.001350 0.000000 0.007128 0.000000
# 2 -0.004655 0.014336 -0.001984 0.000000 -0.003346 0.000000
# 3 0.001350 -0.001984 0.020837 0.000000 -0.001834 0.000000
# 4 0.000000 0.000000 0.000000 0.126207 0.000000 -0.021306
# 5 0.007128 -0.003346 -0.001834 0.000000 0.051729 0.000000
# 6 0.000000 0.000000 0.000000 -0.021306 0.000000 0.059010
#
#
# Mechanical properties :
#
#
# Convention : Reuss Voigt Hill
#
# Bulk Modulus (GPa) = 23.73439 26.26886 25.00163
# Shear Modulus (GPa) = 15.90949 20.74852 18.32901
#
# Velocity S-wave (km/s) = 2.81700 3.21701 3.02362
# Velocity P-wave (km/s) = 4.73488 5.18666 4.96591
#
# Compressibility (1/GPa) = 0.04213295
#
# Stress axis : x y z
#
# Youngs Moduli (GPa) = 57.02199 69.75316 47.99233
#
# Poissons Ratio (x) = 0.32468 -0.06478
# Poissons Ratio (y) = 0.26542 0.09520
# Poissons Ratio (z) = -0.07697 0.13836
#
# Static dielectric constant tensor:
#      x y z
#    x 1.758130 0.000000 -0.013690 
#    y 0.000000 1.709270 0.000000 
#    z -0.013690 0.000000 1.756000 
# 
# From -- ./inp_files/170195.got.cif
#   From: 2010.05.17/outbox.cif.g08.bks.cpg/sg12_86_cif.got.tgz:170195.got - 2010.06.03 13:09:07.
