data_PCOD9206245
_publ_section_title
;
Structure prediction by ZEFSAII (Michael W. Deem and Ramdas Pophale) SiO2 
 PCOD9206245
Probable space group: C 2/M
;
_chemical_formula_sum "Si O2"
_cell_formula_units_Z 42
_cell_length_a 14.211930
_cell_length_b 12.729136
_cell_length_c 11.728959
_cell_angle_alpha 90.000000
_cell_angle_beta 104.397631
_cell_angle_gamma 90.000000
_cell_volume 2055.194737
_symmetry_space_group_name_H-M "C 2/M"
_symmetry_group_IT_number 12
_symmetry_cell_setting 'monoclinic'
loop_
_space_group_symop_operation_xyz
x,y,z
-x,y,-z
-x,-y,-z
x,-y,z
1/2+x,1/2+y,z
1/2-x,1/2+y,-z
1/2-x,1/2-y,-z
1/2+x,1/2-y,z
loop_
_atom_site_type_symbol
_atom_site_label
_atom_site_fract_x
_atom_site_fract_y
_atom_site_fract_z
Si Si1 0.480057 0.375461 0.747536
Si Si2 0.174584 0.656504 0.613466
Si Si3 0.851209 0.881203 0.492689
Si Si4 0.807306 0.880815 0.112111
Si Si5 0.689765 0.685089 0.143400
Si Si6 0.500000 0.000000 0.500000
O O1 0.471735 0.500000 0.769697
O O2 0.439565 0.361775 0.607748
O O3 0.590205 0.345209 0.803968
O O4 0.408040 0.318147 0.812799
O O5 0.158317 0.781451 0.591594
O O6 0.253753 0.622608 0.541349
O O7 0.227054 0.637731 0.749807
O O8 0.077854 0.591312 0.565417
O O9 0.860729 0.000000 0.447131
O O10 0.722823 0.802834 0.123991
O O11 0.788136 0.000000 0.141009
O O12 0.818940 0.873524 0.979004
#
# Coordination Sequence:
#
# PCOD9206245 Si02
#       6
#     8   8   8   8   8   2
#     4   9  18  35  61  84 106 141 185 229 278 332
#     4  10  22  36  57  82 116 149 187 225 282 337
#     4   9  18  38  59  83 110 148 185 233 279 333
#     4  10  21  36  58  83 109 143 188 233 279 328
#     4  10  21  36  57  83 112 146 185 232 278 328
#     4  12  24  36  54  88 110 152 188 230 270 356
#
# _framework density 20.436019999999999
#
# number of rings (size 3 to 8) (size 9 to 14) (size 15 to 20)
#    0.000    2.286    0.952    1.143    5.333    2.286 
#    0.000    0.476    0.000   10.286    0.000    0.000 
#    0.000    0.000    0.000    0.000    0.000    0.000 
#
# Total GULP energy -117131.917479 kJ/mol
# GULP energy per Si atom -5577.710356 kJ/mol
# Density = 2.038951 g / cm^3
# Si number density = 20.436020 Si / 1000 Ang^3
#
#
#
# Elastic Constant Matrix: (Units=GPa)
#
#
# Indices 1 2 3 4 5 6 
#
# 1 57.5434 34.1898 35.6442 0.0000 4.9732 0.0000
# 2 34.1898 91.6627 29.2399 0.0000 1.4140 0.0000
# 3 35.6442 29.2399 101.2730 0.0000 5.4010 0.0000
# 4 0.0000 0.0000 0.0000 17.1428 0.0000 14.2798
# 5 4.9732 1.4140 5.4010 0.0000 24.7049 0.0000
# 6 0.0000 0.0000 0.0000 14.2798 0.0000 19.9152
#
#
#
# Elastic Compliance Matrix: (Units=1/GPa)
#
#
# Indices 1 2 3 4 5 6 
#
# 1 0.026499 -0.007616 -0.006947 0.000000 -0.003379 0.000000
# 2 -0.007616 0.014205 -0.001477 0.000000 0.001043 0.000000
# 3 -0.006947 -0.001477 0.012816 0.000000 -0.001319 0.000000
# 4 0.000000 0.000000 0.000000 0.144848 0.000000 -0.103861
# 5 -0.003379 0.001043 -0.001319 0.000000 0.041387 0.000000
# 6 0.000000 0.000000 0.000000 -0.103861 0.000000 0.124684
#
#
# Mechanical properties :
#
#
# Convention : Reuss Voigt Hill
#
# Bulk Modulus (GPa) = 46.64028 49.84743 48.24386
# Shear Modulus (GPa) = 12.38651 22.44625 17.41638
#
# Velocity S-wave (km/s) = 2.46460 3.31776 2.92248
# Velocity P-wave (km/s) = 5.56517 6.25472 5.92000
#
# Compressibility (1/GPa) = 0.02144069
#
# Stress axis : x y z
#
# Youngs Moduli (GPa) = 37.73788 70.39746 78.02625
#
# Poissons Ratio (x) = 0.53611 0.54209
# Poissons Ratio (y) = 0.28739 0.11521
# Poissons Ratio (z) = 0.26218 0.10395
#
# Static dielectric constant tensor:
#      x y z
#    x 1.723840 0.000000 -0.014940 
#    y 0.000000 1.730250 0.000000 
#    z -0.014940 0.000000 1.729930 
# 
# From -- ./inp_files/213010.got.cif
#   From: 2010.05.17/outbox.cif.g08.bks.cpg/sg12_107_cif.got.tgz:213010.got - 2010.06.03 13:09:07.
