data_PCOD9206921
_publ_section_title
;
Structure prediction by ZEFSAII (Michael W. Deem and Ramdas Pophale) SiO2 
 PCOD9206921
Probable space group: C 2/M
;
_chemical_formula_sum "Si O2"
_cell_formula_units_Z 64
_cell_length_a 33.357192
_cell_length_b 7.659096
_cell_length_c 20.308012
_cell_angle_alpha 90.000000
_cell_angle_beta 148.277557
_cell_angle_gamma 90.000000
_cell_volume 2728.092045
_symmetry_space_group_name_H-M "C 2/M"
_symmetry_group_IT_number 12
_symmetry_cell_setting 'monoclinic'
loop_
_space_group_symop_operation_xyz
x,y,z
-x,y,-z
-x,-y,-z
x,-y,z
1/2+x,1/2+y,z
1/2-x,1/2+y,-z
1/2-x,1/2-y,-z
1/2+x,1/2-y,z
loop_
_atom_site_type_symbol
_atom_site_label
_atom_site_fract_x
_atom_site_fract_y
_atom_site_fract_z
Si Si1 0.984406 0.697387 0.075109
Si Si2 0.586085 0.794115 0.625854
Si Si3 0.445803 0.710440 0.162206
Si Si4 0.839182 0.791573 0.130883
Si Si5 0.151834 0.802283 0.332206
Si Si6 0.200735 0.701302 0.677867
Si Si7 0.339819 0.711172 0.796775
Si Si8 0.122009 0.211867 0.432974
O O1 0.010769 0.500000 0.103065
O O2 0.938185 0.714378 0.078804
O O3 0.060342 0.809054 0.191508
O O4 0.925857 0.747282 0.936624
O O5 0.500000 0.721219 0.500000
O O6 0.621619 0.777472 0.747908
O O7 0.646414 0.718455 0.657435
O O8 0.579412 0.000000 0.600035
O O9 0.439901 0.500000 0.148364
O O10 0.385143 0.772205 0.131009
O O11 0.531884 0.752055 0.305270
O O12 0.847561 0.000000 0.144794
O O13 0.750000 0.750000 0.000000
O O14 0.180998 0.719695 0.305068
O O15 0.157803 0.724104 0.413482
O O16 0.180907 0.000000 0.377351
O O17 0.215186 0.500000 0.718109
O O18 0.282393 0.779219 0.772285
O O19 0.157504 0.707934 0.547642
O O20 0.332939 0.500000 0.784386
O O21 0.129159 0.000000 0.445369
#
# Coordination Sequence:
#
# PCOD9206921 Si02
#       8
#     8   8   8   8   8   8   8   8
#     4  11  22  34  55  86 115 143 186 241 288 335
#     4  10  22  41  63  88 122 162 205 254 305 362
#     4   9  20  39  60  81 111 153 191 227 282 353
#     4  11  24  40  62  91 123 158 200 250 306 366
#     4   9  19  37  58  79 108 152 195 230 280 346
#     4  10  22  37  56  83 113 150 191 235 290 345
#     4  10  21  37  55  76 111 156 195 229 279 351
#     4   9  18  35  58  82 107 141 190 238 281 335
#
# _framework density 23.459619
#
# number of rings (size 3 to 8) (size 9 to 14) (size 15 to 20)
#    0.000    2.125    0.000    3.375    1.750    6.750 
#    0.000    0.000    0.000    0.000    0.000    0.000 
#    0.000    0.000    0.000    0.000    0.000    0.000 
#
# Total GULP energy -178847.620259 kJ/mol
# GULP energy per Si atom -5588.988133 kJ/mol
# Density = 2.340622 g / cm^3
# Si number density = 23.459619 Si / 1000 Ang^3
#
#
#
# Elastic Constant Matrix: (Units=GPa)
#
#
# Indices 1 2 3 4 5 6 
#
# 1 152.0189 7.4159 33.0194 0.0000 3.7842 0.0000
# 2 7.4159 53.3811 -10.0147 0.0000 8.7733 0.0000
# 3 33.0194 -10.0147 101.3018 0.0000 9.4774 0.0000
# 4 0.0000 0.0000 0.0000 17.4265 0.0000 -13.2510
# 5 3.7842 8.7733 9.4774 0.0000 34.6736 0.0000
# 6 0.0000 0.0000 0.0000 -13.2510 0.0000 4.7900
#
#
#
# Elastic Compliance Matrix: (Units=1/GPa)
#
#
# Indices 1 2 3 4 5 6 
#
# 1 0.007193 -0.001520 -0.002522 0.000000 0.000289 0.000000
# 2 -0.001520 0.020482 0.003068 0.000000 -0.005855 0.000000
# 3 -0.002522 0.003068 0.011333 0.000000 -0.003599 0.000000
# 4 0.000000 0.000000 0.000000 -0.051999 0.000000 -0.143850
# 5 0.000289 -0.005855 -0.003599 0.000000 0.031274 0.000000
# 6 0.000000 0.000000 0.000000 -0.143850 0.000000 -0.189178
#
#
# Mechanical properties :
#
#
# Convention : Reuss Voigt Hill
#
# Bulk Modulus (GPa) = 26.98219 40.83812 33.91015
# Shear Modulus (GPa) = -31.92983 29.79678 -1.06653
#
# Velocity S-wave (km/s) = -3.69325 3.56776 -0.67499
# Velocity P-wave (km/s) = 2.58075 5.86664 3.72540
#
# Compressibility (1/GPa) = 0.03706148
#
# Stress axis : x y z
#
# Youngs Moduli (GPa) = 139.02745 48.82272 88.23424
#
# Poissons Ratio (x) = 0.07420 0.22251
# Poissons Ratio (y) = 0.21130 -0.27071
# Poissons Ratio (z) = 0.35060 -0.14979
#
# Static dielectric constant tensor:
#      x y z
#    x 1.927350 0.000000 0.025280 
#    y 0.000000 1.872040 0.000000 
#    z 0.025280 0.000000 1.844260 
# 
# From -- ./inp_files/295810.got.cif
#   From: 2010.05.17/outbox.cif.g08.bks.cpg/sg12_148_cif.got.tgz:295810.got - 2010.06.03 13:09:07.
