data_PCOD9206192
_publ_section_title
;
Structure prediction by ZEFSAII (Michael W. Deem and Ramdas Pophale) SiO2 
 PCOD9206192
Probable space group: C 2/M
;
_chemical_formula_sum "Si O2"
_cell_formula_units_Z 58
_cell_length_a 24.827730
_cell_length_b 12.931610
_cell_length_c 15.873749
_cell_angle_alpha 90.000000
_cell_angle_beta 143.559823
_cell_angle_gamma 90.000000
_cell_volume 3027.214853
_symmetry_space_group_name_H-M "C 2/M"
_symmetry_group_IT_number 12
_symmetry_cell_setting 'monoclinic'
loop_
_space_group_symop_operation_xyz
x,y,z
-x,y,-z
-x,-y,-z
x,-y,z
1/2+x,1/2+y,z
1/2-x,1/2+y,-z
1/2-x,1/2-y,-z
1/2+x,1/2-y,z
loop_
_atom_site_type_symbol
_atom_site_label
_atom_site_fract_x
_atom_site_fract_y
_atom_site_fract_z
Si Si1 0.208168 0.784705 0.568386
Si Si2 0.796770 0.378276 0.210111
Si Si3 0.000000 0.000000 0.000000
Si Si4 0.077602 0.379398 0.777204
Si Si5 0.047715 0.615969 0.937064
Si Si6 0.844787 0.387281 0.627623
Si Si7 0.561694 0.256367 0.505262
Si Si8 0.139396 0.186462 0.125539
O O1 0.159739 0.707224 0.442456
O O2 0.259877 0.872680 0.582431
O O3 0.133707 0.821396 0.541839
O O4 0.286056 0.715248 0.710202
O O5 0.798841 0.500000 0.228524
O O6 0.827991 0.360183 0.153134
O O7 0.874527 0.324852 0.364607
O O8 0.699593 0.338611 0.118275
O O9 0.075207 0.908162 0.070154
O O10 0.052690 0.500000 0.729163
O O11 0.079567 0.368495 0.879992
O O12 0.004141 0.304980 0.641251
O O13 0.075685 0.500000 0.999571
O O14 0.938915 0.618572 0.795659
O O15 0.084928 0.708958 0.038436
O O16 0.841908 0.500000 0.581568
O O17 0.500000 0.308031 0.500000
#
# Coordination Sequence:
#
# PCOD9206192 Si02
#       8
#     8   8   2   8   8   8   8   8
#     4  10  21  36  56  86 112 142 184 234 278 336
#     4   9  17  30  50  82 114 147 183 225 278 342
#     4  12  24  40  54  76 114 160 182 228 276 350
#     4   9  16  29  52  81 113 144 184 230 281 329
#     4  10  21  38  58  84 112 151 190 235 281 330
#     4  10  21  37  59  82 110 143 186 235 282 328
#     4   9  16  28  52  82 112 143 178 229 286 331
#     4  11  23  37  56  82 117 153 190 224 285 343
#
# _framework density 19.159526
#
# number of rings (size 3 to 8) (size 9 to 14) (size 15 to 20)
#    0.000    2.207    2.069    1.241    0.966    3.310 
#    0.000    1.724    0.000    0.414    0.000    1.931 
#    0.000    0.000    0.000    0.000    0.000    0.000 
#
# Total GULP energy -161438.580600 kJ/mol
# GULP energy per Si atom -5566.847607 kJ/mol
# Density = 1.911592 g / cm^3
# Si number density = 19.159526 Si / 1000 Ang^3
#
#
#
# Elastic Constant Matrix: (Units=GPa)
#
#
# Indices 1 2 3 4 5 6 
#
# 1 104.5659 15.5806 22.6171 0.0000 23.0399 0.0000
# 2 15.5806 56.8817 21.5115 0.0000 5.7148 0.0000
# 3 22.6171 21.5115 39.0777 0.0000 17.2449 0.0000
# 4 0.0000 0.0000 0.0000 12.6143 0.0000 6.7539
# 5 23.0399 5.7148 17.2449 0.0000 26.1045 0.0000
# 6 0.0000 0.0000 0.0000 6.7539 0.0000 18.2092
#
#
#
# Elastic Compliance Matrix: (Units=1/GPa)
#
#
# Indices 1 2 3 4 5 6 
#
# 1 0.012271 -0.001607 -0.002249 0.000000 -0.008993 0.000000
# 2 -0.001607 0.022800 -0.014177 0.000000 0.005793 0.000000
# 3 -0.002249 -0.014177 0.045803 0.000000 -0.025170 0.000000
# 4 0.000000 0.000000 0.000000 0.098920 0.000000 -0.036690
# 5 -0.008993 0.005793 -0.025170 0.000000 0.061604 0.000000
# 6 0.000000 0.000000 0.000000 -0.036690 0.000000 0.068526
#
#
# Mechanical properties :
#
#
# Convention : Reuss Voigt Hill
#
# Bulk Modulus (GPa) = 22.31753 35.54931 28.93342
# Shear Modulus (GPa) = 13.85329 20.77334 17.31332
#
# Velocity S-wave (km/s) = 2.69188 3.29634 3.00932
# Velocity P-wave (km/s) = 4.61900 5.75173 5.21621
#
# Compressibility (1/GPa) = 0.04480782
#
# Stress axis : x y z
#
# Youngs Moduli (GPa) = 81.49524 43.85951 21.83258
#
# Poissons Ratio (x) = 0.07049 0.04910
# Poissons Ratio (y) = 0.13098 0.30952
# Poissons Ratio (z) = 0.18326 0.62180
#
# Static dielectric constant tensor:
#      x y z
#    x 1.750740 0.000000 0.007350 
#    y 0.000000 1.626600 0.000000 
#    z 0.007350 0.000000 1.644550 
# 
# From -- ./inp_files/293292.got.cif
#   From: 2010.05.17/outbox.cif.g08.bks.cpg/sg12_147_cif.got.tgz:293292.got - 2010.06.03 13:09:07.
