data_PCOD9206253
_publ_section_title
;
Structure prediction by ZEFSAII (Michael W. Deem and Ramdas Pophale) SiO2 
 PCOD9206253
Probable space group: C 2/M
;
_chemical_formula_sum "Si O2"
_cell_formula_units_Z 56
_cell_length_a 9.963546
_cell_length_b 10.089455
_cell_length_c 35.955717
_cell_angle_alpha 90.000000
_cell_angle_beta 56.082529
_cell_angle_gamma 90.000000
_cell_volume 2999.473951
_symmetry_space_group_name_H-M "C 2/M"
_symmetry_group_IT_number 12
_symmetry_cell_setting 'monoclinic'
loop_
_space_group_symop_operation_xyz
x,y,z
-x,y,-z
-x,-y,-z
x,-y,z
1/2+x,1/2+y,z
1/2-x,1/2+y,-z
1/2-x,1/2-y,-z
1/2+x,1/2-y,z
loop_
_atom_site_type_symbol
_atom_site_label
_atom_site_fract_x
_atom_site_fract_y
_atom_site_fract_z
Si Si1 0.579314 0.500000 0.047257
Si Si2 0.045161 0.345277 0.589588
Si Si3 0.566359 0.656814 0.733631
Si Si4 0.065474 0.766754 0.108448
Si Si5 0.217450 0.844122 0.163514
Si Si6 0.260456 0.000000 0.943854
Si Si7 0.434810 0.154348 0.691906
Si Si8 0.658264 0.845303 0.449910
O O1 0.587957 0.373210 0.072476
O O2 0.407605 0.500000 0.052779
O O3 0.715299 0.500000 0.994378
O O4 0.089228 0.500000 0.576391
O O5 0.197717 0.250242 0.560329
O O6 0.986195 0.331000 0.641004
O O7 0.902523 0.314842 0.582501
O O8 0.562805 0.500000 0.724397
O O9 0.425899 0.683567 0.785271
O O10 0.531986 0.747616 0.703417
O O11 0.743155 0.683357 0.723231
O O12 0.153731 0.814704 0.132032
O O13 0.140889 0.629454 0.082846
O O14 0.876466 0.742521 0.145885
O O15 0.258070 0.000000 0.160410
O O16 0.460591 0.000000 0.698474
O O17 0.500000 0.829318 0.500000
O O18 0.707951 0.000000 0.444046
#
# Coordination Sequence:
#
# PCOD9206253 Si02
#       8
#     4   8   8   8   8   4   8   8
#     4  11  24  41  63  89 121 159 193 237 295 339
#     4  10  21  36  57  83 116 154 190 244 291 346
#     4  10  22  40  60  85 115 154 188 242 287 351
#     4  12  22  42  62  89 118 157 191 241 285 347
#     4  11  23  39  62  88 120 149 195 235 294 343
#     4  11  24  41  61  93 123 151 197 243 283 341
#     4  10  21  39  58  85 117 148 196 238 294 345
#     4  10  21  37  57  85 117 154 199 241 289 344
#
# _framework density 18.66994
#
# number of rings (size 3 to 8) (size 9 to 14) (size 15 to 20)
#    0.000    1.429    2.857    2.571    0.000    3.143 
#    2.571    0.714    0.000    0.000    0.000    0.000 
#    0.000    0.000    0.000    0.000    0.000    0.000 
#
# Total GULP energy -156493.712882 kJ/mol
# GULP energy per Si atom -5589.061174 kJ/mol
# Density = 1.862745 g / cm^3
# Si number density = 18.669940 Si / 1000 Ang^3
#
#
#
# Elastic Constant Matrix: (Units=GPa)
#
#
# Indices 1 2 3 4 5 6 
#
# 1 40.3279 9.1794 -12.1986 0.0000 -3.3725 0.0000
# 2 9.1794 53.3245 9.4821 0.0000 5.7611 0.0000
# 3 -12.1986 9.4821 35.8364 0.0000 -0.1701 0.0000
# 4 0.0000 0.0000 0.0000 24.5642 0.0000 8.6239
# 5 -3.3725 5.7611 -0.1701 0.0000 28.6524 0.0000
# 6 0.0000 0.0000 0.0000 8.6239 0.0000 12.2505
#
#
#
# Elastic Compliance Matrix: (Units=1/GPa)
#
#
# Indices 1 2 3 4 5 6 
#
# 1 0.030953 -0.008170 0.012724 0.000000 0.005362 0.000000
# 2 -0.008170 0.022302 -0.008708 0.000000 -0.005498 0.000000
# 3 0.012724 -0.008708 0.034556 0.000000 0.003454 0.000000
# 4 0.000000 0.000000 0.000000 0.054074 0.000000 -0.038066
# 5 0.005362 -0.005498 0.003454 0.000000 0.036658 0.000000
# 6 0.000000 0.000000 0.000000 -0.038066 0.000000 0.108427
#
#
# Mechanical properties :
#
#
# Convention : Reuss Voigt Hill
#
# Bulk Modulus (GPa) = 12.57825 15.82386 14.20106
# Shear Modulus (GPa) = 15.53856 21.29515 18.41686
#
# Velocity S-wave (km/s) = 2.88805 3.38096 3.14418
# Velocity P-wave (km/s) = 4.22764 4.87187 4.56114
#
# Compressibility (1/GPa) = 0.07950230
#
# Stress axis : x y z
#
# Youngs Moduli (GPa) = 32.30653 44.83917 28.93839
#
# Poissons Ratio (x) = 0.36634 -0.36820
# Poissons Ratio (y) = 0.26395 0.25200
# Poissons Ratio (z) = -0.41106 0.39047
#
# Static dielectric constant tensor:
#      x y z
#    x 1.607640 0.000000 -0.005310 
#    y 0.000000 1.641040 0.000000 
#    z -0.005310 0.000000 1.640530 
# 
# From -- ./inp_files/372104.got.cif
#   From: 2010.05.17/outbox.cif.g08.bks.cpg/sg12_187_cif.got.tgz:372104.got - 2010.06.03 13:09:07.
