data_PCOD9206615
_publ_section_title
;
Structure prediction by ZEFSAII (Michael W. Deem and Ramdas Pophale) SiO2 
 PCOD9206615
Probable space group: C 2/M
;
_chemical_formula_sum "Si O2"
_cell_formula_units_Z 50
_cell_length_a 16.027022
_cell_length_b 9.868886
_cell_length_c 17.865588
_cell_angle_alpha 90.000000
_cell_angle_beta 52.392026
_cell_angle_gamma 90.000000
_cell_volume 2238.595908
_symmetry_space_group_name_H-M "C 2/M"
_symmetry_group_IT_number 12
_symmetry_cell_setting 'monoclinic'
loop_
_space_group_symop_operation_xyz
x,y,z
-x,y,-z
-x,-y,-z
x,-y,z
1/2+x,1/2+y,z
1/2-x,1/2+y,-z
1/2-x,1/2-y,-z
1/2+x,1/2-y,z
loop_
_atom_site_type_symbol
_atom_site_label
_atom_site_fract_x
_atom_site_fract_y
_atom_site_fract_z
Si Si1 0.755972 0.846012 0.231164
Si Si2 0.718973 0.348239 0.950832
Si Si3 0.564316 0.158385 0.541852
Si Si4 0.494484 0.265361 0.108336
Si Si5 0.517572 0.844391 0.727776
Si Si6 0.500000 0.000000 0.000000
Si Si7 0.230945 0.156706 0.382686
O O1 0.734647 0.814088 0.155935
O O2 0.718390 0.735620 0.310963
O O3 0.883401 0.840898 0.167209
O O4 0.719698 0.000000 0.268312
O O5 0.750705 0.500000 0.953025
O O6 0.750000 0.250000 0.000000
O O7 0.592234 0.339051 0.016260
O O8 0.500000 0.168142 0.500000
O O9 0.498267 0.194851 0.652293
O O10 0.662105 0.258627 0.478862
O O11 0.596409 0.000000 0.533351
O O12 0.522495 0.241548 0.180487
O O13 0.482821 0.120226 0.073508
O O14 0.645261 0.840450 0.665721
O O15 0.483765 0.000000 0.756047
O O16 0.198030 0.000000 0.396391
#
# Coordination Sequence:
#
# PCOD9206615 Si02
#       7
#     8   8   8   8   8   2   8
#     4  10  21  39  61  84 114 151 195 244 293 349
#     4  11  25  39  56  83 120 158 198 242 292 353
#     4  10  21  38  58  80 114 155 190 229 285 349
#     4  11  21  36  61  88 117 153 197 244 299 350
#     4   9  19  35  57  86 113 144 190 238 285 343
#     4  12  20  32  66  92 118 152 194 256 300 352
#     4  10  21  36  60  87 111 142 189 243 291 343
#
# _framework density 22.335429000000001
#
# number of rings (size 3 to 8) (size 9 to 14) (size 15 to 20)
#    0.000    1.760    2.400    1.440    2.240    3.520 
#    0.000    7.200    0.000    0.000    0.000    0.000 
#    0.000    0.000    0.000    0.000    0.000    0.000 
#
# Total GULP energy -139549.117680 kJ/mol
# GULP energy per Si atom -5581.964707 kJ/mol
# Density = 2.228459 g / cm^3
# Si number density = 22.335429 Si / 1000 Ang^3
#
#
#
# Elastic Constant Matrix: (Units=GPa)
#
#
# Indices 1 2 3 4 5 6 
#
# 1 62.0941 28.4256 16.9281 0.0000 15.7638 0.0000
# 2 28.4256 106.0798 50.6292 0.0000 11.6224 0.0000
# 3 16.9281 50.6292 140.3327 0.0000 23.2683 0.0000
# 4 0.0000 0.0000 0.0000 33.2285 0.0000 2.8480
# 5 15.7638 11.6224 23.2683 0.0000 52.8114 0.0000
# 6 0.0000 0.0000 0.0000 2.8480 0.0000 17.8254
#
#
#
# Elastic Compliance Matrix: (Units=1/GPa)
#
#
# Indices 1 2 3 4 5 6 
#
# 1 0.019469 -0.004770 0.000175 0.000000 -0.004839 0.000000
# 2 -0.004770 0.012584 -0.004036 0.000000 0.000433 0.000000
# 3 0.000175 -0.004036 0.009086 0.000000 -0.003167 0.000000
# 4 0.000000 0.000000 0.000000 0.030513 0.000000 -0.004875
# 5 -0.004839 0.000433 -0.003167 0.000000 0.021680 0.000000
# 6 0.000000 0.000000 0.000000 -0.004875 0.000000 0.056879
#
#
# Mechanical properties :
#
#
# Convention : Reuss Voigt Hill
#
# Bulk Modulus (GPa) = 41.88386 55.60804 48.74595
# Shear Modulus (GPa) = 28.50090 34.94130 31.72110
#
# Velocity S-wave (km/s) = 3.57605 3.95953 3.77266
# Velocity P-wave (km/s) = 5.98696 6.77161 6.39134
#
# Compressibility (1/GPa) = 0.02387555
#
# Stress axis : x y z
#
# Youngs Moduli (GPa) = 51.36351 79.46460 110.05620
#
# Poissons Ratio (x) = 0.37907 -0.01924
# Poissons Ratio (y) = 0.24502 0.44424
# Poissons Ratio (z) = -0.00898 0.32076
#
# Static dielectric constant tensor:
#      x y z
#    x 1.920110 0.000000 -0.007200 
#    y 0.000000 1.749340 0.000000 
#    z -0.007200 0.000000 1.824420 
# 
# From -- ./inp_files/274897.got.cif
#   From: 2010.05.17/outbox.cif.g08.bks.cpg/sg12_138_cif.got.tgz:274897.got - 2010.06.03 13:09:07.
