data_PCOD9206412
_publ_section_title
;
Structure prediction by ZEFSAII (Michael W. Deem and Ramdas Pophale) SiO2 
 PCOD9206412
Probable space group: C 2/M
;
_chemical_formula_sum "Si O2"
_cell_formula_units_Z 64
_cell_length_a 30.504540
_cell_length_b 9.405229
_cell_length_c 19.486515
_cell_angle_alpha 90.000000
_cell_angle_beta 37.671422
_cell_angle_gamma 90.000000
_cell_volume 3416.671942
_symmetry_space_group_name_H-M "C 2/M"
_symmetry_group_IT_number 12
_symmetry_cell_setting 'monoclinic'
loop_
_space_group_symop_operation_xyz
x,y,z
-x,y,-z
-x,-y,-z
x,-y,z
1/2+x,1/2+y,z
1/2-x,1/2+y,-z
1/2-x,1/2-y,-z
1/2+x,1/2-y,z
loop_
_atom_site_type_symbol
_atom_site_label
_atom_site_fract_x
_atom_site_fract_y
_atom_site_fract_z
Si Si1 0.080378 0.172832 0.918497
Si Si2 0.541466 0.834937 0.624343
Si Si3 0.797580 0.833531 0.341652
Si Si4 0.582417 0.162645 0.419582
Si Si5 0.897956 0.167230 0.814272
Si Si6 0.697842 0.668322 0.192876
Si Si7 0.155245 0.830941 0.966555
Si Si8 0.841155 0.834578 0.446963
O O1 0.141402 0.213804 0.787561
O O2 0.106869 0.213475 0.961685
O O3 0.077824 0.000000 0.919643
O O4 0.000000 0.223366 0.000000
O O5 0.583385 0.826544 0.500350
O O6 0.464025 0.764650 0.710647
O O7 0.586773 0.747206 0.623032
O O8 0.534498 0.000000 0.651695
O O9 0.827515 0.825774 0.382236
O O10 0.725701 0.740198 0.431961
O O11 0.780027 0.000000 0.349358
O O12 0.500000 0.185120 0.500000
O O13 0.634627 0.272738 0.319180
O O14 0.601713 0.000000 0.375660
O O15 0.829495 0.197567 0.850953
O O16 0.915732 0.000000 0.782260
O O17 0.882457 0.190953 0.913458
O O18 0.706771 0.500000 0.189333
O O19 0.770226 0.748230 0.122740
O O20 0.169200 0.000000 0.942177
O O21 0.845960 0.000000 0.459928
#
# Coordination Sequence:
#
# PCOD9206412 Si02
#       8
#     8   8   8   8   8   8   8   8
#     4   9  19  36  61  88 111 145 195 242 280 332
#     4  11  23  37  59  86 115 152 195 241 288 349
#     4   9  19  37  60  85 114 150 193 238 286 343
#     4  10  21  39  59  82 113 152 195 235 283 345
#     4  10  22  39  59  86 118 155 198 243 292 341
#     4  11  23  38  59  87 121 154 191 244 295 346
#     4  10  22  39  62  87 115 155 200 239 283 347
#     4  10  21  36  58  86 118 152 187 237 293 349
#
# _framework density 18.731677000000001
#
# number of rings (size 3 to 8) (size 9 to 14) (size 15 to 20)
#    0.000    2.000    1.250    1.500    3.500    2.750 
#    0.000    0.000    0.000    0.750    0.000    0.000 
#    0.000    0.000    0.000    0.000    0.000    0.000 
#
# Total GULP energy -178667.288978 kJ/mol
# GULP energy per Si atom -5583.352781 kJ/mol
# Density = 1.868904 g / cm^3
# Si number density = 18.731677 Si / 1000 Ang^3
#
#
#
# Elastic Constant Matrix: (Units=GPa)
#
#
# Indices 1 2 3 4 5 6 
#
# 1 112.5991 51.4641 43.2272 -0.0005 -9.7353 0.0005
# 2 51.4641 55.2799 40.5361 0.0075 -0.3540 -0.0026
# 3 43.2272 40.5361 81.3575 0.0036 4.0161 -0.0014
# 4 -0.0005 0.0075 0.0036 21.3190 -0.0037 -3.7704
# 5 -9.7353 -0.3540 4.0161 -0.0037 16.9064 0.0014
# 6 0.0005 -0.0026 -0.0014 -3.7704 0.0014 24.2166
#
#
#
# Elastic Compliance Matrix: (Units=1/GPa)
#
#
# Indices 1 2 3 4 5 6 
#
# 1 0.017174 -0.013962 -0.002673 0.000007 0.010232 -0.000001
# 2 -0.013962 0.040128 -0.012365 -0.000013 -0.004263 0.000002
# 3 -0.002673 -0.012365 0.020198 0.000000 -0.006596 0.000000
# 4 0.000007 -0.000013 0.000000 0.048235 0.000014 0.007510
# 5 0.010232 -0.004263 -0.006596 0.000014 0.066518 -0.000003
# 6 -0.000001 0.000002 0.000000 0.007510 -0.000003 0.042463
#
#
# Mechanical properties :
#
#
# Convention : Reuss Voigt Hill
#
# Bulk Modulus (GPa) = 51.28421 57.74348 54.51385
# Shear Modulus (GPa) = 16.71036 20.08902 18.39969
#
# Velocity S-wave (km/s) = 2.99003 3.27840 3.13753
# Velocity P-wave (km/s) = 6.27361 6.72489 6.50316
#
# Compressibility (1/GPa) = 0.01949918
#
# Stress axis : x y z
#
# Youngs Moduli (GPa) = 58.22925 24.92026 49.51012
#
# Poissons Ratio (x) = 0.34795 0.13234
# Poissons Ratio (y) = 0.81302 0.61217
# Poissons Ratio (z) = 0.15565 0.30813
#
# Static dielectric constant tensor:
#      x y z
#    x 1.656290 0.000000 0.015040 
#    y 0.000000 1.622550 0.000000 
#    z 0.015040 0.000000 1.628200 
# 
# From -- ./inp_files/295481.got.cif
#   From: 2010.05.17/outbox.cif.g08.bks.cpg/sg12_148_cif.got.tgz:295481.got - 2010.06.03 13:09:07.
