data_PCOD9206453
_publ_section_title
;
Structure prediction by ZEFSAII (Michael W. Deem and Ramdas Pophale) SiO2 
 PCOD9206453
Probable space group: C 2/M
;
_chemical_formula_sum "Si O2"
_cell_formula_units_Z 48
_cell_length_a 14.843952
_cell_length_b 9.132028
_cell_length_c 18.744255
_cell_angle_alpha 90.000000
_cell_angle_beta 96.477253
_cell_angle_gamma 90.000000
_cell_volume 2524.665531
_symmetry_space_group_name_H-M "C 2/M"
_symmetry_group_IT_number 12
_symmetry_cell_setting 'monoclinic'
loop_
_space_group_symop_operation_xyz
x,y,z
-x,y,-z
-x,-y,-z
x,-y,z
1/2+x,1/2+y,z
1/2-x,1/2+y,-z
1/2-x,1/2-y,-z
1/2+x,1/2-y,z
loop_
_atom_site_type_symbol
_atom_site_label
_atom_site_fract_x
_atom_site_fract_y
_atom_site_fract_z
Si Si1 0.602579 0.324365 0.488389
Si Si2 0.768718 0.674082 0.609884
Si Si3 0.277789 0.828517 0.248726
Si Si4 0.652440 0.675235 0.983703
Si Si5 0.895863 0.169702 0.861074
Si Si6 0.434689 0.174288 0.161756
O O1 0.500000 0.278964 0.500000
O O2 0.601150 0.500000 0.477165
O O3 0.676130 0.292891 0.557265
O O4 0.646639 0.247891 0.423296
O O5 0.780723 0.500000 0.611381
O O6 0.754762 0.736088 0.687383
O O7 0.205444 0.816182 0.178012
O O8 0.374171 0.783757 0.224426
O O9 0.281579 0.000000 0.269610
O O10 0.660744 0.500000 0.976271
O O11 0.602572 0.702162 0.054623
O O12 0.750000 0.750000 0.000000
O O13 0.603443 0.744784 0.911602
O O14 0.962238 0.274653 0.824083
O O15 0.923714 0.000000 0.853886
O O16 0.426286 0.000000 0.151854
#
# Coordination Sequence:
#
# PCOD9206453 Si02
#       6
#     8   8   8   8   8   8
#     4   9  19  38  62  86 115 152 187 223 276 337
#     4  10  21  36  58  89 117 144 189 235 274 328
#     4  10  22  41  58  77 117 158 187 227 286 345
#     4  11  21  37  60  83 111 148 194 244 294 346
#     4  10  22  40  58  80 111 151 193 236 291 349
#     4  11  23  39  58  85 114 148 194 241 292 346
#
# _framework density 19.012419999999999
#
# number of rings (size 3 to 8) (size 9 to 14) (size 15 to 20)
#    0.000    1.833    1.667    2.000    0.000    7.667 
#    0.000    5.000    0.000    0.000    0.000    0.000 
#    0.000    0.000    0.000    0.000    0.000    0.000 
#
# Total GULP energy -134029.366313 kJ/mol
# GULP energy per Si atom -5584.556930 kJ/mol
# Density = 1.896915 g / cm^3
# Si number density = 19.012420 Si / 1000 Ang^3
#
#
#
# Elastic Constant Matrix: (Units=GPa)
#
#
# Indices 1 2 3 4 5 6 
#
# 1 105.2195 39.0696 18.7284 0.0000 -34.3266 0.0000
# 2 39.0696 42.2002 36.8869 0.0000 -21.5291 0.0000
# 3 18.7284 36.8869 83.2103 0.0000 -30.1124 0.0000
# 4 0.0000 0.0000 0.0000 27.2066 0.0000 -1.3941
# 5 -34.3266 -21.5291 -30.1124 0.0000 26.1266 0.0000
# 6 0.0000 0.0000 0.0000 -1.3941 0.0000 33.2420
#
#
#
# Elastic Compliance Matrix: (Units=1/GPa)
#
#
# Indices 1 2 3 4 5 6 
#
# 1 0.025457 -0.018949 0.015652 0.000000 0.035871 0.000000
# 2 -0.018949 0.060715 -0.023252 0.000000 -0.001665 0.000000
# 3 0.015652 -0.023252 0.033128 0.000000 0.039585 0.000000
# 4 0.000000 0.000000 0.000000 0.036835 0.000000 0.001545
# 5 0.035871 -0.001665 0.039585 0.000000 0.129658 0.000000
# 6 0.000000 0.000000 0.000000 0.001545 0.000000 0.030147
#
#
# Mechanical properties :
#
#
# Convention : Reuss Voigt Hill
#
# Bulk Modulus (GPa) = 15.10558 46.66666 30.88612
# Shear Modulus (GPa) = 12.78424 26.37802 19.58113
#
# Velocity S-wave (km/s) = 2.59591 3.72884 3.21271
# Velocity P-wave (km/s) = 4.11672 6.56792 5.48110
#
# Compressibility (1/GPa) = 0.06620069
#
# Stress axis : x y z
#
# Youngs Moduli (GPa) = 39.28243 16.47029 30.18596
#
# Poissons Ratio (x) = 0.31209 -0.47246
# Poissons Ratio (y) = 0.74436 0.70190
# Poissons Ratio (z) = -0.61483 0.38298
#
# Static dielectric constant tensor:
#      x y z
#    x 1.685900 0.000000 0.012140 
#    y 0.000000 1.632080 0.000000 
#    z 0.012140 0.000000 1.641340 
# 
# From -- ./inp_files/267609.got.cif
#   From: 2010.05.17/outbox.cif.g08.bks.cpg/sg12_134_cif.got.tgz:267609.got - 2010.06.03 13:09:07.
