data_PCOD9206233
_publ_section_title
;
Structure prediction by ZEFSAII (Michael W. Deem and Ramdas Pophale) SiO2 
 PCOD9206233
Probable space group: C 2/M
;
_chemical_formula_sum "Si O2"
_cell_formula_units_Z 40
_cell_length_a 22.058095
_cell_length_b 7.411467
_cell_length_c 13.293138
_cell_angle_alpha 90.000000
_cell_angle_beta 48.487144
_cell_angle_gamma 90.000000
_cell_volume 1627.307420
_symmetry_space_group_name_H-M "C 2/M"
_symmetry_group_IT_number 12
_symmetry_cell_setting 'monoclinic'
loop_
_space_group_symop_operation_xyz
x,y,z
-x,y,-z
-x,-y,-z
x,-y,z
1/2+x,1/2+y,z
1/2-x,1/2+y,-z
1/2-x,1/2-y,-z
1/2+x,1/2-y,z
loop_
_atom_site_type_symbol
_atom_site_label
_atom_site_fract_x
_atom_site_fract_y
_atom_site_fract_z
Si Si1 0.162293 0.714997 0.647606
Si Si2 0.969077 0.281221 0.368858
Si Si3 0.718441 0.284342 0.923811
Si Si4 0.415031 0.707180 0.060968
Si Si5 0.384327 0.219715 0.671539
O O1 0.155481 0.500000 0.663163
O O2 0.250000 0.750000 0.500000
O O3 0.087189 0.781620 0.660508
O O4 0.145931 0.790347 0.776864
O O5 0.970767 0.500000 0.360055
O O6 0.923847 0.232002 0.522356
O O7 0.060695 0.220955 0.293714
O O8 0.713661 0.500000 0.916274
O O9 0.633266 0.209922 0.979442
O O10 0.793025 0.215703 0.775325
O O11 0.750000 0.250000 0.000000
O O12 0.434193 0.500000 0.012615
O O13 0.500000 0.792211 0.000000
O O14 0.384185 0.000000 0.674950
#
# Coordination Sequence:
#
# PCOD9206233 Si02
#       5
#     8   8   8   8   8
#     4  11  22  36  59  88 118 155 200 247 298 356
#     4   8  15  28  50  79 106 137 179 231 283 334
#     4  10  21  36  57  81 110 152 195 238 287 344
#     4  10  23  42  60  84 123 165 200 241 299 361
#     4   8  14  28  50  76 106 137 180 231 278 331
#
# _framework density 24.580480999999999
#
# number of rings (size 3 to 8) (size 9 to 14) (size 15 to 20)
#    0.000    2.600    0.000    3.000    2.800    4.400 
#    0.000    0.000    0.000    0.000    0.000    5.600 
#    0.000    0.000    0.000    0.000    0.000    0.000 
#
# Total GULP energy -111684.435386 kJ/mol
# GULP energy per Si atom -5584.221769 kJ/mol
# Density = 2.452453 g / cm^3
# Si number density = 24.580481 Si / 1000 Ang^3
#
#
#
# Elastic Constant Matrix: (Units=GPa)
#
#
# Indices 1 2 3 4 5 6 
#
# 1 223.9949 4.0138 33.4737 -0.0001 -19.4816 0.0000
# 2 4.0138 92.2982 -12.1026 -0.0014 -8.2877 0.0006
# 3 33.4737 -12.1026 55.8688 -0.0004 -11.2761 0.0002
# 4 -0.0001 -0.0014 -0.0004 7.3794 0.0001 7.0479
# 5 -19.4816 -8.2877 -11.2761 0.0001 40.6069 0.0000
# 6 0.0000 0.0006 0.0002 7.0479 0.0000 1.9377
#
#
#
# Elastic Compliance Matrix: (Units=1/GPa)
#
#
# Indices 1 2 3 4 5 6 
#
# 1 0.005024 -0.000447 -0.002796 0.000000 0.001543 0.000000
# 2 -0.000447 0.011577 0.003400 -0.000002 0.003093 0.000005
# 3 -0.002796 0.003400 0.021378 -0.000002 0.005289 0.000004
# 4 0.000000 -0.000002 -0.000002 -0.054776 -0.000001 0.199238
# 5 0.001543 0.003093 0.005289 -0.000001 0.027467 0.000001
# 6 0.000000 0.000005 0.000004 0.199238 0.000001 -0.208608
#
#
# Mechanical properties :
#
#
# Convention : Reuss Voigt Hill
#
# Bulk Modulus (GPa) = 26.11319 46.99240 36.55280
# Shear Modulus (GPa) = -26.95607 33.10326 3.07359
#
# Velocity S-wave (km/s) = -3.31516 3.67376 1.11944
# Velocity P-wave (km/s) = 2.00177 6.09546 4.07109
#
# Compressibility (1/GPa) = 0.03829483
#
# Stress axis : x y z
#
# Youngs Moduli (GPa) = 199.02995 86.37553 46.77700
#
# Poissons Ratio (x) = 0.03857 0.13077
# Poissons Ratio (y) = 0.08887 -0.15903
# Poissons Ratio (z) = 0.55641 -0.29365
#
# Static dielectric constant tensor:
#      x y z
#    x 1.813710 0.000000 -0.032410 
#    y 0.000000 1.933440 0.000000 
#    z -0.032410 0.000000 1.964170 
# 
# From -- ./inp_files/229648.got.cif
#   From: 2010.05.17/outbox.cif.g08.bks.cpg/sg12_115_cif.got.tgz:229648.got - 2010.06.03 13:09:07.
