data_PCOD9206888
_publ_section_title
;
Structure prediction by ZEFSAII (Michael W. Deem and Ramdas Pophale) SiO2 
 PCOD9206888
Probable space group: C 2/M
;
_chemical_formula_sum "Si O2"
_cell_formula_units_Z 56
_cell_length_a 9.732646
_cell_length_b 21.389277
_cell_length_c 15.565743
_cell_angle_alpha 90.000000
_cell_angle_beta 75.490268
_cell_angle_gamma 90.000000
_cell_volume 3137.035222
_symmetry_space_group_name_H-M "C 2/M"
_symmetry_group_IT_number 12
_symmetry_cell_setting 'monoclinic'
loop_
_space_group_symop_operation_xyz
x,y,z
-x,y,-z
-x,-y,-z
x,-y,z
1/2+x,1/2+y,z
1/2-x,1/2+y,-z
1/2-x,1/2-y,-z
1/2+x,1/2-y,z
loop_
_atom_site_type_symbol
_atom_site_label
_atom_site_fract_x
_atom_site_fract_y
_atom_site_fract_z
Si Si1 0.678176 0.673825 0.060084
Si Si2 0.360906 0.427128 0.287598
Si Si3 0.560539 0.129042 0.756059
Si Si4 0.250820 0.130781 0.857610
Si Si5 0.839028 0.926152 0.790091
Si Si6 0.557726 0.075392 0.395551
Si Si7 0.390234 0.248595 0.142677
O O1 0.664338 0.614015 0.123042
O O2 0.538797 0.717419 0.095539
O O3 0.815251 0.711733 0.074949
O O4 0.698513 0.647175 0.961225
O O5 0.364912 0.500000 0.306932
O O6 0.332580 0.417252 0.189871
O O7 0.518597 0.402983 0.281066
O O8 0.221665 0.403609 0.358227
O O9 0.414934 0.112173 0.829322
O O10 0.695171 0.088886 0.763160
O O11 0.527763 0.114007 0.662586
O O12 0.589467 0.199503 0.783832
O O13 0.220590 0.197064 0.815352
O O14 0.850282 0.000000 0.804312
O O15 0.500000 0.084375 0.500000
O O16 0.549141 0.000000 0.377429
#
# Coordination Sequence:
#
# PCOD9206888 Si02
#       7
#     8   8   8   8   8   8   8
#     4  11  23  34  54  80 112 153 198 239 270 315
#     4   9  19  35  56  81 110 146 183 228 284 337
#     4  10  22  35  55  80 111 146 179 232 285 327
#     4  11  21  34  51  78 109 149 196 234 268 320
#     4  10  21  37  54  80 115 148 185 232 286 332
#     4   9  18  37  64  89 111 139 180 226 278 347
#     4  11  21  34  50  79 111 147 192 233 268 318
#
# _framework density 17.851251000000001
#
# number of rings (size 3 to 8) (size 9 to 14) (size 15 to 20)
#    0.000    1.857    2.857    1.286    2.000    2.857 
#    0.000    2.857    0.000    6.857    0.000    0.000 
#    0.000    0.000    0.000    0.000    0.000    0.000 
#
# Total GULP energy -155983.062320 kJ/mol
# GULP energy per Si atom -5570.823654 kJ/mol
# Density = 1.781062 g / cm^3
# Si number density = 17.851251 Si / 1000 Ang^3
#
#
#
# Elastic Constant Matrix: (Units=GPa)
#
#
# Indices 1 2 3 4 5 6 
#
# 1 146.3966 31.4412 51.1377 0.0000 -16.8746 0.0000
# 2 31.4412 37.8641 31.7577 0.0000 -4.5983 0.0000
# 3 51.1377 31.7577 101.1911 0.0000 -5.9522 0.0000
# 4 0.0000 0.0000 0.0000 19.3590 0.0000 -2.2927
# 5 -16.8746 -4.5983 -5.9522 0.0000 12.7969 0.0000
# 6 0.0000 0.0000 0.0000 -2.2927 0.0000 29.6393
#
#
#
# Elastic Compliance Matrix: (Units=1/GPa)
#
#
# Indices 1 2 3 4 5 6 
#
# 1 0.010048 -0.004546 -0.003051 0.000000 0.010197 0.000000
# 2 -0.004546 0.038689 -0.009643 0.000000 0.003422 0.000000
# 3 -0.003051 -0.009643 0.014404 0.000000 -0.000789 0.000000
# 4 0.000000 0.000000 0.000000 0.052133 0.000000 0.004033
# 5 0.010197 0.003422 -0.000789 0.000000 0.092453 0.000000
# 6 0.000000 0.000000 0.000000 0.004033 0.000000 0.034051
#
#
# Mechanical properties :
#
#
# Convention : Reuss Voigt Hill
#
# Bulk Modulus (GPa) = 34.89207 57.12500 46.00854
# Shear Modulus (GPa) = 17.49385 23.76671 20.63028
#
# Velocity S-wave (km/s) = 3.13386 3.65276 3.40321
# Velocity P-wave (km/s) = 5.71692 7.06118 6.42431
#
# Compressibility (1/GPa) = 0.02865981
#
# Stress axis : x y z
#
# Youngs Moduli (GPa) = 99.51779 25.84720 69.42311
#
# Poissons Ratio (x) = 0.11751 0.21184
# Poissons Ratio (y) = 0.45242 0.66947
# Poissons Ratio (z) = 0.30368 0.24925
#
# Static dielectric constant tensor:
#      x y z
#    x 1.676090 0.000000 -0.017180 
#    y 0.000000 1.632570 0.000000 
#    z -0.017180 0.000000 1.591660 
# 
# From -- ./inp_files/198385.got.cif
#   From: 2010.05.17/outbox.cif.g08.bks.cpg/sg12_100_cif.got.tgz:198385.got - 2010.06.03 13:09:07.
