data_PCOD9206700
_publ_section_title
;
Structure prediction by ZEFSAII (Michael W. Deem and Ramdas Pophale) SiO2 
 PCOD9206700
Probable space group: C 2/M
;
_chemical_formula_sum "Si O2"
_cell_formula_units_Z 64
_cell_length_a 21.727654
_cell_length_b 18.683979
_cell_length_c 24.164670
_cell_angle_alpha 90.000000
_cell_angle_beta 159.587699
_cell_angle_gamma 90.000000
_cell_volume 3421.419021
_symmetry_space_group_name_H-M "C 2/M"
_symmetry_group_IT_number 12
_symmetry_cell_setting 'monoclinic'
loop_
_space_group_symop_operation_xyz
x,y,z
-x,y,-z
-x,-y,-z
x,-y,z
1/2+x,1/2+y,z
1/2-x,1/2+y,-z
1/2-x,1/2-y,-z
1/2+x,1/2-y,z
loop_
_atom_site_type_symbol
_atom_site_label
_atom_site_fract_x
_atom_site_fract_y
_atom_site_fract_z
Si Si1 0.876189 0.914889 0.690515
Si Si2 0.675013 0.831470 0.434180
Si Si3 0.649024 0.839522 0.289654
Si Si4 0.048661 0.812715 0.599651
Si Si5 0.333314 0.190728 0.220747
Si Si6 0.888805 0.210669 0.074061
Si Si7 0.864396 0.414710 0.835729
Si Si8 0.006340 0.583793 0.440268
O O1 0.813648 0.885418 0.578320
O O2 0.704199 0.898816 0.584417
O O3 0.042551 0.865983 0.846927
O O4 0.908535 0.000000 0.718779
O O5 0.750000 0.750000 0.500000
O O6 0.615717 0.861472 0.324766
O O7 0.504172 0.824587 0.327670
O O8 0.558436 0.761954 0.211778
O O9 0.583999 0.883783 0.181461
O O10 0.860457 0.835916 0.464422
O O11 0.142024 0.761288 0.721734
O O12 0.179077 0.877372 0.694785
O O13 0.000000 0.775541 0.500000
O O14 0.348998 0.126414 0.277617
O O15 0.184586 0.200567 0.049649
O O16 0.750000 0.250000 0.000000
O O17 0.847788 0.500000 0.818152
O O18 0.000000 0.397825 0.000000
O O19 0.982354 0.500000 0.408941
O O20 0.000000 0.596694 0.500000
#
# Coordination Sequence:
#
# PCOD9206700 Si02
#       8
#     8   8   8   8   8   8   8   8
#     4  10  22  39  60  88 124 161 202 259 316 374
#     4  11  18  37  62  86 118 156 207 260 308 367
#     4  11  21  37  64  87 118 159 211 254 308 373
#     4  10  21  36  61  88 115 155 209 256 297 368
#     4  11  20  33  59  87 118 156 202 248 305 364
#     4  12  23  38  59  88 126 168 203 253 315 374
#     4  10  23  44  64  89 128 164 202 262 325 378
#     4   9  19  38  62  87 118 155 197 251 313 371
#
# _framework density 18.705690000000001
#
# number of rings (size 3 to 8) (size 9 to 14) (size 15 to 20)
#    0.000    1.500    3.750    1.875    0.000    4.250 
#    0.000    3.750    0.000    2.250    0.000    0.000 
#    0.000    0.000    0.000    0.000    0.000    0.000 
#
# Total GULP energy -178311.166993 kJ/mol
# GULP energy per Si atom -5572.223969 kJ/mol
# Density = 1.866311 g / cm^3
# Si number density = 18.705690 Si / 1000 Ang^3
#
#
#
# Elastic Constant Matrix: (Units=GPa)
#
#
# Indices 1 2 3 4 5 6 
#
# 1 80.1752 39.9680 18.9452 0.0027 -24.5346 -0.0001
# 2 39.9680 95.5718 44.2625 0.0374 -11.8719 0.0165
# 3 18.9452 44.2625 73.6173 0.0627 -26.4506 0.0097
# 4 0.0027 0.0374 0.0627 22.3978 -0.0006 2.8624
# 5 -24.5346 -11.8719 -26.4506 -0.0006 39.2529 -0.0091
# 6 -0.0001 0.0165 0.0097 2.8624 -0.0091 22.1687
#
#
#
# Elastic Compliance Matrix: (Units=1/GPa)
#
#
# Indices 1 2 3 4 5 6 
#
# 1 0.019721 -0.008930 0.004952 -0.000002 0.012962 0.000010
# 2 -0.008930 0.018661 -0.011743 0.000004 -0.007851 -0.000013
# 3 0.004952 -0.011743 0.025341 -0.000053 0.016620 0.000011
# 4 -0.000002 0.000004 -0.000053 0.045396 -0.000037 -0.005861
# 5 0.012962 -0.007851 0.016620 -0.000037 0.042402 0.000021
# 6 0.000010 -0.000013 0.000011 -0.005861 0.000021 0.045865
#
#
# Mechanical properties :
#
#
# Convention : Reuss Voigt Hill
#
# Bulk Modulus (GPa) = 30.97839 50.63507 40.80673
# Shear Modulus (GPa) = 20.86891 26.50979 23.68935
#
# Velocity S-wave (km/s) = 3.34375 3.76866 3.56255
# Velocity P-wave (km/s) = 5.61288 6.78713 6.22775
#
# Compressibility (1/GPa) = 0.03228057
#
# Stress axis : x y z
#
# Youngs Moduli (GPa) = 50.70708 53.58711 39.46147
#
# Poissons Ratio (x) = 0.47855 -0.19539
# Poissons Ratio (y) = 0.45283 0.46338
# Poissons Ratio (z) = -0.25108 0.62925
#
# Static dielectric constant tensor:
#      x y z
#    x 1.694890 0.000440 -0.018240 
#    y 0.000440 1.542630 -0.000330 
#    z -0.018240 -0.000330 1.661130 
# 
# From -- ./inp_files/347904.got.cif
#   From: 2010.05.17/outbox.cif.g08.bks.cpg/sg12_174_cif.got.tgz:347904.got - 2010.06.03 13:09:07.
