data_PCOD9206013
_publ_section_title
;
Structure prediction by ZEFSAII (Michael W. Deem and Ramdas Pophale) SiO2 
 PCOD9206013
Probable space group: C 2/M
;
_chemical_formula_sum "Si O2"
_cell_formula_units_Z 56
_cell_length_a 14.766722
_cell_length_b 9.226113
_cell_length_c 18.548098
_cell_angle_alpha 90.000000
_cell_angle_beta 94.815473
_cell_angle_gamma 90.000000
_cell_volume 2518.062913
_symmetry_space_group_name_H-M "C 2/M"
_symmetry_group_IT_number 12
_symmetry_cell_setting 'monoclinic'
loop_
_space_group_symop_operation_xyz
x,y,z
-x,y,-z
-x,-y,-z
x,-y,z
1/2+x,1/2+y,z
1/2-x,1/2+y,-z
1/2-x,1/2-y,-z
1/2+x,1/2-y,z
loop_
_atom_site_type_symbol
_atom_site_label
_atom_site_fract_x
_atom_site_fract_y
_atom_site_fract_z
Si Si1 0.412446 0.172833 0.816816
Si Si2 0.402801 0.669155 0.218473
Si Si3 0.337932 0.162606 0.090841
Si Si4 0.847373 0.168277 0.679266
Si Si5 0.128306 0.163266 0.040192
Si Si6 0.689821 0.833174 0.554296
Si Si7 0.035416 0.832226 0.616576
O O1 0.506537 0.247560 0.799897
O O2 0.346393 0.232153 0.749477
O O3 0.393990 0.233389 0.894762
O O4 0.414269 0.000000 0.815797
O O5 0.402506 0.500000 0.198123
O O6 0.330068 0.755712 0.166504
O O7 0.406863 0.675496 0.304904
O O8 0.237373 0.147893 0.052407
O O9 0.376084 0.000000 0.101308
O O10 0.393080 0.260810 0.037486
O O11 0.754154 0.171057 0.629394
O O12 0.932807 0.211292 0.632986
O O13 0.866646 0.000000 0.702041
O O14 0.091130 0.000000 0.045190
O O15 0.750000 0.750000 0.500000
O O16 0.592790 0.760561 0.564022
O O17 0.677790 0.000000 0.532342
O O18 0.031754 0.000000 0.593108
#
# Coordination Sequence:
#
# PCOD9206013 Si02
#       7
#     8   8   8   8   8   8   8
#     4  11  22  36  58  86 114 147 195 246 290 346
#     4  10  21  38  59  83 115 153 192 237 297 357
#     4  10  21  36  55  81 112 148 195 246 292 347
#     4   9  21  42  63  87 122 165 201 242 302 364
#     4  10  21  37  55  78 113 153 192 239 298 355
#     4  11  24  41  64  93 125 159 201 243 294 358
#     4   9  20  40  63  88 121 159 202 246 296 356
#
# _framework density 22.239315999999999
#
# number of rings (size 3 to 8) (size 9 to 14) (size 15 to 20)
#    0.000    2.000    0.000    3.857    2.000    6.857 
#    0.000    5.714    0.000    0.000    0.000    0.000 
#    0.000    0.000    0.000    0.000    0.000    0.000 
#
# Total GULP energy -156438.944975 kJ/mol
# GULP energy per Si atom -5587.105178 kJ/mol
# Density = 2.218870 g / cm^3
# Si number density = 22.239316 Si / 1000 Ang^3
#
#
#
# Elastic Constant Matrix: (Units=GPa)
#
#
# Indices 1 2 3 4 5 6 
#
# 1 42.7257 18.0647 9.3218 0.0000 -11.3893 0.0000
# 2 18.0647 138.5695 29.6792 0.0000 -16.9140 0.0000
# 3 9.3218 29.6792 41.7636 0.0000 -10.7627 0.0000
# 4 0.0000 0.0000 0.0000 17.7849 0.0000 -10.3041
# 5 -11.3893 -16.9140 -10.7627 0.0000 37.7968 0.0000
# 6 0.0000 0.0000 0.0000 -10.3041 0.0000 20.2953
#
#
#
# Elastic Compliance Matrix: (Units=1/GPa)
#
#
# Indices 1 2 3 4 5 6 
#
# 1 0.026578 -0.002094 -0.002829 0.000000 0.006266 0.000000
# 2 -0.002094 0.008859 -0.005362 0.000000 0.001806 0.000000
# 3 -0.002829 -0.005362 0.029730 0.000000 0.005213 0.000000
# 4 0.000000 0.000000 0.000000 0.079660 0.000000 0.040444
# 5 0.006266 0.001806 0.005213 0.000000 0.030638 0.000000
# 6 0.000000 0.000000 0.000000 0.040444 0.000000 0.069806
#
#
# Mechanical properties :
#
#
# Convention : Reuss Voigt Hill
#
# Bulk Modulus (GPa) = 22.42403 37.46558 29.94480
# Shear Modulus (GPa) = 17.81213 26.24161 22.02687
#
# Velocity S-wave (km/s) = 2.83314 3.43879 3.15055
# Velocity P-wave (km/s) = 4.56149 5.71403 5.16998
#
# Compressibility (1/GPa) = 0.04459502
#
# Stress axis : x y z
#
# Youngs Moduli (GPa) = 37.62499 112.88461 33.63588
#
# Poissons Ratio (x) = 0.23638 0.09517
# Poissons Ratio (y) = 0.07879 0.18037
# Poissons Ratio (z) = 0.10646 0.60534
#
# Static dielectric constant tensor:
#      x y z
#    x 1.908010 0.000000 0.059110 
#    y 0.000000 1.783810 0.000000 
#    z 0.059110 0.000000 1.844460 
# 
# From -- ./inp_files/308931.got.cif
#   From: 2010.05.17/outbox.cif.g08.bks.cpg/sg12_155_cif.got.tgz:308931.got - 2010.06.03 13:09:07.
