data_PCOD9206421
_publ_section_title
;
Structure prediction by ZEFSAII (Michael W. Deem and Ramdas Pophale) SiO2 
 PCOD9206421
Probable space group: C 2/M
;
_chemical_formula_sum "Si O2"
_cell_formula_units_Z 40
_cell_length_a 19.642233
_cell_length_b 9.273492
_cell_length_c 31.947186
_cell_angle_alpha 90.000000
_cell_angle_beta 20.753499
_cell_angle_gamma 90.000000
_cell_volume 2062.039281
_symmetry_space_group_name_H-M "C 2/M"
_symmetry_group_IT_number 12
_symmetry_cell_setting 'monoclinic'
loop_
_space_group_symop_operation_xyz
x,y,z
-x,y,-z
-x,-y,-z
x,-y,z
1/2+x,1/2+y,z
1/2-x,1/2+y,-z
1/2-x,1/2-y,-z
1/2+x,1/2-y,z
loop_
_atom_site_type_symbol
_atom_site_label
_atom_site_fract_x
_atom_site_fract_y
_atom_site_fract_z
Si Si1 0.014011 0.327902 0.728009
Si Si2 0.341709 0.670451 0.126143
Si Si3 0.751053 0.166462 0.738171
Si Si4 0.385230 0.834990 0.891179
Si Si5 0.420647 0.172414 0.498621
O O1 0.053175 0.500000 0.710034
O O2 0.212171 0.242549 0.612021
O O3 0.869060 0.309187 0.772930
O O4 0.900983 0.280121 0.834910
O O5 0.367877 0.500000 0.120509
O O6 0.348518 0.763399 0.164108
O O7 0.500000 0.708320 0.000000
O O8 0.597600 0.168480 0.788747
O O9 0.932552 0.258570 0.618894
O O10 0.803371 0.000000 0.716219
O O11 0.317560 0.000000 0.928369
O O12 0.250000 0.750000 0.000000
O O13 0.500000 0.203888 0.500000
O O14 0.412310 0.000000 0.498774
#
# Coordination Sequence:
#
# PCOD9206421 Si02
#       5
#     8   8   8   8   8
#     4  10  21  39  62  87 119 160 200 245 300 355
#     4  10  22  41  64  89 123 163 201 246 298 355
#     4  11  23  39  62  89 121 160 199 248 302 357
#     4  10  21  36  58  87 116 153 200 246 297 353
#     4  11  23  39  62  91 121 156 200 253 304 355
#
# _framework density 19.398273
#
# number of rings (size 3 to 8) (size 9 to 14) (size 15 to 20)
#    0.000    1.600    2.000    2.400    0.000    6.800 
#    0.000    0.000    0.000    0.000    0.000    0.000 
#    0.000    0.000    0.000    0.000    0.000    0.000 
#
# Total GULP energy -111763.470673 kJ/mol
# GULP energy per Si atom -5588.173534 kJ/mol
# Density = 1.935412 g / cm^3
# Si number density = 19.398273 Si / 1000 Ang^3
#
#
#
# Elastic Constant Matrix: (Units=GPa)
#
#
# Indices 1 2 3 4 5 6 
#
# 1 50.0287 15.3106 -12.3188 -0.0012 4.7972 0.0023
# 2 15.3106 53.4752 26.7891 -0.0070 0.2403 0.0046
# 3 -12.3188 26.7891 72.6852 -0.0163 -0.5575 -0.0026
# 4 -0.0012 -0.0070 -0.0163 37.2204 -0.0033 0.5468
# 5 4.7972 0.2403 -0.5575 -0.0033 34.7910 0.0000
# 6 0.0023 0.0046 -0.0026 0.5468 0.0000 26.5661
#
#
#
# Elastic Compliance Matrix: (Units=1/GPa)
#
#
# Indices 1 2 3 4 5 6 
#
# 1 0.026095 -0.011846 0.008763 0.000002 -0.003376 0.000001
# 2 -0.011846 0.028316 -0.012434 0.000000 0.001239 -0.000005
# 3 0.008763 -0.012434 0.019820 0.000006 -0.000805 0.000003
# 4 0.000002 0.000000 0.000006 0.026875 0.000002 -0.000553
# 5 -0.003376 0.001239 -0.000805 0.000002 0.029187 0.000000
# 6 0.000001 -0.000005 0.000003 -0.000553 0.000000 0.037653
#
#
# Mechanical properties :
#
#
# Convention : Reuss Voigt Hill
#
# Bulk Modulus (GPa) = 23.15056 26.19455 24.67255
# Shear Modulus (GPa) = 23.43237 29.47602 26.45420
#
# Velocity S-wave (km/s) = 3.47935 3.90233 3.69689
# Velocity P-wave (km/s) = 5.30107 5.81696 5.56500
#
# Compressibility (1/GPa) = 0.04319549
#
# Stress axis : x y z
#
# Youngs Moduli (GPa) = 38.32099 35.31628 50.45471
#
# Poissons Ratio (x) = 0.41836 -0.44213
# Poissons Ratio (y) = 0.45396 0.62737
# Poissons Ratio (z) = -0.33580 0.43913
#
# Static dielectric constant tensor:
#      x y z
#    x 1.673390 0.000000 -0.006250 
#    y 0.000000 1.655840 0.000010 
#    z -0.006250 0.000010 1.658230 
# 
# From -- ./inp_files/229635.got.cif
#   From: 2010.05.17/outbox.cif.g08.bks.cpg/sg12_115_cif.got.tgz:229635.got - 2010.06.03 13:09:07.
