data_PCOD9206085
_publ_section_title
;
Structure prediction by ZEFSAII (Michael W. Deem and Ramdas Pophale) SiO2 
 PCOD9206085
Probable space group: C 2/M
;
_chemical_formula_sum "Si O2"
_cell_formula_units_Z 64
_cell_length_a 18.046762
_cell_length_b 16.033976
_cell_length_c 10.593616
_cell_angle_alpha 90.000000
_cell_angle_beta 100.320936
_cell_angle_gamma 90.000000
_cell_volume 3015.784006
_symmetry_space_group_name_H-M "C 2/M"
_symmetry_group_IT_number 12
_symmetry_cell_setting 'monoclinic'
loop_
_space_group_symop_operation_xyz
x,y,z
-x,y,-z
-x,-y,-z
x,-y,z
1/2+x,1/2+y,z
1/2-x,1/2+y,-z
1/2-x,1/2-y,-z
1/2+x,1/2-y,z
loop_
_atom_site_type_symbol
_atom_site_label
_atom_site_fract_x
_atom_site_fract_y
_atom_site_fract_z
Si Si1 0.587640 0.092372 0.494665
Si Si2 0.669488 0.094788 0.271760
Si Si3 0.380821 0.597558 0.749741
Si Si4 0.380994 0.245176 0.324967
Si Si5 0.246568 0.302372 0.124682
Si Si6 0.353181 0.592949 0.017060
Si Si7 0.835014 0.903894 0.451797
Si Si8 0.515538 0.279526 0.867610
O O1 0.500000 0.090731 0.500000
O O2 0.604001 0.106246 0.352699
O O3 0.620861 0.168900 0.580899
O O4 0.619929 0.000000 0.534829
O O5 0.671204 0.167473 0.168382
O O6 0.749403 0.103006 0.372442
O O7 0.665020 0.000000 0.221510
O O8 0.407933 0.500000 0.755844
O O9 0.331795 0.604553 0.863432
O O10 0.339859 0.611300 0.603887
O O11 0.446784 0.664905 0.792760
O O12 0.300451 0.253274 0.234467
O O13 0.386649 0.334542 0.398674
O O14 0.445140 0.232696 0.237859
O O15 0.250000 0.250000 0.000000
O O16 0.287094 0.388267 0.094611
O O17 0.381390 0.500000 0.040961
O O18 0.419374 0.655280 0.071901
O O19 0.859000 0.000000 0.435218
O O20 0.500000 0.236712 0.000000
#
# Coordination Sequence:
#
# PCOD9206085 Si02
#       8
#     8   8   8   8   8   8   8   8
#     4  10  23  43  64  84 107 147 207 263 304 341
#     4   9  19  39  62  83 114 152 187 237 300 353
#     4   9  17  28  47  80 116 151 187 218 257 327
#     4  10  22  37  57  83 113 150 190 237 296 344
#     4  10  21  36  55  86 117 146 186 231 288 359
#     4   9  17  31  50  73 109 154 191 222 262 328
#     4   9  19  33  54  89 125 150 179 223 287 365
#     4   9  18  32  49  75 112 154 187 220 265 335
#
# _framework density 21.221679000000002
#
# number of rings (size 3 to 8) (size 9 to 14) (size 15 to 20)
#    0.000    2.625    0.000    0.750    1.750    9.000 
#    4.500    3.750    0.000    0.375    0.000    0.000 
#    0.000    0.000    0.000    0.000    0.000    0.000 
#
# Total GULP energy -178440.615686 kJ/mol
# GULP energy per Si atom -5576.269240 kJ/mol
# Density = 2.117338 g / cm^3
# Si number density = 21.221679 Si / 1000 Ang^3
#
#
#
# Elastic Constant Matrix: (Units=GPa)
#
#
# Indices 1 2 3 4 5 6 
#
# 1 37.2709 16.1503 11.9328 0.0000 -22.2692 0.0000
# 2 16.1503 80.7976 42.7430 0.0000 -7.7409 0.0000
# 3 11.9328 42.7430 71.5421 0.0000 -6.8234 0.0000
# 4 0.0000 0.0000 0.0000 37.0913 0.0000 -7.6184
# 5 -22.2692 -7.7409 -6.8234 0.0000 33.9876 0.0000
# 6 0.0000 0.0000 0.0000 -7.6184 0.0000 17.5073
#
#
#
# Elastic Compliance Matrix: (Units=1/GPa)
#
#
# Indices 1 2 3 4 5 6 
#
# 1 0.047464 -0.005796 -0.001645 0.000000 0.029449 0.000000
# 2 -0.005796 0.018937 -0.010499 0.000000 -0.001592 0.000000
# 3 -0.001645 -0.010499 0.020588 0.000000 0.000664 0.000000
# 4 0.000000 0.000000 0.000000 0.029607 0.000000 0.012883
# 5 0.029449 -0.001592 0.000664 0.000000 0.048489 0.000000
# 6 0.000000 0.000000 0.000000 0.012883 0.000000 0.062725
#
#
# Mechanical properties :
#
#
# Convention : Reuss Voigt Hill
#
# Bulk Modulus (GPa) = 19.56595 36.80700 28.18648
# Shear Modulus (GPa) = 17.81096 25.63622 21.72359
#
# Velocity S-wave (km/s) = 2.90018 3.47943 3.20293
# Velocity P-wave (km/s) = 4.52267 5.78996 5.19510
#
# Compressibility (1/GPa) = 0.05110919
#
# Stress axis : x y z
#
# Youngs Moduli (GPa) = 21.06842 52.80782 48.57160
#
# Poissons Ratio (x) = 0.30605 0.07992
# Poissons Ratio (y) = 0.12210 0.50995
# Poissons Ratio (z) = 0.03467 0.55442
#
# Static dielectric constant tensor:
#      x y z
#    x 1.785350 0.000000 -0.035070 
#    y 0.000000 1.829750 0.000000 
#    z -0.035070 0.000000 1.831060 
# 
# From -- ./inp_files/87973.got.cif
#   From: 2010.05.17/outbox.cif.g08.bks.cpg/sg12_44_cif.got.tgz:87973.got - 2010.06.03 13:09:07.
