data_PCOD9206829
_publ_section_title
;
Structure prediction by ZEFSAII (Michael W. Deem and Ramdas Pophale) SiO2 
 PCOD9206829
Probable space group: C 2/M
;
_chemical_formula_sum "Si O2"
_cell_formula_units_Z 52
_cell_length_a 18.381475
_cell_length_b 21.281373
_cell_length_c 7.782065
_cell_angle_alpha 90.000000
_cell_angle_beta 128.508218
_cell_angle_gamma 90.000000
_cell_volume 2382.153098
_symmetry_space_group_name_H-M "C 2/M"
_symmetry_group_IT_number 12
_symmetry_cell_setting 'monoclinic'
loop_
_space_group_symop_operation_xyz
x,y,z
-x,y,-z
-x,-y,-z
x,-y,z
1/2+x,1/2+y,z
1/2-x,1/2+y,-z
1/2-x,1/2-y,-z
1/2+x,1/2-y,z
loop_
_atom_site_type_symbol
_atom_site_label
_atom_site_fract_x
_atom_site_fract_y
_atom_site_fract_z
Si Si1 0.053528 0.927102 0.260104
Si Si2 0.132610 0.882236 0.896261
Si Si3 0.744819 0.780469 0.804244
Si Si4 0.605567 0.894501 0.597869
Si Si5 0.394924 0.072400 0.799946
Si Si6 0.783056 0.147091 0.355237
Si Si7 0.237261 0.500000 0.883417
O O1 0.147362 0.886772 0.409548
O O2 0.976314 0.895359 0.267490
O O3 0.073612 0.000000 0.336253
O O4 0.000000 0.926527 0.000000
O O5 0.172679 0.869168 0.765074
O O6 0.163695 0.824429 0.063991
O O7 0.184110 0.945025 0.034552
O O8 0.659121 0.828575 0.673201
O O9 0.729750 0.722083 0.655424
O O10 0.750000 0.750000 0.000000
O O11 0.500000 0.887428 0.500000
O O12 0.385906 0.922987 0.580860
O O13 0.658641 0.944409 0.794261
O O14 0.317406 0.115809 0.770367
O O15 0.379576 0.000000 0.829341
O O16 0.500000 0.090790 0.000000
#
# Coordination Sequence:
#
# PCOD9206829 Si02
#       7
#     8   8   8   8   8   8   4
#     4  11  25  41  66 101 135 172 225 283 343 401
#     4  10  22  41  70  95 133 177 227 278 340 413
#     4   9  23  44  68  95 132 176 228 275 338 403
#     4  11  24  41  70  97 135 182 229 281 340 404
#     4  11  27  43  66 104 140 175 226 281 339 404
#     4  11  25  45  68  96 139 181 223 284 340 404
#     4  10  21  36  69  99 129 171 233 272 342 402
#
# _framework density 21.828992
#
# number of rings (size 3 to 8) (size 9 to 14) (size 15 to 20)
#    0.000    1.538    1.538    1.154   12.923    3.692 
#    0.000    0.000    0.000    0.000    0.000    0.000 
#    0.000    0.000    0.000    0.000    0.000    0.000 
#
# Total GULP energy -144838.619580 kJ/mol
# GULP energy per Si atom -5570.716138 kJ/mol
# Density = 2.177931 g / cm^3
# Si number density = 21.828992 Si / 1000 Ang^3
#
#
#
# Elastic Constant Matrix: (Units=GPa)
#
#
# Indices 1 2 3 4 5 6 
#
# 1 79.7350 45.1626 25.3163 0.0000 7.0424 0.0000
# 2 45.1626 184.8462 66.9619 0.0000 26.0140 0.0000
# 3 25.3163 66.9619 74.7581 0.0000 24.8839 0.0000
# 4 0.0000 0.0000 0.0000 42.8700 0.0000 1.0536
# 5 7.0424 26.0140 24.8839 0.0000 40.6493 0.0000
# 6 0.0000 0.0000 0.0000 1.0536 0.0000 13.9025
#
#
#
# Elastic Compliance Matrix: (Units=1/GPa)
#
#
# Indices 1 2 3 4 5 6 
#
# 1 0.014930 -0.002717 -0.002939 0.000000 0.000951 0.000000
# 2 -0.002717 0.008531 -0.006355 0.000000 -0.001098 0.000000
# 3 -0.002939 -0.006355 0.023286 0.000000 -0.009678 0.000000
# 4 0.000000 0.000000 0.000000 0.023370 0.000000 -0.001771
# 5 0.000951 -0.001098 -0.009678 0.000000 0.031063 0.000000
# 6 0.000000 0.000000 0.000000 -0.001771 0.000000 0.072064
#
#
# Mechanical properties :
#
#
# Convention : Reuss Voigt Hill
#
# Bulk Modulus (GPa) = 44.00710 68.24678 56.12694
# Shear Modulus (GPa) = 24.40935 32.94425 28.67680
#
# Velocity S-wave (km/s) = 3.34759 3.88905 3.62844
# Velocity P-wave (km/s) = 5.92836 7.17624 6.58194
#
# Compressibility (1/GPa) = 0.02272361
#
# Stress axis : x y z
#
# Youngs Moduli (GPa) = 66.98145 117.22631 42.94466
#
# Poissons Ratio (x) = 0.31849 0.12621
# Poissons Ratio (y) = 0.18198 0.27293
# Poissons Ratio (z) = 0.19685 0.74501
#
# Static dielectric constant tensor:
#      x y z
#    x 1.848370 0.000000 -0.061110 
#    y 0.000000 1.820790 0.000000 
#    z -0.061110 0.000000 1.868510 
# 
# From -- ./inp_files/78093.got.cif
#   From: 2010.05.17/outbox.cif.g08.bks.cpg/sg12_40_cif.got.tgz:78093.got - 2010.06.03 13:09:07.
