data_PCOD9206851
_publ_section_title
;
Structure prediction by ZEFSAII (Michael W. Deem and Ramdas Pophale) SiO2 
 PCOD9206851
Probable space group: C 2/M
;
_chemical_formula_sum "Si O2"
_cell_formula_units_Z 56
_cell_length_a 17.891437
_cell_length_b 17.962259
_cell_length_c 9.147469
_cell_angle_alpha 90.000000
_cell_angle_beta 78.306678
_cell_angle_gamma 90.000000
_cell_volume 2878.718013
_symmetry_space_group_name_H-M "C 2/M"
_symmetry_group_IT_number 12
_symmetry_cell_setting 'monoclinic'
loop_
_space_group_symop_operation_xyz
x,y,z
-x,y,-z
-x,-y,-z
x,-y,z
1/2+x,1/2+y,z
1/2-x,1/2+y,-z
1/2-x,1/2-y,-z
1/2+x,1/2-y,z
loop_
_atom_site_type_symbol
_atom_site_label
_atom_site_fract_x
_atom_site_fract_y
_atom_site_fract_z
Si Si1 0.168356 0.166977 0.249118
Si Si2 0.293233 0.800907 0.602201
Si Si3 0.436880 0.806977 0.141847
Si Si4 0.687916 0.910686 0.655668
Si Si5 0.682650 0.317822 0.918888
Si Si6 0.564422 0.585476 0.862964
Si Si7 0.997641 0.814953 0.673144
O O1 0.149140 0.241596 0.350697
O O2 0.229922 0.116243 0.309096
O O3 0.081712 0.143042 0.253203
O O4 0.206371 0.186579 0.078067
O O5 0.250000 0.750000 0.500000
O O6 0.317427 0.873564 0.504043
O O7 0.241520 0.815748 0.763219
O O8 0.380578 0.870254 0.227528
O O9 0.380816 0.745856 0.088279
O O10 0.482920 0.762028 0.250492
O O11 0.500000 0.832919 0.000000
O O12 0.682946 0.000000 0.658014
O O13 0.642479 0.397605 0.913625
O O14 0.550628 0.500000 0.841179
O O15 0.562443 0.630641 0.713197
O O16 0.500000 0.615005 0.000000
O O17 0.000000 0.809082 0.500000
#
# Coordination Sequence:
#
# PCOD9206851 Si02
#       7
#     8   8   8   8   8   8   8
#     4  11  21  38  65  95 118 156 212 270 300 360
#     4  10  21  37  62  86 121 158 199 253 306 363
#     4  11  21  41  66  90 122 169 212 260 311 367
#     4  11  26  43  61  93 132 169 205 252 321 383
#     4  11  19  37  63  92 116 155 212 257 304 360
#     4  10  21  37  53  80 127 165 191 234 305 375
#     4  11  22  35  62  94 121 158 214 263 308 362
#
# _framework density 19.453105000000001
#
# number of rings (size 3 to 8) (size 9 to 14) (size 15 to 20)
#    0.000    1.286    5.714    2.143    6.000    2.286 
#    0.000    0.000    0.000    3.857    0.000    0.000 
#    0.000    0.000    0.000    0.000    0.000    0.000 
#
# Total GULP energy -155953.888931 kJ/mol
# GULP energy per Si atom -5569.781748 kJ/mol
# Density = 1.940883 g / cm^3
# Si number density = 19.453105 Si / 1000 Ang^3
#
#
#
# Elastic Constant Matrix: (Units=GPa)
#
#
# Indices 1 2 3 4 5 6 
#
# 1 56.2517 28.6892 27.7695 0.0000 -11.2113 0.0000
# 2 28.6892 113.0438 50.0589 0.0000 -2.4153 0.0000
# 3 27.7695 50.0589 132.9559 0.0000 6.3765 0.0000
# 4 0.0000 0.0000 0.0000 18.0158 0.0000 -3.3572
# 5 -11.2113 -2.4153 6.3765 0.0000 35.5555 0.0000
# 6 0.0000 0.0000 0.0000 -3.3572 0.0000 19.7833
#
#
#
# Elastic Compliance Matrix: (Units=1/GPa)
#
#
# Indices 1 2 3 4 5 6 
#
# 1 0.023218 -0.004101 -0.003675 0.000000 0.007701 0.000000
# 2 -0.004101 0.011415 -0.003446 0.000000 0.000100 0.000000
# 3 -0.003675 -0.003446 0.009737 0.000000 -0.003139 0.000000
# 4 0.000000 0.000000 0.000000 0.057319 0.000000 0.009727
# 5 0.007701 0.000100 -0.003139 0.000000 0.031123 0.000000
# 6 0.000000 0.000000 0.000000 0.009727 0.000000 0.052198
#
#
# Mechanical properties :
#
#
# Convention : Reuss Voigt Hill
#
# Bulk Modulus (GPa) = 45.60692 57.25407 51.43050
# Shear Modulus (GPa) = 23.28156 27.71985 25.50071
#
# Velocity S-wave (km/s) = 3.46324 3.77896 3.62454
# Velocity P-wave (km/s) = 6.28391 6.96681 6.63415
#
# Compressibility (1/GPa) = 0.02192650
#
# Stress axis : x y z
#
# Youngs Moduli (GPa) = 43.07076 87.60391 102.70227
#
# Poissons Ratio (x) = 0.35922 0.37741
# Poissons Ratio (y) = 0.17661 0.35393
# Poissons Ratio (z) = 0.15828 0.30190
#
# Static dielectric constant tensor:
#      x y z
#    x 1.739140 0.000000 -0.018910 
#    y 0.000000 1.685900 0.000000 
#    z -0.018910 0.000000 1.721040 
# 
# From -- ./inp_files/87226.got.cif
#   From: 2010.05.17/outbox.cif.g08.bks.cpg/sg12_44_cif.got.tgz:87226.got - 2010.06.03 13:09:07.
