data_PCOD9206411
_publ_section_title
;
Structure prediction by ZEFSAII (Michael W. Deem and Ramdas Pophale) SiO2 
 PCOD9206411
Probable space group: C 2/M
;
_chemical_formula_sum "Si O2"
_cell_formula_units_Z 64
_cell_length_a 12.567690
_cell_length_b 27.387918
_cell_length_c 17.347204
_cell_angle_alpha 90.000000
_cell_angle_beta 33.166692
_cell_angle_gamma 90.000000
_cell_volume 3266.571555
_symmetry_space_group_name_H-M "C 2/M"
_symmetry_group_IT_number 12
_symmetry_cell_setting 'monoclinic'
loop_
_space_group_symop_operation_xyz
x,y,z
-x,y,-z
-x,-y,-z
x,-y,z
1/2+x,1/2+y,z
1/2-x,1/2+y,-z
1/2-x,1/2-y,-z
1/2+x,1/2-y,z
loop_
_atom_site_type_symbol
_atom_site_label
_atom_site_fract_x
_atom_site_fract_y
_atom_site_fract_z
Si Si1 0.212973 0.558022 0.334757
Si Si2 0.944137 0.144663 0.662185
Si Si3 0.105629 0.057931 0.195013
Si Si4 0.796098 0.355181 0.340450
Si Si5 0.289192 0.584682 0.122840
Si Si6 0.296680 0.794368 0.081286
Si Si7 0.795188 0.314476 0.902234
Si Si8 0.959602 0.553596 0.862036
O O1 0.229493 0.500000 0.307074
O O2 0.403724 0.569513 0.271286
O O3 0.215552 0.587777 0.254069
O O4 0.000000 0.565527 0.500000
O O5 0.883883 0.093172 0.737676
O O6 0.825354 0.162518 0.659229
O O7 0.886409 0.183881 0.761715
O O8 0.159969 0.138460 0.497205
O O9 0.100738 0.000000 0.216273
O O10 0.296599 0.066040 0.025497
O O11 0.975698 0.320990 0.252798
O O12 0.883765 0.405295 0.252036
O O13 0.301980 0.637604 0.074733
O O14 0.156358 0.553059 0.148065
O O15 0.500000 0.561816 0.000000
O O16 0.285565 0.735876 0.081549
O O17 0.500000 0.808728 0.000000
O O18 0.283479 0.813869 0.002059
O O19 0.039929 0.500000 0.831637
#
# Coordination Sequence:
#
# PCOD9206411 Si02
#       8
#     8   8   8   8   8   8   8   8
#     4  10  22  37  55  85 125 167 202 240 298 357
#     4  11  23  40  64  86 120 164 193 247 304 357
#     4  10  22  38  58  89 122 159 209 250 295 354
#     4  10  23  41  60  88 122 155 201 243 303 357
#     4  11  20  35  59  84 122 150 199 249 292 350
#     4  11  22  42  69  89 119 152 195 246 304 361
#     4  10  23  40  64  95 115 152 199 245 298 362
#     4  10  21  36  58  86 117 158 203 250 294 348
#
# _framework density 19.592407000000001
#
# number of rings (size 3 to 8) (size 9 to 14) (size 15 to 20)
#    0.000    1.625    2.500    2.250    3.500    2.000 
#    0.000    2.500    2.750    0.000    0.000    0.000 
#    0.000    0.000    0.000    0.000    0.000    0.000 
#
# Total GULP energy -178480.132496 kJ/mol
# GULP energy per Si atom -5577.504141 kJ/mol
# Density = 1.954781 g / cm^3
# Si number density = 19.592407 Si / 1000 Ang^3
#
#
#
# Elastic Constant Matrix: (Units=GPa)
#
#
# Indices 1 2 3 4 5 6 
#
# 1 55.2280 7.1070 26.7136 0.0163 7.9229 -0.0096
# 2 7.1070 69.4517 26.3655 -0.0034 14.6054 -0.0001
# 3 26.7136 26.3655 124.5151 0.0186 7.3471 0.0003
# 4 0.0163 -0.0034 0.0186 11.5422 -0.0133 -3.9857
# 5 7.9229 14.6054 7.3471 -0.0133 25.9282 0.0010
# 6 -0.0096 -0.0001 0.0003 -3.9857 0.0010 9.9891
#
#
#
# Elastic Compliance Matrix: (Units=1/GPa)
#
#
# Indices 1 2 3 4 5 6 
#
# 1 0.020894 0.000657 -0.004295 -0.000025 -0.005538 0.000011
# 2 0.000657 0.017506 -0.003309 0.000000 -0.009124 0.000002
# 3 -0.004295 -0.003309 0.009627 -0.000013 0.000449 -0.000010
# 4 -0.000025 0.000000 -0.000013 0.100483 0.000062 0.040093
# 5 -0.005538 -0.009124 0.000449 0.000062 0.045273 0.000014
# 6 0.000011 0.000002 -0.000010 0.040093 0.000014 0.116106
#
#
# Mechanical properties :
#
#
# Convention : Reuss Voigt Hill
#
# Bulk Modulus (GPa) = 29.29767 41.06300 35.18033
# Shear Modulus (GPa) = 14.91815 22.09248 18.50532
#
# Velocity S-wave (km/s) = 2.76239 3.36162 3.07663
# Velocity P-wave (km/s) = 5.01602 6.00595 5.53317
#
# Compressibility (1/GPa) = 0.03413241
#
# Stress axis : x y z
#
# Youngs Moduli (GPa) = 47.86032 57.12183 103.87564
#
# Poissons Ratio (x) = -0.03752 0.44615
# Poissons Ratio (y) = -0.03144 0.34377
# Poissons Ratio (z) = 0.20556 0.18904
#
# Static dielectric constant tensor:
#      x y z
#    x 1.693690 0.000000 -0.015120 
#    y 0.000000 1.701290 -0.000010 
#    z -0.015120 -0.000010 1.703700 
# 
# From -- ./inp_files/209862.got.cif
#   From: 2010.05.17/outbox.cif.g08.bks.cpg/sg12_105_cif.got.tgz:209862.got - 2010.06.03 13:09:07.
