data_PCOD9206577
_publ_section_title
;
Structure prediction by ZEFSAII (Michael W. Deem and Ramdas Pophale) SiO2 
 PCOD9206577
Probable space group: C 2/M
;
_chemical_formula_sum "Si O2"
_cell_formula_units_Z 64
_cell_length_a 15.155224
_cell_length_b 24.725990
_cell_length_c 13.254765
_cell_angle_alpha 90.000000
_cell_angle_beta 40.693219
_cell_angle_gamma 90.000000
_cell_volume 3238.481753
_symmetry_space_group_name_H-M "C 2/M"
_symmetry_group_IT_number 12
_symmetry_cell_setting 'monoclinic'
loop_
_space_group_symop_operation_xyz
x,y,z
-x,y,-z
-x,-y,-z
x,-y,z
1/2+x,1/2+y,z
1/2-x,1/2+y,-z
1/2-x,1/2-y,-z
1/2+x,1/2-y,z
loop_
_atom_site_type_symbol
_atom_site_label
_atom_site_fract_x
_atom_site_fract_y
_atom_site_fract_z
Si Si1 0.755660 0.111389 0.348606
Si Si2 0.870048 0.657757 0.184087
Si Si3 0.852229 0.737364 0.819972
Si Si4 0.644685 0.281663 0.821122
Si Si5 0.264188 0.935467 0.858839
Si Si6 0.411552 0.649187 0.676919
Si Si7 0.985846 0.937101 0.779704
Si Si8 0.517197 0.870849 0.708336
O O1 0.823238 0.170752 0.283461
O O2 0.735134 0.090259 0.252867
O O3 0.616391 0.116348 0.529794
O O4 0.863948 0.073292 0.309422
O O5 0.851992 0.721346 0.226246
O O6 0.741406 0.641144 0.229652
O O7 0.898527 0.625414 0.261326
O O8 0.000000 0.654339 0.000000
O O9 0.760118 0.717611 0.806701
O O10 0.919048 0.793718 0.729015
O O11 0.956241 0.689859 0.755242
O O12 0.750000 0.750000 0.000000
O O13 0.500000 0.289979 0.000000
O O14 0.387765 0.909918 0.814276
O O15 0.278058 0.000000 0.838971
O O16 0.123133 0.923442 0.038039
O O17 0.500000 0.652177 0.500000
O O18 0.457017 0.601642 0.710920
O O19 0.967310 0.000000 0.770054
#
# Coordination Sequence:
#
# PCOD9206577 Si02
#       8
#     8   8   8   8   8   8   8   8
#     4  12  25  38  63  97 137 164 209 273 331 391
#     4  10  22  42  62  89 130 170 212 261 316 385
#     4  11  23  39  65  94 133 178 218 261 316 398
#     4  10  21  36  59  91 128 173 212 255 314 387
#     4  11  24  44  68  93 129 174 222 267 319 395
#     4  11  25  42  66  97 129 167 217 278 326 378
#     4  11  25  46  70  94 123 175 229 270 326 393
#     4  12  25  40  65  98 131 176 209 268 334 386
#
# _framework density 19.762346999999998
#
# number of rings (size 3 to 8) (size 9 to 14) (size 15 to 20)
#    0.000    1.000    1.250    6.375    7.000    3.250 
#    0.000    0.625    0.000    2.250    0.000    0.000 
#    0.000    0.000    0.000    0.000    0.000    0.000 
#
# Total GULP energy -179038.457426 kJ/mol
# GULP energy per Si atom -5594.951795 kJ/mol
# Density = 1.971737 g / cm^3
# Si number density = 19.762347 Si / 1000 Ang^3
#
#
#
# Elastic Constant Matrix: (Units=GPa)
#
#
# Indices 1 2 3 4 5 6 
#
# 1 49.4847 16.3685 -3.3010 0.0000 0.8028 0.0000
# 2 16.3685 70.8484 34.7754 0.0000 13.3041 0.0000
# 3 -3.3010 34.7754 84.6833 0.0001 8.3100 0.0000
# 4 0.0000 0.0000 0.0001 -12.7328 0.0000 4.8869
# 5 0.8028 13.3041 8.3100 0.0000 33.8944 0.0000
# 6 0.0000 0.0000 0.0000 4.8869 0.0000 31.3726
#
#
#
# Elastic Compliance Matrix: (Units=1/GPa)
#
#
# Indices 1 2 3 4 5 6 
#
# 1 0.022895 -0.007425 0.003800 0.000000 0.001441 0.000000
# 2 -0.007425 0.021061 -0.008345 0.000000 -0.006045 0.000000
# 3 0.003800 -0.008345 0.015443 0.000000 -0.000601 0.000000
# 4 0.000000 0.000000 0.000000 -0.074107 0.000000 0.011543
# 5 0.001441 -0.006045 -0.000601 0.000000 0.031989 0.000000
# 6 0.000000 0.000000 0.000000 0.011543 0.000000 0.030077
#
#
# Mechanical properties :
#
#
# Convention : Reuss Voigt Hill
#
# Bulk Modulus (GPa) = 28.20207 33.41135 30.80671
# Shear Modulus (GPa) = 60.15553 20.98509 40.57031
#
# Velocity S-wave (km/s) = 5.52318 3.26217 4.53582
# Velocity P-wave (km/s) = 7.41456 5.57963 6.56155
#
# Compressibility (1/GPa) = 0.03545838
#
# Stress axis : x y z
#
# Youngs Moduli (GPa) = 43.67857 47.48005 64.75534
#
# Poissons Ratio (x) = 0.35255 -0.24609
# Poissons Ratio (y) = 0.32433 0.54040
# Poissons Ratio (z) = -0.16599 0.39623
#
# Static dielectric constant tensor:
#      x y z
#    x 1.699010 0.000000 0.002950 
#    y 0.000000 1.686640 0.000000 
#    z 0.002950 0.000000 1.657860 
# 
# From -- ./inp_files/149768.got.cif
#   From: 2010.05.17/outbox.cif.g08.bks.cpg/sg12_75_cif.got.tgz:149768.got - 2010.06.03 13:09:07.
