data_PCOD9206224
_publ_section_title
;
Structure prediction by ZEFSAII (Michael W. Deem and Ramdas Pophale) SiO2 
 PCOD9206224
Probable space group: C 2/M
;
_chemical_formula_sum "Si O2"
_cell_formula_units_Z 42
_cell_length_a 15.452258
_cell_length_b 14.842113
_cell_length_c 9.410185
_cell_angle_alpha 90.000000
_cell_angle_beta 115.178771
_cell_angle_gamma 90.000000
_cell_volume 1953.111810
_symmetry_space_group_name_H-M "C 2/M"
_symmetry_group_IT_number 12
_symmetry_cell_setting 'monoclinic'
loop_
_space_group_symop_operation_xyz
x,y,z
-x,y,-z
-x,-y,-z
x,-y,z
1/2+x,1/2+y,z
1/2-x,1/2+y,-z
1/2-x,1/2-y,-z
1/2+x,1/2-y,z
loop_
_atom_site_type_symbol
_atom_site_label
_atom_site_fract_x
_atom_site_fract_y
_atom_site_fract_z
Si Si1 0.500000 0.000000 0.500000
Si Si2 0.852058 0.643086 0.506402
Si Si3 0.524596 0.390774 0.858571
Si Si4 0.201821 0.897577 0.822908
Si Si5 0.402343 0.890532 0.862596
Si Si6 0.145280 0.146835 0.477555
O O1 0.584728 0.921090 0.547503
O O2 0.898614 0.632974 0.695099
O O3 0.851966 0.748585 0.473688
O O4 0.740323 0.619769 0.454722
O O5 0.529812 0.500000 0.864368
O O6 0.626943 0.354461 0.877736
O O7 0.444938 0.367668 0.685932
O O8 0.500000 0.360395 0.000000
O O9 0.305819 0.855555 0.869163
O O10 0.151448 0.902310 0.632914
O O11 0.219478 0.000000 0.884787
O O12 0.400181 0.000000 0.867722
O O13 0.500000 0.859307 0.000000
#
# Coordination Sequence:
#
# PCOD9206224 Si02
#       6
#     2   8   8   8   8   8
#     4  12  24  40  58  96 130 160 210 272 310 376
#     4  10  23  39  58  89 120 158 206 257 309 375
#     4  10  21  36  56  89 121 153 201 263 316 364
#     4   9  18  34  60  87 112 154 207 251 301 374
#     4   9  17  35  58  80 113 154 198 246 305 368
#     4  10  21  39  64  83 120 164 205 251 309 375
#
# _framework density 21.504145000000001
#
# number of rings (size 3 to 8) (size 9 to 14) (size 15 to 20)
#    0.000    2.286    0.952    1.143    5.333    2.286 
#    3.429    0.000    0.000    4.571    0.000    0.000 
#    0.000    0.000    0.000    0.000    0.000    0.000 
#
# Total GULP energy -116914.447124 kJ/mol
# GULP energy per Si atom -5567.354625 kJ/mol
# Density = 2.145520 g / cm^3
# Si number density = 21.504145 Si / 1000 Ang^3
#
#
#
# Elastic Constant Matrix: (Units=GPa)
#
#
# Indices 1 2 3 4 5 6 
#
# 1 103.3121 28.8276 40.1288 0.0000 -3.1173 0.0000
# 2 28.8276 70.5212 -8.3736 0.0000 -3.3318 0.0000
# 3 40.1288 -8.3736 61.3516 0.0000 20.7015 0.0000
# 4 0.0000 0.0000 0.0000 26.8568 0.0000 11.0318
# 5 -3.1173 -3.3318 20.7015 0.0000 24.1229 0.0000
# 6 0.0000 0.0000 0.0000 11.0318 0.0000 24.0959
#
#
#
# Elastic Compliance Matrix: (Units=1/GPa)
#
#
# Indices 1 2 3 4 5 6 
#
# 1 0.022527 -0.010981 -0.023512 0.000000 0.021572 0.000000
# 2 -0.010981 0.019770 0.013285 0.000000 -0.010089 0.000000
# 3 -0.023512 0.013285 0.047714 0.000000 -0.042150 0.000000
# 4 0.000000 0.000000 0.000000 0.045859 0.000000 -0.020995
# 5 0.021572 -0.010089 -0.042150 0.000000 0.079020 0.000000
# 6 0.000000 0.000000 0.000000 -0.020995 0.000000 0.051113
#
#
# Mechanical properties :
#
#
# Convention : Reuss Voigt Hill
#
# Bulk Modulus (GPa) = 21.01069 39.59449 30.30259
# Shear Modulus (GPa) = 15.41862 26.65525 21.03694
#
# Velocity S-wave (km/s) = 2.68060 3.52453 3.13113
# Velocity P-wave (km/s) = 4.40143 5.91739 5.21479
#
# Compressibility (1/GPa) = 0.04759482
#
# Stress axis : x y z
#
# Youngs Moduli (GPa) = 44.39117 50.58222 20.95830
#
# Poissons Ratio (x) = 0.55545 0.49277
# Poissons Ratio (y) = 0.48747 -0.27844
# Poissons Ratio (z) = 1.04372 -0.67200
#
# Static dielectric constant tensor:
#      x y z
#    x 1.823010 0.000000 -0.001240 
#    y 0.000000 1.764520 0.000000 
#    z -0.001240 0.000000 1.739560 
# 
# From -- ./inp_files/61840.got.cif
#   From: 2010.05.17/outbox.cif.g08.bks.cpg/sg12_31_cif.got.tgz:61840.got - 2010.06.03 13:09:07.
