data_PCOD9206481
_publ_section_title
;
Structure prediction by ZEFSAII (Michael W. Deem and Ramdas Pophale) SiO2 
 PCOD9206481
Probable space group: C 2/M
;
_chemical_formula_sum "Si O2"
_cell_formula_units_Z 56
_cell_length_a 30.415809
_cell_length_b 8.641960
_cell_length_c 11.236593
_cell_angle_alpha 90.000000
_cell_angle_beta 68.720282
_cell_angle_gamma 90.000000
_cell_volume 2752.188580
_symmetry_space_group_name_H-M "C 2/M"
_symmetry_group_IT_number 12
_symmetry_cell_setting 'monoclinic'
loop_
_space_group_symop_operation_xyz
x,y,z
-x,y,-z
-x,-y,-z
x,-y,z
1/2+x,1/2+y,z
1/2-x,1/2+y,-z
1/2-x,1/2-y,-z
1/2+x,1/2-y,z
loop_
_atom_site_type_symbol
_atom_site_label
_atom_site_fract_x
_atom_site_fract_y
_atom_site_fract_z
Si Si1 0.945226 0.821664 0.156075
Si Si2 0.277802 0.813705 0.587802
Si Si3 0.278947 0.185823 0.858176
Si Si4 0.118825 0.678136 0.602447
Si Si5 0.960388 0.679458 0.889308
Si Si6 0.118423 0.823869 0.195798
Si Si7 0.052471 0.174809 0.491048
O O1 0.897549 0.783760 0.272523
O O2 0.992723 0.780298 0.183621
O O3 0.947108 0.000000 0.118083
O O4 0.949059 0.712184 0.038224
O O5 0.250000 0.750000 0.500000
O O6 0.264715 0.762504 0.736251
O O7 0.332712 0.774573 0.508544
O O8 0.273426 0.000000 0.590975
O O9 0.332742 0.239393 0.825090
O O10 0.275962 0.000000 0.862529
O O11 0.250000 0.250000 0.000000
O O12 0.122974 0.500000 0.635719
O O13 0.076058 0.701016 0.553054
O O14 0.970508 0.500000 0.857735
O O15 0.914750 0.734801 0.863541
O O16 0.086832 0.831799 0.344716
O O17 0.127823 0.000000 0.145569
O O18 0.000000 0.211305 0.500000
O O19 0.052058 0.000000 0.545887
#
# Coordination Sequence:
#
# PCOD9206481 Si02
#       7
#     8   8   8   8   8   8   8
#     4  11  22  38  59  87 125 168 212 261 314 381
#     4  10  24  44  68  95 128 166 215 274 337 400
#     4  11  24  45  68  96 130 170 219 280 341 406
#     4  11  22  39  61  89 123 161 206 259 318 382
#     4  11  22  38  60  88 124 168 213 261 315 379
#     4  11  22  38  62  92 126 165 208 258 319 386
#     4  10  21  36  58  90 126 163 204 251 307 375
#
# _framework density 20.347442999999998
#
# number of rings (size 3 to 8) (size 9 to 14) (size 15 to 20)
#    0.000    1.286    1.429    5.571    0.000    5.429 
#    0.000    2.857    0.000    0.000    0.000    0.000 
#    0.000    0.000    0.000    0.000    0.000    0.000 
#
# Total GULP energy -156347.995103 kJ/mol
# GULP energy per Si atom -5583.856968 kJ/mol
# Density = 2.030113 g / cm^3
# Si number density = 20.347443 Si / 1000 Ang^3
#
#
#
# Elastic Constant Matrix: (Units=GPa)
#
#
# Indices 1 2 3 4 5 6 
#
# 1 82.2938 12.7323 46.3316 0.0000 -1.0909 0.0000
# 2 12.7323 58.0574 21.1195 0.0000 -0.9739 0.0000
# 3 46.3316 21.1195 117.8736 0.0000 -11.0738 0.0000
# 4 0.0000 0.0000 0.0000 31.2200 0.0000 -0.6007
# 5 -1.0909 -0.9739 -11.0738 0.0000 30.8085 0.0000
# 6 0.0000 0.0000 0.0000 -0.6007 0.0000 32.5589
#
#
#
# Elastic Compliance Matrix: (Units=1/GPa)
#
#
# Indices 1 2 3 4 5 6 
#
# 1 0.015778 -0.001257 -0.006135 0.000000 -0.001686 0.000000
# 2 -0.001257 0.018537 -0.002873 0.000000 -0.000491 0.000000
# 3 -0.006135 -0.002873 0.011779 0.000000 0.003926 0.000000
# 4 0.000000 0.000000 0.000000 0.032042 0.000000 0.000591
# 5 -0.001686 -0.000491 0.003926 0.000000 0.033794 0.000000
# 6 0.000000 0.000000 0.000000 0.000591 0.000000 0.030724
#
#
# Mechanical properties :
#
#
# Convention : Reuss Voigt Hill
#
# Bulk Modulus (GPa) = 39.11872 46.51016 42.81444
# Shear Modulus (GPa) = 29.11967 30.78691 29.95329
#
# Velocity S-wave (km/s) = 3.78712 3.89403 3.84095
# Velocity P-wave (km/s) = 6.19598 6.56700 6.38419
#
# Compressibility (1/GPa) = 0.02556321
#
# Stress axis : x y z
#
# Youngs Moduli (GPa) = 63.38108 53.94624 84.89931
#
# Poissons Ratio (x) = 0.06780 0.52084
# Poissons Ratio (y) = 0.07965 0.24396
# Poissons Ratio (z) = 0.38883 0.15501
#
# Static dielectric constant tensor:
#      x y z
#    x 1.708540 0.000000 0.028410 
#    y 0.000000 1.715610 0.000000 
#    z 0.028410 0.000000 1.784900 
# 
# From -- ./inp_files/186360.got.cif
#   From: 2010.05.17/outbox.cif.g08.bks.cpg/sg12_94_cif.got.tgz:186360.got - 2010.06.03 13:09:07.
