data_PCOD9206291
_publ_section_title
;
Structure prediction by ZEFSAII (Michael W. Deem and Ramdas Pophale) SiO2 
 PCOD9206291
Probable space group: C 2/M
;
_chemical_formula_sum "Si O2"
_cell_formula_units_Z 64
_cell_length_a 32.346696
_cell_length_b 9.559572
_cell_length_c 20.232127
_cell_angle_alpha 90.000000
_cell_angle_beta 29.605967
_cell_angle_gamma 90.000000
_cell_volume 3090.760580
_symmetry_space_group_name_H-M "C 2/M"
_symmetry_group_IT_number 12
_symmetry_cell_setting 'monoclinic'
loop_
_space_group_symop_operation_xyz
x,y,z
-x,y,-z
-x,-y,-z
x,-y,z
1/2+x,1/2+y,z
1/2-x,1/2+y,-z
1/2-x,1/2-y,-z
1/2+x,1/2-y,z
loop_
_atom_site_type_symbol
_atom_site_label
_atom_site_fract_x
_atom_site_fract_y
_atom_site_fract_z
Si Si1 0.948575 0.837707 0.637309
Si Si2 0.264419 0.342513 0.544485
Si Si3 0.694640 0.165039 0.871034
Si Si4 0.254522 0.337984 0.926789
Si Si5 0.983000 0.339657 0.337572
Si Si6 0.717124 0.838505 0.358442
Si Si7 0.488855 0.837319 0.937832
Si Si8 0.459174 0.344414 0.249640
O O1 0.849023 0.828470 0.767090
O O2 0.000000 0.801808 0.500000
O O3 0.974211 0.738179 0.661286
O O4 0.968852 0.000000 0.625787
O O5 0.227762 0.500000 0.593376
O O6 0.250000 0.250000 0.500000
O O7 0.241101 0.254198 0.641571
O O8 0.364471 0.358522 0.406341
O O9 0.695611 0.202937 0.947207
O O10 0.759301 0.262135 0.741978
O O11 0.605683 0.180495 0.958021
O O12 0.718228 0.000000 0.833962
O O13 0.237828 0.500000 0.966440
O O14 0.250000 0.250000 0.000000
O O15 0.010049 0.500000 0.293606
O O16 0.882823 0.339058 0.490597
O O17 0.000775 0.255763 0.245792
O O18 0.745254 0.000000 0.321021
O O19 0.512039 0.000000 0.893964
O O20 0.500000 0.809779 0.000000
O O21 0.541701 0.732664 0.819326
O O22 0.496399 0.500000 0.193682
#
# Coordination Sequence:
#
# PCOD9206291 Si02
#       8
#     8   8   8   8   8   8   8   8
#     4  10  21  38  62  91 124 162 207 259 310 368
#     4  10  21  36  57  85 117 154 194 244 304 363
#     4  10  22  41  63  87 120 164 205 246 303 366
#     4  10  23  41  62  91 126 165 210 257 311 374
#     4  10  21  37  60  89 122 158 197 249 304 361
#     4  10  21  37  58  88 120 155 199 246 302 361
#     4  10  23  41  61  88 120 158 202 248 304 364
#     4  10  22  39  59  85 117 154 198 246 299 360
#
# _framework density 20.706878
#
# number of rings (size 3 to 8) (size 9 to 14) (size 15 to 20)
#    0.000    2.000    0.000    2.250    3.500    6.000 
#    0.000    0.000    0.000    0.000    0.000    0.000 
#    0.000    0.000    0.000    0.000    0.000    0.000 
#
# Total GULP energy -178757.739657 kJ/mol
# GULP energy per Si atom -5586.179364 kJ/mol
# Density = 2.065975 g / cm^3
# Si number density = 20.706878 Si / 1000 Ang^3
#
#
#
# Elastic Constant Matrix: (Units=GPa)
#
#
# Indices 1 2 3 4 5 6 
#
# 1 138.0253 74.8846 28.6573 0.0013 31.7197 -0.0003
# 2 74.8846 125.9096 41.2714 -0.0005 29.7565 -0.0005
# 3 28.6573 41.2714 73.7638 0.0020 19.0611 -0.0011
# 4 0.0013 -0.0005 0.0020 24.3422 -0.0016 8.5677
# 5 31.7197 29.7565 19.0611 -0.0016 34.2417 0.0005
# 6 -0.0003 -0.0005 -0.0011 8.5677 0.0005 29.8896
#
#
#
# Elastic Compliance Matrix: (Units=1/GPa)
#
#
# Indices 1 2 3 4 5 6 
#
# 1 0.011594 -0.005518 0.000139 -0.000001 -0.006022 0.000000
# 2 -0.005518 0.013690 -0.004395 0.000001 -0.004339 0.000000
# 3 0.000139 -0.004395 0.017530 -0.000002 -0.006068 0.000001
# 4 -0.000001 0.000001 -0.000002 0.045691 0.000004 -0.013097
# 5 -0.006022 -0.004339 -0.006068 0.000004 0.041931 -0.000002
# 6 0.000000 0.000000 0.000001 -0.013097 -0.000002 0.037211
#
#
# Mechanical properties :
#
#
# Convention : Reuss Voigt Hill
#
# Bulk Modulus (GPa) = 42.97978 69.70280 56.34129
# Shear Modulus (GPa) = 25.64791 30.55374 28.10083
#
# Velocity S-wave (km/s) = 3.52322 3.84544 3.68785
# Velocity P-wave (km/s) = 6.11164 7.31104 6.73808
#
# Compressibility (1/GPa) = 0.02326676
#
# Stress axis : x y z
#
# Youngs Moduli (GPa) = 86.25345 73.04692 57.04644
#
# Poissons Ratio (x) = 0.40305 -0.00794
# Poissons Ratio (y) = 0.47592 0.25070
# Poissons Ratio (z) = -0.01201 0.32102
#
# Static dielectric constant tensor:
#      x y z
#    x 1.744480 0.000000 -0.035360 
#    y 0.000000 1.726370 0.000000 
#    z -0.035360 0.000000 1.761200 
# 
# From -- ./inp_files/295597.got.cif
#   From: 2010.05.17/outbox.cif.g08.bks.cpg/sg12_148_cif.got.tgz:295597.got - 2010.06.03 13:09:07.
