data_PCOD9206871
_publ_section_title
;
Structure prediction by ZEFSAII (Michael W. Deem and Ramdas Pophale) SiO2 
 PCOD9206871
Probable space group: C 2/M
;
_chemical_formula_sum "Si O2"
_cell_formula_units_Z 56
_cell_length_a 29.202160
_cell_length_b 8.560088
_cell_length_c 19.834140
_cell_angle_alpha 90.000000
_cell_angle_beta 146.304108
_cell_angle_gamma 90.000000
_cell_volume 2750.623286
_symmetry_space_group_name_H-M "C 2/M"
_symmetry_group_IT_number 12
_symmetry_cell_setting 'monoclinic'
loop_
_space_group_symop_operation_xyz
x,y,z
-x,y,-z
-x,-y,-z
x,-y,z
1/2+x,1/2+y,z
1/2-x,1/2+y,-z
1/2-x,1/2-y,-z
1/2+x,1/2-y,z
loop_
_atom_site_type_symbol
_atom_site_label
_atom_site_fract_x
_atom_site_fract_y
_atom_site_fract_z
Si Si1 0.553364 0.812158 0.220687
Si Si2 0.395110 0.186216 0.565552
Si Si3 0.063141 0.185960 0.520411
Si Si4 0.340824 0.688255 0.130732
Si Si5 0.615696 0.687621 0.961309
Si Si6 0.302466 0.812792 0.224333
Si Si7 0.771963 0.312225 0.601601
O O1 0.575286 0.759307 0.324225
O O2 0.462738 0.749285 0.094298
O O3 0.632012 0.766479 0.271129
O O4 0.550411 0.000000 0.217407
O O5 0.447644 0.249769 0.567776
O O6 0.300241 0.242497 0.441324
O O7 0.396995 0.000000 0.567597
O O8 0.152486 0.236350 0.657457
O O9 0.000000 0.246044 0.500000
O O10 0.055998 0.000000 0.508743
O O11 0.342499 0.500000 0.137752
O O12 0.392179 0.736507 0.127431
O O13 0.352607 0.759120 0.218889
O O14 0.250000 0.750000 0.000000
O O15 0.615187 0.500000 0.961571
O O16 0.706621 0.736962 0.098110
O O17 0.304759 0.000000 0.231565
O O18 0.766708 0.500000 0.596064
O O19 0.750000 0.250000 0.500000
#
# Coordination Sequence:
#
# PCOD9206871 Si02
#       7
#     8   8   8   8   8   8   8
#     4   9  19  32  52  84 114 140 175 217 268 324
#     4  10  21  37  56  81 110 145 183 222 272 325
#     4  11  25  41  57  79 106 143 186 227 269 320
#     4   9  17  30  47  71 100 135 177 219 264 316
#     4   9  19  32  50  77 107 139 175 217 270 320
#     4  10  21  37  54  74 103 142 183 225 270 321
#     4   9  17  32  53  80 111 143 179 222 271 324
#
# _framework density 20.359023000000001
#
# number of rings (size 3 to 8) (size 9 to 14) (size 15 to 20)
#    0.000    2.429    0.000    3.857    2.000    8.000 
#    0.000    0.000    0.000    0.857    0.000    6.000 
#    0.000    0.000    0.000    0.000    0.000    0.000 
#
# Total GULP energy -156152.985002 kJ/mol
# GULP energy per Si atom -5576.892322 kJ/mol
# Density = 2.031268 g / cm^3
# Si number density = 20.359023 Si / 1000 Ang^3
#
#
#
# Elastic Constant Matrix: (Units=GPa)
#
#
# Indices 1 2 3 4 5 6 
#
# 1 64.4431 11.4624 17.3065 0.0000 22.6915 0.0000
# 2 11.4624 22.2287 -2.8256 0.0000 4.3228 0.0000
# 3 17.3065 -2.8256 63.3613 0.0000 20.6365 0.0000
# 4 0.0000 0.0000 0.0000 15.7032 0.0000 0.5819
# 5 22.6915 4.3228 20.6365 0.0000 39.5669 0.0000
# 6 0.0000 0.0000 0.0000 0.5819 0.0000 28.7090
#
#
#
# Elastic Compliance Matrix: (Units=1/GPa)
#
#
# Indices 1 2 3 4 5 6 
#
# 1 0.021457 -0.009597 -0.003159 0.000000 -0.009609 0.000000
# 2 -0.009597 0.051317 0.005955 0.000000 -0.003208 0.000000
# 3 -0.003159 0.005955 0.019916 0.000000 -0.009226 0.000000
# 4 0.000000 0.000000 0.000000 0.063729 0.000000 -0.001292
# 5 -0.009609 -0.003208 -0.009226 0.000000 0.035947 0.000000
# 6 0.000000 0.000000 0.000000 -0.001292 0.000000 0.034858
#
#
# Mechanical properties :
#
#
# Convention : Reuss Voigt Hill
#
# Bulk Modulus (GPa) = 12.64440 22.43552 17.53996
# Shear Modulus (GPa) = 18.71340 25.06848 21.89094
#
# Velocity S-wave (km/s) = 3.03507 3.51282 3.28265
# Velocity P-wave (km/s) = 4.30191 5.24377 4.79601
#
# Compressibility (1/GPa) = 0.07908639
#
# Stress axis : x y z
#
# Youngs Moduli (GPa) = 46.60592 19.48689 50.21138
#
# Poissons Ratio (x) = 0.18702 0.15862
# Poissons Ratio (y) = 0.44728 -0.29900
# Poissons Ratio (z) = 0.14723 -0.11604
#
# Static dielectric constant tensor:
#      x y z
#    x 1.732390 0.000000 0.027690 
#    y 0.000000 1.682380 0.000000 
#    z 0.027690 0.000000 1.748920 
# 
# From -- ./inp_files/329663.got.cif
#   From: 2010.05.17/outbox.cif.g08.bks.cpg/sg12_165_cif.got.tgz:329663.got - 2010.06.03 13:09:07.
