data_PCOD9206985
_publ_section_title
;
Structure prediction by ZEFSAII (Michael W. Deem and Ramdas Pophale) SiO2 
 PCOD9206985
Probable space group: C 2/M
;
_chemical_formula_sum "Si O2"
_cell_formula_units_Z 50
_cell_length_a 14.048821
_cell_length_b 10.468352
_cell_length_c 29.244546
_cell_angle_alpha 90.000000
_cell_angle_beta 144.701000
_cell_angle_gamma 90.000000
_cell_volume 2485.267968
_symmetry_space_group_name_H-M "C 2/M"
_symmetry_group_IT_number 12
_symmetry_cell_setting 'monoclinic'
loop_
_space_group_symop_operation_xyz
x,y,z
-x,y,-z
-x,-y,-z
x,-y,z
1/2+x,1/2+y,z
1/2-x,1/2+y,-z
1/2-x,1/2-y,-z
1/2+x,1/2-y,z
loop_
_atom_site_type_symbol
_atom_site_label
_atom_site_fract_x
_atom_site_fract_y
_atom_site_fract_z
Si Si1 0.500000 0.000000 0.000000
Si Si2 0.337481 0.646597 0.467369
Si Si3 0.878887 0.276000 0.884183
Si Si4 0.088023 0.353160 0.809704
Si Si5 0.198036 0.138531 0.013535
Si Si6 0.798601 0.346996 0.753677
Si Si7 0.423260 0.351045 0.609404
O O1 0.572215 0.111186 0.062870
O O2 0.500000 0.672720 0.500000
O O3 0.284174 0.500000 0.434853
O O4 0.381002 0.646825 0.538572
O O5 0.196940 0.755599 0.410153
O O6 0.690869 0.234581 0.816762
O O7 0.894289 0.315604 0.837642
O O8 0.003538 0.160268 0.943909
O O9 0.075543 0.500000 0.789078
O O10 0.909988 0.302102 0.755069
O O11 0.202198 0.353690 0.900322
O O12 0.230613 0.000000 0.005043
O O13 0.250000 0.250000 0.000000
O O14 0.793040 0.500000 0.746957
O O15 0.611694 0.303352 0.683926
O O16 0.413655 0.500000 0.621450
#
# Coordination Sequence:
#
# PCOD9206985 Si02
#       7
#     2   8   8   8   8   8   8
#     4  12  24  32  58  80 104 146 198 252 286 340
#     4   9  18  35  62  90 115 148 187 225 269 328
#     4  12  22  37  56  80 110 146 196 247 293 334
#     4  10  21  37  56  77 104 144 190 236 286 344
#     4  11  22  35  57  80 105 140 191 244 295 344
#     4  10  21  37  56  80 113 153 186 227 287 345
#     4   9  19  36  58  86 118 149 185 225 273 337
#
# _framework density 20.118554
#
# number of rings (size 3 to 8) (size 9 to 14) (size 15 to 20)
#    0.000    1.760    4.000    0.480    1.120    2.880 
#    0.000    3.200    1.760    0.000    0.000    0.000 
#    0.000    0.000    0.000    0.000    0.000    0.000 
#
# Total GULP energy -139221.825867 kJ/mol
# GULP energy per Si atom -5568.873035 kJ/mol
# Density = 2.007276 g / cm^3
# Si number density = 20.118554 Si / 1000 Ang^3
#
#
#
# Elastic Constant Matrix: (Units=GPa)
#
#
# Indices 1 2 3 4 5 6 
#
# 1 99.5272 40.6145 10.4201 0.0000 36.1491 0.0000
# 2 40.6145 92.2567 16.1912 0.0000 20.9790 0.0000
# 3 10.4201 16.1912 54.4422 0.0000 28.4932 0.0000
# 4 0.0000 0.0000 0.0000 13.6971 0.0000 7.6303
# 5 36.1491 20.9790 28.4932 0.0000 36.6379 0.0000
# 6 0.0000 0.0000 0.0000 7.6303 0.0000 14.5004
#
#
#
# Elastic Compliance Matrix: (Units=1/GPa)
#
#
# Indices 1 2 3 4 5 6 
#
# 1 0.020303 -0.005022 0.011108 0.000000 -0.025795 0.000000
# 2 -0.005022 0.013704 -0.002699 0.000000 -0.000793 0.000000
# 3 0.011108 -0.002699 0.037053 0.000000 -0.038230 0.000000
# 4 0.000000 0.000000 0.000000 0.103285 0.000000 -0.054350
# 5 -0.025795 -0.000793 -0.038230 0.000000 0.082930 0.000000
# 6 0.000000 0.000000 0.000000 -0.054350 0.000000 0.097563
#
#
# Mechanical properties :
#
#
# Convention : Reuss Voigt Hill
#
# Bulk Modulus (GPa) = 12.84797 42.29754 27.57276
# Shear Modulus (GPa) = 13.36863 24.90045 19.13454
#
# Velocity S-wave (km/s) = 2.58057 3.52189 3.08732
# Velocity P-wave (km/s) = 3.90885 6.13254 5.14234
#
# Compressibility (1/GPa) = 0.07783332
#
# Stress axis : x y z
#
# Youngs Moduli (GPa) = 49.25464 72.97083 26.98812
#
# Poissons Ratio (x) = 0.36643 -0.29978
# Poissons Ratio (y) = 0.24734 0.07285
# Poissons Ratio (z) = -0.54711 0.19698
#
# Static dielectric constant tensor:
#      x y z
#    x 1.770240 0.000000 0.043820 
#    y 0.000000 1.686710 0.000000 
#    z 0.043820 0.000000 1.744060 
# 
# From -- ./inp_files/373859.got.cif
#   From: 2010.05.17/outbox.cif.g08.bks.cpg/sg12_187_cif.got.tgz:373859.got - 2010.06.03 13:09:07.
