data_PCOD9206441
_publ_section_title
;
Structure prediction by ZEFSAII (Michael W. Deem and Ramdas Pophale) SiO2 
 PCOD9206441
Probable space group: C 2/M
;
_chemical_formula_sum "Si O2"
_cell_formula_units_Z 56
_cell_length_a 9.996651
_cell_length_b 13.974534
_cell_length_c 28.464686
_cell_angle_alpha 90.000000
_cell_angle_beta 45.388656
_cell_angle_gamma 90.000000
_cell_volume 2830.800948
_symmetry_space_group_name_H-M "C 2/M"
_symmetry_group_IT_number 12
_symmetry_cell_setting 'monoclinic'
loop_
_space_group_symop_operation_xyz
x,y,z
-x,y,-z
-x,-y,-z
x,-y,z
1/2+x,1/2+y,z
1/2-x,1/2+y,-z
1/2-x,1/2-y,-z
1/2+x,1/2-y,z
loop_
_atom_site_type_symbol
_atom_site_label
_atom_site_fract_x
_atom_site_fract_y
_atom_site_fract_z
Si Si1 0.978035 0.785288 0.892521
Si Si2 0.096992 0.607262 0.345505
Si Si3 0.599232 0.230275 0.194941
Si Si4 0.376633 0.110022 0.983102
Si Si5 0.527719 0.603643 0.703187
Si Si6 0.178643 0.887048 0.425513
Si Si7 0.290096 0.684698 0.685994
O O1 0.918014 0.770124 0.853518
O O2 0.949813 0.684382 0.926438
O O3 0.196268 0.811227 0.844816
O O4 0.835626 0.859650 0.951534
O O5 0.120038 0.500000 0.317523
O O6 0.245543 0.606148 0.351649
O O7 0.164938 0.707342 0.306132
O O8 0.874537 0.619871 0.405877
O O9 0.556874 0.316322 0.241805
O O10 0.421881 0.160519 0.246637
O O11 0.388195 0.000000 0.965139
O O12 0.500000 0.121482 0.000000
O O13 0.471491 0.500000 0.735722
O O14 0.442129 0.619310 0.673508
O O15 0.196439 0.827453 0.373155
O O16 0.000000 0.857074 0.500000
O O17 0.155503 0.000000 0.419193
#
# Coordination Sequence:
#
# PCOD9206441 Si02
#       7
#     8   8   8   8   8   8   8
#     4  11  22  41  63  91 125 162 200 251 300 357
#     4   9  19  36  57  82 114 152 193 240 297 359
#     4  11  22  38  60  89 124 162 197 247 306 359
#     4  10  22  41  66  91 122 165 208 247 295 356
#     4  10  21  36  58  88 120 154 196 248 302 361
#     4  10  22  40  60  84 118 160 203 250 308 369
#     4  11  21  38  62  87 121 156 201 253 307 357
#
# _framework density 19.782388000000001
#
# number of rings (size 3 to 8) (size 9 to 14) (size 15 to 20)
#    0.000    1.714    2.857    2.143    2.000    1.714 
#    0.000    3.571    0.000    4.714    0.000    0.000 
#    0.000    0.000    0.000    0.000    0.000    0.000 
#
# Total GULP energy -156003.806872 kJ/mol
# GULP energy per Si atom -5571.564531 kJ/mol
# Density = 1.973736 g / cm^3
# Si number density = 19.782388 Si / 1000 Ang^3
#
#
#
# Elastic Constant Matrix: (Units=GPa)
#
#
# Indices 1 2 3 4 5 6 
#
# 1 121.5491 22.3636 44.5446 0.0000 -28.5355 0.0000
# 2 22.3636 65.2066 11.3771 0.0000 -10.8118 0.0000
# 3 44.5446 11.3771 82.5918 -0.0001 -18.4500 0.0000
# 4 0.0000 0.0000 -0.0001 10.9878 0.0000 1.8871
# 5 -28.5355 -10.8118 -18.4500 0.0000 29.7569 0.0000
# 6 0.0000 0.0000 0.0000 1.8871 0.0000 23.2754
#
#
#
# Elastic Compliance Matrix: (Units=1/GPa)
#
#
# Indices 1 2 3 4 5 6 
#
# 1 0.012146 -0.002038 -0.004450 0.000000 0.008148 0.000000
# 2 -0.002038 0.016743 -0.000331 0.000000 0.003924 0.000000
# 3 -0.004450 -0.000331 0.015755 0.000000 0.005381 0.000000
# 4 0.000000 0.000000 0.000000 0.092295 0.000000 -0.007483
# 5 0.008148 0.003924 0.005381 0.000000 0.046181 0.000000
# 6 0.000000 0.000000 0.000000 -0.007483 0.000000 0.043571
#
#
# Mechanical properties :
#
#
# Convention : Reuss Voigt Hill
#
# Bulk Modulus (GPa) = 32.25062 47.32424 39.78743
# Shear Modulus (GPa) = 19.94707 25.54150 22.74428
#
# Velocity S-wave (km/s) = 3.17886 3.59712 3.39444
# Velocity P-wave (km/s) = 5.46000 6.42080 5.95979
#
# Compressibility (1/GPa) = 0.03100716
#
# Stress axis : x y z
#
# Youngs Moduli (GPa) = 82.33418 59.72575 63.47072
#
# Poissons Ratio (x) = 0.12173 0.28243
# Poissons Ratio (y) = 0.16781 0.02098
# Poissons Ratio (z) = 0.36636 0.01974
#
# Static dielectric constant tensor:
#      x y z
#    x 1.718990 0.000000 -0.029250 
#    y 0.000000 1.736390 0.000000 
#    z -0.029250 0.000000 1.668370 
# 
# From -- ./inp_files/372355.got.cif
#   From: 2010.05.17/outbox.cif.g08.bks.cpg/sg12_187_cif.got.tgz:372355.got - 2010.06.03 13:09:07.
