data_PCOD9206323
_publ_section_title
;
Structure prediction by ZEFSAII (Michael W. Deem and Ramdas Pophale) SiO2 
 PCOD9206323
Probable space group: C 2/M
;
_chemical_formula_sum "Si O2"
_cell_formula_units_Z 44
_cell_length_a 9.401666
_cell_length_b 27.587866
_cell_length_c 8.584353
_cell_angle_alpha 90.000000
_cell_angle_beta 83.775227
_cell_angle_gamma 90.000000
_cell_volume 2213.412674
_symmetry_space_group_name_H-M "C 2/M"
_symmetry_group_IT_number 12
_symmetry_cell_setting 'monoclinic'
loop_
_space_group_symop_operation_xyz
x,y,z
-x,y,-z
-x,-y,-z
x,-y,z
1/2+x,1/2+y,z
1/2-x,1/2+y,-z
1/2-x,1/2-y,-z
1/2+x,1/2-y,z
loop_
_atom_site_type_symbol
_atom_site_label
_atom_site_fract_x
_atom_site_fract_y
_atom_site_fract_z
Si Si1 0.840594 0.442939 0.091314
Si Si2 0.752300 0.314412 0.622604
Si Si3 0.000000 0.755990 0.500000
Si Si4 0.920354 0.945693 0.358254
Si Si5 0.137528 0.124209 0.907001
Si Si6 0.842320 0.410509 0.450363
O O1 0.800110 0.500000 0.082485
O O2 0.838671 0.427185 0.272525
O O3 0.735345 0.407434 0.009870
O O4 0.000000 0.438207 0.000000
O O5 0.886032 0.277956 0.603488
O O6 0.603991 0.288160 0.595446
O O7 0.732789 0.340461 0.790376
O O8 0.783314 0.356316 0.490729
O O9 0.933543 0.913386 0.206446
O O10 0.756261 0.944706 0.431290
O O11 0.000000 0.924942 0.500000
O O12 0.972973 0.000000 0.325659
O O13 0.000000 0.149446 0.000000
O O14 0.000000 0.411907 0.500000
#
# Coordination Sequence:
#
# PCOD9206323 Si02
#       6
#     8   8   4   8   8   8
#     4  11  24  39  59  92 135 178 213 257 311 368
#     4  10  23  42  70  96 120 163 207 266 321 384
#     4  10  22  44  74  94 120 150 218 268 324 382
#     4  10  21  36  57  87 120 167 222 260 296 358
#     4  11  24  39  61  92 133 170 205 252 323 378
#     4  11  22  38  64  91 122 167 218 263 309 372
#
# _framework density 19.878806999999998
#
# number of rings (size 3 to 8) (size 9 to 14) (size 15 to 20)
#    0.000    1.455    0.909    4.364    7.636    5.818 
#    0.000    0.909    0.000    0.000    0.000    0.000 
#    0.000    0.000    0.000    0.000    0.000    0.000 
#
# Total GULP energy -122884.655636 kJ/mol
# GULP energy per Si atom -5585.666165 kJ/mol
# Density = 1.983356 g / cm^3
# Si number density = 19.878807 Si / 1000 Ang^3
#
#
#
# Elastic Constant Matrix: (Units=GPa)
#
#
# Indices 1 2 3 4 5 6 
#
# 1 124.2361 45.9017 30.5787 0.0000 -2.2868 0.0000
# 2 45.9017 71.0630 29.8938 0.0000 6.1721 0.0000
# 3 30.5787 29.8938 91.4446 0.0000 -4.3575 0.0000
# 4 0.0000 0.0000 0.0000 -2.0623 0.0000 29.2028
# 5 -2.2868 6.1721 -4.3575 0.0000 33.9614 0.0000
# 6 0.0000 0.0000 0.0000 29.2028 0.0000 45.8416
#
#
#
# Elastic Compliance Matrix: (Units=1/GPa)
#
#
# Indices 1 2 3 4 5 6 
#
# 1 0.010855 -0.006575 -0.001397 0.000000 0.001747 0.000000
# 2 -0.006575 0.020767 -0.004821 0.000000 -0.004835 0.000000
# 3 -0.001397 -0.004821 0.013096 0.000000 0.002462 0.000000
# 4 0.000000 0.000000 0.000000 -0.048390 0.000000 0.030826
# 5 0.001747 -0.004835 0.002462 0.000000 0.030758 0.000000
# 6 0.000000 0.000000 0.000000 0.030826 0.000000 0.002177
#
#
# Mechanical properties :
#
#
# Convention : Reuss Voigt Hill
#
# Bulk Modulus (GPa) = 52.26883 55.49912 53.88397
# Shear Modulus (GPa) = 81.66544 27.57277 54.61911
#
# Velocity S-wave (km/s) = 6.41645 3.72834 5.24745
# Velocity P-wave (km/s) = 9.01362 6.82007 7.99246
#
# Compressibility (1/GPa) = 0.01913186
#
# Stress axis : x y z
#
# Youngs Moduli (GPa) = 92.12686 48.15321 76.35969
#
# Poissons Ratio (x) = 0.31662 0.10667
# Poissons Ratio (y) = 0.60577 0.36809
# Poissons Ratio (z) = 0.12870 0.23212
#
# Static dielectric constant tensor:
#      x y z
#    x 2.197300 0.000000 -0.001020 
#    y 0.000000 1.717540 0.000000 
#    z -0.001020 0.000000 1.680330 
# 
# From -- ./inp_files/41596.got.cif
#   From: 2010.05.17/outbox.cif.g08.bks.cpg/sg12_21_cif.got.tgz:41596.got - 2010.06.03 13:09:07.
