data_PCOD9206325
_publ_section_title
;
Structure prediction by ZEFSAII (Michael W. Deem and Ramdas Pophale) SiO2 
 PCOD9206325
Probable space group: C 2/M
;
_chemical_formula_sum "Si O2"
_cell_formula_units_Z 56
_cell_length_a 26.049101
_cell_length_b 8.686471
_cell_length_c 11.566549
_cell_angle_alpha 90.000000
_cell_angle_beta 78.538803
_cell_angle_gamma 90.000000
_cell_volume 2565.029466
_symmetry_space_group_name_H-M "C 2/M"
_symmetry_group_IT_number 12
_symmetry_cell_setting 'monoclinic'
loop_
_space_group_symop_operation_xyz
x,y,z
-x,y,-z
-x,-y,-z
x,-y,z
1/2+x,1/2+y,z
1/2-x,1/2+y,-z
1/2-x,1/2-y,-z
1/2+x,1/2-y,z
loop_
_atom_site_type_symbol
_atom_site_label
_atom_site_fract_x
_atom_site_fract_y
_atom_site_fract_z
Si Si1 0.628035 0.672346 0.819835
Si Si2 0.360751 0.180710 0.773268
Si Si3 0.478343 0.179654 0.130979
Si Si4 0.522004 0.813023 0.361959
Si Si5 0.325424 0.830278 0.393600
Si Si6 0.696515 0.818439 0.972453
Si Si7 0.204633 0.171918 0.375858
O O1 0.611033 0.500000 0.854029
O O2 0.583032 0.796071 0.858093
O O3 0.643465 0.694685 0.680167
O O4 0.678113 0.720737 0.871545
O O5 0.416802 0.224207 0.692896
O O6 0.314906 0.284090 0.740643
O O7 0.352064 0.000000 0.752156
O O8 0.351777 0.195808 0.914407
O O9 0.493508 0.239284 0.253859
O O10 0.493985 0.000000 0.125978
O O11 0.500000 0.247917 0.000000
O O12 0.500000 0.761645 0.500000
O O13 0.517774 0.000000 0.366684
O O14 0.266359 0.824667 0.371114
O O15 0.321305 0.797813 0.529969
O O16 0.347455 0.000000 0.360449
O O17 0.703240 0.000000 0.942878
O O18 0.750000 0.750000 0.000000
O O19 0.187204 0.000000 0.413653
#
# Coordination Sequence:
#
# PCOD9206325 Si02
#       7
#     8   8   8   8   8   8   8
#     4  12  25  39  60  90 124 159 205 258 314 373
#     4  10  21  37  60  87 118 157 200 249 303 367
#     4  10  21  40  65  90 120 162 213 266 320 383
#     4   9  19  36  60  90 119 155 209 261 309 374
#     4  10  21  38  59  83 116 159 203 245 298 364
#     4  11  23  40  62  91 126 165 211 256 311 375
#     4  10  21  36  57  87 121 155 194 244 301 365
#
# _framework density 21.832107000000001
#
# number of rings (size 3 to 8) (size 9 to 14) (size 15 to 20)
#    0.000    1.714    0.000    4.286    2.000    7.714 
#    0.000    0.714    0.000    0.857    0.000    0.000 
#    0.000    0.000    0.000    0.000    0.000    0.000 
#
# Total GULP energy -156099.380098 kJ/mol
# GULP energy per Si atom -5574.977861 kJ/mol
# Density = 2.178242 g / cm^3
# Si number density = 21.832107 Si / 1000 Ang^3
#
#
#
# Elastic Constant Matrix: (Units=GPa)
#
#
# Indices 1 2 3 4 5 6 
#
# 1 38.3513 -0.5769 12.6670 0.0000 9.2863 0.0000
# 2 -0.5769 35.8439 17.6616 0.0000 -3.8835 0.0000
# 3 12.6670 17.6616 120.2531 0.0000 -0.6079 0.0000
# 4 0.0000 0.0000 0.0000 18.7037 0.0000 2.6387
# 5 9.2863 -3.8835 -0.6079 0.0000 30.0075 0.0000
# 6 0.0000 0.0000 0.0000 2.6387 0.0000 15.1126
#
#
#
# Elastic Compliance Matrix: (Units=1/GPa)
#
#
# Indices 1 2 3 4 5 6 
#
# 1 0.029364 0.001124 -0.003304 0.000000 -0.009009 0.000000
# 2 0.001124 0.030559 -0.004589 0.000000 0.003514 0.000000
# 3 -0.003304 -0.004589 0.009341 0.000000 0.000618 0.000000
# 4 0.000000 0.000000 0.000000 0.054816 0.000000 -0.009571
# 5 -0.009009 0.003514 0.000618 0.000000 0.036580 0.000000
# 6 0.000000 0.000000 0.000000 -0.009571 0.000000 0.067841
#
#
# Mechanical properties :
#
#
# Convention : Reuss Voigt Hill
#
# Bulk Modulus (GPa) = 17.94449 28.21685 23.08067
# Shear Modulus (GPa) = 19.18553 23.74452 21.46502
#
# Velocity S-wave (km/s) = 2.96763 3.30145 3.13898
# Velocity P-wave (km/s) = 4.46985 5.24264 4.87160
#
# Compressibility (1/GPa) = 0.05572742
#
# Stress axis : x y z
#
# Youngs Moduli (GPa) = 34.05507 32.72390 107.05612
#
# Poissons Ratio (x) = -0.03680 0.35369
# Poissons Ratio (y) = -0.03829 0.49126
# Poissons Ratio (z) = 0.11251 0.15017
#
# Static dielectric constant tensor:
#      x y z
#    x 1.791000 0.000000 -0.016430 
#    y 0.000000 1.752880 0.000000 
#    z -0.016430 0.000000 1.860880 
# 
# From -- ./inp_files/180754.got.cif
#   From: 2010.05.17/outbox.cif.g08.bks.cpg/sg12_91_cif.got.tgz:180754.got - 2010.06.03 13:09:07.
