data_PCOD9206263
_publ_section_title
;
Structure prediction by ZEFSAII (Michael W. Deem and Ramdas Pophale) SiO2 
 PCOD9206263
Probable space group: C 2/M
;
_chemical_formula_sum "Si O2"
_cell_formula_units_Z 64
_cell_length_a 20.927106
_cell_length_b 7.816106
_cell_length_c 22.247337
_cell_angle_alpha 90.000000
_cell_angle_beta 120.169254
_cell_angle_gamma 90.000000
_cell_volume 3146.045899
_symmetry_space_group_name_H-M "C 2/M"
_symmetry_group_IT_number 12
_symmetry_cell_setting 'monoclinic'
loop_
_space_group_symop_operation_xyz
x,y,z
-x,y,-z
-x,-y,-z
x,-y,z
1/2+x,1/2+y,z
1/2-x,1/2+y,-z
1/2-x,1/2-y,-z
1/2+x,1/2-y,z
loop_
_atom_site_type_symbol
_atom_site_label
_atom_site_fract_x
_atom_site_fract_y
_atom_site_fract_z
Si Si1 0.452573 0.202137 0.199207
Si Si2 0.890366 0.206727 0.910751
Si Si3 0.271172 0.796031 0.761146
Si Si4 0.881181 0.297644 0.712358
Si Si5 0.477393 0.709431 0.556196
Si Si6 0.391549 0.297910 0.295420
Si Si7 0.333131 0.295578 0.556878
Si Si8 0.452026 0.706403 0.066148
O O1 0.536247 0.274873 0.242549
O O2 0.405647 0.277342 0.231344
O O3 0.426381 0.232990 0.118990
O O4 0.455130 0.000000 0.211439
O O5 0.816780 0.268872 0.843846
O O6 0.963373 0.262961 0.907807
O O7 0.890063 0.000000 0.909909
O O8 0.903888 0.261816 0.985890
O O9 0.322693 0.724505 0.732266
O O10 0.188345 0.724830 0.724696
O O11 0.264456 0.000000 0.748391
O O12 0.887446 0.500000 0.728445
O O13 0.852982 0.275369 0.631676
O O14 0.500000 0.764132 0.500000
O O15 0.476804 0.500000 0.555698
O O16 0.538918 0.769189 0.633410
O O17 0.396122 0.764229 0.539767
O O18 0.389762 0.500000 0.307622
O O19 0.338660 0.500000 0.562860
O O20 0.250000 0.250000 0.500000
O O21 0.452524 0.500000 0.066630
#
# Coordination Sequence:
#
# PCOD9206263 Si02
#       8
#     8   8   8   8   8   8   8   8
#     4  11  21  35  57  84 114 147 184 234 283 326
#     4   9  18  33  54  82 115 147 184 235 282 331
#     4  10  21  36  57  84 114 149 187 234 281 328
#     4  10  21  37  57  83 115 146 184 230 277 328
#     4   9  19  36  59  82 105 143 189 224 263 323
#     4  10  21  38  59  81 110 148 191 228 270 337
#     4  11  23  38  60  86 113 145 183 231 281 327
#     4   9  18  33  55  82 112 149 189 228 279 337
#
# _framework density 20.342997
#
# number of rings (size 3 to 8) (size 9 to 14) (size 15 to 20)
#    0.000    2.125    2.500    1.500    1.750    2.000 
#    0.000    1.875    0.000    1.875    0.000    0.000 
#    0.000    0.000    0.000    0.000    0.000    0.000 
#
# Total GULP energy -178648.621163 kJ/mol
# GULP energy per Si atom -5582.769411 kJ/mol
# Density = 2.029670 g / cm^3
# Si number density = 20.342997 Si / 1000 Ang^3
#
#
#
# Elastic Constant Matrix: (Units=GPa)
#
#
# Indices 1 2 3 4 5 6 
#
# 1 133.1469 1.2256 45.0948 0.0000 4.9777 0.0000
# 2 1.2256 20.7018 -16.4672 0.0000 6.8136 -0.0001
# 3 45.0948 -16.4672 77.3031 0.0000 -10.6862 0.0000
# 4 0.0000 0.0000 0.0000 21.2884 0.0000 4.4776
# 5 4.9777 6.8136 -10.6862 0.0000 25.0009 0.0000
# 6 0.0000 -0.0001 0.0000 4.4776 0.0000 4.6842
#
#
#
# Elastic Compliance Matrix: (Units=1/GPa)
#
#
# Indices 1 2 3 4 5 6 
#
# 1 0.010321 -0.005483 -0.007722 0.000000 -0.003861 0.000000
# 2 -0.005483 0.064192 0.015522 0.000000 -0.009768 0.000001
# 3 -0.007722 0.015522 0.021655 0.000000 0.006563 0.000000
# 4 0.000000 0.000000 0.000000 0.058795 0.000000 -0.056202
# 5 -0.003861 -0.009768 0.006563 0.000000 0.046235 0.000000
# 6 0.000000 0.000001 0.000000 -0.056202 0.000000 0.267208
#
#
# Mechanical properties :
#
#
# Convention : Reuss Voigt Hill
#
# Bulk Modulus (GPa) = 9.92050 32.31758 21.11904
# Shear Modulus (GPa) = 10.05285 23.61460 16.83372
#
# Velocity S-wave (km/s) = 2.22540 3.41078 2.87974
# Velocity P-wave (km/s) = 3.38975 5.60643 4.63263
#
# Compressibility (1/GPa) = 0.10080136
#
# Stress axis : x y z
#
# Youngs Moduli (GPa) = 96.89183 15.57836 46.17907
#
# Poissons Ratio (x) = 0.08541 0.35661
# Poissons Ratio (y) = 0.53125 -0.71681
# Poissons Ratio (z) = 0.74824 -0.24181
#
# Static dielectric constant tensor:
#      x y z
#    x 1.723380 0.000000 0.002890 
#    y 0.000000 1.750170 0.000000 
#    z 0.002890 0.000000 1.699180 
# 
# From -- ./inp_files/320093.got.cif
#   From: 2010.05.17/outbox.cif.g08.bks.cpg/sg12_161_cif.got.tgz:320093.got - 2010.06.03 13:09:07.
