data_PCOD9206288
_publ_section_title
;
Structure prediction by ZEFSAII (Michael W. Deem and Ramdas Pophale) SiO2 
 PCOD9206288
Probable space group: C 2/M
;
_chemical_formula_sum "Si O2"
_cell_formula_units_Z 56
_cell_length_a 14.768487
_cell_length_b 11.009662
_cell_length_c 24.514314
_cell_angle_alpha 90.000000
_cell_angle_beta 39.516944
_cell_angle_gamma 90.000000
_cell_volume 2536.273104
_symmetry_space_group_name_H-M "C 2/M"
_symmetry_group_IT_number 12
_symmetry_cell_setting 'monoclinic'
loop_
_space_group_symop_operation_xyz
x,y,z
-x,y,-z
-x,-y,-z
x,-y,z
1/2+x,1/2+y,z
1/2-x,1/2+y,-z
1/2-x,1/2-y,-z
1/2+x,1/2-y,z
loop_
_atom_site_type_symbol
_atom_site_label
_atom_site_fract_x
_atom_site_fract_y
_atom_site_fract_z
Si Si1 0.780938 0.357366 0.681262
Si Si2 0.460082 0.289791 0.846290
Si Si3 0.591445 0.500000 0.045839
Si Si4 0.277822 0.362554 0.412512
Si Si5 0.268363 0.231030 0.127781
Si Si6 0.788510 0.000000 0.125695
Si Si7 0.440050 0.858530 0.384546
Si Si8 0.539378 0.861174 0.057728
O O1 0.762649 0.500000 0.702147
O O2 0.628319 0.298835 0.761928
O O3 0.807671 0.346348 0.604209
O O4 0.911471 0.316814 0.657543
O O5 0.405672 0.387350 0.915177
O O6 0.378854 0.316846 0.828056
O O7 0.429921 0.166477 0.893523
O O8 0.439911 0.500000 0.085542
O O9 0.696723 0.500000 0.946472
O O10 0.343171 0.500000 0.379426
O O11 0.381572 0.247072 0.372298
O O12 0.171484 0.363331 0.513214
O O13 0.231385 0.366645 0.165063
O O14 0.372668 0.166096 0.122070
O O15 0.369217 0.222747 0.026247
O O16 0.450442 0.000000 0.359128
O O17 0.572140 0.000000 0.028655
#
# Coordination Sequence:
#
# PCOD9206288 Si02
#       8
#     8   8   4   8   8   4   8   8
#     4  10  21  36  57  85 116 151 190 229 277 340
#     4  12  24  36  57  82 112 151 187 228 286 343
#     4  11  20  38  60  80 104 142 192 236 281 330
#     4   9  18  36  62  90 117 150 192 233 278 337
#     4  11  23  38  59  82 106 144 190 242 286 339
#     4  11  20  40  62  81 104 139 198 251 282 322
#     4   9  18  36  62  89 117 151 191 236 280 328
#     4  11  24  40  55  81 113 143 186 240 292 337
#
# _framework density 22.079640000000001
#
# number of rings (size 3 to 8) (size 9 to 14) (size 15 to 20)
#    0.000    1.571    3.571    2.571    3.000    2.857 
#    0.000    3.571    0.000    3.429    0.000    0.000 
#    0.000    0.000    0.000    0.000    0.000    0.000 
#
# Total GULP energy -156286.943225 kJ/mol
# GULP energy per Si atom -5581.676544 kJ/mol
# Density = 2.202939 g / cm^3
# Si number density = 22.079640 Si / 1000 Ang^3
#
#
#
# Elastic Constant Matrix: (Units=GPa)
#
#
# Indices 1 2 3 4 5 6 
#
# 1 104.6033 37.3422 25.5148 0.0000 -24.1500 0.0000
# 2 37.3422 96.6306 14.7713 0.0000 -8.2906 0.0000
# 3 25.5148 14.7713 37.4672 0.0000 -5.6177 0.0000
# 4 0.0000 0.0000 0.0000 19.0333 0.0000 0.0520
# 5 -24.1500 -8.2906 -5.6177 0.0000 34.9897 0.0000
# 6 0.0000 0.0000 0.0000 0.0520 0.0000 38.5459
#
#
#
# Elastic Compliance Matrix: (Units=1/GPa)
#
#
# Indices 1 2 3 4 5 6 
#
# 1 0.014516 -0.003829 -0.007183 0.000000 0.007959 0.000000
# 2 -0.003829 0.012155 -0.002202 0.000000 -0.000116 0.000000
# 3 -0.007183 -0.002202 0.032408 0.000000 -0.000276 0.000000
# 4 0.000000 0.000000 0.000000 0.052540 0.000000 -0.000071
# 5 0.007959 -0.000116 -0.000276 0.000000 0.034001 0.000000
# 6 0.000000 0.000000 0.000000 -0.000071 0.000000 0.025943
#
#
# Mechanical properties :
#
#
# Convention : Reuss Voigt Hill
#
# Bulk Modulus (GPa) = 30.62576 43.77305 37.19940
# Shear Modulus (GPa) = 23.93782 29.25197 26.59489
#
# Velocity S-wave (km/s) = 3.29623 3.64378 3.47435
# Velocity P-wave (km/s) = 5.32799 6.12952 5.74276
#
# Compressibility (1/GPa) = 0.03265225
#
# Stress axis : x y z
#
# Youngs Moduli (GPa) = 68.88844 82.27079 30.85652
#
# Poissons Ratio (x) = 0.31501 0.22163
# Poissons Ratio (y) = 0.26377 0.06795
# Poissons Ratio (z) = 0.49480 0.18116
#
# Static dielectric constant tensor:
#      x y z
#    x 1.815830 0.000000 -0.004770 
#    y 0.000000 1.832120 0.000000 
#    z -0.004770 0.000000 1.879560 
# 
# From -- ./inp_files/360793.got.cif
#   From: 2010.05.17/outbox.cif.g08.bks.cpg/sg12_181_cif.got.tgz:360793.got - 2010.06.03 13:09:07.
