data_PCOD9206475
_publ_section_title
;
Structure prediction by ZEFSAII (Michael W. Deem and Ramdas Pophale) SiO2 
 PCOD9206475
Probable space group: C 2/M
;
_chemical_formula_sum "Si O2"
_cell_formula_units_Z 48
_cell_length_a 14.481042
_cell_length_b 14.851802
_cell_length_c 9.693933
_cell_angle_alpha 90.000000
_cell_angle_beta 84.295009
_cell_angle_gamma 90.000000
_cell_volume 2074.543448
_symmetry_space_group_name_H-M "C 2/M"
_symmetry_group_IT_number 12
_symmetry_cell_setting 'monoclinic'
loop_
_space_group_symop_operation_xyz
x,y,z
-x,y,-z
-x,-y,-z
x,-y,z
1/2+x,1/2+y,z
1/2-x,1/2+y,-z
1/2-x,1/2-y,-z
1/2+x,1/2-y,z
loop_
_atom_site_type_symbol
_atom_site_label
_atom_site_fract_x
_atom_site_fract_y
_atom_site_fract_z
Si Si1 0.820259 0.272055 0.662753
Si Si2 0.336563 0.897589 0.895843
Si Si3 0.875764 0.098283 0.176126
Si Si4 0.389416 0.403986 0.503844
Si Si5 0.872563 0.290899 0.169508
Si Si6 0.596997 0.894570 0.565117
O O1 0.871575 0.330125 0.772447
O O2 0.863091 0.181466 0.597305
O O3 0.726070 0.240413 0.750534
O O4 0.824066 0.340317 0.531833
O O5 0.225311 0.903771 0.882562
O O6 0.372744 0.000000 0.880131
O O7 0.357501 0.850989 0.037452
O O8 0.866282 0.102602 0.344575
O O9 0.920632 0.194394 0.132081
O O10 0.920227 0.000000 0.140751
O O11 0.500000 0.407960 0.500000
O O12 0.350661 0.500000 0.561133
O O13 0.914286 0.350868 0.284058
O O14 0.500000 0.882986 0.500000
O O15 0.618981 0.000000 0.567921
#
# Coordination Sequence:
#
# PCOD9206475 Si02
#       6
#     8   8   8   8   8   8
#     4  11  21  38  61  93 117 154 204 251 306 349
#     4  10  22  39  60  87 123 159 198 250 305 361
#     4   9  18  33  56  84 116 152 192 243 301 351
#     4  10  21  36  58  90 124 157 197 248 307 365
#     4  11  22  39  61  90 119 161 206 249 303 363
#     4  11  24  40  61  89 124 162 205 256 309 364
#
# _framework density 23.137620999999999
#
# number of rings (size 3 to 8) (size 9 to 14) (size 15 to 20)
#    0.000    1.667    1.667    4.000    2.333    2.000 
#    0.000    1.667    3.667    3.000    0.000    8.167 
#    0.000    0.000    0.000    0.000    0.000    0.000 
#
# Total GULP energy -134043.053572 kJ/mol
# GULP energy per Si atom -5585.127232 kJ/mol
# Density = 2.308496 g / cm^3
# Si number density = 23.137621 Si / 1000 Ang^3
#
#
#
# Elastic Constant Matrix: (Units=GPa)
#
#
# Indices 1 2 3 4 5 6 
#
# 1 41.8413 30.1317 34.3136 0.0000 2.2859 0.0000
# 2 30.1317 264.9448 103.4369 0.0000 17.8421 0.0000
# 3 34.3136 103.4369 161.4156 0.0000 31.5087 0.0000
# 4 0.0000 0.0000 0.0000 52.9831 0.0000 1.6644
# 5 2.2859 17.8421 31.5087 0.0000 26.8957 0.0000
# 6 0.0000 0.0000 0.0000 1.6644 0.0000 8.4017
#
#
#
# Elastic Compliance Matrix: (Units=1/GPa)
#
#
# Indices 1 2 3 4 5 6 
#
# 1 0.030017 -0.001156 -0.006861 0.000000 0.006253 0.000000
# 2 -0.001156 0.005085 -0.003077 0.000000 0.000330 0.000000
# 3 -0.006861 -0.003077 0.011815 0.000000 -0.011217 0.000000
# 4 0.000000 0.000000 0.000000 0.018992 0.000000 -0.003762
# 5 0.006253 0.000330 -0.011217 0.000000 0.049571 0.000000
# 6 0.000000 0.000000 0.000000 -0.003762 0.000000 0.119769
#
#
# Mechanical properties :
#
#
# Convention : Reuss Voigt Hill
#
# Bulk Modulus (GPa) = 40.43826 89.32957 64.88392
# Shear Modulus (GPa) = 18.81955 37.67740 28.24847
#
# Velocity S-wave (km/s) = 2.85507 4.03973 3.49791
# Velocity P-wave (km/s) = 5.32764 7.77502 6.66463
#
# Compressibility (1/GPa) = 0.02472905
#
# Stress axis : x y z
#
# Youngs Moduli (GPa) = 33.31407 196.65687 84.63801
#
# Poissons Ratio (x) = 0.22743 0.58067
# Poissons Ratio (y) = 0.03853 0.26044
# Poissons Ratio (z) = 0.22855 0.60513
#
# Static dielectric constant tensor:
#      x y z
#    x 1.943620 0.000000 0.001650 
#    y 0.000000 1.928910 0.000000 
#    z 0.001650 0.000000 1.826110 
# 
# From -- ./inp_files/73634.got.cif
#   From: 2010.05.17/outbox.cif.g08.bks.cpg/sg12_37_cif.got.tgz:73634.got - 2010.06.03 13:09:07.
