data_PCOD9206038
_publ_section_title
;
Structure prediction by ZEFSAII (Michael W. Deem and Ramdas Pophale) SiO2 
 PCOD9206038
Probable space group: C 2/M
;
_chemical_formula_sum "Si O2"
_cell_formula_units_Z 32
_cell_length_a 9.870707
_cell_length_b 7.541169
_cell_length_c 17.364075
_cell_angle_alpha 90.000000
_cell_angle_beta 103.287262
_cell_angle_gamma 90.000000
_cell_volume 1257.923041
_symmetry_space_group_name_H-M "C 2/M"
_symmetry_group_IT_number 12
_symmetry_cell_setting 'monoclinic'
loop_
_space_group_symop_operation_xyz
x,y,z
-x,y,-z
-x,-y,-z
x,-y,z
1/2+x,1/2+y,z
1/2-x,1/2+y,-z
1/2-x,1/2-y,-z
1/2+x,1/2-y,z
loop_
_atom_site_type_symbol
_atom_site_label
_atom_site_fract_x
_atom_site_fract_y
_atom_site_fract_z
Si Si1 0.970986 0.784778 0.083492
Si Si2 0.488332 0.205162 0.321725
Si Si3 0.758694 0.706155 0.177959
Si Si4 0.276652 0.711657 0.414465
O O1 0.829956 0.717622 0.103324
O O2 0.103224 0.721160 0.151562
O O3 0.967867 0.000000 0.084242
O O4 0.000000 0.729014 0.000000
O O5 0.373305 0.288326 0.250026
O O6 0.416227 0.212181 0.396052
O O7 0.642467 0.281772 0.349346
O O8 0.505362 0.000000 0.301456
O O9 0.743877 0.500000 0.197176
O O10 0.284121 0.500000 0.406937
O O11 0.250000 0.750000 0.500000
#
# Coordination Sequence:
#
# PCOD9206038 Si02
#       4
#     8   8   8   8
#     4  10  21  36  55  82 113 144 182 226 270 320
#     4  10  22  39  57  81 112 143 181 227 270 320
#     4  10  21  37  57  81 110 145 183 224 271 321
#     4  11  23  38  58  83 110 143 182 223 271 325
#
# _framework density 25.438758
#
# number of rings (size 3 to 8) (size 9 to 14) (size 15 to 20)
#    0.000    1.750    0.000    3.750    0.000    7.500 
#    0.000    0.000    0.000    0.000    0.000    0.000 
#    0.000    0.000    0.000    0.000    0.000    0.000 
#
# Total GULP energy -89569.756033 kJ/mol
# GULP energy per Si atom -5598.109752 kJ/mol
# Density = 2.538086 g / cm^3
# Si number density = 25.438758 Si / 1000 Ang^3
#
#
#
# Elastic Constant Matrix: (Units=GPa)
#
#
# Indices 1 2 3 4 5 6 
#
# 1 119.1029 -0.8948 -7.9584 0.0000 1.5425 0.0000
# 2 -0.8948 86.8713 6.1702 0.0000 7.5063 0.0000
# 3 -7.9584 6.1702 73.5860 0.0000 -1.6866 0.0000
# 4 0.0000 0.0000 0.0000 18.2731 0.0000 -11.6204
# 5 1.5425 7.5063 -1.6866 0.0000 50.4707 0.0000
# 6 0.0000 0.0000 0.0000 -11.6204 0.0000 13.5462
#
#
#
# Elastic Compliance Matrix: (Units=1/GPa)
#
#
# Indices 1 2 3 4 5 6 
#
# 1 0.008460 0.000043 0.000906 0.000000 -0.000235 0.000000
# 2 0.000043 0.011738 -0.001020 0.000000 -0.001781 0.000000
# 3 0.000906 -0.001020 0.013786 0.000000 0.000585 0.000000
# 4 0.000000 0.000000 0.000000 0.120413 0.000000 0.103294
# 5 -0.000235 -0.001781 0.000585 0.000000 0.020105 0.000000
# 6 0.000000 0.000000 0.000000 0.103294 0.000000 0.162430
#
#
# Mechanical properties :
#
#
# Convention : Reuss Voigt Hill
#
# Bulk Modulus (GPa) = 29.54920 30.46601 30.00761
# Shear Modulus (GPa) = 14.35313 35.27422 24.81368
#
# Velocity S-wave (km/s) = 2.37791 3.72779 3.12657
# Velocity P-wave (km/s) = 4.37954 5.52547 4.98554
#
# Compressibility (1/GPa) = 0.03384186
#
# Stress axis : x y z
#
# Youngs Moduli (GPa) = 118.20326 85.19260 72.53477
#
# Poissons Ratio (x) = -0.00367 -0.06571
# Poissons Ratio (y) = -0.00509 0.07402
# Poissons Ratio (z) = -0.10709 0.08693
#
# Static dielectric constant tensor:
#      x y z
#    x 1.941160 0.000000 0.029200 
#    y 0.000000 1.948060 0.000000 
#    z 0.029200 0.000000 2.076620 
# 
# From -- ./inp_files/193401.got.cif
#   From: 2010.05.17/outbox.cif.g08.bks.cpg/sg12_97_cif.got.tgz:193401.got - 2010.06.03 13:09:07.
