data_PCOD9206957
_publ_section_title
;
Structure prediction by ZEFSAII (Michael W. Deem and Ramdas Pophale) SiO2 
 PCOD9206957
Probable space group: C 2/M
;
_chemical_formula_sum "Si O2"
_cell_formula_units_Z 34
_cell_length_a 5.181311
_cell_length_b 20.847334
_cell_length_c 13.672946
_cell_angle_alpha 90.000000
_cell_angle_beta 79.008490
_cell_angle_gamma 90.000000
_cell_volume 1449.810913
_symmetry_space_group_name_H-M "C 2/M"
_symmetry_group_IT_number 12
_symmetry_cell_setting 'monoclinic'
loop_
_space_group_symop_operation_xyz
x,y,z
-x,y,-z
-x,-y,-z
x,-y,z
1/2+x,1/2+y,z
1/2-x,1/2+y,-z
1/2-x,1/2-y,-z
1/2+x,1/2-y,z
loop_
_atom_site_type_symbol
_atom_site_label
_atom_site_fract_x
_atom_site_fract_y
_atom_site_fract_z
Si Si1 0.562716 0.291806 0.379719
Si Si2 0.001679 0.729537 0.116379
Si Si3 0.800010 0.408696 0.854284
Si Si4 0.130219 0.928954 0.275778
Si Si5 0.000000 0.500000 0.000000
O O1 0.500000 0.295344 0.500000
O O2 0.337726 0.246171 0.350555
O O3 0.566648 0.365085 0.341617
O O4 0.191760 0.779787 0.157815
O O5 0.165672 0.666142 0.128404
O O6 0.000000 0.740590 0.000000
O O7 0.544404 0.425287 0.810324
O O8 0.062315 0.427509 0.774514
O O9 0.830684 0.444965 0.953556
O O10 0.075216 0.000000 0.324047
#
# Coordination Sequence:
#
# PCOD9206957 Si02
#       5
#     8   8   8   8   2
#     4  10  23  45  73 102 134 173 213 259 331 414
#     4  10  21  37  55  80 109 149 203 261 318 371
#     4  12  25  41  64  87 127 173 221 270 323 376
#     4  12  25  42  64 100 131 166 220 275 325 385
#     4  12  24  46  60  86 126 186 228 268 312 390
#
# _framework density 23.451333999999999
#
# number of rings (size 3 to 8) (size 9 to 14) (size 15 to 20)
#    0.000    0.941    3.529    2.824    0.000    8.000 
#    0.000    0.000    0.000    7.059    0.000    0.000 
#    0.000    0.000    0.000    0.000    0.000    0.000 
#
# Total GULP energy -94803.907163 kJ/mol
# GULP energy per Si atom -5576.700421 kJ/mol
# Density = 2.339796 g / cm^3
# Si number density = 23.451334 Si / 1000 Ang^3
#
#
#
# Elastic Constant Matrix: (Units=GPa)
#
#
# Indices 1 2 3 4 5 6 
#
# 1 104.0715 36.5277 30.8471 0.0000 3.6177 0.0000
# 2 36.5277 152.3047 29.5772 0.0000 11.0236 0.0000
# 3 30.8471 29.5772 73.9611 0.0000 13.8944 0.0000
# 4 0.0000 0.0000 0.0000 88.5462 0.0000 24.3373
# 5 3.6177 11.0236 13.8944 0.0000 29.9844 0.0000
# 6 0.0000 0.0000 0.0000 24.3373 0.0000 19.7106
#
#
#
# Elastic Compliance Matrix: (Units=1/GPa)
#
#
# Indices 1 2 3 4 5 6 
#
# 1 0.011536 -0.002038 -0.004245 0.000000 0.001325 0.000000
# 2 -0.002038 0.007535 -0.001850 0.000000 -0.001667 0.000000
# 3 -0.004245 -0.001850 0.017314 0.000000 -0.006831 0.000000
# 4 0.000000 0.000000 0.000000 0.017095 0.000000 -0.021108
# 5 0.001325 -0.001667 -0.006831 0.000000 0.036969 0.000000
# 6 0.000000 0.000000 0.000000 -0.021108 0.000000 0.076797
#
#
# Mechanical properties :
#
#
# Convention : Reuss Voigt Hill
#
# Bulk Modulus (GPa) = 49.70562 58.24903 53.97733
# Shear Modulus (GPa) = 26.28551 43.20724 34.74637
#
# Velocity S-wave (km/s) = 3.35155 4.29700 3.85338
# Velocity P-wave (km/s) = 6.01817 7.03641 6.54712
#
# Compressibility (1/GPa) = 0.02011845
#
# Stress axis : x y z
#
# Youngs Moduli (GPa) = 86.68173 132.72265 57.75608
#
# Poissons Ratio (x) = 0.27053 0.24519
# Poissons Ratio (y) = 0.17668 0.10684
# Poissons Ratio (z) = 0.36799 0.24551
#
# Static dielectric constant tensor:
#      x y z
#    x 1.926940 0.000000 -0.095530 
#    y 0.000000 2.159490 0.000000 
#    z -0.095530 0.000000 1.937520 
# 
# From -- ./inp_files/191210.got.cif
#   From: 2010.05.17/outbox.cif.g08.bks.cpg/sg12_96_cif.got.tgz:191210.got - 2010.06.03 13:09:07.
