data_PCOD9206374
_publ_section_title
;
Structure prediction by ZEFSAII (Michael W. Deem and Ramdas Pophale) SiO2 
 PCOD9206374
Probable space group: C 2/M
;
_chemical_formula_sum "Si O2"
_cell_formula_units_Z 56
_cell_length_a 17.633336
_cell_length_b 14.993837
_cell_length_c 14.312803
_cell_angle_alpha 90.000000
_cell_angle_beta 127.248582
_cell_angle_gamma 90.000000
_cell_volume 3012.272765
_symmetry_space_group_name_H-M "C 2/M"
_symmetry_group_IT_number 12
_symmetry_cell_setting 'monoclinic'
loop_
_space_group_symop_operation_xyz
x,y,z
-x,y,-z
-x,-y,-z
x,-y,z
1/2+x,1/2+y,z
1/2-x,1/2+y,-z
1/2-x,1/2-y,-z
1/2+x,1/2-y,z
loop_
_atom_site_type_symbol
_atom_site_label
_atom_site_fract_x
_atom_site_fract_y
_atom_site_fract_z
Si Si1 0.968493 0.102389 0.370369
Si Si2 0.249380 0.899960 0.813329
Si Si3 0.412311 0.231033 0.861426
Si Si4 0.569957 0.894061 0.640127
Si Si5 0.510011 0.747506 0.746894
Si Si6 0.790654 0.101332 0.809797
Si Si7 0.195725 0.157119 0.966649
O O1 0.857545 0.132104 0.290074
O O2 0.027905 0.172705 0.353739
O O3 0.000000 0.101388 0.500000
O O4 0.971232 0.000000 0.335878
O O5 0.330887 0.835648 0.837336
O O6 0.243923 0.900700 0.921662
O O7 0.262310 0.000000 0.786801
O O8 0.445845 0.212734 0.781099
O O9 0.364829 0.328438 0.825093
O O10 0.500000 0.227771 0.000000
O O11 0.500000 0.875368 0.500000
O O12 0.548113 0.827947 0.710260
O O13 0.681429 0.880708 0.698521
O O14 0.559087 0.000000 0.655820
O O15 0.589096 0.687530 0.860655
O O16 0.814744 0.000000 0.803903
O O17 0.795473 0.114856 0.925570
O O18 0.250000 0.250000 0.000000
#
# Coordination Sequence:
#
# PCOD9206374 Si02
#       7
#     8   8   8   8   8   8   8
#     4   9  19  38  63  87 110 143 195 248 286 331
#     4  10  21  36  58  83 112 151 192 235 286 337
#     4  12  24  39  52  83 128 155 183 231 285 357
#     4  10  22  41  64  88 112 148 201 247 283 336
#     4  11  21  35  60  84 118 154 187 234 294 342
#     4  11  22  38  61  84 115 156 194 239 292 337
#     4  11  17  36  58  83 113 143 193 245 279 334
#
# _framework density 18.590613999999999
#
# number of rings (size 3 to 8) (size 9 to 14) (size 15 to 20)
#    0.000    1.429    4.286    1.714    0.000    2.286 
#    0.000    2.857    0.000    5.143    0.000    0.000 
#    0.000    0.000    0.000    0.000    0.000    0.000 
#
# Total GULP energy -156122.594187 kJ/mol
# GULP energy per Si atom -5575.806935 kJ/mol
# Density = 1.854830 g / cm^3
# Si number density = 18.590614 Si / 1000 Ang^3
#
#
#
# Elastic Constant Matrix: (Units=GPa)
#
#
# Indices 1 2 3 4 5 6 
#
# 1 57.0573 20.4999 12.8572 0.0000 -2.2478 0.0000
# 2 20.4999 69.6734 11.7074 0.0000 3.6735 0.0000
# 3 12.8572 11.7074 73.7569 0.0000 5.4542 0.0000
# 4 0.0000 0.0000 0.0000 24.3360 0.0000 1.3715
# 5 -2.2478 3.6735 5.4542 0.0000 18.4885 0.0000
# 6 0.0000 0.0000 0.0000 1.3715 0.0000 15.8483
#
#
#
# Elastic Compliance Matrix: (Units=1/GPa)
#
#
# Indices 1 2 3 4 5 6 
#
# 1 0.020443 -0.005751 -0.002984 0.000000 0.004508 0.000000
# 2 -0.005751 0.016459 -0.001346 0.000000 -0.003572 0.000000
# 3 -0.002984 -0.001346 0.014618 0.000000 -0.004408 0.000000
# 4 0.000000 0.000000 0.000000 0.041293 0.000000 -0.003574
# 5 0.004508 -0.003572 -0.004408 0.000000 0.056646 0.000000
# 6 0.000000 0.000000 0.000000 -0.003574 0.000000 0.063408
#
#
# Mechanical properties :
#
#
# Convention : Reuss Voigt Hill
#
# Bulk Modulus (GPa) = 31.89009 32.29072 32.09041
# Shear Modulus (GPa) = 20.53553 22.09610 21.31581
#
# Velocity S-wave (km/s) = 3.32718 3.45129 3.38981
# Velocity P-wave (km/s) = 5.65255 5.76966 5.71140
#
# Compressibility (1/GPa) = 0.03135770
#
# Stress axis : x y z
#
# Youngs Moduli (GPa) = 48.91758 60.75594 68.40968
#
# Poissons Ratio (x) = 0.34941 0.20414
# Poissons Ratio (y) = 0.28133 0.09207
# Poissons Ratio (z) = 0.14597 0.08177
#
# Static dielectric constant tensor:
#      x y z
#    x 1.628870 0.000000 -0.041910 
#    y 0.000000 1.496830 0.000000 
#    z -0.041910 0.000000 1.777690 
# 
# From -- ./inp_files/225165.got.cif
#   From: 2010.05.17/outbox.cif.g08.bks.cpg/sg12_113_cif.got.tgz:225165.got - 2010.06.03 13:09:07.
