data_PCOD9206990
_publ_section_title
;
Structure prediction by ZEFSAII (Michael W. Deem and Ramdas Pophale) SiO2 
 PCOD9206990
Probable space group: C 2/M
;
_chemical_formula_sum "Si O2"
_cell_formula_units_Z 48
_cell_length_a 20.728409
_cell_length_b 8.938119
_cell_length_c 23.663261
_cell_angle_alpha 90.000000
_cell_angle_beta 139.578600
_cell_angle_gamma 90.000000
_cell_volume 2842.710121
_symmetry_space_group_name_H-M "C 2/M"
_symmetry_group_IT_number 12
_symmetry_cell_setting 'monoclinic'
loop_
_space_group_symop_operation_xyz
x,y,z
-x,y,-z
-x,-y,-z
x,-y,z
1/2+x,1/2+y,z
1/2-x,1/2+y,-z
1/2-x,1/2-y,-z
1/2+x,1/2-y,z
loop_
_atom_site_type_symbol
_atom_site_label
_atom_site_fract_x
_atom_site_fract_y
_atom_site_fract_z
Si Si1 0.906955 0.171466 0.091256
Si Si2 0.258895 0.821550 0.443572
Si Si3 0.539019 0.321768 0.463774
Si Si4 0.422782 0.320448 0.274391
Si Si5 0.244034 0.327683 0.084537
Si Si6 0.561386 0.177937 0.270895
O O1 0.824775 0.176224 0.087062
O O2 0.997693 0.270964 0.174086
O O3 0.938098 0.000000 0.105515
O O4 0.849060 0.231384 0.997893
O O5 0.250000 0.750000 0.500000
O O6 0.363172 0.769731 0.487103
O O7 0.167689 0.757053 0.346301
O O8 0.252230 0.000000 0.443479
O O9 0.500000 0.286518 0.500000
O O10 0.562344 0.500000 0.477036
O O11 0.456045 0.293354 0.360430
O O12 0.431692 0.500000 0.269112
O O13 0.310285 0.278053 0.182116
O O14 0.498219 0.235683 0.282968
O O15 0.213286 0.500000 0.071263
O O16 0.571503 0.000000 0.279673
#
# Coordination Sequence:
#
# PCOD9206990 Si02
#       6
#     8   8   8   8   8   8
#     4   9  16  26  40  63  96 130 162 205 253 303
#     4  12  23  36  54  77 104 137 176 218 262 311
#     4  10  21  37  56  78 106 140 177 217 260 308
#     4   9  17  30  48  70 100 135 171 211 254 304
#     4   8  14  24  39  62  93 130 166 202 247 300
#     4  11  20  30  48  73 100 133 169 211 257 309
#
# _framework density 16.885294999999999
#
# number of rings (size 3 to 8) (size 9 to 14) (size 15 to 20)
#    0.000    2.167    1.667    4.500    0.000    4.333 
#    0.000    0.000    0.000    0.000    0.000    1.167 
#    0.000    9.333    0.000    0.000    0.000    0.000 
#
# Total GULP energy -133835.700811 kJ/mol
# GULP energy per Si atom -5576.487534 kJ/mol
# Density = 1.684686 g / cm^3
# Si number density = 16.885295 Si / 1000 Ang^3
#
#
#
# Elastic Constant Matrix: (Units=GPa)
#
#
# Indices 1 2 3 4 5 6 
#
# 1 45.7029 40.0934 46.3974 0.0000 -3.9079 0.0000
# 2 40.0934 104.0105 71.8349 0.0000 -0.6794 0.0000
# 3 46.3974 71.8349 164.2031 0.0000 -4.4858 0.0000
# 4 0.0000 0.0000 0.0000 30.5689 0.0000 5.3106
# 5 -3.9079 -0.6794 -4.4858 0.0000 11.5581 0.0000
# 6 0.0000 0.0000 0.0000 5.3106 0.0000 15.5616
#
#
#
# Elastic Compliance Matrix: (Units=1/GPa)
#
#
# Indices 1 2 3 4 5 6 
#
# 1 0.037864 -0.010502 -0.005833 0.000000 0.009921 0.000000
# 2 -0.010502 0.016717 -0.004463 0.000000 -0.004300 0.000000
# 3 -0.005833 -0.004463 0.009733 0.000000 0.001543 0.000000
# 4 0.000000 0.000000 0.000000 0.034775 0.000000 -0.011867
# 5 0.009921 -0.004300 0.001543 0.000000 0.090220 0.000000
# 6 0.000000 0.000000 0.000000 -0.011867 0.000000 0.068310
#
#
# Mechanical properties :
#
#
# Convention : Reuss Voigt Hill
#
# Bulk Modulus (GPa) = 44.02080 70.06309 57.04195
# Shear Modulus (GPa) = 16.29789 21.91046 19.10417
#
# Velocity S-wave (km/s) = 3.11016 3.60614 3.36729
# Velocity P-wave (km/s) = 6.24696 7.67611 6.99811
#
# Compressibility (1/GPa) = 0.02271653
#
# Stress axis : x y z
#
# Youngs Moduli (GPa) = 26.41055 59.81872 102.74179
#
# Poissons Ratio (x) = 0.62820 0.59934
# Poissons Ratio (y) = 0.27736 0.45858
# Poissons Ratio (z) = 0.15407 0.26700
#
# Static dielectric constant tensor:
#      x y z
#    x 1.532310 0.000000 -0.008450 
#    y 0.000000 1.569850 0.000000 
#    z -0.008450 0.000000 1.607880 
# 
# From -- ./inp_files/345710.got.cif
#   From: 2010.05.17/outbox.cif.g08.bks.cpg/sg12_173_cif.got.tgz:345710.got - 2010.06.03 13:09:07.
