data_PCOD9206215
_publ_section_title
;
Structure prediction by ZEFSAII (Michael W. Deem and Ramdas Pophale) SiO2 
 PCOD9206215
Probable space group: C 2/M
;
_chemical_formula_sum "Si O2"
_cell_formula_units_Z 40
_cell_length_a 13.062109
_cell_length_b 24.582528
_cell_length_c 9.221790
_cell_angle_alpha 90.000000
_cell_angle_beta 37.274192
_cell_angle_gamma 90.000000
_cell_volume 1793.339340
_symmetry_space_group_name_H-M "C 2/M"
_symmetry_group_IT_number 12
_symmetry_cell_setting 'monoclinic'
loop_
_space_group_symop_operation_xyz
x,y,z
-x,y,-z
-x,-y,-z
x,-y,z
1/2+x,1/2+y,z
1/2-x,1/2+y,-z
1/2-x,1/2-y,-z
1/2+x,1/2-y,z
loop_
_atom_site_type_symbol
_atom_site_label
_atom_site_fract_x
_atom_site_fract_y
_atom_site_fract_z
Si Si1 0.119138 0.609568 0.684183
Si Si2 0.883162 0.164000 0.813750
Si Si3 0.745457 0.936811 0.833121
Si Si4 0.695831 0.829860 0.326629
Si Si5 0.252574 0.289795 0.674237
O O1 0.224448 0.576532 0.685788
O O2 0.193854 0.619785 0.440823
O O3 0.117971 0.671067 0.750043
O O4 0.935080 0.582265 0.894361
O O5 0.878422 0.102777 0.758046
O O6 0.767252 0.197384 0.829939
O O7 0.066968 0.189802 0.590985
O O8 0.807317 0.162840 0.058465
O O9 0.775297 0.000000 0.821800
O O10 0.500000 0.821025 0.500000
O O11 0.762081 0.774318 0.325200
#
# Coordination Sequence:
#
# PCOD9206215 Si02
#       5
#     8   8   8   8   8
#     4  10  21  36  56  88 113 151 197 234 285 346
#     4  10  21  38  58  86 120 153 198 236 284 353
#     4  10  21  41  63  82 114 157 201 244 289 347
#     4  12  21  35  59  90 123 154 189 240 291 338
#     4  10  22  37  59  86 123 163 186 228 290 355
#
# _framework density 22.304759000000001
#
# number of rings (size 3 to 8) (size 9 to 14) (size 15 to 20)
#    0.000    1.600    4.000    2.400    0.000    0.800 
#    0.000   12.000    0.000    0.000    0.000   23.800 
#    0.000    0.000    0.000    0.000    0.000    0.000 
#
# Total GULP energy -111871.510630 kJ/mol
# GULP energy per Si atom -5593.575532 kJ/mol
# Density = 2.225399 g / cm^3
# Si number density = 22.304759 Si / 1000 Ang^3
#
#
#
# Elastic Constant Matrix: (Units=GPa)
#
#
# Indices 1 2 3 4 5 6 
#
# 1 58.3036 26.7895 43.7976 0.0000 5.7892 0.0000
# 2 26.7895 138.4153 31.4770 0.0000 11.6068 0.0000
# 3 43.7976 31.4770 167.3144 0.0000 27.3784 0.0000
# 4 0.0000 0.0000 0.0000 24.5510 0.0000 -2.8110
# 5 5.7892 11.6068 27.3784 0.0000 36.0956 0.0000
# 6 0.0000 0.0000 0.0000 -2.8110 0.0000 8.5026
#
#
#
# Elastic Compliance Matrix: (Units=1/GPa)
#
#
# Indices 1 2 3 4 5 6 
#
# 1 0.022688 -0.003257 -0.005597 0.000000 0.001654 0.000000
# 2 -0.003257 0.008091 -0.000376 0.000000 -0.001794 0.000000
# 3 -0.005597 -0.000376 0.008387 0.000000 -0.005343 0.000000
# 4 0.000000 0.000000 0.000000 0.042334 0.000000 0.013996
# 5 0.001654 -0.001794 -0.005343 0.000000 0.032068 0.000000
# 6 0.000000 0.000000 0.000000 0.013996 0.000000 0.122238
#
#
# Mechanical properties :
#
#
# Convention : Reuss Voigt Hill
#
# Bulk Modulus (GPa) = 48.29461 63.12906 55.71184
# Shear Modulus (GPa) = 19.14471 31.29445 25.21958
#
# Velocity S-wave (km/s) = 2.93290 3.74978 3.36621
# Velocity P-wave (km/s) = 5.75919 6.86383 6.33563
#
# Compressibility (1/GPa) = 0.02070624
#
# Stress axis : x y z
#
# Youngs Moduli (GPa) = 44.07537 123.59455 119.23378
#
# Poissons Ratio (x) = 0.40256 0.66735
# Poissons Ratio (y) = 0.14356 0.04483
# Poissons Ratio (z) = 0.24669 0.04647
#
# Static dielectric constant tensor:
#      x y z
#    x 1.883900 0.000000 0.015020 
#    y 0.000000 1.784210 0.000000 
#    z 0.015020 0.000000 1.874880 
# 
# From -- ./inp_files/64623.got.cif
#   From: 2010.05.17/outbox.cif.g08.bks.cpg/sg12_33_cif.got.tgz:64623.got - 2010.06.03 13:09:07.
