data_PCOD9206138
_publ_section_title
;
Structure prediction by ZEFSAII (Michael W. Deem and Ramdas Pophale) SiO2 
 PCOD9206138
Probable space group: C 2/M
;
_chemical_formula_sum "Si O2"
_cell_formula_units_Z 56
_cell_length_a 9.845464
_cell_length_b 22.801635
_cell_length_c 16.301555
_cell_angle_alpha 90.000000
_cell_angle_beta 127.153967
_cell_angle_gamma 90.000000
_cell_volume 2916.741435
_symmetry_space_group_name_H-M "C 2/M"
_symmetry_group_IT_number 12
_symmetry_cell_setting 'monoclinic'
loop_
_space_group_symop_operation_xyz
x,y,z
-x,y,-z
-x,-y,-z
x,-y,z
1/2+x,1/2+y,z
1/2-x,1/2+y,-z
1/2-x,1/2-y,-z
1/2+x,1/2-y,z
loop_
_atom_site_type_symbol
_atom_site_label
_atom_site_fract_x
_atom_site_fract_y
_atom_site_fract_z
Si Si1 0.187853 0.338147 0.594446
Si Si2 0.237859 0.250000 0.237859
Si Si3 0.201787 0.569540 0.293106
Si Si4 0.693957 0.646126 0.097408
Si Si5 0.998961 0.161853 0.405554
Si Si6 0.384426 0.069540 0.293106
Si Si7 0.000859 0.646126 0.097408
O O1 0.274001 0.290611 0.686139
O O2 0.315439 0.348449 0.565439
O O3 0.151509 0.395714 0.636419
O O4 0.000000 0.317586 0.500000
O O5 0.244975 0.205047 0.165122
O O6 0.401723 0.290611 0.313861
O O7 0.085269 0.294954 0.165122
O O8 0.224869 0.500000 0.300297
O O9 0.378671 0.604286 0.363581
O O10 0.108426 0.593370 0.177298
O O11 0.068478 0.584314 0.318478
O O12 0.746171 0.593371 0.177299
O O13 0.810450 0.641302 0.060450
O O14 0.500000 0.647036 0.000000
O O15 0.000000 0.182414 0.500000
O O16 0.375724 0.000000 0.300297
O O17 0.000000 0.647037 0.000000
#
# Coordination Sequence:
#
# PCOD9206138 Si02
#       7
#     8   8   8   8   8   8   8
#     4  11  23  38  59  86 114 147 187 232 282 335
#     4  10  22  38  58  80 112 150 190 230 272 328
#     4   9  20  40  61  81 111 150 190 233 279 329
#     4  10  21  36  56  83 113 146 185 229 278 330
#     4  11  23  38  59  86 114 147 187 232 282 335
#     4   9  20  40  61  81 111 150 190 233 279 329
#     4  10  21  36  56  83 113 146 185 229 278 330
#
# _framework density 19.199508000000002
#
# number of rings (size 3 to 8) (size 9 to 14) (size 15 to 20)
#    0.000    2.000    0.000    2.571    0.000   13.143 
#    0.000    0.000    0.000    0.000    0.000    0.000 
#    0.000    0.000    0.000    0.000    0.000    0.000 
#
# Total GULP energy -156315.893093 kJ/mol
# GULP energy per Si atom -5582.710468 kJ/mol
# Density = 1.915581 g / cm^3
# Si number density = 19.199508 Si / 1000 Ang^3
#
#
#
# Elastic Constant Matrix: (Units=GPa)
#
#
# Indices 1 2 3 4 5 6 
#
# 1 144.9210 41.7800 74.5698 0.0000 1.8341 0.0000
# 2 41.7800 95.2424 24.6439 0.0000 1.7335 0.0000
# 3 74.5698 24.6439 93.0880 0.0000 3.4092 0.0000
# 4 0.0000 0.0000 0.0000 5.0758 0.0000 0.2749
# 5 1.8341 1.7335 3.4092 0.0000 25.9503 0.0000
# 6 0.0000 0.0000 0.0000 0.2749 0.0000 7.7942
#
#
#
# Elastic Compliance Matrix: (Units=1/GPa)
#
#
# Indices 1 2 3 4 5 6 
#
# 1 0.012553 -0.003123 -0.009248 0.000000 0.000536 0.000000
# 2 -0.003123 0.012052 -0.000671 0.000000 -0.000496 0.000000
# 3 -0.009248 -0.000671 0.018392 0.000000 -0.001718 0.000000
# 4 0.000000 0.000000 0.000000 0.197389 0.000000 -0.006963
# 5 0.000536 -0.000496 -0.001718 0.000000 0.038756 0.000000
# 6 0.000000 0.000000 0.000000 -0.006963 0.000000 0.128546
#
#
# Mechanical properties :
#
#
# Convention : Reuss Voigt Hill
#
# Bulk Modulus (GPa) = 59.12948 68.35986 63.74467
# Shear Modulus (GPa) = 11.37891 20.58125 15.98008
#
# Velocity S-wave (km/s) = 2.43712 3.27764 2.88812
# Velocity P-wave (km/s) = 6.22765 7.07151 6.66295
#
# Compressibility (1/GPa) = 0.01691204
#
# Stress axis : x y z
#
# Youngs Moduli (GPa) = 79.66370 82.97278 54.37279
#
# Poissons Ratio (x) = 0.25915 0.50286
# Poissons Ratio (y) = 0.24881 0.03646
# Poissons Ratio (z) = 0.73676 0.05564
#
# Static dielectric constant tensor:
#      x y z
#    x 1.652680 0.000000 -0.001750 
#    y 0.000000 1.668970 0.000000 
#    z -0.001750 0.000000 1.669950 
# 
# From -- ./inp_files/259256.got.cif
#   From: 2010.05.17/outbox.cif.g08.bks.cpg/sg12_130_cif.got.tgz:259256.got - 2010.06.03 13:09:07.
