data_PCOD9206790
_publ_section_title
;
Structure prediction by ZEFSAII (Michael W. Deem and Ramdas Pophale) SiO2 
 PCOD9206790
Probable space group: C 2/M
;
_chemical_formula_sum "Si O2"
_cell_formula_units_Z 40
_cell_length_a 19.722077
_cell_length_b 9.768491
_cell_length_c 9.246542
_cell_angle_alpha 90.000000
_cell_angle_beta 78.506686
_cell_angle_gamma 90.000000
_cell_volume 1745.671380
_symmetry_space_group_name_H-M "C 2/M"
_symmetry_group_IT_number 12
_symmetry_cell_setting 'monoclinic'
loop_
_space_group_symop_operation_xyz
x,y,z
-x,y,-z
-x,-y,-z
x,-y,z
1/2+x,1/2+y,z
1/2-x,1/2+y,-z
1/2-x,1/2-y,-z
1/2+x,1/2-y,z
loop_
_atom_site_type_symbol
_atom_site_label
_atom_site_fract_x
_atom_site_fract_y
_atom_site_fract_z
Si Si1 0.864185 0.707544 0.523267
Si Si2 0.253929 0.857255 0.327435
Si Si3 0.047010 0.338150 0.775210
Si Si4 0.884378 0.348907 0.844074
Si Si5 0.660670 0.664101 0.897838
O O1 0.823660 0.846244 0.579908
O O2 0.806368 0.642579 0.441516
O O3 0.932526 0.700912 0.397937
O O4 0.876668 0.647227 0.675012
O O5 0.276464 0.727584 0.222102
O O6 0.263387 0.000000 0.242449
O O7 0.064072 0.500000 0.790487
O O8 0.094164 0.236195 0.849189
O O9 0.965948 0.324654 0.837537
O O10 0.865410 0.500000 0.908941
O O11 0.842132 0.229871 0.941692
O O12 0.659538 0.500000 0.896293
#
# Coordination Sequence:
#
# PCOD9206790 Si02
#       5
#     8   8   8   8   8
#     4  10  21  36  63  94 118 145 195 251 294 340
#     4  10  22  42  65  87 117 158 200 241 294 359
#     4  10  21  39  63  89 119 158 199 238 290 356
#     4  11  22  38  62  90 121 157 197 242 292 351
#     4  11  24  40  60  87 120 159 200 245 296 346
#
# _framework density 22.913819
#
# number of rings (size 3 to 8) (size 9 to 14) (size 15 to 20)
#    0.000    1.600    0.000    6.000    0.000   15.200 
#    0.000    0.000    0.000    7.200    0.000    0.000 
#    0.000    0.000    0.000    0.000    0.000    0.000 
#
# Total GULP energy -111642.013012 kJ/mol
# GULP energy per Si atom -5582.100651 kJ/mol
# Density = 2.286167 g / cm^3
# Si number density = 22.913819 Si / 1000 Ang^3
#
#
#
# Elastic Constant Matrix: (Units=GPa)
#
#
# Indices 1 2 3 4 5 6 
#
# 1 53.6134 43.6061 14.6800 0.0000 4.2385 0.0000
# 2 43.6061 193.9883 72.1265 0.0000 -17.5085 0.0000
# 3 14.6800 72.1265 146.7838 0.0000 -4.4765 0.0000
# 4 0.0000 0.0000 0.0000 6.9709 0.0000 -9.6037
# 5 4.2385 -17.5085 -4.4765 0.0000 34.1188 0.0000
# 6 0.0000 0.0000 0.0000 -9.6037 0.0000 3.5534
#
#
#
# Elastic Compliance Matrix: (Units=1/GPa)
#
#
# Indices 1 2 3 4 5 6 
#
# 1 0.023968 -0.006085 0.000409 0.000000 -0.006047 0.000000
# 2 -0.006085 0.008139 -0.003253 0.000000 0.004506 0.000000
# 3 0.000409 -0.003253 0.008351 0.000000 -0.000625 0.000000
# 4 0.000000 0.000000 0.000000 -0.052673 0.000000 -0.142360
# 5 -0.006047 0.004506 -0.000625 0.000000 0.032291 0.000000
# 6 0.000000 0.000000 0.000000 -0.142360 0.000000 -0.103332
#
#
# Mechanical properties :
#
#
# Convention : Reuss Voigt Hill
#
# Bulk Modulus (GPa) = 44.25107 72.80119 58.52613
# Shear Modulus (GPa) = -86.40940 26.52680 -29.94130
#
# Velocity S-wave (km/s) = -6.14756 3.40616 -3.61874
# Velocity P-wave (km/s) = 5.57100 6.87822 2.85253
#
# Compressibility (1/GPa) = 0.02259833
#
# Stress axis : x y z
#
# Youngs Moduli (GPa) = 41.72297 122.86258 119.73950
#
# Poissons Ratio (x) = 0.74766 -0.04895
# Poissons Ratio (y) = 0.25390 0.38956
# Poissons Ratio (z) = -0.01706 0.39972
#
# Static dielectric constant tensor:
#      x y z
#    x 1.870620 0.000000 0.021160 
#    y 0.000000 1.840350 0.000000 
#    z 0.021160 0.000000 1.888140 
# 
# From -- ./inp_files/92798.got.cif
#   From: 2010.05.17/outbox.cif.g08.bks.cpg/sg12_47_cif.got.tgz:92798.got - 2010.06.03 13:09:07.
