data_PCOD9206382
_publ_section_title
;
Structure prediction by ZEFSAII (Michael W. Deem and Ramdas Pophale) SiO2 
 PCOD9206382
Probable space group: C 2/M
;
_chemical_formula_sum "Si O2"
_cell_formula_units_Z 40
_cell_length_a 16.981324
_cell_length_b 27.226457
_cell_length_c 8.784529
_cell_angle_alpha 90.000000
_cell_angle_beta 155.215061
_cell_angle_gamma 90.000000
_cell_volume 1702.614638
_symmetry_space_group_name_H-M "C 2/M"
_symmetry_group_IT_number 12
_symmetry_cell_setting 'monoclinic'
loop_
_space_group_symop_operation_xyz
x,y,z
-x,y,-z
-x,-y,-z
x,-y,z
1/2+x,1/2+y,z
1/2-x,1/2+y,-z
1/2-x,1/2-y,-z
1/2+x,1/2-y,z
loop_
_atom_site_type_symbol
_atom_site_label
_atom_site_fract_x
_atom_site_fract_y
_atom_site_fract_z
Si Si1 0.879918 0.794758 0.440192
Si Si2 0.968993 0.394492 0.617720
Si Si3 0.105039 0.903094 0.523910
Si Si4 0.537466 0.801185 0.244920
Si Si5 0.401735 0.000000 0.587188
Si Si6 0.189583 0.000000 0.525490
O O1 0.946188 0.847907 0.619277
O O2 0.000000 0.784145 0.500000
O O3 0.877540 0.750370 0.555340
O O4 0.661955 0.800762 0.016844
O O5 0.864881 0.351259 0.527040
O O6 0.000000 0.378499 0.500000
O O7 0.880396 0.448779 0.461262
O O8 0.171410 0.400883 0.052737
O O9 0.079307 0.950414 0.374068
O O10 0.000000 0.910665 0.500000
O O11 0.500000 0.804319 0.000000
O O12 0.257542 0.000000 0.472788
O O13 0.613969 0.000000 0.031728
#
# Coordination Sequence:
#
# PCOD9206382 Si02
#       6
#     8   8   8   8   4   4
#     4  10  21  38  58  82 115 150 190 225 277 339
#     4  10  21  36  58  84 111 144 184 228 273 331
#     4   9  19  34  58  83 110 147 186 221 273 335
#     4  11  23  37  58  86 114 146 190 235 280 326
#     4   9  19  32  57  83 111 142 180 230 276 324
#     4   9  17  32  57  83 112 141 182 230 275 321
#
# _framework density 23.493279000000001
#
# number of rings (size 3 to 8) (size 9 to 14) (size 15 to 20)
#    0.000    2.200    0.000    2.400    8.400    3.200 
#    0.000    0.000    0.000    1.200    0.000    0.000 
#    0.000    0.000    0.000    0.000    0.000    0.000 
#
# Total GULP energy -111685.557830 kJ/mol
# GULP energy per Si atom -5584.277891 kJ/mol
# Density = 2.343981 g / cm^3
# Si number density = 23.493279 Si / 1000 Ang^3
#
#
#
# Elastic Constant Matrix: (Units=GPa)
#
#
# Indices 1 2 3 4 5 6 
#
# 1 61.6729 68.7939 -3.1633 0.0000 -10.1159 0.0000
# 2 68.7939 239.0113 15.6391 0.0000 -33.0260 0.0000
# 3 -3.1633 15.6391 39.6563 0.0000 1.3390 0.0000
# 4 0.0000 0.0000 0.0000 15.7359 0.0000 -5.6382
# 5 -10.1159 -33.0260 1.3390 0.0000 36.8723 0.0000
# 6 0.0000 0.0000 0.0000 -5.6382 0.0000 5.3089
#
#
#
# Elastic Compliance Matrix: (Units=1/GPa)
#
#
# Indices 1 2 3 4 5 6 
#
# 1 0.024782 -0.007464 0.004923 0.000000 -0.000065 0.000000
# 2 -0.007464 0.007192 -0.003584 0.000000 0.004524 0.000000
# 3 0.004923 -0.003584 0.027119 0.000000 -0.002845 0.000000
# 4 0.000000 0.000000 0.000000 0.102586 0.000000 0.108951
# 5 -0.000065 0.004524 -0.002845 0.000000 0.031258 0.000000
# 6 0.000000 0.000000 0.000000 0.108951 0.000000 0.304074
#
#
# Mechanical properties :
#
#
# Convention : Reuss Voigt Hill
#
# Bulk Modulus (GPa) = 21.34861 55.87553 38.61207
# Shear Modulus (GPa) = 9.52602 28.85479 19.19041
#
# Velocity S-wave (km/s) = 2.01583 3.50839 2.86115
# Velocity P-wave (km/s) = 3.81116 6.34405 5.23316
#
# Compressibility (1/GPa) = 0.04684145
#
# Stress axis : x y z
#
# Youngs Moduli (GPa) = 40.35133 139.04445 36.87452
#
# Poissons Ratio (x) = 1.03785 -0.18152
# Poissons Ratio (y) = 0.30119 0.13217
# Poissons Ratio (z) = -0.19863 0.49839
#
# Static dielectric constant tensor:
#      x y z
#    x 7.000470 0.000000 -7.341910 
#    y 0.000000 2.001750 0.000000 
#    z -7.341910 0.000000 12.444170 
# 
# From -- ./inp_files/50998.got.cif
#   From: 2010.05.17/outbox.cif.g08.bks.cpg/sg12_26_cif.got.tgz:50998.got - 2010.06.03 13:09:07.
