data_PCOD9206715
_publ_section_title
;
Structure prediction by ZEFSAII (Michael W. Deem and Ramdas Pophale) SiO2 
 PCOD9206715
Probable space group: C 2/M
;
_chemical_formula_sum "Si O2"
_cell_formula_units_Z 42
_cell_length_a 13.059569
_cell_length_b 12.705396
_cell_length_c 12.074602
_cell_angle_alpha 90.000000
_cell_angle_beta 96.701706
_cell_angle_gamma 90.000000
_cell_volume 1989.812853
_symmetry_space_group_name_H-M "C 2/M"
_symmetry_group_IT_number 12
_symmetry_cell_setting 'monoclinic'
loop_
_space_group_symop_operation_xyz
x,y,z
-x,y,-z
-x,-y,-z
x,-y,z
1/2+x,1/2+y,z
1/2-x,1/2+y,-z
1/2-x,1/2-y,-z
1/2+x,1/2-y,z
loop_
_atom_site_type_symbol
_atom_site_label
_atom_site_fract_x
_atom_site_fract_y
_atom_site_fract_z
Si Si1 0.500000 0.000000 0.000000
Si Si2 0.623451 0.159328 0.177710
Si Si3 0.856548 0.122578 0.258471
Si Si4 0.174981 0.120753 0.498586
Si Si5 0.592548 0.827173 0.425593
Si Si6 0.457988 0.378969 0.870140
O O1 0.559377 0.092144 0.081957
O O2 0.743939 0.130830 0.192740
O O3 0.582785 0.134162 0.297888
O O4 0.621525 0.284249 0.151645
O O5 0.852987 0.164527 0.382427
O O6 0.946557 0.161401 0.192347
O O7 0.878316 0.000000 0.276365
O O8 0.299178 0.128759 0.511399
O O9 0.115529 0.201951 0.414368
O O10 0.144215 0.000000 0.478932
O O11 0.500000 0.847462 0.500000
O O12 0.426201 0.500000 0.836704
O O13 0.500000 0.384090 0.000000
#
# Coordination Sequence:
#
# PCOD9206715 Si02
#       6
#     2   8   8   8   8   8
#     4  12  24  44  60  92 114 164 218 242 272 382
#     4  11  22  40  63  86 121 160 206 246 289 364
#     4   9  18  36  63  84 118 166 198 237 303 357
#     4   9  19  36  57  88 121 156 197 234 291 380
#     4  10  21  36  61  90 121 153 192 251 307 338
#     4  10  21  37  57  86 118 152 199 254 301 343
#
# _framework density 21.107512
#
# number of rings (size 3 to 8) (size 9 to 14) (size 15 to 20)
#    0.000    2.095    1.905    1.143    1.333    2.286 
#    0.000    0.000    0.000    0.000    0.000    0.000 
#    0.000    0.000    0.000    0.000    0.000    0.000 
#
# Total GULP energy -116910.536187 kJ/mol
# GULP energy per Si atom -5567.168390 kJ/mol
# Density = 2.105947 g / cm^3
# Si number density = 21.107512 Si / 1000 Ang^3
#
#
#
# Elastic Constant Matrix: (Units=GPa)
#
#
# Indices 1 2 3 4 5 6 
#
# 1 48.8637 0.4100 19.5075 0.0000 -5.7138 0.0000
# 2 0.4100 85.2083 13.2276 0.0000 1.2455 0.0000
# 3 19.5075 13.2276 57.6105 0.0000 22.1162 0.0000
# 4 0.0000 0.0000 0.0000 21.5827 0.0000 1.8261
# 5 -5.7138 1.2455 22.1162 0.0000 23.5506 0.0000
# 6 0.0000 0.0000 0.0000 1.8261 0.0000 19.6231
#
#
#
# Elastic Compliance Matrix: (Units=1/GPa)
#
#
# Indices 1 2 3 4 5 6 
#
# 1 0.033328 0.003049 -0.023500 0.000000 0.029993 0.000000
# 2 0.003049 0.012595 -0.006181 0.000000 0.005878 0.000000
# 3 -0.023500 -0.006181 0.045032 0.000000 -0.047664 0.000000
# 4 0.000000 0.000000 0.000000 0.046701 0.000000 -0.004346
# 5 0.029993 0.005878 -0.047664 0.000000 0.094189 0.000000
# 6 0.000000 0.000000 0.000000 -0.004346 0.000000 0.051365
#
#
# Mechanical properties :
#
#
# Convention : Reuss Voigt Hill
#
# Bulk Modulus (GPa) = 26.53026 28.66366 27.59696
# Shear Modulus (GPa) = 14.32515 23.52045 18.92280
#
# Velocity S-wave (km/s) = 2.60797 3.34176 2.99740
# Velocity P-wave (km/s) = 4.65457 5.33846 5.00820
#
# Compressibility (1/GPa) = 0.03769280
#
# Stress axis : x y z
#
# Youngs Moduli (GPa) = 30.00459 79.39736 22.20634
#
# Poissons Ratio (x) = -0.24210 0.52184
# Poissons Ratio (y) = -0.09149 0.13726
# Poissons Ratio (z) = 0.70509 0.49075
#
# Static dielectric constant tensor:
#      x y z
#    x 1.779840 0.000000 -0.062780 
#    y 0.000000 1.776510 0.000000 
#    z -0.062780 0.000000 1.813470 
# 
# From -- ./inp_files/142092.got.cif
#   From: 2010.05.17/outbox.cif.g08.bks.cpg/sg12_72_cif.got.tgz:142092.got - 2010.06.03 13:09:07.
