data_PCOD9206145
_publ_section_title
;
Structure prediction by ZEFSAII (Michael W. Deem and Ramdas Pophale) SiO2 
 PCOD9206145
Probable space group: C 2/M
;
_chemical_formula_sum "Si O2"
_cell_formula_units_Z 52
_cell_length_a 30.738198
_cell_length_b 14.973053
_cell_length_c 10.214665
_cell_angle_alpha 90.000000
_cell_angle_beta 150.698264
_cell_angle_gamma 90.000000
_cell_volume 2300.831072
_symmetry_space_group_name_H-M "C 2/M"
_symmetry_group_IT_number 12
_symmetry_cell_setting 'monoclinic'
loop_
_space_group_symop_operation_xyz
x,y,z
-x,y,-z
-x,-y,-z
x,-y,z
1/2+x,1/2+y,z
1/2-x,1/2+y,-z
1/2-x,1/2-y,-z
1/2+x,1/2-y,z
loop_
_atom_site_type_symbol
_atom_site_label
_atom_site_fract_x
_atom_site_fract_y
_atom_site_fract_z
Si Si1 0.500000 0.807338 0.500000
Si Si2 0.310402 0.143694 0.037901
Si Si3 0.398323 0.891392 0.746593
Si Si4 0.562539 0.368054 0.779619
Si Si5 0.424986 0.397080 0.894232
Si Si6 0.229617 0.602647 0.362143
Si Si7 0.752791 0.850540 0.853433
O O1 0.583223 0.860176 0.661921
O O2 0.457930 0.738586 0.283803
O O3 0.261461 0.109376 0.039270
O O4 0.291417 0.103317 0.846606
O O5 0.279742 0.247012 0.944054
O O6 0.348686 0.861814 0.750532
O O7 0.335737 0.859909 0.463655
O O8 0.400266 0.000000 0.748268
O O9 0.500000 0.861208 0.000000
O O10 0.500000 0.403431 0.500000
O O11 0.542434 0.398439 0.871606
O O12 0.663820 0.388942 0.007746
O O13 0.413611 0.500000 0.817240
O O14 0.326959 0.354226 0.634926
O O15 0.500000 0.354955 0.000000
O O16 0.239395 0.500000 0.431865
#
# Coordination Sequence:
#
# PCOD9206145 Si02
#       7
#     4   8   8   8   8   8   8
#     4   8  20  38  56  80 114 148 188 242 290 340
#     4  10  22  38  60  84 120 150 195 245 291 354
#     4  10  22  41  62  87 122 159 200 244 290 347
#     4   9  19  37  58  78 113 148 191 234 289 347
#     4  10  21  36  56  83 115 148 187 237 294 351
#     4  10  22  40  60  86 121 156 193 246 296 348
#     4  10  21  39  60  86 115 157 197 242 294 345
#
# _framework density 22.600529000000002
#
# number of rings (size 3 to 8) (size 9 to 14) (size 15 to 20)
#    0.462    1.846    1.538    0.000    4.308    1.538 
#    0.000    1.154    0.000    0.000    0.000    0.000 
#    0.000    0.000    0.000    0.000    0.000    0.000 
#
# Total GULP energy -145075.579282 kJ/mol
# GULP energy per Si atom -5579.829972 kJ/mol
# Density = 2.254909 g / cm^3
# Si number density = 22.600529 Si / 1000 Ang^3
#
#
#
# Elastic Constant Matrix: (Units=GPa)
#
#
# Indices 1 2 3 4 5 6 
#
# 1 206.2886 7.3421 91.7852 0.0000 7.1907 0.0000
# 2 7.3421 39.9424 -7.4550 0.0000 6.3983 0.0000
# 3 91.7852 -7.4550 147.3755 0.0000 18.5054 0.0000
# 4 0.0000 0.0000 0.0000 22.1069 0.0000 -7.8847
# 5 7.1907 6.3983 18.5054 0.0000 43.2618 0.0000
# 6 0.0000 0.0000 0.0000 -7.8847 0.0000 8.3239
#
#
#
# Elastic Compliance Matrix: (Units=1/GPa)
#
#
# Indices 1 2 3 4 5 6 
#
# 1 0.006925 -0.002310 -0.004574 0.000000 0.001147 0.000000
# 2 -0.002310 0.026914 0.003436 0.000000 -0.005066 0.000000
# 3 -0.004574 0.003436 0.010331 0.000000 -0.004167 0.000000
# 4 0.000000 0.000000 0.000000 0.068314 0.000000 0.064710
# 5 0.001147 -0.005066 -0.004167 0.000000 0.025456 0.000000
# 6 0.000000 0.000000 0.000000 0.064710 0.000000 0.181431
#
#
# Mechanical properties :
#
#
# Convention : Reuss Voigt Hill
#
# Bulk Modulus (GPa) = 26.82806 64.10571 45.46688
# Shear Modulus (GPa) = 14.76274 34.86747 24.81511
#
# Velocity S-wave (km/s) = 2.55856 3.93208 3.31718
# Velocity P-wave (km/s) = 4.54143 7.00294 5.90194
#
# Compressibility (1/GPa) = 0.03727441
#
# Stress axis : x y z
#
# Youngs Moduli (GPa) = 144.40835 37.15582 96.79660
#
# Poissons Ratio (x) = 0.08584 0.44271
# Poissons Ratio (y) = 0.33363 -0.33264
# Poissons Ratio (z) = 0.66047 -0.12768
#
# Static dielectric constant tensor:
#      x y z
#    x 1.842880 0.000000 0.034580 
#    y 0.000000 1.879370 0.000000 
#    z 0.034580 0.000000 1.807410 
# 
# From -- ./inp_files/113306.got.cif
#   From: 2010.05.17/outbox.cif.g08.bks.cpg/sg12_57_cif.got.tgz:113306.got - 2010.06.03 13:09:07.
