data_PCOD9206044
_publ_section_title
;
Structure prediction by ZEFSAII (Michael W. Deem and Ramdas Pophale) SiO2 
 PCOD9206044
Probable space group: C 2/M
;
_chemical_formula_sum "Si O2"
_cell_formula_units_Z 56
_cell_length_a 16.754529
_cell_length_b 7.711247
_cell_length_c 24.697888
_cell_angle_alpha 90.000000
_cell_angle_beta 136.068341
_cell_angle_gamma 90.000000
_cell_volume 2213.863632
_symmetry_space_group_name_H-M "C 2/M"
_symmetry_group_IT_number 12
_symmetry_cell_setting 'monoclinic'
loop_
_space_group_symop_operation_xyz
x,y,z
-x,y,-z
-x,-y,-z
x,-y,z
1/2+x,1/2+y,z
1/2-x,1/2+y,-z
1/2-x,1/2-y,-z
1/2+x,1/2-y,z
loop_
_atom_site_type_symbol
_atom_site_label
_atom_site_fract_x
_atom_site_fract_y
_atom_site_fract_z
Si Si1 0.338815 0.301365 0.735774
Si Si2 0.966361 0.297824 0.310306
Si Si3 0.216753 0.209625 0.171348
Si Si4 0.576794 0.797867 0.878584
Si Si5 0.463710 0.710848 0.542574
Si Si6 0.830913 0.705129 0.966516
Si Si7 0.213669 0.699842 0.404486
O O1 0.299918 0.500000 0.714763
O O2 0.320222 0.230389 0.787214
O O3 0.476970 0.294290 0.796814
O O4 0.279312 0.204329 0.657382
O O5 0.971192 0.500000 0.295526
O O6 0.848490 0.226317 0.228637
O O7 0.958887 0.285271 0.371752
O O8 0.090543 0.216710 0.357838
O O9 0.142998 0.262875 0.083399
O O10 0.217333 0.000000 0.172709
O O11 0.704328 0.780612 0.916795
O O12 0.545798 0.000000 0.863343
O O13 0.586750 0.728289 0.945296
O O14 0.500000 0.761015 0.500000
O O15 0.466906 0.500000 0.547081
O O16 0.331653 0.773174 0.485645
O O17 0.823791 0.500000 0.971804
O O18 0.209505 0.500000 0.420037
#
# Coordination Sequence:
#
# PCOD9206044 Si02
#       7
#     8   8   8   8   8   8   8
#     4  11  23  37  56  83 112 147 192 234 279 337
#     4  10  21  37  57  80 107 144 187 227 276 335
#     4  10  22  38  55  80 115 150 186 235 288 332
#     4  10  21  38  59  83 114 148 183 230 284 334
#     4  10  21  36  55  82 114 145 180 226 280 335
#     4  10  21  37  60  87 111 144 190 231 274 335
#     4  10  21  37  57  81 110 146 187 232 285 338
#
# _framework density 25.295142999999999
#
# number of rings (size 3 to 8) (size 9 to 14) (size 15 to 20)
#    0.000    1.857    0.000    3.429    0.000    6.571 
#    0.000    2.857    0.000    0.000    0.000    0.000 
#    0.000    0.000    0.000    0.000    0.000    0.000 
#
# Total GULP energy -156665.284495 kJ/mol
# GULP energy per Si atom -5595.188732 kJ/mol
# Density = 2.523757 g / cm^3
# Si number density = 25.295143 Si / 1000 Ang^3
#
#
#
# Elastic Constant Matrix: (Units=GPa)
#
#
# Indices 1 2 3 4 5 6 
#
# 1 63.3051 -3.4824 1.8440 0.0000 -12.6032 0.0000
# 2 -3.4824 61.6263 -4.6205 0.0000 3.8507 0.0000
# 3 1.8440 -4.6205 124.7950 0.0000 -16.3580 0.0000
# 4 0.0000 0.0000 0.0000 14.4027 0.0000 -11.2836
# 5 -12.6032 3.8507 -16.3580 0.0000 47.0575 0.0000
# 6 0.0000 0.0000 0.0000 -11.2836 0.0000 21.2721
#
#
#
# Elastic Compliance Matrix: (Units=1/GPa)
#
#
# Indices 1 2 3 4 5 6 
#
# 1 0.016730 0.000689 0.000375 0.000000 0.004555 0.000000
# 2 0.000689 0.016363 0.000466 0.000000 -0.000993 0.000000
# 3 0.000375 0.000466 0.008417 0.000000 0.002988 0.000000
# 4 0.000000 0.000000 0.000000 0.118802 0.000000 0.063018
# 5 0.004555 -0.000993 0.002988 0.000000 0.023590 0.000000
# 6 0.000000 0.000000 0.000000 0.063018 0.000000 0.080437
#
#
# Mechanical properties :
#
#
# Convention : Reuss Voigt Hill
#
# Bulk Modulus (GPa) = 22.43705 26.35651 24.39678
# Shear Modulus (GPa) = 18.10701 33.61216 25.85958
#
# Velocity S-wave (km/s) = 2.67840 3.64922 3.20083
# Velocity P-wave (km/s) = 4.29587 5.31018 4.82972
#
# Compressibility (1/GPa) = 0.04456913
#
# Stress axis : x y z
#
# Youngs Moduli (GPa) = 59.77182 61.11467 118.81399
#
# Poissons Ratio (x) = -0.04210 -0.04460
# Poissons Ratio (y) = -0.04118 -0.05531
# Poissons Ratio (z) = -0.02243 -0.02845
#
# Static dielectric constant tensor:
#      x y z
#    x 2.099960 0.000000 -0.001880 
#    y 0.000000 1.910260 0.000000 
#    z -0.001880 0.000000 1.937320 
# 
# From -- ./inp_files/363107.got.cif
#   From: 2010.05.17/outbox.cif.g08.bks.cpg/sg12_182_cif.got.tgz:363107.got - 2010.06.03 13:09:07.
