data_PCOD9206004
_publ_section_title
;
Structure prediction by ZEFSAII (Michael W. Deem and Ramdas Pophale) SiO2 
 PCOD9206004
Probable space group: C 2/M
;
_chemical_formula_sum "Si O2"
_cell_formula_units_Z 56
_cell_length_a 10.050486
_cell_length_b 7.640746
_cell_length_c 37.310487
_cell_angle_alpha 90.000000
_cell_angle_beta 53.966036
_cell_angle_gamma 90.000000
_cell_volume 2316.990368
_symmetry_space_group_name_H-M "C 2/M"
_symmetry_group_IT_number 12
_symmetry_cell_setting 'monoclinic'
loop_
_space_group_symop_operation_xyz
x,y,z
-x,y,-z
-x,-y,-z
x,-y,z
1/2+x,1/2+y,z
1/2-x,1/2+y,-z
1/2-x,1/2-y,-z
1/2+x,1/2-y,z
loop_
_atom_site_type_symbol
_atom_site_label
_atom_site_fract_x
_atom_site_fract_y
_atom_site_fract_z
Si Si1 0.533569 0.786936 0.906999
Si Si2 0.784738 0.202497 0.677797
Si Si3 0.329184 0.705043 0.041269
Si Si4 0.314944 0.291691 0.528807
Si Si5 0.355769 0.704667 0.371221
Si Si6 0.586947 0.205009 0.818236
Si Si7 0.950620 0.287137 0.766629
O O1 0.656869 0.721845 0.917916
O O2 0.345720 0.726471 0.944707
O O3 0.569874 0.722633 0.861036
O O4 0.538547 0.000000 0.906751
O O5 0.766414 0.209526 0.637813
O O6 0.778977 0.223962 0.777754
O O7 0.959541 0.280735 0.661311
O O8 0.788467 0.000000 0.688515
O O9 0.329892 0.500000 0.031855
O O10 0.500000 0.785615 0.000000
O O11 0.500000 0.221924 0.500000
O O12 0.318754 0.500000 0.533344
O O13 0.250000 0.250000 0.500000
O O14 0.206584 0.220599 0.578457
O O15 0.359690 0.500000 0.361500
O O16 0.385497 0.724545 0.279639
O O17 0.474216 0.275057 0.804072
O O18 0.547635 0.000000 0.827123
O O19 0.946579 0.500000 0.766555
#
# Coordination Sequence:
#
# PCOD9206004 Si02
#       7
#     8   8   8   8   8   8   8
#     4  10  21  36  55  81 112 145 182 227 278 330
#     4  10  22  39  58  84 116 148 186 232 280 331
#     4  10  21  37  57  81 109 143 184 228 275 330
#     4  11  24  41  61  87 119 153 191 235 281 332
#     4  11  23  39  61  87 115 150 190 232 281 334
#     4  10  21  37  56  81 113 146 184 230 277 329
#     4  10  21  38  59  82 112 149 186 228 278 330
#
# _framework density 24.169284999999999
#
# number of rings (size 3 to 8) (size 9 to 14) (size 15 to 20)
#    0.000    1.714    0.000    3.857    0.000   10.571 
#    0.000    0.000    0.000    0.000    0.000    0.000 
#    0.000    0.000    0.000    0.000    0.000    0.000 
#
# Total GULP energy -156645.030091 kJ/mol
# GULP energy per Si atom -5594.465360 kJ/mol
# Density = 2.411427 g / cm^3
# Si number density = 24.169285 Si / 1000 Ang^3
#
#
#
# Elastic Constant Matrix: (Units=GPa)
#
#
# Indices 1 2 3 4 5 6 
#
# 1 106.2960 -9.1515 -13.8621 0.0000 2.4325 0.0000
# 2 -9.1515 59.7958 -6.6562 0.0000 -4.6283 0.0000
# 3 -13.8621 -6.6562 67.8758 0.0000 0.8304 0.0000
# 4 0.0000 0.0000 0.0000 20.1112 0.0000 -0.8813
# 5 2.4325 -4.6283 0.8304 0.0000 43.7750 0.0000
# 6 0.0000 0.0000 0.0000 -0.8813 0.0000 7.8204
#
#
#
# Elastic Compliance Matrix: (Units=1/GPa)
#
#
# Indices 1 2 3 4 5 6 
#
# 1 0.009850 0.001719 0.002185 0.000000 -0.000407 0.000000
# 2 0.001719 0.017344 0.002031 0.000000 0.001700 0.000000
# 3 0.002185 0.002031 0.015381 0.000000 -0.000198 0.000000
# 4 0.000000 0.000000 0.000000 0.049970 0.000000 0.005631
# 5 -0.000407 0.001700 -0.000198 0.000000 0.023050 0.000000
# 6 0.000000 0.000000 0.000000 0.005631 0.000000 0.128505
#
#
# Mechanical properties :
#
#
# Convention : Reuss Voigt Hill
#
# Bulk Modulus (GPa) = 18.36671 19.40312 18.88492
# Shear Modulus (GPa) = 19.96984 31.91716 25.94350
#
# Velocity S-wave (km/s) = 2.87757 3.63790 3.27984
# Velocity P-wave (km/s) = 4.31929 5.06865 4.70890
#
# Compressibility (1/GPa) = 0.05444633
#
# Stress axis : x y z
#
# Youngs Moduli (GPa) = 101.52289 57.65563 65.01662
#
# Poissons Ratio (x) = -0.09912 -0.14208
# Poissons Ratio (y) = -0.17454 -0.13206
# Poissons Ratio (z) = -0.22185 -0.11711
#
# Static dielectric constant tensor:
#      x y z
#    x 1.908630 0.000000 0.049900 
#    y 0.000000 1.902260 0.000000 
#    z 0.049900 0.000000 2.157040 
# 
# From -- ./inp_files/373582.got.cif
#   From: 2010.05.17/outbox.cif.g08.bks.cpg/sg12_187_cif.got.tgz:373582.got - 2010.06.03 13:09:07.
