data_PCOD9206770
_publ_section_title
;
Structure prediction by ZEFSAII (Michael W. Deem and Ramdas Pophale) SiO2 
 PCOD9206770
Probable space group: C 2/M
;
_chemical_formula_sum "Si O2"
_cell_formula_units_Z 40
_cell_length_a 14.613232
_cell_length_b 10.753068
_cell_length_c 12.330672
_cell_angle_alpha 90.000000
_cell_angle_beta 71.847853
_cell_angle_gamma 90.000000
_cell_volume 1841.176121
_symmetry_space_group_name_H-M "C 2/M"
_symmetry_group_IT_number 12
_symmetry_cell_setting 'monoclinic'
loop_
_space_group_symop_operation_xyz
x,y,z
-x,y,-z
-x,-y,-z
x,-y,z
1/2+x,1/2+y,z
1/2-x,1/2+y,-z
1/2-x,1/2-y,-z
1/2+x,1/2-y,z
loop_
_atom_site_type_symbol
_atom_site_label
_atom_site_fract_x
_atom_site_fract_y
_atom_site_fract_z
Si Si1 0.646894 0.857253 0.942440
Si Si2 0.936181 0.277548 0.622972
Si Si3 0.435291 0.141611 0.243803
Si Si4 0.706422 0.864725 0.155616
Si Si5 0.727963 0.361717 0.426097
O O1 0.563378 0.837477 0.885216
O O2 0.722992 0.750316 0.885504
O O3 0.680543 0.000000 0.909055
O O4 0.636549 0.853995 0.076469
O O5 0.852174 0.356579 0.711361
O O6 0.873469 0.164837 0.596623
O O7 0.000000 0.329700 0.500000
O O8 0.010461 0.264029 0.695850
O O9 0.321553 0.141833 0.314562
O O10 0.469206 0.000000 0.256349
O O11 0.754814 0.000000 0.130742
O O12 0.725284 0.500000 0.476813
O O13 0.750000 0.250000 0.500000
#
# Coordination Sequence:
#
# PCOD9206770 Si02
#       5
#     8   8   8   8   8
#     4   9  19  40  64  88 124 169 217 267 323 381
#     4  12  24  39  60  97 133 166 210 265 322 384
#     4  10  21  39  63  89 126 172 210 258 323 383
#     4  10  21  36  62  95 124 165 218 270 320 379
#     4  11  24  45  66  92 130 175 217 263 322 384
#
# _framework density 21.725244
#
# number of rings (size 3 to 8) (size 9 to 14) (size 15 to 20)
#    0.000    1.600    4.000    0.600    0.000    4.400 
#    0.000    4.000    0.000    0.000    0.000    7.000 
#    0.000    0.000    0.000    0.000    0.000    0.000 
#
# Total GULP energy -111401.731236 kJ/mol
# GULP energy per Si atom -5570.086562 kJ/mol
# Density = 2.167580 g / cm^3
# Si number density = 21.725244 Si / 1000 Ang^3
#
#
#
# Elastic Constant Matrix: (Units=GPa)
#
#
# Indices 1 2 3 4 5 6 
#
# 1 100.6782 55.8998 16.4932 0.0000 16.5227 0.0000
# 2 55.8998 132.3076 57.4796 0.0000 13.6944 0.0000
# 3 16.4932 57.4796 129.6177 0.0000 2.0760 0.0000
# 4 0.0000 0.0000 0.0000 26.9637 0.0000 6.8805
# 5 16.5227 13.6944 2.0760 0.0000 38.1418 0.0000
# 6 0.0000 0.0000 0.0000 6.8805 0.0000 25.7287
#
#
#
# Elastic Compliance Matrix: (Units=1/GPa)
#
#
# Indices 1 2 3 4 5 6 
#
# 1 0.013606 -0.005724 0.000869 0.000000 -0.003886 0.000000
# 2 -0.005724 0.012161 -0.004638 0.000000 -0.001634 0.000000
# 3 0.000869 -0.004638 0.009649 0.000000 0.000764 0.000000
# 4 0.000000 0.000000 0.000000 0.039803 0.000000 -0.010644
# 5 -0.003886 -0.001634 0.000764 0.000000 0.028447 0.000000
# 6 0.000000 0.000000 0.000000 -0.010644 0.000000 0.041714
#
#
# Mechanical properties :
#
#
# Convention : Reuss Voigt Hill
#
# Bulk Modulus (GPa) = 60.86431 69.14985 65.00708
# Shear Modulus (GPa) = 29.43919 33.68223 31.56071
#
# Velocity S-wave (km/s) = 3.68512 3.94175 3.81559
# Velocity P-wave (km/s) = 6.79581 7.25361 7.02844
#
# Compressibility (1/GPa) = 0.01642999
#
# Stress axis : x y z
#
# Youngs Moduli (GPa) = 73.49604 82.23220 103.63777
#
# Poissons Ratio (x) = 0.47070 -0.09009
# Poissons Ratio (y) = 0.42069 0.48069
# Poissons Ratio (z) = -0.06389 0.38141
#
# Static dielectric constant tensor:
#      x y z
#    x 1.870310 0.000000 -0.011030 
#    y 0.000000 1.767410 0.000000 
#    z -0.011030 0.000000 1.852820 
# 
# From -- ./inp_files/140262.got.cif
#   From: 2010.05.17/outbox.cif.g08.bks.cpg/sg12_71_cif.got.tgz:140262.got - 2010.06.03 13:09:07.
