data_PCOD9206522
_publ_section_title
;
Structure prediction by ZEFSAII (Michael W. Deem and Ramdas Pophale) SiO2 
 PCOD9206522
Probable space group: C 2/M
;
_chemical_formula_sum "Si O2"
_cell_formula_units_Z 58
_cell_length_a 9.285978
_cell_length_b 25.028677
_cell_length_c 20.280467
_cell_angle_alpha 90.000000
_cell_angle_beta 140.749263
_cell_angle_gamma 90.000000
_cell_volume 2982.303408
_symmetry_space_group_name_H-M "C 2/M"
_symmetry_group_IT_number 12
_symmetry_cell_setting 'monoclinic'
loop_
_space_group_symop_operation_xyz
x,y,z
-x,y,-z
-x,-y,-z
x,-y,z
1/2+x,1/2+y,z
1/2-x,1/2+y,-z
1/2-x,1/2-y,-z
1/2+x,1/2-y,z
loop_
_atom_site_type_symbol
_atom_site_label
_atom_site_fract_x
_atom_site_fract_y
_atom_site_fract_z
Si Si1 0.578378 0.778914 0.746976
Si Si2 0.887073 0.194686 0.061637
Si Si3 0.119072 0.090817 0.386658
Si Si4 0.000000 0.500000 0.500000
Si Si5 0.056947 0.356977 0.855054
Si Si6 0.329285 0.061897 0.687808
Si Si7 0.238495 0.153668 0.551564
Si Si8 0.637257 0.341382 0.799894
O O1 0.489254 0.808959 0.781139
O O2 0.438364 0.804972 0.638061
O O3 0.554789 0.715991 0.743882
O O4 0.846030 0.792791 0.842234
O O5 0.831305 0.168033 0.111792
O O6 0.750000 0.250000 0.000000
O O7 0.797137 0.155818 0.972764
O O8 0.307270 0.046445 0.445355
O O9 0.205472 0.138820 0.464156
O O10 0.898712 0.068872 0.348858
O O11 0.036930 0.114002 0.287415
O O12 0.026611 0.410247 0.801314
O O13 0.874301 0.355511 0.848841
O O14 0.297541 0.098374 0.611704
O O15 0.366700 0.000000 0.685875
O O16 0.000000 0.172186 0.500000
#
# Coordination Sequence:
#
# PCOD9206522 Si02
#       8
#     8   8   8   2   8   8   8   8
#     4  11  21  37  60  89 123 153 198 241 294 363
#     4  12  22  35  60  88 122 161 194 243 297 360
#     4  10  23  38  58  83 116 154 200 243 300 356
#     4  12  24  40  58  76 122 166 198 250 304 340
#     4  10  21  36  59  86 119 156 198 246 296 358
#     4   9  18  38  64  85 106 150 205 254 291 353
#     4   9  21  38  61  89 115 152 197 246 304 355
#     4  11  22  38  58  88 119 157 198 237 298 363
#
# _framework density 19.448053999999999
#
# number of rings (size 3 to 8) (size 9 to 14) (size 15 to 20)
#    0.000    1.655    3.448    1.655    2.897    1.379 
#    1.241    0.000    1.517    8.276    0.000    0.000 
#    0.000    0.000    0.000    0.000    0.000    0.000 
#
# Total GULP energy -161693.884729 kJ/mol
# GULP energy per Si atom -5575.651198 kJ/mol
# Density = 1.940379 g / cm^3
# Si number density = 19.448054 Si / 1000 Ang^3
#
#
#
# Elastic Constant Matrix: (Units=GPa)
#
#
# Indices 1 2 3 4 5 6 
#
# 1 39.3122 -11.2729 17.1799 -0.0001 -4.6581 0.0000
# 2 -11.2729 38.1521 15.7973 0.0000 9.6075 0.0000
# 3 17.1799 15.7973 100.6294 -0.0002 5.1255 0.0001
# 4 -0.0001 0.0000 -0.0002 -0.3058 -0.0002 -1.6459
# 5 -4.6581 9.6075 5.1255 -0.0002 32.1521 0.0000
# 6 0.0000 0.0000 0.0001 -1.6459 0.0000 11.8177
#
#
#
# Elastic Compliance Matrix: (Units=1/GPa)
#
#
# Indices 1 2 3 4 5 6 
#
# 1 0.032508 0.012168 -0.007576 -0.000002 0.002282 0.000000
# 2 0.012168 0.034636 -0.007135 0.000004 -0.007450 0.000001
# 3 -0.007576 -0.007135 0.012399 -0.000004 -0.000942 -0.000001
# 4 -0.000002 0.000004 -0.000004 -1.869037 -0.000012 -0.260310
# 5 0.002282 -0.007450 -0.000942 -0.000012 0.033809 -0.000002
# 6 0.000000 0.000001 -0.000001 -0.260310 -0.000002 0.048364
#
#
# Mechanical properties :
#
#
# Convention : Reuss Voigt Hill
#
# Bulk Modulus (GPa) = 13.43086 24.61137 19.02111
# Shear Modulus (GPa) = -2.98078 19.15878 8.08900
#
# Velocity S-wave (km/s) = -1.23936 3.14208 2.04164
# Velocity P-wave (km/s) = 2.20748 5.08389 3.91911
#
# Compressibility (1/GPa) = 0.07445541
#
# Stress axis : x y z
#
# Youngs Moduli (GPa) = 30.76196 28.87132 80.65165
#
# Poissons Ratio (x) = -0.35129 0.61103
# Poissons Ratio (y) = -0.37430 0.57547
# Poissons Ratio (z) = 0.23306 0.20600
#
# Static dielectric constant tensor:
#      x y z
#    x 1.729540 0.000000 -0.013350 
#    y 0.000000 1.659300 0.000000 
#    z -0.013350 0.000000 1.711730 
# 
# From -- ./inp_files/302478.got.cif
#   From: 2010.05.17/outbox.cif.g08.bks.cpg/sg12_152_cif.got.tgz:302478.got - 2010.06.03 13:09:07.
