data_PCOD9206821
_publ_section_title
;
Structure prediction by ZEFSAII (Michael W. Deem and Ramdas Pophale) SiO2 
 PCOD9206821
Probable space group: C 2/M
;
_chemical_formula_sum "Si O2"
_cell_formula_units_Z 26
_cell_length_a 4.712267
_cell_length_b 22.999050
_cell_length_c 8.444815
_cell_angle_alpha 90.000000
_cell_angle_beta 90.125927
_cell_angle_gamma 90.000000
_cell_volume 915.227115
_symmetry_space_group_name_H-M "C 2/M"
_symmetry_group_IT_number 12
_symmetry_cell_setting 'monoclinic'
loop_
_space_group_symop_operation_xyz
x,y,z
-x,y,-z
-x,-y,-z
x,-y,z
1/2+x,1/2+y,z
1/2-x,1/2+y,-z
1/2-x,1/2-y,-z
1/2+x,1/2-y,z
loop_
_atom_site_type_symbol
_atom_site_label
_atom_site_fract_x
_atom_site_fract_y
_atom_site_fract_z
Si Si1 0.500000 0.612812 0.500000
Si Si2 0.000000 0.163066 0.000000
Si Si3 0.216725 0.566430 0.205791
Si Si4 0.000000 0.500000 0.000000
Si Si5 0.795105 0.289211 0.294564
O O1 0.304711 0.573519 0.385237
O O2 0.303486 0.655353 0.605199
O O3 0.170483 0.122520 0.879447
O O4 0.786509 0.197936 0.886756
O O5 0.298207 0.500000 0.136801
O O6 0.905314 0.553576 0.135819
O O7 0.612479 0.230894 0.328452
#
# Coordination Sequence:
#
# PCOD9206821 Si02
#       5
#     4   4   8   2   8
#     4  10  21  38  68  94 132 186 213 274 346 400
#     4  10  21  36  67  92 130 185 219 276 342 396
#     4   9  19  38  61  95 130 171 220 277 329 406
#     4   8  20  32  62  86 136 156 224 264 328 376
#     4  11  24  43  66  99 136 175 229 281 328 399
#
# _framework density 28.408251
#
# number of rings (size 3 to 8) (size 9 to 14) (size 15 to 20)
#    0.923    1.231    0.000    2.769    0.000    4.923 
#    0.000    3.077    0.000    3.692    0.000    0.000 
#    0.000    0.000    0.000    0.000    0.000    0.000 
#
# Total GULP energy -72569.762126 kJ/mol
# GULP energy per Si atom -5582.289394 kJ/mol
# Density = 2.834359 g / cm^3
# Si number density = 28.408251 Si / 1000 Ang^3
#
#
#
# Elastic Constant Matrix: (Units=GPa)
#
#
# Indices 1 2 3 4 5 6 
#
# 1 78.9765 40.7426 39.4537 0.0000 28.0959 0.0000
# 2 40.7426 136.2769 82.2080 0.0000 17.0592 0.0000
# 3 39.4537 82.2080 223.1389 0.0000 65.2713 0.0000
# 4 0.0000 0.0000 0.0000 75.1114 0.0000 27.5914
# 5 28.0959 17.0592 65.2713 0.0000 51.9656 0.0000
# 6 0.0000 0.0000 0.0000 27.5914 0.0000 45.0891
#
#
#
# Elastic Compliance Matrix: (Units=1/GPa)
#
#
# Indices 1 2 3 4 5 6 
#
# 1 0.018113 -0.005152 0.001684 0.000000 -0.010217 0.000000
# 2 -0.005152 0.011035 -0.004599 0.000000 0.004940 0.000000
# 3 0.001684 -0.004599 0.009015 0.000000 -0.010724 0.000000
# 4 0.000000 0.000000 0.000000 0.017174 0.000000 -0.010509
# 5 -0.010217 0.004940 -0.010724 0.000000 0.036616 0.000000
# 6 0.000000 0.000000 0.000000 -0.010509 0.000000 0.028609
#
#
# Mechanical properties :
#
#
# Convention : Reuss Voigt Hill
#
# Bulk Modulus (GPa) = 45.39648 84.80010 65.09829
# Shear Modulus (GPa) = 34.71246 52.83241 43.77243
#
# Velocity S-wave (km/s) = 3.49938 4.31717 3.92961
# Velocity P-wave (km/s) = 5.68703 7.40040 6.59955
#
# Compressibility (1/GPa) = 0.02202814
#
# Stress axis : x y z
#
# Youngs Moduli (GPa) = 55.20753 90.62447 110.92325
#
# Poissons Ratio (x) = 0.46693 -0.18683
# Poissons Ratio (y) = 0.28445 0.51019
# Poissons Ratio (z) = -0.09298 0.41682
#
# Static dielectric constant tensor:
#      x y z
#    x 2.185880 0.000000 -0.157050 
#    y 0.000000 2.161200 0.000000 
#    z -0.157050 0.000000 2.389580 
# 
# From -- ./inp_files/33602.got.cif
#   From: 2010.05.17/outbox.cif.g08.bks.cpg/sg12_17_cif.got.tgz:33602.got - 2010.06.03 13:09:07.
