data_PCOD9206864
_publ_section_title
;
Structure prediction by ZEFSAII (Michael W. Deem and Ramdas Pophale) SiO2 
 PCOD9206864
Probable space group: C 2/M
;
_chemical_formula_sum "Si O2"
_cell_formula_units_Z 40
_cell_length_a 20.458390
_cell_length_b 7.634280
_cell_length_c 13.105413
_cell_angle_alpha 90.000000
_cell_angle_beta 99.217512
_cell_angle_gamma 90.000000
_cell_volume 2020.439437
_symmetry_space_group_name_H-M "C 2/M"
_symmetry_group_IT_number 12
_symmetry_cell_setting 'monoclinic'
loop_
_space_group_symop_operation_xyz
x,y,z
-x,y,-z
-x,-y,-z
x,-y,z
1/2+x,1/2+y,z
1/2-x,1/2+y,-z
1/2-x,1/2-y,-z
1/2+x,1/2-y,z
loop_
_atom_site_type_symbol
_atom_site_label
_atom_site_fract_x
_atom_site_fract_y
_atom_site_fract_z
Si Si1 0.672443 0.207799 0.498829
Si Si2 0.648992 0.706373 0.271981
Si Si3 0.563468 0.298250 0.071078
Si Si4 0.823948 0.709246 0.056315
Si Si5 0.300118 0.785359 0.276686
O O1 0.750000 0.250000 0.500000
O O2 0.635971 0.276123 0.389231
O O3 0.660999 0.271796 0.611575
O O4 0.663894 0.000000 0.496094
O O5 0.652979 0.500000 0.249736
O O6 0.593770 0.781414 0.182386
O O7 0.723265 0.775205 0.266845
O O8 0.544795 0.500000 0.090517
O O9 0.500000 0.215693 0.000000
O O10 0.623281 0.294470 0.005390
O O11 0.833657 0.500000 0.054846
O O12 0.828909 0.768012 0.175216
O O13 0.750000 0.750000 0.000000
O O14 0.298791 0.000000 0.277898
#
# Coordination Sequence:
#
# PCOD9206864 Si02
#       5
#     8   8   8   8   8
#     4   9  16  27  44  69  98 129 163 201 251 302
#     4   9  16  30  48  69  99 131 165 207 254 299
#     4  10  21  37  54  73 103 141 175 211 261 310
#     4  11  20  33  53  77 105 135 170 212 259 307
#     4   8  15  28  46  69 100 129 157 204 254 296
#
# _framework density 19.797675000000002
#
# number of rings (size 3 to 8) (size 9 to 14) (size 15 to 20)
#    0.000    2.600    2.000    2.400    0.000    1.200 
#    0.000    3.000    0.000    1.200    0.000    8.400 
#    0.000    0.000    0.000    0.000    0.000    0.000 
#
# Total GULP energy -111437.106397 kJ/mol
# GULP energy per Si atom -5571.855320 kJ/mol
# Density = 1.975261 g / cm^3
# Si number density = 19.797675 Si / 1000 Ang^3
#
#
#
# Elastic Constant Matrix: (Units=GPa)
#
#
# Indices 1 2 3 4 5 6 
#
# 1 53.7315 -7.4647 40.2774 0.0000 22.3171 0.0000
# 2 -7.4647 42.6330 -5.7248 0.0000 5.2652 0.0000
# 3 40.2774 -5.7248 206.4840 0.0000 26.1315 0.0000
# 4 0.0000 0.0000 0.0000 20.7139 0.0000 -2.9537
# 5 22.3171 5.2652 26.1315 0.0000 27.0493 0.0000
# 6 0.0000 0.0000 0.0000 -2.9537 0.0000 8.3227
#
#
#
# Elastic Compliance Matrix: (Units=1/GPa)
#
#
# Indices 1 2 3 4 5 6 
#
# 1 0.032685 0.008532 -0.002867 0.000000 -0.025858 0.000000
# 2 0.008532 0.026639 0.000708 0.000000 -0.012908 0.000000
# 3 -0.002867 0.000708 0.005856 0.000000 -0.003430 0.000000
# 4 0.000000 0.000000 0.000000 0.050850 0.000000 0.018046
# 5 -0.025858 -0.012908 -0.003430 0.000000 0.064130 0.000000
# 6 0.000000 0.000000 0.000000 0.018046 0.000000 0.126557
#
#
# Mechanical properties :
#
#
# Convention : Reuss Voigt Hill
#
# Bulk Modulus (GPa) = 12.83273 39.66937 26.25105
# Shear Modulus (GPa) = 15.62759 29.60125 22.61442
#
# Velocity S-wave (km/s) = 2.81261 3.87096 3.38342
# Velocity P-wave (km/s) = 4.12840 6.32930 5.34339
#
# Compressibility (1/GPa) = 0.07792575
#
# Stress axis : x y z
#
# Youngs Moduli (GPa) = 30.59486 37.53890 170.76905
#
# Poissons Ratio (x) = -0.32026 0.48954
# Poissons Ratio (y) = -0.26102 -0.12090
# Poissons Ratio (z) = 0.08771 -0.02658
#
# Static dielectric constant tensor:
#      x y z
#    x 1.657760 0.000000 0.025860 
#    y 0.000000 1.747210 0.000000 
#    z 0.025860 0.000000 1.766660 
# 
# From -- ./inp_files/162500.got.cif
#   From: 2010.05.17/outbox.cif.g08.bks.cpg/sg12_82_cif.got.tgz:162500.got - 2010.06.03 13:09:07.
