data_PCOD9206340
_publ_section_title
;
Structure prediction by ZEFSAII (Michael W. Deem and Ramdas Pophale) SiO2 
 PCOD9206340
Probable space group: C 2/M
;
_chemical_formula_sum "Si O2"
_cell_formula_units_Z 40
_cell_length_a 13.520768
_cell_length_b 10.166761
_cell_length_c 24.199629
_cell_angle_alpha 90.000000
_cell_angle_beta 32.538708
_cell_angle_gamma 90.000000
_cell_volume 1789.243352
_symmetry_space_group_name_H-M "C 2/M"
_symmetry_group_IT_number 12
_symmetry_cell_setting 'monoclinic'
loop_
_space_group_symop_operation_xyz
x,y,z
-x,y,-z
-x,-y,-z
x,-y,z
1/2+x,1/2+y,z
1/2-x,1/2+y,-z
1/2-x,1/2-y,-z
1/2+x,1/2-y,z
loop_
_atom_site_type_symbol
_atom_site_label
_atom_site_fract_x
_atom_site_fract_y
_atom_site_fract_z
Si Si1 0.577440 0.356493 0.025879
Si Si2 0.692959 0.848361 0.694390
Si Si3 0.206010 0.253820 0.239642
Si Si4 0.649889 0.347342 0.146449
Si Si5 0.803817 0.354457 0.429209
O O1 0.663928 0.500000 0.997194
O O2 0.397834 0.332518 0.147432
O O3 0.500000 0.365423 0.000000
O O4 0.708201 0.229639 0.960131
O O5 0.807743 0.822008 0.695758
O O6 0.531892 0.740986 0.770969
O O7 0.779242 0.831887 0.592747
O O8 0.626155 0.000000 0.727439
O O9 0.212476 0.164485 0.181364
O O10 0.025342 0.343065 0.318383
O O11 0.627559 0.500000 0.143586
O O12 0.752888 0.500000 0.471772
O O13 0.750000 0.250000 0.500000
#
# Coordination Sequence:
#
# PCOD9206340 Si02
#       5
#     8   8   8   8   8
#     4   9  18  34  57  83 117 160 198 234 282 339
#     4  10  22  40  62  87 117 155 195 235 288 350
#     4  10  21  38  62  87 115 152 198 243 286 338
#     4  10  21  36  57  88 123 156 195 241 284 332
#     4  10  23  43  64  87 116 150 190 240 297 354
#
# _framework density 22.355817999999999
#
# number of rings (size 3 to 8) (size 9 to 14) (size 15 to 20)
#    0.000    2.200    0.000    1.800    0.000   16.400 
#    0.000    3.000    0.000    0.000    0.000    0.000 
#    0.000    0.000    0.000    0.000    0.000    0.000 
#
# Total GULP energy -111649.485252 kJ/mol
# GULP energy per Si atom -5582.474263 kJ/mol
# Density = 2.230493 g / cm^3
# Si number density = 22.355818 Si / 1000 Ang^3
#
#
#
# Elastic Constant Matrix: (Units=GPa)
#
#
# Indices 1 2 3 4 5 6 
#
# 1 107.5998 56.8202 38.7473 0.0000 41.2587 0.0000
# 2 56.8202 167.4091 47.0825 -0.0001 12.8683 0.0000
# 3 38.7473 47.0825 81.5019 -0.0003 22.3602 0.0001
# 4 0.0000 -0.0001 -0.0003 22.7717 0.0000 -8.7401
# 5 41.2587 12.8683 22.3602 0.0000 49.1526 0.0000
# 6 0.0000 0.0000 0.0001 -8.7401 0.0000 10.1200
#
#
#
# Elastic Compliance Matrix: (Units=1/GPa)
#
#
# Indices 1 2 3 4 5 6 
#
# 1 0.016979 -0.004174 -0.002343 0.000000 -0.012093 0.000000
# 2 -0.004174 0.008158 -0.003546 0.000000 0.002981 0.000000
# 3 -0.002343 -0.003546 0.016725 0.000000 -0.004714 0.000000
# 4 0.000000 0.000000 0.000000 0.065689 0.000000 0.056732
# 5 -0.012093 0.002981 -0.004714 0.000000 0.031860 0.000000
# 6 0.000000 0.000000 0.000000 0.056732 0.000000 0.147811
#
#
# Mechanical properties :
#
#
# Convention : Reuss Voigt Hill
#
# Bulk Modulus (GPa) = 46.00716 71.31231 58.65973
# Shear Modulus (GPa) = 15.89348 30.66626 23.27987
#
# Velocity S-wave (km/s) = 2.66922 3.70771 3.23047
# Velocity P-wave (km/s) = 5.48852 7.09207 6.34119
#
# Compressibility (1/GPa) = 0.02173575
#
# Stress axis : x y z
#
# Youngs Moduli (GPa) = 58.89686 122.57267 59.78960
#
# Poissons Ratio (x) = 0.51166 0.14007
# Poissons Ratio (y) = 0.24585 0.21204
# Poissons Ratio (z) = 0.13798 0.43469
#
# Static dielectric constant tensor:
#      x y z
#    x 1.888910 0.000000 0.013020 
#    y 0.000000 1.780680 0.000000 
#    z 0.013020 0.000000 1.841820 
# 
# From -- ./inp_files/337690.got.cif
#   From: 2010.05.17/outbox.cif.g08.bks.cpg/sg12_169_cif.got.tgz:337690.got - 2010.06.03 13:09:07.
