data_PCOD9206360
_publ_section_title
;
Structure prediction by ZEFSAII (Michael W. Deem and Ramdas Pophale) SiO2 
 PCOD9206360
Probable space group: C 2/M
;
_chemical_formula_sum "Si O2"
_cell_formula_units_Z 50
_cell_length_a 9.713687
_cell_length_b 10.574278
_cell_length_c 27.771056
_cell_angle_alpha 90.000000
_cell_angle_beta 121.461606
_cell_angle_gamma 90.000000
_cell_volume 2433.163058
_symmetry_space_group_name_H-M "C 2/M"
_symmetry_group_IT_number 12
_symmetry_cell_setting 'monoclinic'
loop_
_space_group_symop_operation_xyz
x,y,z
-x,y,-z
-x,-y,-z
x,-y,z
1/2+x,1/2+y,z
1/2-x,1/2+y,-z
1/2-x,1/2-y,-z
1/2+x,1/2-y,z
loop_
_atom_site_type_symbol
_atom_site_label
_atom_site_fract_x
_atom_site_fract_y
_atom_site_fract_z
Si Si1 0.166476 0.141523 0.059585
Si Si2 0.500000 0.000000 0.000000
Si Si3 0.053000 0.354650 0.565180
Si Si4 0.120642 0.644651 0.739974
Si Si5 0.002898 0.305621 0.909195
Si Si6 0.323312 0.854792 0.611347
Si Si7 0.384081 0.140531 0.782594
O O1 0.108801 0.185059 0.100920
O O2 0.309105 0.226753 0.064667
O O3 0.233917 0.000000 0.070440
O O4 0.000000 0.139660 0.000000
O O5 0.490343 0.108737 0.954817
O O6 0.109283 0.500000 0.584739
O O7 0.189452 0.249553 0.598565
O O8 0.000000 0.346469 0.500000
O O9 0.901890 0.333473 0.573108
O O10 0.183585 0.500000 0.749233
O O11 0.253435 0.749591 0.752975
O O12 0.972671 0.654180 0.675485
O O13 0.038062 0.665361 0.776878
O O14 0.940050 0.361806 0.848118
O O15 0.260861 0.000000 0.602132
O O16 0.321966 0.000000 0.757972
#
# Coordination Sequence:
#
# PCOD9206360 Si02
#       7
#     8   2   8   8   8   8   8
#     4  11  24  41  61  88 114 149 188 227 279 352
#     4  12  24  40  68  84 124 152 186 238 298 360
#     4  10  21  36  57  90 130 168 209 256 302 354
#     4  10  23  42  64  89 122 157 203 258 306 357
#     4  12  24  42  63  87 120 152 187 240 295 355
#     4  10  21  38  60  88 121 164 209 255 306 359
#     4  11  23  41  62  88 117 153 197 248 303 362
#
# _framework density 20.549384
#
# number of rings (size 3 to 8) (size 9 to 14) (size 15 to 20)
#    0.000    1.280    2.400    2.880    0.000    4.160 
#    0.000    0.000    0.000    0.000    0.000    0.000 
#    0.000    0.000    0.000    0.000    0.000    0.000 
#
# Total GULP energy -139341.770472 kJ/mol
# GULP energy per Si atom -5573.670819 kJ/mol
# Density = 2.050261 g / cm^3
# Si number density = 20.549384 Si / 1000 Ang^3
#
#
#
# Elastic Constant Matrix: (Units=GPa)
#
#
# Indices 1 2 3 4 5 6 
#
# 1 70.2338 42.8176 -3.1700 0.0000 8.4446 0.0000
# 2 42.8176 105.3726 1.1955 0.0000 28.2599 0.0000
# 3 -3.1700 1.1955 36.5383 0.0000 -4.6068 0.0000
# 4 0.0000 0.0000 0.0000 14.4301 0.0000 -4.5308
# 5 8.4446 28.2599 -4.6068 0.0000 34.6438 0.0000
# 6 0.0000 0.0000 0.0000 -4.5308 0.0000 26.9216
#
#
#
# Elastic Compliance Matrix: (Units=1/GPa)
#
#
# Indices 1 2 3 4 5 6 
#
# 1 0.019232 -0.008531 0.002272 0.000000 0.002573 0.000000
# 2 -0.008531 0.016033 -0.002697 0.000000 -0.011358 0.000000
# 3 0.002272 -0.002697 0.028336 0.000000 0.005414 0.000000
# 4 0.000000 0.000000 0.000000 0.073166 0.000000 0.012313
# 5 0.002573 -0.011358 0.005414 0.000000 0.038223 0.000000
# 6 0.000000 0.000000 0.000000 0.012313 0.000000 0.039217
#
#
# Mechanical properties :
#
#
# Convention : Reuss Voigt Hill
#
# Bulk Modulus (GPa) = 21.88612 32.64789 27.26701
# Shear Modulus (GPa) = 20.21440 26.61921 23.41681
#
# Velocity S-wave (km/s) = 3.13980 3.60304 3.37937
# Velocity P-wave (km/s) = 4.88038 5.76465 5.34085
#
# Compressibility (1/GPa) = 0.04569106
#
# Stress axis : x y z
#
# Youngs Moduli (GPa) = 51.99670 62.37077 35.29023
#
# Poissons Ratio (x) = 0.53206 -0.08018
# Poissons Ratio (y) = 0.44356 0.09517
# Poissons Ratio (z) = -0.11814 0.16819
#
# Static dielectric constant tensor:
#      x y z
#    x 1.704990 0.000000 -0.026690 
#    y 0.000000 1.735640 0.000000 
#    z -0.026690 0.000000 1.757610 
# 
# From -- ./inp_files/355706.got.cif
#   From: 2010.05.17/outbox.cif.g08.bks.cpg/sg12_178_cif.got.tgz:355706.got - 2010.06.03 13:09:07.
