data_PCOD9206655
_publ_section_title
;
Structure prediction by ZEFSAII (Michael W. Deem and Ramdas Pophale) SiO2 
 PCOD9206655
Probable space group: C 2/M
;
_chemical_formula_sum "Si O2"
_cell_formula_units_Z 56
_cell_length_a 25.629370
_cell_length_b 13.725631
_cell_length_c 12.716834
_cell_angle_alpha 90.000000
_cell_angle_beta 32.456324
_cell_angle_gamma 90.000000
_cell_volume 2400.743056
_symmetry_space_group_name_H-M "C 2/M"
_symmetry_group_IT_number 12
_symmetry_cell_setting 'monoclinic'
loop_
_space_group_symop_operation_xyz
x,y,z
-x,y,-z
-x,-y,-z
x,-y,z
1/2+x,1/2+y,z
1/2-x,1/2+y,-z
1/2-x,1/2-y,-z
1/2+x,1/2-y,z
loop_
_atom_site_type_symbol
_atom_site_label
_atom_site_fract_x
_atom_site_fract_y
_atom_site_fract_z
Si Si1 0.353811 0.171746 0.241520
Si Si2 0.675000 0.384140 0.408249
Si Si3 0.449250 0.390663 0.849339
Si Si4 0.046265 0.614853 0.146244
Si Si5 0.129373 0.887377 0.795083
Si Si6 0.154143 0.394008 0.518601
Si Si7 0.703318 0.226800 0.968743
O O1 0.244483 0.146578 0.387759
O O2 0.378148 0.280113 0.242045
O O3 0.368075 0.104802 0.318259
O O4 0.416689 0.154408 0.029741
O O5 0.695274 0.500000 0.352181
O O6 0.560269 0.376592 0.624247
O O7 0.713093 0.311133 0.252953
O O8 0.419559 0.500000 0.867158
O O9 0.448370 0.390889 0.978347
O O10 0.368420 0.314287 0.947396
O O11 0.037251 0.500000 0.148077
O O12 0.942239 0.658306 0.357407
O O13 0.127087 0.638118 0.094555
O O14 0.233918 0.867040 0.675068
O O15 0.135430 0.000000 0.741072
O O16 0.153481 0.500000 0.469429
O O17 0.750000 0.250000 0.000000
#
# Coordination Sequence:
#
# PCOD9206655 Si02
#       7
#     8   8   8   8   8   8   8
#     4  11  19  35  62  89 125 170 216 256 305 373
#     4  10  22  41  66  95 131 167 210 262 315 378
#     4  10  22  42  64  89 128 173 207 254 321 386
#     4  10  21  38  61  91 127 159 203 265 323 375
#     4  10  21  37  55  87 127 170 212 257 309 364
#     4  10  21  36  60  91 125 164 211 262 314 371
#     4  11  23  40  65  95 122 156 209 268 321 380
#
# _framework density 23.32611
#
# number of rings (size 3 to 8) (size 9 to 14) (size 15 to 20)
#    0.000    1.714    2.857    3.429    2.000    2.857 
#    0.000    2.143    0.000    6.000    0.000    9.000 
#    0.000    0.000    0.000    0.000    0.000    0.000 
#
# Total GULP energy -156136.969942 kJ/mol
# GULP energy per Si atom -5576.320355 kJ/mol
# Density = 2.327302 g / cm^3
# Si number density = 23.326110 Si / 1000 Ang^3
#
#
#
# Elastic Constant Matrix: (Units=GPa)
#
#
# Indices 1 2 3 4 5 6 
#
# 1 70.9887 19.3415 17.6410 0.0000 -1.6799 0.0000
# 2 19.3415 187.3065 44.2121 0.0000 -1.0930 0.0000
# 3 17.6410 44.2121 122.5471 0.0000 -21.9641 0.0000
# 4 0.0000 0.0000 0.0000 35.4841 0.0000 -8.4317
# 5 -1.6799 -1.0930 -21.9641 0.0000 12.6814 0.0000
# 6 0.0000 0.0000 0.0000 -8.4317 0.0000 25.2825
#
#
#
# Elastic Compliance Matrix: (Units=1/GPa)
#
#
# Indices 1 2 3 4 5 6 
#
# 1 0.014846 -0.001057 -0.002059 0.000000 -0.001690 0.000000
# 2 -0.001057 0.006099 -0.002870 0.000000 -0.004585 0.000000
# 3 -0.002059 -0.002870 0.013630 0.000000 0.023086 0.000000
# 4 0.000000 0.000000 0.000000 0.030607 0.000000 0.010208
# 5 -0.001690 -0.004585 0.023086 0.000000 0.118222 0.000000
# 6 0.000000 0.000000 0.000000 0.010208 0.000000 0.042957
#
#
# Mechanical properties :
#
#
# Convention : Reuss Voigt Hill
#
# Bulk Modulus (GPa) = 44.24110 60.35905 52.30008
# Shear Modulus (GPa) = 20.33622 34.66612 27.50117
#
# Velocity S-wave (km/s) = 2.95587 3.85925 3.43736
# Velocity P-wave (km/s) = 5.53688 6.76688 6.18255
#
# Compressibility (1/GPa) = 0.02260342
#
# Stress axis : x y z
#
# Youngs Moduli (GPa) = 67.35666 163.97117 73.36946
#
# Poissons Ratio (x) = 0.17331 0.15105
# Poissons Ratio (y) = 0.07119 0.21056
# Poissons Ratio (z) = 0.13867 0.47057
#
# Static dielectric constant tensor:
#      x y z
#    x 1.847190 0.000000 -0.043650 
#    y 0.000000 1.955340 0.000000 
#    z -0.043650 0.000000 1.995870 
# 
# From -- ./inp_files/246541.got.cif
#   From: 2010.05.17/outbox.cif.g08.bks.cpg/sg12_124_cif.got.tgz:246541.got - 2010.06.03 13:09:07.
