data_PCOD9206431
_publ_section_title
;
Structure prediction by ZEFSAII (Michael W. Deem and Ramdas Pophale) SiO2 
 PCOD9206431
Probable space group: C 2/M
;
_chemical_formula_sum "Si O2"
_cell_formula_units_Z 64
_cell_length_a 14.179878
_cell_length_b 26.422001
_cell_length_c 8.507565
_cell_angle_alpha 90.000000
_cell_angle_beta 82.410056
_cell_angle_gamma 90.000000
_cell_volume 3159.524597
_symmetry_space_group_name_H-M "C 2/M"
_symmetry_group_IT_number 12
_symmetry_cell_setting 'monoclinic'
loop_
_space_group_symop_operation_xyz
x,y,z
-x,y,-z
-x,-y,-z
x,-y,z
1/2+x,1/2+y,z
1/2-x,1/2+y,-z
1/2-x,1/2-y,-z
1/2+x,1/2-y,z
loop_
_atom_site_type_symbol
_atom_site_label
_atom_site_fract_x
_atom_site_fract_y
_atom_site_fract_z
Si Si1 0.254520 0.634444 0.514755
Si Si2 0.886743 0.363103 0.018626
Si Si3 0.081993 0.898837 0.097926
Si Si4 0.745880 0.058657 0.763145
Si Si5 0.576259 0.682040 0.347398
Si Si6 0.224528 0.155372 0.838919
Si Si7 0.404398 0.249040 0.129914
Si Si8 0.403243 0.219250 0.482538
O O1 0.230075 0.579820 0.589299
O O2 0.327993 0.653675 0.627544
O O3 0.295225 0.636295 0.331624
O O4 0.176817 0.678586 0.521811
O O5 0.826696 0.406363 0.119646
O O6 0.874345 0.308577 0.104350
O O7 0.835023 0.352537 0.862268
O O8 0.000000 0.373508 0.000000
O O9 0.143536 0.934201 0.201956
O O10 0.044226 0.848210 0.198805
O O11 0.163614 0.878849 0.966551
O O12 0.000000 0.919583 0.000000
O O13 0.722178 0.000000 0.782760
O O14 0.500000 0.671837 0.500000
O O15 0.608009 0.740581 0.372064
O O16 0.180473 0.211178 0.878224
O O17 0.419177 0.250415 0.316259
O O18 0.500000 0.256837 0.000000
O O19 0.500000 0.190774 0.500000
#
# Coordination Sequence:
#
# PCOD9206431 Si02
#       8
#     8   8   8   8   8   8   8   8
#     4  11  22  39  60  87 124 164 215 264 315 365
#     4  10  23  42  62  93 129 166 212 264 314 373
#     4  10  22  39  63  96 133 165 206 254 311 384
#     4  10  23  45  69  91 118 162 218 277 332 373
#     4  10  21  36  58  87 129 170 209 239 298 374
#     4  11  23  35  62  93 130 171 208 247 304 388
#     4  11  23  38  59  94 134 173 211 248 302 379
#     4  11  24  36  56  90 128 176 207 251 296 374
#
# _framework density 20.256212999999999
#
# number of rings (size 3 to 8) (size 9 to 14) (size 15 to 20)
#    0.000    1.500    2.500    1.875    8.750    0.500 
#    0.000    2.500    0.000   15.375    0.000    0.000 
#    0.000    0.000    0.000    0.000    0.000    0.000 
#
# Total GULP energy -178234.197234 kJ/mol
# GULP energy per Si atom -5569.818664 kJ/mol
# Density = 2.021011 g / cm^3
# Si number density = 20.256213 Si / 1000 Ang^3
#
#
#
# Elastic Constant Matrix: (Units=GPa)
#
#
# Indices 1 2 3 4 5 6 
#
# 1 95.8749 30.9048 3.2421 0.0000 4.3017 0.0000
# 2 30.9048 112.5118 25.9350 0.0000 -3.4343 0.0000
# 3 3.2421 25.9350 67.1508 0.0000 -8.3219 0.0000
# 4 0.0000 0.0000 0.0000 35.4773 0.0000 11.2711
# 5 4.3017 -3.4343 -8.3219 0.0000 21.0733 0.0000
# 6 0.0000 0.0000 0.0000 11.2711 0.0000 24.1666
#
#
#
# Elastic Compliance Matrix: (Units=1/GPa)
#
#
# Indices 1 2 3 4 5 6 
#
# 1 0.011627 -0.003370 0.000397 0.000000 -0.002766 0.000000
# 2 -0.003370 0.010733 -0.003870 0.000000 0.000909 0.000000
# 3 0.000397 -0.003870 0.017117 0.000000 0.006048 0.000000
# 4 0.000000 0.000000 0.000000 0.033090 0.000000 -0.015433
# 5 -0.002766 0.000909 0.006048 0.000000 0.050554 0.000000
# 6 0.000000 0.000000 0.000000 -0.015433 0.000000 0.048577
#
#
# Mechanical properties :
#
#
# Convention : Reuss Voigt Hill
#
# Bulk Modulus (GPa) = 38.77121 43.96679 41.36900
# Shear Modulus (GPa) = 25.77563 30.50713 28.14138
#
# Velocity S-wave (km/s) = 3.57105 3.88501 3.73134
# Velocity P-wave (km/s) = 6.01541 6.47124 6.24748
#
# Compressibility (1/GPa) = 0.02579233
#
# Stress axis : x y z
#
# Youngs Moduli (GPa) = 86.00569 93.16708 58.42185
#
# Poissons Ratio (x) = 0.31395 -0.02321
# Poissons Ratio (y) = 0.28982 0.22610
# Poissons Ratio (z) = -0.03417 0.36057
#
# Static dielectric constant tensor:
#      x y z
#    x 1.844670 0.000000 0.029310 
#    y 0.000000 1.713250 0.000000 
#    z 0.029310 0.000000 1.801400 
# 
# From -- ./inp_files/66942.got.cif
#   From: 2010.05.17/outbox.cif.g08.bks.cpg/sg12_34_cif.got.tgz:66942.got - 2010.06.03 13:09:07.
