data_PCOD9206999
_publ_section_title
;
Structure prediction by ZEFSAII (Michael W. Deem and Ramdas Pophale) SiO2 
 PCOD9206999
Probable space group: C 2/M
;
_chemical_formula_sum "Si O2"
_cell_formula_units_Z 60
_cell_length_a 13.538291
_cell_length_b 11.193268
_cell_length_c 21.161142
_cell_angle_alpha 90.000000
_cell_angle_beta 98.567356
_cell_angle_gamma 90.000000
_cell_volume 3170.928848
_symmetry_space_group_name_H-M "C 2/M"
_symmetry_group_IT_number 12
_symmetry_cell_setting 'monoclinic'
loop_
_space_group_symop_operation_xyz
x,y,z
-x,y,-z
-x,-y,-z
x,-y,z
1/2+x,1/2+y,z
1/2-x,1/2+y,-z
1/2-x,1/2-y,-z
1/2+x,1/2-y,z
loop_
_atom_site_type_symbol
_atom_site_label
_atom_site_fract_x
_atom_site_fract_y
_atom_site_fract_z
Si Si1 0.946929 0.706207 0.742522
Si Si2 0.051025 0.637921 0.627778
Si Si3 0.348266 0.864379 0.859292
Si Si4 0.702453 0.626838 0.473056
Si Si5 0.464996 0.363273 0.924518
Si Si6 0.887667 0.136604 0.177198
Si Si7 0.500000 0.708176 0.500000
Si Si8 0.727198 0.635437 0.326671
O O1 0.975572 0.644520 0.679372
O O2 0.908335 0.632300 0.798728
O O3 0.854323 0.793316 0.719646
O O4 0.045670 0.777477 0.773493
O O5 0.065582 0.500000 0.610574
O O6 0.016429 0.711045 0.563670
O O7 0.159941 0.684053 0.660678
O O8 0.394406 0.749698 0.900499
O O9 0.230432 0.839973 0.837009
O O10 0.356174 0.000000 0.888317
O O11 0.755032 0.500000 0.493387
O O12 0.750000 0.750000 0.500000
O O13 0.595932 0.629617 0.495634
O O14 0.693824 0.632585 0.396718
O O15 0.423244 0.500000 0.911005
O O16 0.560338 0.355198 0.886776
O O17 0.500000 0.354527 0.000000
O O18 0.900176 0.000000 0.200875
O O19 0.731773 0.500000 0.302768
#
# Coordination Sequence:
#
# PCOD9206999 Si02
#       8
#     8   8   8   8   8   8   4   8
#     4  11  20  37  57  80 110 149 197 238 288 339
#     4  11  23  36  55  81 111 146 189 238 296 354
#     4  10  21  37  57  85 122 154 190 240 287 335
#     4  11  23  41  61  85 112 143 184 233 290 357
#     4   9  19  37  61  89 121 158 199 234 271 331
#     4   9  19  36  58  84 116 155 193 233 287 338
#     4  12  22  40  58  80 111 146 185 238 297 356
#     4  10  21  37  56  79 108 142 186 235 286 347
#
# _framework density 18.921900999999998
#
# number of rings (size 3 to 8) (size 9 to 14) (size 15 to 20)
#    0.000    1.733    2.667    2.000    0.000    1.867 
#    0.000    3.333    0.000    0.000    0.000    0.000 
#    0.000    0.000    0.000    0.000    0.000    0.000 
#
# Total GULP energy -167225.885315 kJ/mol
# GULP energy per Si atom -5574.196177 kJ/mol
# Density = 1.887883 g / cm^3
# Si number density = 18.921901 Si / 1000 Ang^3
#
#
#
# Elastic Constant Matrix: (Units=GPa)
#
#
# Indices 1 2 3 4 5 6 
#
# 1 87.9462 56.6409 13.0312 0.0000 6.1690 0.0000
# 2 56.6409 136.8461 43.5042 0.0000 19.0239 0.0000
# 3 13.0312 43.5042 72.2503 0.0000 1.3391 0.0000
# 4 0.0000 0.0000 0.0000 -209.0589 0.0000 157.3558
# 5 6.1690 19.0239 1.3391 0.0000 19.7429 0.0000
# 6 0.0000 0.0000 0.0000 157.3558 0.0000 -89.6719
#
#
#
# Elastic Compliance Matrix: (Units=1/GPa)
#
#
# Indices 1 2 3 4 5 6 
#
# 1 0.015671 -0.007235 0.001494 0.000000 0.001974 0.000000
# 2 -0.007235 0.013999 -0.006925 0.000000 -0.010759 0.000000
# 3 0.001494 -0.006925 0.017648 0.000000 0.005009 0.000000
# 4 0.000000 0.000000 0.000000 0.014910 0.000000 0.026164
# 5 0.001974 -0.010759 0.005009 0.000000 0.060062 0.000000
# 6 0.000000 0.000000 0.000000 0.026164 0.000000 0.034761
#
#
# Mechanical properties :
#
#
# Convention : Reuss Voigt Hill
#
# Bulk Modulus (GPa) = 45.48589 58.15503 51.82046
# Shear Modulus (GPa) = 26.35555 -43.53981 -8.59213
#
# Velocity S-wave (km/s) = 3.73615 -4.80211 -2.13324
# Velocity P-wave (km/s) = 6.53473 0.23237 4.62367
#
# Compressibility (1/GPa) = 0.02198484
#
# Stress axis : x y z
#
# Youngs Moduli (GPa) = 63.81343 71.43150 56.66252
#
# Poissons Ratio (x) = 0.51684 -0.08464
# Poissons Ratio (y) = 0.46172 0.39239
# Poissons Ratio (z) = -0.09532 0.49467
#
# Static dielectric constant tensor:
#      x y z
#    x 1.658040 0.000000 -0.007590 
#    y 0.000000 1.707130 0.000000 
#    z -0.007590 0.000000 1.638440 
# 
# From -- ./inp_files/304737.got.cif
#   From: 2010.05.17/outbox.cif.g08.bks.cpg/sg12_153_cif.got.tgz:304737.got - 2010.06.03 13:09:07.
