data_PCOD9206956
_publ_section_title
;
Structure prediction by ZEFSAII (Michael W. Deem and Ramdas Pophale) SiO2 
 PCOD9206956
Probable space group: C 2/M
;
_chemical_formula_sum "Si O2"
_cell_formula_units_Z 40
_cell_length_a 10.119323
_cell_length_b 14.285494
_cell_length_c 31.349446
_cell_angle_alpha 90.000000
_cell_angle_beta 152.883329
_cell_angle_gamma 90.000000
_cell_volume 2065.640006
_symmetry_space_group_name_H-M "C 2/M"
_symmetry_group_IT_number 12
_symmetry_cell_setting 'monoclinic'
loop_
_space_group_symop_operation_xyz
x,y,z
-x,y,-z
-x,-y,-z
x,-y,z
1/2+x,1/2+y,z
1/2-x,1/2+y,-z
1/2-x,1/2-y,-z
1/2+x,1/2-y,z
loop_
_atom_site_type_symbol
_atom_site_label
_atom_site_fract_x
_atom_site_fract_y
_atom_site_fract_z
Si Si1 0.833688 0.609282 0.582858
Si Si2 0.796518 0.391163 0.983344
Si Si3 0.247409 0.232245 0.721669
Si Si4 0.345996 0.775694 0.846367
Si Si5 0.251101 0.387909 0.539177
O O1 0.500000 0.621751 0.500000
O O2 0.906868 0.500000 0.609048
O O3 0.848946 0.635305 0.537307
O O4 0.050028 0.675145 0.670346
O O5 0.716381 0.500000 0.965572
O O6 0.978219 0.351823 0.075599
O O7 0.527105 0.321191 0.900166
O O8 0.000000 0.383141 0.000000
O O9 0.316205 0.195264 0.788598
O O10 0.536169 0.258883 0.779243
O O11 0.047728 0.161171 0.637751
O O12 0.286538 0.500000 0.551160
O O13 0.000000 0.359835 0.500000
#
# Coordination Sequence:
#
# PCOD9206956 Si02
#       5
#     8   8   8   8   8
#     4  10  21  37  57  83 118 165 209 239 284 351
#     4  10  22  45  68  85 120 163 193 239 312 376
#     4  12  22  36  60  89 124 151 198 255 301 339
#     4  11  24  39  62  97 118 151 202 252 298 368
#     4  10  21  37  55  79 118 163 200 240 293 346
#
# _framework density 19.364457999999999
#
# number of rings (size 3 to 8) (size 9 to 14) (size 15 to 20)
#    0.000    1.400    2.000    3.600    0.000    3.200 
#    0.000    1.000    0.000    0.000    0.000    0.000 
#    0.000    0.000    0.000    0.000    0.000    0.000 
#
# Total GULP energy -111828.681764 kJ/mol
# GULP energy per Si atom -5591.434088 kJ/mol
# Density = 1.932038 g / cm^3
# Si number density = 19.364458 Si / 1000 Ang^3
#
#
#
# Elastic Constant Matrix: (Units=GPa)
#
#
# Indices 1 2 3 4 5 6 
#
# 1 51.7317 -11.5651 -16.3634 -0.0001 -3.4028 0.0001
# 2 -11.5651 82.1744 11.2689 0.0003 -6.4907 0.0000
# 3 -16.3634 11.2689 53.0363 -0.0004 -1.0965 0.0002
# 4 -0.0001 0.0003 -0.0004 9.5844 -0.0004 0.7260
# 5 -3.4028 -6.4907 -1.0965 -0.0004 33.1721 0.0000
# 6 0.0001 0.0000 0.0002 0.7260 0.0000 -3.6142
#
#
#
# Elastic Compliance Matrix: (Units=1/GPa)
#
#
# Indices 1 2 3 4 5 6 
#
# 1 0.022086 0.002471 0.006350 0.000000 0.002959 0.000001
# 2 0.002471 0.012999 -0.001943 0.000000 0.002733 0.000000
# 3 0.006350 -0.001943 0.021247 0.000001 0.000974 0.000001
# 4 0.000000 0.000000 0.000001 0.102773 0.000001 0.020644
# 5 0.002959 0.002733 0.000974 0.000001 0.031016 0.000000
# 6 0.000001 0.000000 0.000001 0.020644 0.000000 -0.272537
#
#
# Mechanical properties :
#
#
# Convention : Reuss Voigt Hill
#
# Bulk Modulus (GPa) = 14.26733 17.06926 15.66830
# Shear Modulus (GPa) = -68.67285 21.40190 -23.63548
#
# Velocity S-wave (km/s) = -5.96157 3.32808 -3.49744
# Velocity P-wave (km/s) = 6.32482 4.85820 2.86367
#
# Compressibility (1/GPa) = 0.07009018
#
# Stress axis : x y z
#
# Youngs Moduli (GPa) = 45.27689 76.92682 47.06477
#
# Poissons Ratio (x) = -0.19011 -0.29888
# Poissons Ratio (y) = -0.11189 0.09145
# Poissons Ratio (z) = -0.28753 0.14948
#
# Static dielectric constant tensor:
#      x y z
#    x 1.819140 0.000000 -0.120930 
#    y 0.000000 1.668430 0.000000 
#    z -0.120930 0.000000 1.724990 
# 
# From -- ./inp_files/194414.got.cif
#   From: 2010.05.17/outbox.cif.g08.bks.cpg/sg12_98_cif.got.tgz:194414.got - 2010.06.03 13:09:07.
