data_PCOD9206919
_publ_section_title
;
Structure prediction by ZEFSAII (Michael W. Deem and Ramdas Pophale) SiO2 
 PCOD9206919
Probable space group: C 2/M
;
_chemical_formula_sum "Si O2"
_cell_formula_units_Z 64
_cell_length_a 25.955443
_cell_length_b 22.598344
_cell_length_c 19.236470
_cell_angle_alpha 90.000000
_cell_angle_beta 19.247096
_cell_angle_gamma 90.000000
_cell_volume 3719.409769
_symmetry_space_group_name_H-M "C 2/M"
_symmetry_group_IT_number 12
_symmetry_cell_setting 'monoclinic'
loop_
_space_group_symop_operation_xyz
x,y,z
-x,y,-z
-x,-y,-z
x,-y,z
1/2+x,1/2+y,z
1/2-x,1/2+y,-z
1/2-x,1/2-y,-z
1/2+x,1/2-y,z
loop_
_atom_site_type_symbol
_atom_site_label
_atom_site_fract_x
_atom_site_fract_y
_atom_site_fract_z
Si Si1 0.414866 0.279008 0.681834
Si Si2 0.863342 0.640174 0.729786
Si Si3 0.039697 0.275921 0.869830
Si Si4 0.995622 0.429811 0.323451
Si Si5 0.525693 0.344749 0.121400
Si Si6 0.635705 0.430104 0.771184
Si Si7 0.080003 0.663268 0.110377
Si Si8 0.411760 0.273042 0.396462
O O1 0.500000 0.289491 0.500000
O O2 0.360985 0.210192 0.750777
O O3 0.530652 0.286507 0.599311
O O4 0.261873 0.319354 0.883991
O O5 0.000000 0.630828 0.500000
O O6 0.902724 0.602301 0.747235
O O7 0.695364 0.626119 0.911386
O O8 0.225985 0.269835 0.626509
O O9 0.966768 0.213405 0.937364
O O10 0.976694 0.324387 0.895812
O O11 0.000000 0.287987 0.000000
O O12 0.018990 0.500000 0.293996
O O13 0.811518 0.417842 0.572515
O O14 0.040760 0.399916 0.192794
O O15 0.402460 0.389715 0.246038
O O16 0.474767 0.321037 0.261458
O O17 0.626369 0.500000 0.767303
O O18 0.500000 0.416479 0.000000
O O19 0.985964 0.711019 0.277149
#
# Coordination Sequence:
#
# PCOD9206919 Si02
#       8
#     8   8   8   8   8   8   8   8
#     4  11  21  35  56  82 111 146 177 221 281 335
#     4  11  22  34  55  82 115 148 179 220 271 332
#     4  11  22  33  52  81 109 140 177 226 275 332
#     4  11  23  38  58  80 108 151 192 227 266 318
#     4  11  21  34  52  80 109 146 176 222 273 329
#     4  10  21  37  55  76 109 151 190 225 263 317
#     4  11  20  38  54  79 113 141 180 227 274 329
#     4  11  20  32  53  77 109 141 176 221 273 326
#
# _framework density 17.207031000000001
#
# number of rings (size 3 to 8) (size 9 to 14) (size 15 to 20)
#    0.000    1.125    3.750    6.000    1.750    0.750 
#    0.000    0.000    0.000    0.750    0.000    1.750 
#    0.000    0.000    0.000    0.000    0.000    0.000 
#
# Total GULP energy -178820.347209 kJ/mol
# GULP energy per Si atom -5588.135850 kJ/mol
# Density = 1.716787 g / cm^3
# Si number density = 17.207031 Si / 1000 Ang^3
#
#
#
# Elastic Constant Matrix: (Units=GPa)
#
#
# Indices 1 2 3 4 5 6 
#
# 1 114.2257 23.9053 27.2532 -0.0044 0.6634 0.0094
# 2 23.9053 42.0741 31.7452 -0.0113 2.4265 0.0170
# 3 27.2532 31.7452 80.5737 -0.0019 -10.8921 0.0025
# 4 -0.0044 -0.0113 -0.0019 18.9874 -0.0006 3.8733
# 5 0.6634 2.4265 -10.8921 -0.0006 33.4662 0.0084
# 6 0.0094 0.0170 0.0025 3.8733 0.0084 1.8783
#
#
#
# Elastic Compliance Matrix: (Units=1/GPa)
#
#
# Indices 1 2 3 4 5 6 
#
# 1 0.010093 -0.004393 -0.001744 0.000001 -0.000449 -0.000009
# 2 -0.004393 0.037428 -0.014242 0.000127 -0.007262 -0.000527
# 3 -0.001744 -0.014242 0.019620 -0.000039 0.007453 0.000158
# 4 0.000001 0.000127 -0.000039 0.090911 0.000027 -0.187477
# 5 -0.000449 -0.007262 0.007453 0.000027 0.032842 -0.000144
# 6 -0.000009 -0.000527 0.000158 -0.187477 -0.000144 0.919022
#
#
# Mechanical properties :
#
#
# Convention : Reuss Voigt Hill
#
# Bulk Modulus (GPa) = 37.90315 44.74233 41.32274
# Shear Modulus (GPa) = 4.31232 21.13103 12.72167
#
# Velocity S-wave (km/s) = 1.58480 3.50815 2.72201
# Velocity P-wave (km/s) = 5.04225 6.51677 5.82635
#
# Compressibility (1/GPa) = 0.02638303
#
# Stress axis : x y z
#
# Youngs Moduli (GPa) = 99.08282 26.71772 50.96962
#
# Poissons Ratio (x) = 0.11736 0.08888
# Poissons Ratio (y) = 0.43525 0.72592
# Poissons Ratio (z) = 0.17277 0.38052
#
# Static dielectric constant tensor:
#      x y z
#    x 1.589730 0.000000 -0.002620 
#    y 0.000000 1.564230 0.000000 
#    z -0.002620 0.000000 1.590380 
# 
# From -- ./inp_files/290902.got.cif
#   From: 2010.05.17/outbox.cif.g08.bks.cpg/sg12_146_cif.got.tgz:290902.got - 2010.06.03 13:09:07.
