data_PCOD9206629
_publ_section_title
;
Structure prediction by ZEFSAII (Michael W. Deem and Ramdas Pophale) SiO2 
 PCOD9206629
Probable space group: C 2/M
;
_chemical_formula_sum "Si O2"
_cell_formula_units_Z 58
_cell_length_a 21.119516
_cell_length_b 19.293973
_cell_length_c 11.655508
_cell_angle_alpha 90.000000
_cell_angle_beta 37.756682
_cell_angle_gamma 90.000000
_cell_volume 2908.089871
_symmetry_space_group_name_H-M "C 2/M"
_symmetry_group_IT_number 12
_symmetry_cell_setting 'monoclinic'
loop_
_space_group_symop_operation_xyz
x,y,z
-x,y,-z
-x,-y,-z
x,-y,z
1/2+x,1/2+y,z
1/2-x,1/2+y,-z
1/2-x,1/2-y,-z
1/2+x,1/2-y,z
loop_
_atom_site_type_symbol
_atom_site_label
_atom_site_fract_x
_atom_site_fract_y
_atom_site_fract_z
Si Si1 0.788567 0.136872 0.963245
Si Si2 0.291228 0.820762 0.573049
Si Si3 0.410960 0.629786 0.272812
Si Si4 0.000000 0.000000 0.000000
Si Si5 0.883216 0.418815 0.639061
Si Si6 0.990975 0.081672 0.382142
Si Si7 0.490525 0.220534 0.142906
Si Si8 0.214959 0.724745 0.876976
O O1 0.894378 0.096088 0.832424
O O2 0.780700 0.165615 0.845151
O O3 0.690738 0.092817 0.145371
O O4 0.784314 0.205982 0.046536
O O5 0.197113 0.850431 0.632584
O O6 0.332068 0.875863 0.608486
O O7 0.387987 0.802504 0.354676
O O8 0.251207 0.753260 0.701390
O O9 0.411194 0.617166 0.409416
O O10 0.485411 0.695825 0.147910
O O11 0.455431 0.561223 0.150091
O O12 0.886845 0.500000 0.604629
O O13 0.000000 0.394868 0.500000
O O14 0.000000 0.107394 0.500000
O O15 0.969240 0.000000 0.417219
O O16 0.500000 0.194688 0.000000
O O17 0.597046 0.199439 0.048823
#
# Coordination Sequence:
#
# PCOD9206629 Si02
#       8
#     8   8   8   2   8   8   8   8
#     4  10  21  36  60  88 123 169 210 263 327 388
#     4  11  25  40  66  98 131 175 225 283 345 405
#     4  12  24  41  64 100 129 174 220 283 343 397
#     4  12  24  40  74  96 136 168 230 288 334 404
#     4  10  22  41  63  91 127 169 227 279 329 396
#     4  11  25  41  60  91 131 171 213 267 332 403
#     4  12  23  40  62  92 134 167 218 277 345 400
#     4  10  21  37  58  92 124 165 218 260 328 396
#
# _framework density 19.944362000000002
#
# number of rings (size 3 to 8) (size 9 to 14) (size 15 to 20)
#    0.000    1.103    4.138    1.655    4.828    0.000 
#    0.000    0.000    0.000    0.414    0.000    0.000 
#    0.000    0.000    0.000    0.000    0.000    0.000 
#
# Total GULP energy -161672.260282 kJ/mol
# GULP energy per Si atom -5574.905527 kJ/mol
# Density = 1.989897 g / cm^3
# Si number density = 19.944362 Si / 1000 Ang^3
#
#
#
# Elastic Constant Matrix: (Units=GPa)
#
#
# Indices 1 2 3 4 5 6 
#
# 1 144.9390 36.1482 46.6111 0.0000 0.9712 0.0000
# 2 36.1482 46.1890 10.5938 0.0000 6.0182 0.0000
# 3 46.6111 10.5938 103.1518 0.0000 11.0137 0.0000
# 4 0.0000 0.0000 0.0000 -33.0420 0.0000 -13.5720
# 5 0.9712 6.0182 11.0137 0.0000 36.0389 0.0000
# 6 0.0000 0.0000 0.0000 -13.5720 0.0000 17.8556
#
#
#
# Elastic Compliance Matrix: (Units=1/GPa)
#
#
# Indices 1 2 3 4 5 6 
#
# 1 0.009953 -0.007153 -0.003992 0.000000 0.002146 0.000000
# 2 -0.007153 0.027656 0.000894 0.000000 -0.004699 0.000000
# 3 -0.003992 0.000894 0.011796 0.000000 -0.003647 0.000000
# 4 0.000000 0.000000 0.000000 -0.023064 0.000000 -0.017531
# 5 0.002146 -0.004699 -0.003647 0.000000 0.029589 0.000000
# 6 0.000000 0.000000 0.000000 -0.017531 0.000000 0.042680
#
#
# Mechanical properties :
#
#
# Convention : Reuss Voigt Hill
#
# Bulk Modulus (GPa) = 34.60034 53.44291 44.02162
# Shear Modulus (GPa) = 38.83608 17.56561 28.20085
#
# Velocity S-wave (km/s) = 4.41752 2.97093 3.76437
# Velocity P-wave (km/s) = 6.58828 6.21472 6.40422
#
# Compressibility (1/GPa) = 0.02890145
#
# Stress axis : x y z
#
# Youngs Moduli (GPa) = 100.47321 36.15891 84.77577
#
# Poissons Ratio (x) = 0.25866 0.33842
# Poissons Ratio (y) = 0.71872 -0.07577
# Poissons Ratio (z) = 0.40108 -0.03232
#
# Static dielectric constant tensor:
#      x y z
#    x 1.753330 0.000000 0.028070 
#    y 0.000000 1.667560 0.000000 
#    z 0.028070 0.000000 1.721940 
# 
# From -- ./inp_files/168966.got.cif
#   From: 2010.05.17/outbox.cif.g08.bks.cpg/sg12_85_cif.got.tgz:168966.got - 2010.06.03 13:09:07.
