data_PCOD9206844
_publ_section_title
;
Structure prediction by ZEFSAII (Michael W. Deem and Ramdas Pophale) SiO2 
 PCOD9206844
Probable space group: C 2/M
;
_chemical_formula_sum "Si O2"
_cell_formula_units_Z 40
_cell_length_a 12.770313
_cell_length_b 30.926310
_cell_length_c 5.300940
_cell_angle_alpha 90.000000
_cell_angle_beta 101.835118
_cell_angle_gamma 90.000000
_cell_volume 2049.041245
_symmetry_space_group_name_H-M "C 2/M"
_symmetry_group_IT_number 12
_symmetry_cell_setting 'monoclinic'
loop_
_space_group_symop_operation_xyz
x,y,z
-x,y,-z
-x,-y,-z
x,-y,z
1/2+x,1/2+y,z
1/2-x,1/2+y,-z
1/2-x,1/2-y,-z
1/2+x,1/2-y,z
loop_
_atom_site_type_symbol
_atom_site_label
_atom_site_fract_x
_atom_site_fract_y
_atom_site_fract_z
Si Si1 0.791650 0.868231 0.545241
Si Si2 0.573077 0.450174 0.285948
Si Si3 0.625950 0.806632 0.324561
Si Si4 0.611692 0.230671 0.818729
Si Si5 0.108138 0.168695 0.917616
O O1 0.829930 0.916401 0.631981
O O2 0.671669 0.854255 0.401172
O O3 0.862055 0.852624 0.336930
O O4 0.811055 0.842186 0.815094
O O5 0.500000 0.445943 0.500000
O O6 0.610454 0.500000 0.289883
O O7 0.500000 0.442752 0.000000
O O8 0.499167 0.797221 0.246151
O O9 0.661404 0.776837 0.573073
O O10 0.673176 0.788778 0.087101
O O11 0.589228 0.280643 0.855022
O O12 0.000000 0.152266 0.000000
#
# Coordination Sequence:
#
# PCOD9206844 Si02
#       5
#     8   8   8   8   8
#     4  12  24  34  57  84 101 135 190 228 255 310
#     4  10  21  40  60  79 109 140 167 212 281 332
#     4  10  21  37  53  73 104 143 187 220 259 311
#     4  10  21  39  50  69 109 154 178 210 277 301
#     4  12  23  36  51  73 113 144 179 222 259 307
#
# _framework density 19.521325999999998
#
# number of rings (size 3 to 8) (size 9 to 14) (size 15 to 20)
#    0.000    1.200    2.000    6.000    2.800    4.800 
#    0.000    0.000    0.000    0.000    0.000    5.600 
#    0.000    0.000    0.000    0.000    0.000    0.000 
#
# Total GULP energy -111509.186707 kJ/mol
# GULP energy per Si atom -5575.459335 kJ/mol
# Density = 1.947689 g / cm^3
# Si number density = 19.521326 Si / 1000 Ang^3
#
#
#
# Elastic Constant Matrix: (Units=GPa)
#
#
# Indices 1 2 3 4 5 6 
#
# 1 69.7631 48.7391 24.7852 0.0000 -0.6650 0.0000
# 2 48.7391 153.2588 55.8334 0.0000 14.3448 0.0000
# 3 24.7852 55.8334 169.9799 0.0000 -28.3949 0.0000
# 4 0.0000 0.0000 0.0000 23.1723 0.0000 9.6423
# 5 -0.6650 14.3448 -28.3949 0.0000 38.3241 0.0000
# 6 0.0000 0.0000 0.0000 9.6423 0.0000 15.4889
#
#
#
# Elastic Compliance Matrix: (Units=1/GPa)
#
#
# Indices 1 2 3 4 5 6 
#
# 1 0.018698 -0.006033 -0.000358 0.000000 0.002318 0.000000
# 2 -0.006033 0.010404 -0.003659 0.000000 -0.006710 0.000000
# 3 -0.000358 -0.003659 0.008405 0.000000 0.007591 0.000000
# 4 0.000000 0.000000 0.000000 0.058242 0.000000 -0.036258
# 5 0.002318 -0.006710 0.007591 0.000000 0.034269 0.000000
# 6 0.000000 0.000000 0.000000 -0.036258 0.000000 0.087134
#
#
# Mechanical properties :
#
#
# Convention : Reuss Voigt Hill
#
# Bulk Modulus (GPa) = 57.44175 72.41304 64.92740
# Shear Modulus (GPa) = 20.57149 32.97332 26.77240
#
# Velocity S-wave (km/s) = 3.24974 4.11432 3.70732
# Velocity P-wave (km/s) = 6.60077 7.72949 7.18732
#
# Compressibility (1/GPa) = 0.01740894
#
# Stress axis : x y z
#
# Youngs Moduli (GPa) = 53.48086 96.11235 118.97686
#
# Poissons Ratio (x) = 0.57985 0.04255
# Poissons Ratio (y) = 0.32265 0.43531
# Poissons Ratio (z) = 0.01912 0.35165
#
# Static dielectric constant tensor:
#      x y z
#    x 1.893160 0.000000 -0.006010 
#    y 0.000000 1.683760 0.000000 
#    z -0.006010 0.000000 1.786060 
# 
# From -- ./inp_files/12685.got.cif
#   From: 2010.05.17/outbox.cif.g08.bks.cpg/sg12_7_cif.got.tgz:12685.got - 2010.06.03 13:09:07.
