data_PCOD9206227
_publ_section_title
;
Structure prediction by ZEFSAII (Michael W. Deem and Ramdas Pophale) SiO2 
 PCOD9206227
Probable space group: C 2/M
;
_chemical_formula_sum "Si O2"
_cell_formula_units_Z 48
_cell_length_a 15.410759
_cell_length_b 16.562329
_cell_length_c 18.392288
_cell_angle_alpha 90.000000
_cell_angle_beta 152.571660
_cell_angle_gamma 90.000000
_cell_volume 2162.428581
_symmetry_space_group_name_H-M "C 2/M"
_symmetry_group_IT_number 12
_symmetry_cell_setting 'monoclinic'
loop_
_space_group_symop_operation_xyz
x,y,z
-x,y,-z
-x,-y,-z
x,-y,z
1/2+x,1/2+y,z
1/2-x,1/2+y,-z
1/2-x,1/2-y,-z
1/2+x,1/2-y,z
loop_
_atom_site_type_symbol
_atom_site_label
_atom_site_fract_x
_atom_site_fract_y
_atom_site_fract_z
Si Si1 0.456047 0.000000 0.053637
Si Si2 0.694130 0.164002 0.000862
Si Si3 0.224584 0.597076 0.522675
Si Si4 0.606691 0.831564 0.651819
Si Si5 0.956499 0.836758 0.330151
Si Si6 0.154233 0.000000 0.674446
Si Si7 0.461465 0.682713 0.829212
O O1 0.356733 0.077762 0.008080
O O2 0.662318 0.000000 0.238176
O O3 0.500000 0.000000 0.000000
O O4 0.510948 0.221445 0.859794
O O5 0.836829 0.193915 0.170978
O O6 0.822771 0.154573 0.024521
O O7 0.249724 0.500000 0.542010
O O8 0.332454 0.637568 0.535173
O O9 0.340692 0.639692 0.675510
O O10 0.005322 0.620730 0.368568
O O11 0.500000 0.862072 0.500000
O O12 0.553649 0.737783 0.623134
O O13 0.830860 0.834572 0.802509
O O14 0.863974 0.918430 0.292299
O O15 0.000000 0.000000 0.500000
#
# Coordination Sequence:
#
# PCOD9206227 Si02
#       7
#     4   8   8   8   8   4   8
#     4  12  22  38  64  95 121 163 215 256 312 385
#     4  10  21  38  59  90 123 159 214 254 316 376
#     4  10  21  39  63  89 120 163 216 253 315 380
#     4  10  21  36  56  90 121 160 203 254 306 371
#     4  11  20  37  62  88 124 164 206 256 319 376
#     4  12  24  36  58  97 131 165 199 261 319 372
#     4   9  21  36  57  86 123 154 206 265 300 360
#
# _framework density 22.197264000000001
#
# number of rings (size 3 to 8) (size 9 to 14) (size 15 to 20)
#    0.000    1.667    2.500    2.000    3.500    4.333 
#    0.000    1.667    0.000    1.000    0.000    5.833 
#    0.000    0.000    0.000    0.000    0.000    0.000 
#
# Total GULP energy -133629.272370 kJ/mol
# GULP energy per Si atom -5567.886349 kJ/mol
# Density = 2.214674 g / cm^3
# Si number density = 22.197264 Si / 1000 Ang^3
#
#
#
# Elastic Constant Matrix: (Units=GPa)
#
#
# Indices 1 2 3 4 5 6 
#
# 1 92.1687 28.5495 23.7775 0.0009 36.8200 0.0041
# 2 28.5495 88.7671 10.4724 0.0045 -1.7464 0.0070
# 3 23.7775 10.4724 67.0342 0.0027 16.3012 0.0078
# 4 0.0009 0.0045 0.0027 15.1068 0.0019 -3.2409
# 5 36.8200 -1.7464 16.3012 0.0019 29.2191 0.0049
# 6 0.0041 0.0070 0.0078 -3.2409 0.0049 59.0249
#
#
#
# Elastic Compliance Matrix: (Units=1/GPa)
#
#
# Indices 1 2 3 4 5 6 
#
# 1 0.028493 -0.009930 0.000371 0.000006 -0.036706 0.000003
# 2 -0.009930 0.015034 -0.002416 -0.000006 0.014759 -0.000002
# 3 0.000371 -0.002416 0.017716 -0.000001 -0.010495 -0.000001
# 4 0.000006 -0.000006 -0.000001 0.066984 -0.000013 0.003678
# 5 -0.036706 0.014759 -0.010495 -0.000013 0.087216 -0.000006
# 6 0.000003 -0.000002 -0.000001 0.003678 -0.000006 0.017144
#
#
# Mechanical properties :
#
#
# Convention : Reuss Voigt Hill
#
# Bulk Modulus (GPa) = 26.81438 41.50763 34.16101
# Shear Modulus (GPa) = 18.58951 33.01486 25.80218
#
# Velocity S-wave (km/s) = 2.89704 3.86079 3.41310
# Velocity P-wave (km/s) = 4.82667 6.21404 5.56377
#
# Compressibility (1/GPa) = 0.03729343
#
# Stress axis : x y z
#
# Youngs Moduli (GPa) = 35.09600 66.51372 56.44666
#
# Poissons Ratio (x) = 0.66048 -0.02091
# Poissons Ratio (y) = 0.34850 0.13636
# Poissons Ratio (z) = -0.01300 0.16068
#
# Static dielectric constant tensor:
#      x y z
#    x 1.922480 0.000000 0.042880 
#    y 0.000000 1.784550 0.000000 
#    z 0.042880 0.000000 1.994540 
# 
# From -- ./inp_files/271815.got.cif
#   From: 2010.05.17/outbox.cif.g08.bks.cpg/sg12_136_cif.got.tgz:271815.got - 2010.06.03 13:09:07.
