data_PCOD9206214
_publ_section_title
;
Structure prediction by ZEFSAII (Michael W. Deem and Ramdas Pophale) SiO2 
 PCOD9206214
Probable space group: C 2/M
;
_chemical_formula_sum "Si O2"
_cell_formula_units_Z 48
_cell_length_a 19.588155
_cell_length_b 16.290817
_cell_length_c 23.622945
_cell_angle_alpha 90.000000
_cell_angle_beta 16.814642
_cell_angle_gamma 90.000000
_cell_volume 2180.637555
_symmetry_space_group_name_H-M "C 2/M"
_symmetry_group_IT_number 12
_symmetry_cell_setting 'monoclinic'
loop_
_space_group_symop_operation_xyz
x,y,z
-x,y,-z
-x,-y,-z
x,-y,z
1/2+x,1/2+y,z
1/2-x,1/2+y,-z
1/2-x,1/2-y,-z
1/2+x,1/2-y,z
loop_
_atom_site_type_symbol
_atom_site_label
_atom_site_fract_x
_atom_site_fract_y
_atom_site_fract_z
Si Si1 0.756122 0.587822 0.824338
Si Si2 0.639902 0.691788 0.538055
Si Si3 0.576502 0.816971 0.497530
Si Si4 0.346292 0.900861 0.063986
Si Si5 0.560559 0.405933 0.093165
Si Si6 0.102420 0.667634 0.097692
O O1 0.847824 0.500000 0.772074
O O2 0.918760 0.607862 0.642173
O O3 0.500000 0.585346 0.000000
O O4 0.706826 0.631212 0.923643
O O5 0.750000 0.750000 0.500000
O O6 0.516407 0.756881 0.595500
O O7 0.433782 0.625816 0.713078
O O8 0.861049 0.662172 0.324849
O O9 0.500000 0.778838 0.500000
O O10 0.839994 0.848471 0.281988
O O11 0.364510 0.000000 0.041316
O O12 0.500000 0.882684 0.000000
O O13 0.438887 0.848420 0.936085
O O14 0.486079 0.500000 0.139765
O O15 0.727181 0.403674 0.015048
O O16 0.250000 0.750000 0.000000
#
# Coordination Sequence:
#
# PCOD9206214 Si02
#       6
#     8   8   8   8   8   8
#     4  10  21  36  56  87 133 181 224 272 335 419
#     4  12  26  46  74 107 141 186 243 305 371 440
#     4  12  24  37  64  98 132 177 224 285 354 420
#     4  11  28  51  77 110 151 198 252 315 376 442
#     4  11  23  40  63  95 136 183 228 281 351 426
#     4  12  24  45  74 104 142 185 243 306 369 438
#
# _framework density 22.011911999999999
#
# number of rings (size 3 to 8) (size 9 to 14) (size 15 to 20)
#    0.000    0.667    5.000    2.000    2.333    2.667 
#    0.000    4.167    0.000    0.000    0.000    0.000 
#    0.000    0.000    0.000    0.000    0.000    0.000 
#
# Total GULP energy -133631.741034 kJ/mol
# GULP energy per Si atom -5567.989210 kJ/mol
# Density = 2.196181 g / cm^3
# Si number density = 22.011912 Si / 1000 Ang^3
#
#
#
# Elastic Constant Matrix: (Units=GPa)
#
#
# Indices 1 2 3 4 5 6 
#
# 1 133.0870 28.9369 42.3311 -0.0052 18.4409 -0.0695
# 2 28.9369 62.6222 8.1680 0.0907 2.9374 -0.1042
# 3 42.3311 8.1680 105.4439 -0.1531 3.9004 0.5653
# 4 -0.0052 0.0907 -0.1531 19.9475 0.0473 -4.0563
# 5 18.4409 2.9374 3.9004 0.0473 32.9822 -0.0861
# 6 -0.0695 -0.1042 0.5653 -4.0563 -0.0861 82.0846
#
#
#
# Elastic Compliance Matrix: (Units=1/GPa)
#
#
# Indices 1 2 3 4 5 6 
#
# 1 0.010219 -0.004020 -0.003609 0.000010 -0.004929 0.000024
# 2 -0.004020 0.017769 0.000214 -0.000079 0.000640 0.000014
# 3 -0.003609 0.000214 0.010890 0.000065 0.000711 -0.000074
# 4 0.000010 -0.000079 0.000065 0.050641 -0.000072 0.002502
# 5 -0.004929 0.000640 0.000711 -0.000072 0.032934 0.000023
# 6 0.000024 0.000014 -0.000074 0.002502 0.000023 0.012307
#
#
# Mechanical properties :
#
#
# Convention : Reuss Voigt Hill
#
# Bulk Modulus (GPa) = 41.58507 51.11389 46.34948
# Shear Modulus (GPa) = 31.72471 41.78402 36.75436
#
# Velocity S-wave (km/s) = 3.80050 4.36161 4.09069
# Velocity P-wave (km/s) = 6.17993 6.97397 6.58892
#
# Compressibility (1/GPa) = 0.02404709
#
# Stress axis : x y z
#
# Youngs Moduli (GPa) = 97.85951 56.27893 91.82619
#
# Poissons Ratio (x) = 0.22624 0.33138
# Poissons Ratio (y) = 0.39340 -0.01961
# Poissons Ratio (z) = 0.35315 -0.01202
#
# Static dielectric constant tensor:
#      x y z
#    x 1.986730 -0.001140 0.080790 
#    y -0.001140 0.687380 -0.001550 
#    z 0.080790 -0.001550 1.848830 
# 
# From -- ./inp_files/317488.got.cif
#   From: 2010.05.17/outbox.cif.g08.bks.cpg/sg12_159_cif.got.tgz:317488.got - 2010.06.03 13:09:07.
