data_PCOD9206641
_publ_section_title
;
Structure prediction by ZEFSAII (Michael W. Deem and Ramdas Pophale) SiO2 
 PCOD9206641
Probable space group: C 2/M
;
_chemical_formula_sum "Si O2"
_cell_formula_units_Z 48
_cell_length_a 14.223852
_cell_length_b 17.538795
_cell_length_c 15.694443
_cell_angle_alpha 90.000000
_cell_angle_beta 143.620019
_cell_angle_gamma 90.000000
_cell_volume 2322.300180
_symmetry_space_group_name_H-M "C 2/M"
_symmetry_group_IT_number 12
_symmetry_cell_setting 'monoclinic'
loop_
_space_group_symop_operation_xyz
x,y,z
-x,y,-z
-x,-y,-z
x,-y,z
1/2+x,1/2+y,z
1/2-x,1/2+y,-z
1/2-x,1/2-y,-z
1/2+x,1/2-y,z
loop_
_atom_site_type_symbol
_atom_site_label
_atom_site_fract_x
_atom_site_fract_y
_atom_site_fract_z
Si Si1 0.356006 0.589874 0.148271
Si Si2 0.499604 0.268588 0.685091
Si Si3 0.646980 0.589980 0.049114
Si Si4 0.318351 0.085312 0.338988
Si Si5 0.318353 0.805231 0.868678
Si Si6 0.751551 0.247901 0.641370
O O1 0.378346 0.500000 0.169046
O O2 0.494637 0.640292 0.292341
O O3 0.206461 0.617304 0.096270
O O4 0.340315 0.617339 0.038657
O O5 0.687158 0.251076 0.818675
O O6 0.407785 0.253242 0.530790
O O7 0.397532 0.232725 0.685733
O O8 0.614843 0.500000 0.013838
O O9 0.796992 0.592793 0.221730
O O10 0.500000 0.618826 0.000000
O O11 0.500000 0.087116 0.500000
O O12 0.236962 0.159900 0.319370
O O13 0.254671 0.000000 0.315494
O O14 0.258257 0.802351 0.727804
O O15 0.500000 0.782952 0.000000
#
# Coordination Sequence:
#
# PCOD9206641 Si02
#       6
#     8   8   8   8   8   8
#     4   9  20  40  65  94 127 164 216 263 313 380
#     4   9  22  39  64  92 117 174 209 255 325 364
#     4   9  17  33  59  89 122 153 195 257 317 370
#     4  10  21  36  60  90 121 162 201 254 327 372
#     4  10  23  41  62  92 125 169 215 257 318 378
#     4  11  21  42  62  88 133 164 209 268 307 387
#
# _framework density 20.669163000000001
#
# number of rings (size 3 to 8) (size 9 to 14) (size 15 to 20)
#    1.000    1.333    0.000    2.500    0.000    5.000 
#    9.000    1.667    0.000    1.000    0.000    0.000 
#    0.000    0.000    0.000    0.000    0.000    0.000 
#
# Total GULP energy -133623.316485 kJ/mol
# GULP energy per Si atom -5567.638187 kJ/mol
# Density = 2.062212 g / cm^3
# Si number density = 20.669163 Si / 1000 Ang^3
#
#
#
# Elastic Constant Matrix: (Units=GPa)
#
#
# Indices 1 2 3 4 5 6 
#
# 1 109.0432 26.4273 43.8447 -0.0002 -12.8389 -0.0003
# 2 26.4273 87.9184 37.9009 0.0002 -27.0933 0.0001
# 3 43.8447 37.9009 95.3343 0.0003 -18.0701 0.0001
# 4 -0.0002 0.0002 0.0003 23.5018 0.0003 -13.5011
# 5 -12.8389 -27.0933 -18.0701 0.0003 42.5555 0.0001
# 6 -0.0003 0.0001 0.0001 -13.5011 0.0001 22.4133
#
#
#
# Elastic Compliance Matrix: (Units=1/GPa)
#
#
# Indices 1 2 3 4 5 6 
#
# 1 0.011410 -0.001217 -0.004631 0.000000 0.000701 0.000000
# 2 -0.001217 0.016074 -0.004307 0.000000 0.008037 0.000000
# 3 -0.004631 -0.004307 0.014733 0.000000 0.002117 0.000000
# 4 0.000000 0.000000 0.000000 0.065065 -0.000001 0.039193
# 5 0.000701 0.008037 0.002117 -0.000001 0.029726 -0.000001
# 6 0.000000 0.000000 0.000000 0.039193 -0.000001 0.068225
#
#
# Mechanical properties :
#
#
# Convention : Reuss Voigt Hill
#
# Bulk Modulus (GPa) = 45.64912 56.51576 51.08244
# Shear Modulus (GPa) = 21.47350 29.96901 25.72125
#
# Velocity S-wave (km/s) = 3.22672 3.81194 3.53147
# Velocity P-wave (km/s) = 6.00132 6.83936 6.43400
#
# Compressibility (1/GPa) = 0.02190623
#
# Stress axis : x y z
#
# Youngs Moduli (GPa) = 87.64062 62.21389 67.87702
#
# Poissons Ratio (x) = 0.07575 0.31432
# Poissons Ratio (y) = 0.10670 0.29233
# Poissons Ratio (z) = 0.40584 0.26794
#
# Static dielectric constant tensor:
#      x y z
#    x 1.812520 0.000000 0.018330 
#    y 0.000000 1.799740 0.000000 
#    z 0.018330 0.000000 1.749900 
# 
# From -- ./inp_files/217461.got.cif
#   From: 2010.05.17/outbox.cif.g08.bks.cpg/sg12_109_cif.got.tgz:217461.got - 2010.06.03 13:09:07.
