data_PCOD9206492
_publ_section_title
;
Structure prediction by ZEFSAII (Michael W. Deem and Ramdas Pophale) SiO2 
 PCOD9206492
Probable space group: C 2/M
;
_chemical_formula_sum "Si O2"
_cell_formula_units_Z 40
_cell_length_a 8.651652
_cell_length_b 22.680971
_cell_length_c 8.481893
_cell_angle_alpha 90.000000
_cell_angle_beta 85.730308
_cell_angle_gamma 90.000000
_cell_volume 1659.764543
_symmetry_space_group_name_H-M "C 2/M"
_symmetry_group_IT_number 12
_symmetry_cell_setting 'monoclinic'
loop_
_space_group_symop_operation_xyz
x,y,z
-x,y,-z
-x,-y,-z
x,-y,z
1/2+x,1/2+y,z
1/2-x,1/2+y,-z
1/2-x,1/2-y,-z
1/2+x,1/2-y,z
loop_
_atom_site_type_symbol
_atom_site_label
_atom_site_fract_x
_atom_site_fract_y
_atom_site_fract_z
Si Si1 0.053184 0.934123 0.662584
Si Si2 0.817756 0.675468 0.375042
Si Si3 0.790555 0.433987 0.188935
Si Si4 0.177010 0.142848 0.923050
Si Si5 0.367108 0.772116 0.717719
O O1 0.160415 0.896490 0.766333
O O2 0.000000 0.907306 0.500000
O O3 0.892868 0.941071 0.767525
O O4 0.117383 0.000000 0.625084
O O5 0.845574 0.607779 0.328280
O O6 0.663466 0.703145 0.310005
O O7 0.821611 0.693939 0.557190
O O8 0.953733 0.712877 0.281916
O O9 0.857900 0.500000 0.173393
O O10 0.787272 0.394135 0.032974
O O11 0.266445 0.201196 0.864716
O O12 0.000000 0.152193 0.000000
#
# Coordination Sequence:
#
# PCOD9206492 Si02
#       5
#     8   8   8   8   8
#     4   9  17  31  56  87 121 165 211 254 301 363
#     4  10  23  43  68  93 122 167 212 267 316 372
#     4  10  21  38  59  89 130 170 208 254 316 381
#     4  10  21  36  58  93 128 167 202 256 314 376
#     4  10  23  43  65  95 124 162 216 264 318 372
#
# _framework density 24.099803000000001
#
# number of rings (size 3 to 8) (size 9 to 14) (size 15 to 20)
#    0.000    2.200    0.000    1.800    5.600    4.000 
#    0.000    6.000    0.000    0.000    0.000    0.000 
#    0.000    0.000    0.000    0.000    0.000    0.000 
#
# Total GULP energy -111720.207849 kJ/mol
# GULP energy per Si atom -5586.010392 kJ/mol
# Density = 2.404495 g / cm^3
# Si number density = 24.099803 Si / 1000 Ang^3
#
#
#
# Elastic Constant Matrix: (Units=GPa)
#
#
# Indices 1 2 3 4 5 6 
#
# 1 28.8959 17.3316 -1.2415 0.0000 -8.8703 0.0000
# 2 17.3316 122.3565 55.1665 0.0000 -5.6861 0.0000
# 3 -1.2415 55.1665 102.1504 0.0000 7.5408 0.0000
# 4 0.0000 0.0000 0.0000 16.9253 0.0000 -18.0775
# 5 -8.8703 -5.6861 7.5408 0.0000 28.5250 0.0000
# 6 0.0000 0.0000 0.0000 -18.0775 0.0000 3.4977
#
#
#
# Elastic Compliance Matrix: (Units=1/GPa)
#
#
# Indices 1 2 3 4 5 6 
#
# 1 0.042333 -0.007093 0.003547 0.000000 0.010813 0.000000
# 2 -0.007093 0.012404 -0.006940 0.000000 0.002102 0.000000
# 3 0.003547 -0.006940 0.013872 0.000000 -0.003948 0.000000
# 4 0.000000 0.000000 0.000000 -0.013071 0.000000 -0.067555
# 5 0.010813 0.002102 -0.003948 0.000000 0.039882 0.000000
# 6 0.000000 0.000000 0.000000 -0.067555 0.000000 -0.063249
#
#
# Mechanical properties :
#
#
# Convention : Reuss Voigt Hill
#
# Bulk Modulus (GPa) = 20.99231 43.99066 32.49148
# Shear Modulus (GPa) = 72.43953 21.93268 47.18611
#
# Velocity S-wave (km/s) = 5.48848 3.02002 4.42967
# Velocity P-wave (km/s) = 6.99243 5.51850 6.29873
#
# Compressibility (1/GPa) = 0.04763649
#
# Stress axis : x y z
#
# Youngs Moduli (GPa) = 23.62227 80.61630 72.08660
#
# Poissons Ratio (x) = 0.57182 -0.25569
# Poissons Ratio (y) = 0.16756 0.50031
# Poissons Ratio (z) = -0.08379 0.55951
#
# Static dielectric constant tensor:
#      x y z
#    x 1.934120 0.000000 -0.013240 
#    y 0.000000 1.941030 0.000000 
#    z -0.013240 0.000000 1.953570 
# 
# From -- ./inp_files/39154.got.cif
#   From: 2010.05.17/outbox.cif.g08.bks.cpg/sg12_20_cif.got.tgz:39154.got - 2010.06.03 13:09:07.
