data_PCOD9206830
_publ_section_title
;
Structure prediction by ZEFSAII (Michael W. Deem and Ramdas Pophale) SiO2 
 PCOD9206830
Probable space group: C 2/M
;
_chemical_formula_sum "Si O2"
_cell_formula_units_Z 56
_cell_length_a 18.749069
_cell_length_b 16.567449
_cell_length_c 13.707391
_cell_angle_alpha 90.000000
_cell_angle_beta 145.458630
_cell_angle_gamma 90.000000
_cell_volume 2414.204670
_symmetry_space_group_name_H-M "C 2/M"
_symmetry_group_IT_number 12
_symmetry_cell_setting 'monoclinic'
loop_
_space_group_symop_operation_xyz
x,y,z
-x,y,-z
-x,-y,-z
x,-y,z
1/2+x,1/2+y,z
1/2-x,1/2+y,-z
1/2-x,1/2-y,-z
1/2+x,1/2-y,z
loop_
_atom_site_type_symbol
_atom_site_label
_atom_site_fract_x
_atom_site_fract_y
_atom_site_fract_z
Si Si1 0.892798 0.307784 0.951041
Si Si2 0.494433 0.369349 0.891046
Si Si3 0.221803 0.660721 0.508332
Si Si4 0.977047 0.694417 0.358518
Si Si5 0.053232 0.879177 0.739097
Si Si6 0.336004 0.909349 0.067854
Si Si7 0.722337 0.589364 0.635211
O O1 0.766833 0.336698 0.753984
O O2 0.925646 0.214135 0.004768
O O3 0.902474 0.353620 0.063084
O O4 0.000000 0.339455 0.000000
O O5 0.346238 0.356227 0.709762
O O6 0.536932 0.401389 0.834662
O O7 0.500000 0.413573 0.000000
O O8 0.250000 0.750000 0.500000
O O9 0.223379 0.605667 0.412751
O O10 0.099958 0.661417 0.439390
O O11 0.948602 0.783053 0.282989
O O12 0.861728 0.636000 0.198683
O O13 0.000000 0.698071 0.500000
O O14 0.928886 0.909319 0.544339
O O15 0.191202 0.909855 0.871047
O O16 0.384250 0.000000 0.125602
O O17 0.762570 0.500000 0.715264
#
# Coordination Sequence:
#
# PCOD9206830 Si02
#       7
#     8   8   8   8   8   8   8
#     4  11  23  39  67 100 134 167 216 264 332 395
#     4  10  21  36  70  98 128 161 216 276 321 380
#     4  11  20  42  65  98 127 171 217 272 319 386
#     4  12  27  42  70  98 130 172 228 271 327 387
#     4  11  25  43  68  98 132 174 224 270 328 391
#     4  12  27  46  64  93 139 177 217 273 330 394
#     4  11  24  41  68 101 135 173 215 272 337 393
#
# _framework density 23.196047
#
# number of rings (size 3 to 8) (size 9 to 14) (size 15 to 20)
#    0.000    0.857    4.286    3.857    4.000    3.143 
#    0.000    1.429    0.000    2.143    0.000    0.000 
#    0.000    0.000    0.000    0.000    0.000    0.000 
#
# Total GULP energy -156529.485426 kJ/mol
# GULP energy per Si atom -5590.338765 kJ/mol
# Density = 2.314325 g / cm^3
# Si number density = 23.196047 Si / 1000 Ang^3
#
#
#
# Elastic Constant Matrix: (Units=GPa)
#
#
# Indices 1 2 3 4 5 6 
#
# 1 86.8174 6.3879 28.4173 0.0000 -6.0470 0.0000
# 2 6.3879 115.9116 23.5511 0.0000 -3.5552 0.0000
# 3 28.4173 23.5511 102.4787 0.0000 -14.3487 0.0000
# 4 0.0000 0.0000 0.0000 0.1535 0.0000 -5.3857
# 5 -6.0470 -3.5552 -14.3487 0.0000 44.7911 0.0000
# 6 0.0000 0.0000 0.0000 -5.3857 0.0000 -6.4159
#
#
#
# Elastic Compliance Matrix: (Units=1/GPa)
#
#
# Indices 1 2 3 4 5 6 
#
# 1 0.012684 0.000018 -0.003436 0.000000 0.000613 0.000000
# 2 0.000018 0.009050 -0.002077 0.000000 0.000055 0.000000
# 3 -0.003436 -0.002077 0.011621 0.000000 0.003094 0.000000
# 4 0.000000 0.000000 0.000000 0.213929 0.000000 -0.179580
# 5 0.000613 0.000055 0.003094 0.000000 0.023404 0.000000
# 6 0.000000 0.000000 0.000000 -0.179580 0.000000 -0.005117
#
#
# Mechanical properties :
#
#
# Convention : Reuss Voigt Hill
#
# Bulk Modulus (GPa) = 44.71037 46.88004 45.79520
# Shear Modulus (GPa) = 17.60460 24.16250 20.88355
#
# Velocity S-wave (km/s) = 2.75789 3.23098 3.00377
# Velocity P-wave (km/s) = 5.42753 5.84579 5.64054
#
# Compressibility (1/GPa) = 0.02236618
#
# Stress axis : x y z
#
# Youngs Moduli (GPa) = 78.83709 110.49733 86.04827
#
# Poissons Ratio (x) = -0.00197 0.29563
# Poissons Ratio (y) = -0.00141 0.17872
# Poissons Ratio (z) = 0.27085 0.22950
#
# Static dielectric constant tensor:
#      x y z
#    x 1.889610 0.000000 0.009900 
#    y 0.000000 1.902600 0.000000 
#    z 0.009900 0.000000 1.897710 
# 
# From -- ./inp_files/234741.got.cif
#   From: 2010.05.17/outbox.cif.g08.bks.cpg/sg12_118_cif.got.tgz:234741.got - 2010.06.03 13:09:07.
