data_PCOD9206113
_publ_section_title
;
Structure prediction by ZEFSAII (Michael W. Deem and Ramdas Pophale) SiO2 
 PCOD9206113
Probable space group: C 2/M
;
_chemical_formula_sum "Si O2"
_cell_formula_units_Z 32
_cell_length_a 9.426836
_cell_length_b 20.217007
_cell_length_c 7.317005
_cell_angle_alpha 90.000000
_cell_angle_beta 82.178406
_cell_angle_gamma 90.000000
_cell_volume 1381.518950
_symmetry_space_group_name_H-M "C 2/M"
_symmetry_group_IT_number 12
_symmetry_cell_setting 'monoclinic'
loop_
_space_group_symop_operation_xyz
x,y,z
-x,y,-z
-x,-y,-z
x,-y,z
1/2+x,1/2+y,z
1/2-x,1/2+y,-z
1/2-x,1/2-y,-z
1/2+x,1/2-y,z
loop_
_atom_site_type_symbol
_atom_site_label
_atom_site_fract_x
_atom_site_fract_y
_atom_site_fract_z
Si Si1 0.413113 0.425046 0.231616
Si Si2 0.729450 0.702694 0.826035
Si Si3 0.040334 0.684821 0.776408
Si Si4 0.225210 0.074989 0.343731
O O1 0.394195 0.500000 0.164599
O O2 0.346886 0.366746 0.123062
O O3 0.327065 0.421445 0.437687
O O4 0.578851 0.414209 0.255402
O O5 0.621756 0.746423 0.725795
O O6 0.884175 0.687881 0.713778
O O7 0.750000 0.750000 0.000000
O O8 0.148883 0.626326 0.713584
O O9 0.000000 0.678556 0.000000
O O10 0.274162 0.000000 0.297790
#
# Coordination Sequence:
#
# PCOD9206113 Si02
#       4
#     8   8   8   8
#     4   9  19  38  63  88 118 156 197 243 297 357
#     4  10  21  37  57  83 117 157 201 244 291 350
#     4  10  21  36  56  81 118 160 199 246 294 347
#     4   9  19  37  61  90 121 154 195 243 297 358
#
# _framework density 23.162913
#
# number of rings (size 3 to 8) (size 9 to 14) (size 15 to 20)
#    0.000    2.500    0.000    3.000    0.000    5.500 
#    0.000    6.250    0.000   18.750    0.000    0.000 
#    0.000    0.000    0.000    0.000    0.000    0.000 
#
# Total GULP energy -89444.184971 kJ/mol
# GULP energy per Si atom -5590.261561 kJ/mol
# Density = 2.311019 g / cm^3
# Si number density = 23.162913 Si / 1000 Ang^3
#
#
#
# Elastic Constant Matrix: (Units=GPa)
#
#
# Indices 1 2 3 4 5 6 
#
# 1 163.1015 116.8311 32.0526 0.0000 -35.0387 0.0000
# 2 116.8311 207.1930 52.6951 0.0000 -15.2257 0.0000
# 3 32.0526 52.6951 57.6190 0.0000 -19.1682 0.0000
# 4 0.0000 0.0000 0.0000 29.7324 0.0000 -9.1676
# 5 -35.0387 -15.2257 -19.1682 0.0000 36.8603 0.0000
# 6 0.0000 0.0000 0.0000 -9.1676 0.0000 23.0210
#
#
#
# Elastic Compliance Matrix: (Units=1/GPa)
#
#
# Indices 1 2 3 4 5 6 
#
# 1 0.013245 -0.007452 0.003158 0.000000 0.011154 0.000000
# 2 -0.007452 0.010489 -0.007693 0.000000 -0.006752 0.000000
# 3 0.003158 -0.007693 0.027298 0.000000 0.014020 0.000000
# 4 0.000000 0.000000 0.000000 0.038341 0.000000 0.015269
# 5 0.011154 -0.006752 0.014020 0.000000 0.042234 0.000000
# 6 0.000000 0.000000 0.000000 0.015269 0.000000 0.049519
#
#
# Mechanical properties :
#
#
# Convention : Reuss Voigt Hill
#
# Bulk Modulus (GPa) = 36.95809 92.34123 64.64966
# Shear Modulus (GPa) = 23.35144 33.01170 28.18157
#
# Velocity S-wave (km/s) = 3.17857 3.77927 3.49186
# Velocity P-wave (km/s) = 5.42784 7.68091 6.65048
#
# Compressibility (1/GPa) = 0.02705767
#
# Stress axis : x y z
#
# Youngs Moduli (GPa) = 75.50272 95.34046 36.63207
#
# Poissons Ratio (x) = 0.71045 -0.11568
# Poissons Ratio (y) = 0.56263 0.28182
# Poissons Ratio (z) = -0.23843 0.73347
#
# Static dielectric constant tensor:
#      x y z
#    x 1.895820 0.000000 0.081620 
#    y 0.000000 1.840800 0.000000 
#    z 0.081620 0.000000 1.990180 
# 
# From -- ./inp_files/37491.got.cif
#   From: 2010.05.17/outbox.cif.g08.bks.cpg/sg12_19_cif.got.tgz:37491.got - 2010.06.03 13:09:07.
