data_PCOD9206836
_publ_section_title
;
Structure prediction by ZEFSAII (Michael W. Deem and Ramdas Pophale) SiO2 
 PCOD9206836
Probable space group: C 2/M
;
_chemical_formula_sum "Si O2"
_cell_formula_units_Z 64
_cell_length_a 28.709268
_cell_length_b 8.802021
_cell_length_c 21.082027
_cell_angle_alpha 90.000000
_cell_angle_beta 134.576912
_cell_angle_gamma 90.000000
_cell_volume 3794.768382
_symmetry_space_group_name_H-M "C 2/M"
_symmetry_group_IT_number 12
_symmetry_cell_setting 'monoclinic'
loop_
_space_group_symop_operation_xyz
x,y,z
-x,y,-z
-x,-y,-z
x,-y,z
1/2+x,1/2+y,z
1/2-x,1/2+y,-z
1/2-x,1/2-y,-z
1/2+x,1/2-y,z
loop_
_atom_site_type_symbol
_atom_site_label
_atom_site_fract_x
_atom_site_fract_y
_atom_site_fract_z
Si Si1 0.562918 0.815669 0.248305
Si Si2 0.923778 0.326394 0.878532
Si Si3 0.194472 0.683756 0.899620
Si Si4 0.793261 0.819011 0.597384
Si Si5 0.255867 0.177146 0.190425
Si Si6 0.732840 0.173494 0.296980
Si Si7 0.568146 0.683657 0.843529
Si Si8 0.600392 0.323988 0.016330
O O1 0.551230 0.758681 0.164080
O O2 0.634481 0.755828 0.335141
O O3 0.504661 0.748685 0.234929
O O4 0.562671 0.000000 0.248259
O O5 0.944940 0.500000 0.900163
O O6 0.844876 0.324619 0.793045
O O7 0.933736 0.255257 0.956875
O O8 0.196874 0.500000 0.905666
O O9 0.209740 0.728744 0.841470
O O10 0.124104 0.746858 0.852894
O O11 0.250000 0.750000 0.000000
O O12 0.750000 0.750000 0.500000
O O13 0.761279 0.774668 0.634647
O O14 0.798678 0.000000 0.597325
O O15 0.267678 0.266997 0.266763
O O16 0.178273 0.185900 0.101849
O O17 0.271677 0.000000 0.216058
O O18 0.751132 0.000000 0.328632
O O19 0.569142 0.500000 0.841116
O O20 0.587325 0.734162 0.933481
O O21 0.581468 0.500000 0.999952
#
# Coordination Sequence:
#
# PCOD9206836 Si02
#       8
#     8   8   8   8   8   8   8   8
#     4  10  21  37  52  73 102 134 171 213 258 310
#     4   8  16  29  45  65  93 128 168 209 250 298
#     4  11  21  34  51  72  99 136 183 232 274 311
#     4  11  21  36  59  85 111 139 166 204 252 309
#     4   9  17  31  48  69  99 136 176 222 268 308
#     4   9  17  30  49  77 106 134 168 209 255 308
#     4  11  22  35  48  69  99 136 179 222 267 312
#     4   9  17  29  44  64  93 130 173 215 255 302
#
# _framework density 16.865324000000001
#
# number of rings (size 3 to 8) (size 9 to 14) (size 15 to 20)
#    0.000    2.250    1.250    3.375    0.000    6.000 
#    0.000    2.500    0.000    0.000    0.000    0.875 
#    0.000    7.000    0.000    0.000    0.000    0.000 
#
# Total GULP energy -178469.930831 kJ/mol
# GULP energy per Si atom -5577.185338 kJ/mol
# Density = 1.682694 g / cm^3
# Si number density = 16.865324 Si / 1000 Ang^3
#
#
#
# Elastic Constant Matrix: (Units=GPa)
#
#
# Indices 1 2 3 4 5 6 
#
# 1 141.3383 48.7175 36.7022 0.0000 -6.8314 0.0000
# 2 48.7175 69.9622 28.6848 0.0000 -4.5849 0.0000
# 3 36.7022 28.6848 68.5649 0.0000 -9.9046 0.0000
# 4 0.0000 0.0000 0.0000 22.1214 0.0000 -4.2171
# 5 -6.8314 -4.5849 -9.9046 0.0000 16.3098 0.0000
# 6 0.0000 0.0000 0.0000 -4.2171 0.0000 26.9415
#
#
#
# Elastic Compliance Matrix: (Units=1/GPa)
#
#
# Indices 1 2 3 4 5 6 
#
# 1 0.009768 -0.005616 -0.002758 0.000000 0.000838 0.000000
# 2 -0.005616 0.020486 -0.005560 0.000000 0.000030 0.000000
# 3 -0.002758 -0.005560 0.019725 0.000000 0.009260 0.000000
# 4 0.000000 0.000000 0.000000 0.046596 0.000000 0.007294
# 5 0.000838 0.000030 0.009260 0.000000 0.067296 0.000000
# 6 0.000000 0.000000 0.000000 0.007294 0.000000 0.038259
#
#
# Mechanical properties :
#
#
# Convention : Reuss Voigt Hill
#
# Bulk Modulus (GPa) = 45.22763 56.45271 50.84017
# Shear Modulus (GPa) = 21.06451 24.12526 22.59489
#
# Velocity S-wave (km/s) = 3.53793 3.78625 3.66420
# Velocity P-wave (km/s) = 6.60033 7.25669 6.93628
#
# Compressibility (1/GPa) = 0.02211038
#
# Stress axis : x y z
#
# Youngs Moduli (GPa) = 102.37900 48.81490 50.69752
#
# Poissons Ratio (x) = 0.27414 0.13983
# Poissons Ratio (y) = 0.57495 0.28187
# Poissons Ratio (z) = 0.28237 0.27140
#
# Static dielectric constant tensor:
#      x y z
#    x 1.590960 0.000000 0.000680 
#    y 0.000000 1.576530 0.000000 
#    z 0.000680 0.000000 1.572050 
# 
# From -- ./inp_files/326947.got.cif
#   From: 2010.05.17/outbox.cif.g08.bks.cpg/sg12_164_cif.got.tgz:326947.got - 2010.06.03 13:09:07.
