data_PCOD9206445
_publ_section_title
;
Structure prediction by ZEFSAII (Michael W. Deem and Ramdas Pophale) SiO2 
 PCOD9206445
Probable space group: C 2/M
;
_chemical_formula_sum "Si O2"
_cell_formula_units_Z 56
_cell_length_a 23.827342
_cell_length_b 10.729592
_cell_length_c 18.722686
_cell_angle_alpha 90.000000
_cell_angle_beta 142.604337
_cell_angle_gamma 90.000000
_cell_volume 2906.976172
_symmetry_space_group_name_H-M "C 2/M"
_symmetry_group_IT_number 12
_symmetry_cell_setting 'monoclinic'
loop_
_space_group_symop_operation_xyz
x,y,z
-x,y,-z
-x,-y,-z
x,-y,z
1/2+x,1/2+y,z
1/2-x,1/2+y,-z
1/2-x,1/2-y,-z
1/2+x,1/2-y,z
loop_
_atom_site_type_symbol
_atom_site_label
_atom_site_fract_x
_atom_site_fract_y
_atom_site_fract_z
Si Si1 0.465125 0.131866 0.883729
Si Si2 0.978842 0.851939 0.684950
Si Si3 0.698076 0.641052 0.405567
Si Si4 0.822779 0.143233 0.059560
Si Si5 0.787275 0.235601 0.734708
Si Si6 0.403693 0.638708 0.987451
Si Si7 0.911807 0.849076 0.461737
O O1 0.355719 0.154541 0.776716
O O2 0.656599 0.326833 0.143235
O O3 0.486516 0.000000 0.867731
O O4 0.500000 0.119467 0.000000
O O5 0.081616 0.811995 0.807533
O O6 0.907781 0.835258 0.677928
O O7 0.937831 0.806203 0.568531
O O8 0.987069 0.000000 0.683770
O O9 0.721223 0.500000 0.453326
O O10 0.750000 0.750000 0.500000
O O11 0.717455 0.651292 0.341000
O O12 0.839751 0.136271 0.992150
O O13 0.801141 0.000000 0.061743
O O14 0.750000 0.250000 0.000000
O O15 0.686450 0.285026 0.655454
O O16 0.019939 0.243537 0.918822
O O17 0.445002 0.500000 0.020907
O O18 0.000000 0.821282 0.500000
O O19 0.899163 0.000000 0.447476
#
# Coordination Sequence:
#
# PCOD9206445 Si02
#       7
#     8   8   8   8   8   8   8
#     4   9  19  34  55  87 121 151 189 244 300 348
#     4   9  19  38  60  84 118 157 201 247 295 359
#     4  11  22  38  61  89 121 160 201 246 303 365
#     4  10  22  40  62  86 116 156 204 250 297 355
#     4  11  21  35  61  89 123 158 200 249 308 368
#     4  10  22  39  59  88 125 162 199 245 303 371
#     4  10  21  36  58  88 121 162 207 251 300 356
#
# _framework density 19.264004
#
# number of rings (size 3 to 8) (size 9 to 14) (size 15 to 20)
#    0.000    2.000    1.429    1.714    2.000    6.000 
#    0.000    0.714    0.000    1.714    0.000    0.000 
#    0.000    0.000    0.000    0.000    0.000    0.000 
#
# Total GULP energy -155989.166872 kJ/mol
# GULP energy per Si atom -5571.041674 kJ/mol
# Density = 1.922016 g / cm^3
# Si number density = 19.264004 Si / 1000 Ang^3
#
#
#
# Elastic Constant Matrix: (Units=GPa)
#
#
# Indices 1 2 3 4 5 6 
#
# 1 67.1819 33.9309 24.1647 0.0000 8.7786 0.0000
# 2 33.9309 136.6686 63.0681 0.0000 18.2008 0.0000
# 3 24.1647 63.0681 103.5669 0.0000 14.1859 0.0000
# 4 0.0000 0.0000 0.0000 115.4327 0.0000 -24.9930
# 5 8.7786 18.2008 14.1859 0.0000 38.9658 0.0000
# 6 0.0000 0.0000 0.0000 -24.9930 0.0000 38.4563
#
#
#
# Elastic Compliance Matrix: (Units=1/GPa)
#
#
# Indices 1 2 3 4 5 6 
#
# 1 0.017413 -0.003236 -0.001854 0.000000 -0.001736 0.000000
# 2 -0.003236 0.011041 -0.005643 0.000000 -0.002374 0.000000
# 3 -0.001854 -0.005643 0.013794 0.000000 -0.001968 0.000000
# 4 0.000000 0.000000 0.000000 0.010082 0.000000 0.006552
# 5 -0.001736 -0.002374 -0.001968 0.000000 0.027880 0.000000
# 6 0.000000 0.000000 0.000000 0.006552 0.000000 0.030262
#
#
# Mechanical properties :
#
#
# Convention : Reuss Voigt Hill
#
# Bulk Modulus (GPa) = 48.12136 61.08276 54.60206
# Shear Modulus (GPa) = 36.00590 50.98789 43.49689
#
# Velocity S-wave (km/s) = 4.32797 5.15028 4.75693
# Velocity P-wave (km/s) = 7.07172 8.19416 7.65355
#
# Compressibility (1/GPa) = 0.02078079
#
# Stress axis : x y z
#
# Youngs Moduli (GPa) = 57.42721 90.57448 72.49379
#
# Poissons Ratio (x) = 0.29312 0.13443
# Poissons Ratio (y) = 0.18585 0.40909
# Poissons Ratio (z) = 0.10649 0.51112
#
# Static dielectric constant tensor:
#      x y z
#    x 1.695520 0.000000 -0.011280 
#    y 0.000000 1.767380 0.000000 
#    z -0.011280 0.000000 1.691370 
# 
# From -- ./inp_files/349178.got.cif
#   From: 2010.05.17/outbox.cif.g08.bks.cpg/sg12_175_cif.got.tgz:349178.got - 2010.06.03 13:09:07.
