data_PCOD9206617
_publ_section_title
;
Structure prediction by ZEFSAII (Michael W. Deem and Ramdas Pophale) SiO2 
 PCOD9206617
Probable space group: C 2/M
;
_chemical_formula_sum "Si O2"
_cell_formula_units_Z 40
_cell_length_a 24.235703
_cell_length_b 17.940353
_cell_length_c 9.444859
_cell_angle_alpha 90.000000
_cell_angle_beta 147.478831
_cell_angle_gamma 90.000000
_cell_volume 2207.752448
_symmetry_space_group_name_H-M "C 2/M"
_symmetry_group_IT_number 12
_symmetry_cell_setting 'monoclinic'
loop_
_space_group_symop_operation_xyz
x,y,z
-x,y,-z
-x,-y,-z
x,-y,z
1/2+x,1/2+y,z
1/2-x,1/2+y,-z
1/2-x,1/2-y,-z
1/2+x,1/2-y,z
loop_
_atom_site_type_symbol
_atom_site_label
_atom_site_fract_x
_atom_site_fract_y
_atom_site_fract_z
Si Si1 0.057262 0.000000 0.977992
Si Si2 0.398465 0.797796 0.206025
Si Si3 0.710212 0.358889 0.299504
Si Si4 0.295965 0.647416 0.041309
Si Si5 0.603643 0.201075 0.131205
Si Si6 0.402242 0.500000 0.385576
O O1 0.960199 0.000000 0.660766
O O2 0.132404 0.928445 0.132873
O O3 0.000000 0.000000 0.000000
O O4 0.500000 0.826922 0.500000
O O5 0.384402 0.709875 0.213095
O O6 0.294679 0.828766 0.050113
O O7 0.408606 0.814822 0.062050
O O8 0.648385 0.285672 0.219724
O O9 0.812295 0.354137 0.616521
O O10 0.743964 0.356033 0.207298
O O11 0.339457 0.572608 0.203785
O O12 0.500000 0.199345 0.000000
O O13 0.500000 0.500000 0.500000
#
# Coordination Sequence:
#
# PCOD9206617 Si02
#       6
#     4   8   8   8   8   4
#     4  12  26  38  61  90 123 156 189 240 297 356
#     4  10  21  36  60  87 117 153 200 242 287 341
#     4  10  21  39  57  87 119 154 197 237 291 349
#     4  10  21  37  60  88 117 153 196 244 286 348
#     4  10  21  37  60  84 120 157 194 242 289 345
#     4  12  22  40  63  88 121 154 191 240 301 346
#
# _framework density 18.117972000000002
#
# number of rings (size 3 to 8) (size 9 to 14) (size 15 to 20)
#    0.000    1.600    2.000    2.400    5.600    1.600 
#    0.000    1.000    0.000    0.000    0.000    0.000 
#    0.000    0.000    0.000    0.000    0.000    0.000 
#
# Total GULP energy -111358.087187 kJ/mol
# GULP energy per Si atom -5567.904359 kJ/mol
# Density = 1.807674 g / cm^3
# Si number density = 18.117972 Si / 1000 Ang^3
#
#
#
# Elastic Constant Matrix: (Units=GPa)
#
#
# Indices 1 2 3 4 5 6 
#
# 1 152.5466 10.6628 66.7492 0.0000 -24.2518 0.0000
# 2 10.6628 77.8900 46.2391 0.0000 -10.9089 0.0000
# 3 66.7492 46.2391 146.8514 0.0000 -13.4585 0.0000
# 4 0.0000 0.0000 0.0000 14.0649 0.0000 -7.3582
# 5 -24.2518 -10.9089 -13.4585 0.0000 21.5358 0.0000
# 6 0.0000 0.0000 0.0000 -7.3582 0.0000 5.1155
#
#
#
# Elastic Compliance Matrix: (Units=1/GPa)
#
#
# Indices 1 2 3 4 5 6 
#
# 1 0.009837 0.002625 -0.004413 0.000000 0.009649 0.000000
# 2 0.002625 0.017057 -0.005835 0.000000 0.007949 0.000000
# 3 -0.004413 -0.005835 0.010530 0.000000 -0.001345 0.000000
# 4 0.000000 0.000000 0.000000 0.287299 0.000000 0.413258
# 5 0.009649 0.007949 -0.001345 0.000000 0.060486 0.000000
# 6 0.000000 0.000000 0.000000 0.413258 0.000000 0.789925
#
#
# Mechanical properties :
#
#
# Convention : Reuss Voigt Hill
#
# Bulk Modulus (GPa) = 45.09427 69.39892 57.24660
# Shear Modulus (GPa) = 4.17441 25.05237 14.61339
#
# Velocity S-wave (km/s) = 1.51955 3.72255 2.84310
# Velocity P-wave (km/s) = 5.29358 7.54079 6.51481
#
# Compressibility (1/GPa) = 0.02217577
#
# Stress axis : x y z
#
# Youngs Moduli (GPa) = 101.65585 58.62819 94.96949
#
# Poissons Ratio (x) = -0.15389 0.41915
# Poissons Ratio (y) = -0.26683 0.55416
# Poissons Ratio (z) = 0.44866 0.34211
#
# Static dielectric constant tensor:
#      x y z
#    x 1.584960 0.000000 -0.013690 
#    y 0.000000 1.599400 0.000000 
#    z -0.013690 0.000000 1.598740 
# 
# From -- ./inp_files/105899.got.cif
#   From: 2010.05.17/outbox.cif.g08.bks.cpg/sg12_53_cif.got.tgz:105899.got - 2010.06.03 13:09:07.
