data_PCOD9206874
_publ_section_title
;
Structure prediction by ZEFSAII (Michael W. Deem and Ramdas Pophale) SiO2 
 PCOD9206874
Probable space group: C 2/M
;
_chemical_formula_sum "Si O2"
_cell_formula_units_Z 40
_cell_length_a 12.010875
_cell_length_b 13.777278
_cell_length_c 13.685095
_cell_angle_alpha 90.000000
_cell_angle_beta 58.268833
_cell_angle_gamma 90.000000
_cell_volume 1926.074329
_symmetry_space_group_name_H-M "C 2/M"
_symmetry_group_IT_number 12
_symmetry_cell_setting 'monoclinic'
loop_
_space_group_symop_operation_xyz
x,y,z
-x,y,-z
-x,-y,-z
x,-y,z
1/2+x,1/2+y,z
1/2-x,1/2+y,-z
1/2-x,1/2-y,-z
1/2+x,1/2-y,z
loop_
_atom_site_type_symbol
_atom_site_label
_atom_site_fract_x
_atom_site_fract_y
_atom_site_fract_z
Si Si1 0.849659 0.296819 0.589431
Si Si2 0.282763 0.108732 0.072381
Si Si3 0.538708 0.108538 0.819757
Si Si4 0.359478 0.388177 0.450702
Si Si5 0.925864 0.768459 0.751503
O O1 0.750545 0.367335 0.580397
O O2 0.840162 0.287712 0.710169
O O3 0.000000 0.326321 0.500000
O O4 0.165587 0.189492 0.451641
O O5 0.353867 0.118694 0.145085
O O6 0.167270 0.185846 0.124019
O O7 0.227885 0.000000 0.091288
O O8 0.398402 0.114679 0.940062
O O9 0.532559 0.194328 0.745109
O O10 0.551852 0.000000 0.771097
O O11 0.360991 0.500000 0.480376
O O12 0.496491 0.353962 0.339574
#
# Coordination Sequence:
#
# PCOD9206874 Si02
#       5
#     8   8   8   8   8
#     4   9  21  37  52  75 103 133 168 205 251 304
#     4   9  18  33  52  75 103 137 172 206 247 295
#     4   9  19  34  51  74 105 137 171 207 245 296
#     4  10  21  37  54  75 103 132 166 209 253 301
#     4  11  19  32  54  79 103 131 169 211 254 294
#
# _framework density 20.76763
#
# number of rings (size 3 to 8) (size 9 to 14) (size 15 to 20)
#    0.000    2.400    0.000    3.600    0.000    5.600 
#    0.000   12.000    0.000    0.000    0.000   12.600 
#    0.000    0.000    0.000    0.000    0.000    0.000 
#
# Total GULP energy -111681.063890 kJ/mol
# GULP energy per Si atom -5584.053195 kJ/mol
# Density = 2.072036 g / cm^3
# Si number density = 20.767630 Si / 1000 Ang^3
#
#
#
# Elastic Constant Matrix: (Units=GPa)
#
#
# Indices 1 2 3 4 5 6 
#
# 1 59.4055 5.0887 -11.2811 0.0000 -2.5506 0.0000
# 2 5.0887 80.4691 -1.4063 0.0000 -1.8549 0.0000
# 3 -11.2811 -1.4063 25.0263 0.0000 -4.9141 0.0000
# 4 0.0000 0.0000 0.0000 16.9313 0.0000 -4.7036
# 5 -2.5506 -1.8549 -4.9141 0.0000 27.4063 0.0000
# 6 0.0000 0.0000 0.0000 -4.7036 0.0000 21.2680
#
#
#
# Elastic Compliance Matrix: (Units=1/GPa)
#
#
# Indices 1 2 3 4 5 6 
#
# 1 0.018778 -0.000953 0.009060 0.000000 0.003308 0.000000
# 2 -0.000953 0.012514 0.000438 0.000000 0.000837 0.000000
# 3 0.009060 0.000438 0.045852 0.000000 0.009094 0.000000
# 4 0.000000 0.000000 0.000000 0.062929 0.000000 0.013917
# 5 0.003308 0.000837 0.009094 0.000000 0.038483 0.000000
# 6 0.000000 0.000000 0.000000 0.013917 0.000000 0.050097
#
#
# Mechanical properties :
#
#
# Convention : Reuss Voigt Hill
#
# Bulk Modulus (GPa) = 10.61175 16.63373 13.62274
# Shear Modulus (GPa) = 20.57834 24.62108 22.59971
#
# Velocity S-wave (km/s) = 3.15125 3.44692 3.30239
# Velocity P-wave (km/s) = 4.28501 4.88554 4.59510
#
# Compressibility (1/GPa) = 0.09423518
#
# Stress axis : x y z
#
# Youngs Moduli (GPa) = 53.25484 79.90835 21.80911
#
# Poissons Ratio (x) = 0.07614 -0.19760
# Poissons Ratio (y) = 0.05075 -0.00955
# Poissons Ratio (z) = -0.48250 -0.03500
#
# Static dielectric constant tensor:
#      x y z
#    x 1.727330 0.000000 -0.008480 
#    y 0.000000 1.735890 0.000000 
#    z -0.008480 0.000000 1.779120 
# 
# From -- ./inp_files/203266.got.cif
#   From: 2010.05.17/outbox.cif.g08.bks.cpg/sg12_102_cif.got.tgz:203266.got - 2010.06.03 13:09:07.
