data_PCOD9206863
_publ_section_title
;
Structure prediction by ZEFSAII (Michael W. Deem and Ramdas Pophale) SiO2 
 PCOD9206863
Probable space group: C 2/M
;
_chemical_formula_sum "Si O2"
_cell_formula_units_Z 64
_cell_length_a 12.976236
_cell_length_b 13.417924
_cell_length_c 24.485350
_cell_angle_alpha 90.000000
_cell_angle_beta 62.874669
_cell_angle_gamma 90.000000
_cell_volume 3794.337067
_symmetry_space_group_name_H-M "C 2/M"
_symmetry_group_IT_number 12
_symmetry_cell_setting 'monoclinic'
loop_
_space_group_symop_operation_xyz
x,y,z
-x,y,-z
-x,-y,-z
x,-y,z
1/2+x,1/2+y,z
1/2-x,1/2+y,-z
1/2-x,1/2-y,-z
1/2+x,1/2-y,z
loop_
_atom_site_type_symbol
_atom_site_label
_atom_site_fract_x
_atom_site_fract_y
_atom_site_fract_z
Si Si1 0.941838 0.247583 0.269691
Si Si2 0.832001 0.612968 0.956967
Si Si3 0.379111 0.379066 0.501914
Si Si4 0.650844 0.116545 0.178070
Si Si5 0.071918 0.819918 0.036533
Si Si6 0.016738 0.881636 0.632986
Si Si7 0.398060 0.381763 0.173164
Si Si8 0.264602 0.618207 0.637174
O O1 0.970228 0.180829 0.315544
O O2 0.910975 0.178235 0.225862
O O3 0.834199 0.318371 0.310493
O O4 0.051669 0.314455 0.226584
O O5 0.867898 0.500000 0.961571
O O6 0.842160 0.627512 0.889118
O O7 0.904113 0.701237 0.967297
O O8 0.697509 0.628780 0.004839
O O9 0.500000 0.346447 0.500000
O O10 0.380179 0.500000 0.501688
O O11 0.389634 0.350191 0.436182
O O12 0.281925 0.350880 0.569271
O O13 0.775360 0.140935 0.173958
O O14 0.626298 0.000000 0.195422
O O15 0.998981 0.851610 0.106777
O O16 0.000000 0.847160 0.000000
O O17 0.888794 0.869055 0.637307
O O18 0.031119 0.000000 0.639923
O O19 0.403311 0.500000 0.181708
O O20 0.238145 0.500000 0.645192
#
# Coordination Sequence:
#
# PCOD9206863 Si02
#       8
#     8   8   8   8   8   8   8   8
#     4  12  21  33  51  77 107 137 170 211 258 305
#     4  10  21  37  57  82 106 129 165 214 261 303
#     4   7  12  27  50  73  98 130 169 213 252 293
#     4  10  21  37  54  73 103 138 172 208 252 306
#     4  11  21  37  61  81 101 132 174 215 254 305
#     4   9  18  33  52  74 103 137 170 211 260 301
#     4  11  23  37  53  77 104 136 175 212 254 303
#     4   9  18  33  53  76 102 134 175 212 250 305
#
# _framework density 16.867241
#
# number of rings (size 3 to 8) (size 9 to 14) (size 15 to 20)
#    0.000    2.125    2.500    3.375    0.000    1.250 
#    0.000    0.000    0.000    0.750    0.000    0.000 
#    0.000   16.000    0.000    0.000    0.000    0.000 
#
# Total GULP energy -178436.838618 kJ/mol
# GULP energy per Si atom -5576.151207 kJ/mol
# Density = 1.682885 g / cm^3
# Si number density = 16.867241 Si / 1000 Ang^3
#
#
#
# Elastic Constant Matrix: (Units=GPa)
#
#
# Indices 1 2 3 4 5 6 
#
# 1 37.0291 20.7985 27.1006 0.0000 -9.2924 0.0000
# 2 20.7985 58.9207 39.6208 0.0000 -10.1976 0.0000
# 3 27.1006 39.6208 119.8718 0.0000 -18.2348 0.0000
# 4 0.0000 0.0000 0.0000 24.7205 0.0000 4.0554
# 5 -9.2924 -10.1976 -18.2348 0.0000 19.5716 0.0000
# 6 0.0000 0.0000 0.0000 4.0554 0.0000 26.1496
#
#
#
# Elastic Compliance Matrix: (Units=1/GPa)
#
#
# Indices 1 2 3 4 5 6 
#
# 1 0.037282 -0.008788 -0.004111 0.000000 0.009293 0.000000
# 2 -0.008788 0.024398 -0.005567 0.000000 0.003353 0.000000
# 3 -0.004111 -0.005567 0.012087 0.000000 0.006409 0.000000
# 4 0.000000 0.000000 0.000000 0.041508 0.000000 -0.006437
# 5 0.009293 0.003353 0.006409 0.000000 0.063224 0.000000
# 6 0.000000 0.000000 0.000000 -0.006437 0.000000 0.039240
#
#
# Mechanical properties :
#
#
# Convention : Reuss Voigt Hill
#
# Bulk Modulus (GPa) = 27.14800 43.42905 35.28852
# Shear Modulus (GPa) = 18.73015 22.64177 20.68596
#
# Velocity S-wave (km/s) = 3.33595 3.66779 3.50580
# Velocity P-wave (km/s) = 5.56490 6.61365 6.11181
#
# Compressibility (1/GPa) = 0.03683513
#
# Stress axis : x y z
#
# Youngs Moduli (GPa) = 26.82257 40.98687 82.73638
#
# Poissons Ratio (x) = 0.36019 0.34009
# Poissons Ratio (y) = 0.23571 0.46063
# Poissons Ratio (z) = 0.11025 0.22819
#
# Static dielectric constant tensor:
#      x y z
#    x 1.544550 0.000000 -0.002030 
#    y 0.000000 1.556140 0.000000 
#    z -0.002030 0.000000 1.568520 
# 
# From -- ./inp_files/335190.got.cif
#   From: 2010.05.17/outbox.cif.g08.bks.cpg/sg12_168_cif.got.tgz:335190.got - 2010.06.03 13:09:07.
