data_PCOD9206524
_publ_section_title
;
Structure prediction by ZEFSAII (Michael W. Deem and Ramdas Pophale) SiO2 
 PCOD9206524
Probable space group: C 2/M
;
_chemical_formula_sum "Si O2"
_cell_formula_units_Z 48
_cell_length_a 20.048475
_cell_length_b 11.841999
_cell_length_c 23.147097
_cell_angle_alpha 90.000000
_cell_angle_beta 26.191737
_cell_angle_gamma 90.000000
_cell_volume 2425.560162
_symmetry_space_group_name_H-M "C 2/M"
_symmetry_group_IT_number 12
_symmetry_cell_setting 'monoclinic'
loop_
_space_group_symop_operation_xyz
x,y,z
-x,y,-z
-x,-y,-z
x,-y,z
1/2+x,1/2+y,z
1/2-x,1/2+y,-z
1/2-x,1/2-y,-z
1/2+x,1/2-y,z
loop_
_atom_site_type_symbol
_atom_site_label
_atom_site_fract_x
_atom_site_fract_y
_atom_site_fract_z
Si Si1 0.000000 0.200268 0.000000
Si Si2 0.774706 0.500000 0.625000
Si Si3 0.929065 0.271349 0.348470
Si Si4 0.197707 0.633002 0.796244
Si Si5 0.185336 0.000000 0.815099
Si Si6 0.531140 0.000000 0.329939
Si Si7 0.332435 0.249506 0.300718
Si Si8 0.971309 0.131052 0.420389
O O1 0.865028 0.291776 0.101794
O O2 0.923261 0.108589 0.102234
O O3 0.801836 0.500000 0.672136
O O4 0.682947 0.384673 0.687240
O O5 0.918983 0.500000 0.472060
O O6 0.750000 0.250000 0.500000
O O7 0.942350 0.275603 0.269113
O O8 0.003088 0.174309 0.330546
O O9 0.987299 0.388599 0.328898
O O10 0.161441 0.500000 0.828350
O O11 0.134760 0.688140 0.785763
O O12 0.378464 0.644138 0.658475
O O13 0.293516 0.000000 0.786973
O O14 0.166086 0.202342 0.446997
O O15 0.927179 0.000000 0.453791
#
# Coordination Sequence:
#
# PCOD9206524 Si02
#       8
#     4   4   8   8   4   4   8   8
#     4  11  23  42  62  88 115 153 212 256 302 335
#     4  12  22  37  62  93 122 155 188 245 297 370
#     4  10  22  33  55  87 126 166 186 231 285 373
#     4  11  23  40  62  88 113 159 203 255 297 350
#     4  11  25  40  64  92 117 156 195 263 300 345
#     4  12  22  39  62  91 129 158 194 231 307 368
#     4  11  23  35  59  90 127 157 194 240 303 365
#     4  10  21  36  59  86 125 157 194 241 300 363
#
# _framework density 19.789244
#
# number of rings (size 3 to 8) (size 9 to 14) (size 15 to 20)
#    0.000    1.167    5.000    2.500    7.000    2.667 
#    0.000    0.000    0.000    4.000    0.000    0.000 
#    0.000    0.000    0.000    0.000    0.000    0.000 
#
# Total GULP energy -133611.173419 kJ/mol
# GULP energy per Si atom -5567.132226 kJ/mol
# Density = 1.974420 g / cm^3
# Si number density = 19.789244 Si / 1000 Ang^3
#
#
#
# Elastic Constant Matrix: (Units=GPa)
#
#
# Indices 1 2 3 4 5 6 
#
# 1 106.5703 41.4577 16.5909 -0.0004 15.0599 0.0002
# 2 41.4577 161.2150 34.7879 -0.0008 4.6935 0.0004
# 3 16.5909 34.7879 42.0804 -0.0016 1.1710 0.0006
# 4 -0.0004 -0.0008 -0.0016 26.4275 0.0006 5.6460
# 5 15.0599 4.6935 1.1710 0.0006 4.6333 -0.0002
# 6 0.0002 0.0004 0.0006 5.6460 -0.0002 4.4438
#
#
#
# Elastic Compliance Matrix: (Units=1/GPa)
#
#
# Indices 1 2 3 4 5 6 
#
# 1 0.019324 -0.002377 -0.004001 0.000003 -0.059390 -0.000006
# 2 -0.002377 0.008018 -0.005721 0.000000 0.001049 0.000001
# 3 -0.004001 -0.005721 0.029757 0.000003 0.011279 -0.000006
# 4 0.000003 0.000000 0.000003 0.051937 -0.000018 -0.065988
# 5 -0.059390 0.001049 0.011279 -0.000018 0.404952 0.000040
# 6 -0.000006 0.000001 -0.000006 -0.065988 0.000040 0.308872
#
#
# Mechanical properties :
#
#
# Convention : Reuss Voigt Hill
#
# Bulk Modulus (GPa) = 30.39371 55.05984 42.72678
# Shear Modulus (GPa) = 5.82734 21.56954 13.69844
#
# Velocity S-wave (km/s) = 1.71787 3.30504 2.63385
# Velocity P-wave (km/s) = 4.39623 6.51521 5.55764
#
# Compressibility (1/GPa) = 0.03290155
#
# Stress axis : x y z
#
# Youngs Moduli (GPa) = 51.75011 124.71959 33.60568
#
# Poissons Ratio (x) = 0.29643 0.13446
# Poissons Ratio (y) = 0.12300 0.19224
# Poissons Ratio (z) = 0.20706 0.71347
#
# Static dielectric constant tensor:
#      x y z
#    x 1.750900 0.000000 0.052110 
#    y 0.000000 1.703640 0.000000 
#    z 0.052110 0.000000 1.755460 
# 
# From -- ./inp_files/346788.got.cif
#   From: 2010.05.17/outbox.cif.g08.bks.cpg/sg12_174_cif.got.tgz:346788.got - 2010.06.03 13:09:07.
