data_PCOD9206319
_publ_section_title
;
Structure prediction by ZEFSAII (Michael W. Deem and Ramdas Pophale) SiO2 
 PCOD9206319
Probable space group: C 2/M
;
_chemical_formula_sum "Si O2"
_cell_formula_units_Z 40
_cell_length_a 14.309982
_cell_length_b 11.770224
_cell_length_c 12.200521
_cell_angle_alpha 90.000000
_cell_angle_beta 116.960982
_cell_angle_gamma 90.000000
_cell_volume 1831.612684
_symmetry_space_group_name_H-M "C 2/M"
_symmetry_group_IT_number 12
_symmetry_cell_setting 'monoclinic'
loop_
_space_group_symop_operation_xyz
x,y,z
-x,y,-z
-x,-y,-z
x,-y,z
1/2+x,1/2+y,z
1/2-x,1/2+y,-z
1/2-x,1/2-y,-z
1/2+x,1/2-y,z
loop_
_atom_site_type_symbol
_atom_site_label
_atom_site_fract_x
_atom_site_fract_y
_atom_site_fract_z
Si Si1 0.588547 0.696021 0.974241
Si Si2 0.208574 0.621796 0.481133
Si Si3 0.766453 0.130918 0.151755
Si Si4 0.010263 0.622173 0.226668
Si Si5 0.900420 0.279582 0.377851
O O1 0.656143 0.634469 0.914436
O O2 0.511735 0.781981 0.870721
O O3 0.500000 0.631633 0.000000
O O4 0.674852 0.776545 0.080386
O O5 0.267872 0.500000 0.508229
O O6 0.250000 0.750000 0.500000
O O7 0.152700 0.630478 0.569390
O O8 0.329464 0.678780 0.291046
O O9 0.625389 0.119424 0.338430
O O10 0.731916 0.000000 0.148417
O O11 0.982073 0.500000 0.165252
O O12 0.938710 0.651935 0.292648
O O13 0.000000 0.233768 0.500000
#
# Coordination Sequence:
#
# PCOD9206319 Si02
#       5
#     8   8   8   8   8
#     4  10  22  39  60  86 121 154 203 260 304 364
#     4  10  21  36  57  87 119 153 194 244 300 361
#     4  10  22  39  62  89 119 160 206 253 311 369
#     4   9  18  35  59  82 109 149 197 245 294 351
#     4   9  19  37  59  82 117 152 194 244 297 360
#
# _framework density 21.838677000000001
#
# number of rings (size 3 to 8) (size 9 to 14) (size 15 to 20)
#    0.000    2.400    0.000    1.200    2.800    5.600 
#    0.000    9.000    0.000    0.000    0.000    0.000 
#    0.000    0.000    0.000    0.000    0.000    0.000 
#
# Total GULP energy -111377.436120 kJ/mol
# GULP energy per Si atom -5568.871806 kJ/mol
# Density = 2.178897 g / cm^3
# Si number density = 21.838677 Si / 1000 Ang^3
#
#
#
# Elastic Constant Matrix: (Units=GPa)
#
#
# Indices 1 2 3 4 5 6 
#
# 1 78.3758 19.6247 14.0732 0.0000 -17.0437 0.0000
# 2 19.6247 139.5743 30.4085 0.0000 18.2051 0.0000
# 3 14.0732 30.4085 73.4930 0.0000 6.2496 0.0000
# 4 0.0000 0.0000 0.0000 -0.8688 0.0000 -1.6243
# 5 -17.0437 18.2051 6.2496 0.0000 18.5023 0.0000
# 6 0.0000 0.0000 0.0000 -1.6243 0.0000 31.7598
#
#
#
# Elastic Compliance Matrix: (Units=1/GPa)
#
#
# Indices 1 2 3 4 5 6 
#
# 1 0.020238 -0.005292 -0.003824 0.000000 0.025141 0.000000
# 2 -0.005292 0.010201 -0.001997 0.000000 -0.014237 0.000000
# 3 -0.003824 -0.001997 0.015750 0.000000 -0.006878 0.000000
# 4 0.000000 0.000000 0.000000 -1.050596 0.000000 -0.053731
# 5 0.025141 -0.014237 -0.006878 0.000000 0.093537 0.000000
# 6 0.000000 0.000000 0.000000 -0.053731 0.000000 0.028738
#
#
# Mechanical properties :
#
#
# Convention : Reuss Voigt Hill
#
# Bulk Modulus (GPa) = 41.72884 46.62845 44.17864
# Shear Modulus (GPa) = -5.86910 25.03444 9.58267
#
# Velocity S-wave (km/s) = -1.64113 3.38943 2.09701
# Velocity P-wave (km/s) = 3.94438 6.05932 5.11241
#
# Compressibility (1/GPa) = 0.02396424
#
# Stress axis : x y z
#
# Youngs Moduli (GPa) = 49.41270 98.03334 63.49224
#
# Poissons Ratio (x) = 0.51875 0.24278
# Poissons Ratio (y) = 0.26147 0.12677
# Poissons Ratio (z) = 0.18894 0.19574
#
# Static dielectric constant tensor:
#      x y z
#    x 1.920790 0.000000 -0.064690 
#    y 0.000000 1.878210 0.000000 
#    z -0.064690 0.000000 1.804570 
# 
# From -- ./inp_files/202959.got.cif
#   From: 2010.05.17/outbox.cif.g08.bks.cpg/sg12_102_cif.got.tgz:202959.got - 2010.06.03 13:09:07.
