data_PCOD9206318
_publ_section_title
;
Structure prediction by ZEFSAII (Michael W. Deem and Ramdas Pophale) SiO2 
 PCOD9206318
Probable space group: C 2/M
;
_chemical_formula_sum "Si O2"
_cell_formula_units_Z 42
_cell_length_a 9.313348
_cell_length_b 10.753766
_cell_length_c 27.521406
_cell_angle_alpha 90.000000
_cell_angle_beta 51.292241
_cell_angle_gamma 90.000000
_cell_volume 2150.919161
_symmetry_space_group_name_H-M "C 2/M"
_symmetry_group_IT_number 12
_symmetry_cell_setting 'monoclinic'
loop_
_space_group_symop_operation_xyz
x,y,z
-x,y,-z
-x,-y,-z
x,-y,z
1/2+x,1/2+y,z
1/2-x,1/2+y,-z
1/2-x,1/2-y,-z
1/2+x,1/2-y,z
loop_
_atom_site_type_symbol
_atom_site_label
_atom_site_fract_x
_atom_site_fract_y
_atom_site_fract_z
Si Si1 0.672025 0.856774 0.632895
Si Si2 0.895122 0.360682 0.970881
Si Si3 0.530639 0.145291 0.771170
Si Si4 0.542097 0.770234 0.561777
Si Si5 0.763145 0.357854 0.173712
Si Si6 0.500000 0.000000 0.500000
O O1 0.612649 0.829857 0.700440
O O2 0.560986 0.781907 0.615768
O O3 0.889851 0.832053 0.581910
O O4 0.634262 0.000000 0.630739
O O5 0.812123 0.500000 0.983620
O O6 0.048670 0.347234 0.896688
O O7 0.750000 0.250000 0.000000
O O8 0.000000 0.356201 0.000000
O O9 0.374784 0.248887 0.812413
O O10 0.681915 0.156195 0.781474
O O11 0.465704 0.000000 0.786196
O O12 0.750000 0.750000 0.500000
O O13 0.477818 0.892071 0.546842
O O14 0.692385 0.500000 0.180948
#
# Coordination Sequence:
#
# PCOD9206318 Si02
#       6
#     8   8   8   8   8   2
#     4  11  24  40  61  83 114 146 188 232 280 337
#     4  10  21  36  57  87 119 153 194 237 284 338
#     4  10  22  40  59  86 113 152 195 236 282 340
#     4  12  24  40  60  85 112 148 181 231 286 337
#     4  10  21  39  59  84 120 153 191 239 286 335
#     4  12  24  40  56  88 116 136 190 226 278 346
#
# _framework density 19.526536
#
# number of rings (size 3 to 8) (size 9 to 14) (size 15 to 20)
#    0.000    1.333    2.857    2.286    1.333    2.667 
#    1.714    0.000    0.000    0.000    0.000    0.000 
#    0.000    0.000    0.000    0.000    0.000    0.000 
#
# Total GULP energy -116940.994649 kJ/mol
# GULP energy per Si atom -5568.618793 kJ/mol
# Density = 1.948209 g / cm^3
# Si number density = 19.526536 Si / 1000 Ang^3
#
#
#
# Elastic Constant Matrix: (Units=GPa)
#
#
# Indices 1 2 3 4 5 6 
#
# 1 46.2072 13.3765 -0.6726 0.0000 6.9512 0.0000
# 2 13.3765 87.2649 6.8178 0.0000 -23.9881 0.0000
# 3 -0.6726 6.8178 47.9616 0.0000 9.7623 0.0000
# 4 0.0000 0.0000 0.0000 24.2209 0.0000 5.7873
# 5 6.9512 -23.9881 9.7623 0.0000 36.7334 0.0000
# 6 0.0000 0.0000 0.0000 5.7873 0.0000 21.0590
#
#
#
# Elastic Compliance Matrix: (Units=1/GPa)
#
#
# Indices 1 2 3 4 5 6 
#
# 1 0.025240 -0.006946 0.003422 0.000000 -0.010222 0.000000
# 2 -0.006946 0.016669 -0.005233 0.000000 0.013591 0.000000
# 3 0.003422 -0.005233 0.023754 0.000000 -0.010378 0.000000
# 4 0.000000 0.000000 0.000000 0.044188 0.000000 -0.012144
# 5 -0.010222 0.013591 -0.010378 0.000000 0.040791 0.000000
# 6 0.000000 0.000000 0.000000 -0.012144 0.000000 0.050823
#
#
# Mechanical properties :
#
#
# Convention : Reuss Voigt Hill
#
# Bulk Modulus (GPa) = 20.76913 24.49745 22.63329
# Shear Modulus (GPa) = 21.27398 27.19681 24.23540
#
# Velocity S-wave (km/s) = 3.30432 3.73609 3.52682
# Velocity P-wave (km/s) = 5.02171 5.58427 5.31044
#
# Compressibility (1/GPa) = 0.04814839
#
# Stress axis : x y z
#
# Youngs Moduli (GPa) = 39.61967 59.99222 42.09767
#
# Poissons Ratio (x) = 0.41671 -0.14406
# Poissons Ratio (y) = 0.27520 0.22030
# Poissons Ratio (z) = -0.13558 0.31395
#
# Static dielectric constant tensor:
#      x y z
#    x 1.651220 0.000000 0.027800 
#    y 0.000000 1.672630 0.000000 
#    z 0.027800 0.000000 1.694440 
# 
# From -- ./inp_files/299218.got.cif
#   From: 2010.05.17/outbox.cif.g08.bks.cpg/sg12_150_cif.got.tgz:299218.got - 2010.06.03 13:09:07.
