data_PCOD9206000
_publ_section_title
;
Structure prediction by ZEFSAII (Michael W. Deem and Ramdas Pophale) SiO2 
 PCOD9206000
Probable space group: C 2/M
;
_chemical_formula_sum "Si O2"
_cell_formula_units_Z 56
_cell_length_a 10.006309
_cell_length_b 7.479369
_cell_length_c 32.673912
_cell_angle_alpha 90.000000
_cell_angle_beta 112.201596
_cell_angle_gamma 90.000000
_cell_volume 2264.046564
_symmetry_space_group_name_H-M "C 2/M"
_symmetry_group_IT_number 12
_symmetry_cell_setting 'monoclinic'
loop_
_space_group_symop_operation_xyz
x,y,z
-x,y,-z
-x,-y,-z
x,-y,z
1/2+x,1/2+y,z
1/2-x,1/2+y,-z
1/2-x,1/2-y,-z
1/2+x,1/2-y,z
loop_
_atom_site_type_symbol
_atom_site_label
_atom_site_fract_x
_atom_site_fract_y
_atom_site_fract_z
Si Si1 0.858345 0.782716 0.313053
Si Si2 0.720368 0.791883 0.820501
Si Si3 0.414887 0.286509 0.028936
Si Si4 0.466227 0.717408 0.126729
Si Si5 0.545048 0.207836 0.261042
Si Si6 0.320530 0.706385 0.400494
Si Si7 0.366171 0.213105 0.548461
O O1 0.706744 0.720902 0.275190
O O2 0.849455 0.717817 0.358754
O O3 0.993479 0.719321 0.302208
O O4 0.862840 0.000000 0.313379
O O5 0.666790 0.779632 0.861123
O O6 0.588148 0.709396 0.779495
O O7 0.881914 0.718610 0.836358
O O8 0.730292 0.000000 0.809909
O O9 0.440154 0.500000 0.033338
O O10 0.455054 0.219865 0.078705
O O11 0.500000 0.212142 0.000000
O O12 0.250000 0.250000 0.000000
O O13 0.466107 0.500000 0.127074
O O14 0.554322 0.000000 0.250503
O O15 0.280106 0.500000 0.389357
O O16 0.475002 0.712762 0.440911
O O17 0.200028 0.785381 0.416435
O O18 0.250000 0.250000 0.500000
O O19 0.381424 0.000000 0.553273
#
# Coordination Sequence:
#
# PCOD9206000 Si02
#       7
#     8   8   8   8   8   8   8
#     4  10  21  37  57  82 112 146 184 226 273 324
#     4  10  21  37  57  81 111 146 182 224 274 325
#     4  10  21  37  56  79 109 143 180 225 275 327
#     4  10  21  36  55  81 110 142 183 227 272 326
#     4  10  21  37  57  83 113 145 184 227 272 325
#     4  10  22  39  57  81 114 148 184 228 275 324
#     4  11  23  39  60  85 114 148 186 229 276 327
#
# _framework density 24.734472
#
# number of rings (size 3 to 8) (size 9 to 14) (size 15 to 20)
#    0.000    1.857    0.000    3.429    0.000    8.286 
#    0.000    0.000    0.000    0.000    0.000    0.000 
#    0.000    0.000    0.000    0.000    0.000    0.000 
#
# Total GULP energy -156670.485159 kJ/mol
# GULP energy per Si atom -5595.374470 kJ/mol
# Density = 2.467818 g / cm^3
# Si number density = 24.734472 Si / 1000 Ang^3
#
#
#
# Elastic Constant Matrix: (Units=GPa)
#
#
# Indices 1 2 3 4 5 6 
#
# 1 113.2344 -9.3789 -10.9608 0.0000 -2.2720 0.0000
# 2 -9.3789 84.6629 -1.0838 0.0000 -1.0485 0.0000
# 3 -10.9608 -1.0838 75.9517 0.0000 -2.3116 0.0000
# 4 0.0000 0.0000 0.0000 17.0078 0.0000 -5.8652
# 5 -2.2720 -1.0485 -2.3116 0.0000 48.0946 0.0000
# 6 0.0000 0.0000 0.0000 -5.8652 0.0000 16.5588
#
#
#
# Elastic Compliance Matrix: (Units=1/GPa)
#
#
# Indices 1 2 3 4 5 6 
#
# 1 0.009056 0.001027 0.001337 0.000000 0.000514 0.000000
# 2 0.001027 0.011934 0.000328 0.000000 0.000324 0.000000
# 3 0.001337 0.000328 0.013386 0.000000 0.000714 0.000000
# 4 0.000000 0.000000 0.000000 0.066978 0.000000 0.023724
# 5 0.000514 0.000324 0.000714 0.000000 0.020858 0.000000
# 6 0.000000 0.000000 0.000000 0.023724 0.000000 0.068794
#
#
# Mechanical properties :
#
#
# Convention : Reuss Voigt Hill
#
# Bulk Modulus (GPa) = 25.15110 25.66689 25.40900
# Shear Modulus (GPa) = 25.14159 36.01707 30.57933
#
# Velocity S-wave (km/s) = 3.19165 3.82009 3.51993
# Velocity P-wave (km/s) = 4.87573 5.46415 5.17831
#
# Compressibility (1/GPa) = 0.03975969
#
# Stress axis : x y z
#
# Youngs Moduli (GPa) = 110.42358 83.79762 74.70691
#
# Poissons Ratio (x) = -0.08604 -0.09990
# Poissons Ratio (y) = -0.11337 -0.02453
# Poissons Ratio (z) = -0.14766 -0.02751
#
# Static dielectric constant tensor:
#      x y z
#    x 1.909430 0.000000 -0.010520 
#    y 0.000000 2.371760 0.000000 
#    z -0.010520 0.000000 2.004110 
# 
# From -- ./inp_files/373629.got.cif
#   From: 2010.05.17/outbox.cif.g08.bks.cpg/sg12_187_cif.got.tgz:373629.got - 2010.06.03 13:09:07.
