data_PCOD9206328
_publ_section_title
;
Structure prediction by ZEFSAII (Michael W. Deem and Ramdas Pophale) SiO2 
 PCOD9206328
Probable space group: C 2/M
;
_chemical_formula_sum "Si O2"
_cell_formula_units_Z 64
_cell_length_a 32.580697
_cell_length_b 9.088379
_cell_length_c 15.072370
_cell_angle_alpha 90.000000
_cell_angle_beta 46.167542
_cell_angle_gamma 90.000000
_cell_volume 3219.476272
_symmetry_space_group_name_H-M "C 2/M"
_symmetry_group_IT_number 12
_symmetry_cell_setting 'monoclinic'
loop_
_space_group_symop_operation_xyz
x,y,z
-x,y,-z
-x,-y,-z
x,-y,z
1/2+x,1/2+y,z
1/2-x,1/2+y,-z
1/2-x,1/2-y,-z
1/2+x,1/2-y,z
loop_
_atom_site_type_symbol
_atom_site_label
_atom_site_fract_x
_atom_site_fract_y
_atom_site_fract_z
Si Si1 0.854137 0.674698 0.213573
Si Si2 0.044141 0.326507 0.078132
Si Si3 0.114571 0.674508 0.514338
Si Si4 0.405966 0.329925 0.829868
Si Si5 0.745778 0.176061 0.290566
Si Si6 0.568078 0.170843 0.389569
Si Si7 0.928232 0.174795 0.249026
Si Si8 0.771502 0.170274 0.055306
O O1 0.849632 0.500000 0.235520
O O2 0.794319 0.741306 0.272292
O O3 0.879156 0.754851 0.262007
O O4 0.901054 0.699090 0.065899
O O5 0.031706 0.500000 0.097020
O O6 0.059184 0.269386 0.153737
O O7 0.988921 0.239558 0.128133
O O8 0.102631 0.500000 0.545875
O O9 0.182206 0.697770 0.421064
O O10 0.095420 0.710727 0.443003
O O11 0.082121 0.769297 0.635559
O O12 0.424320 0.500000 0.809243
O O13 0.412363 0.270885 0.720835
O O14 0.339750 0.321781 0.955527
O O15 0.757791 0.000000 0.272853
O O16 0.748279 0.227047 0.183999
O O17 0.500000 0.179668 0.500000
O O18 0.583408 0.000000 0.347918
O O19 0.927771 0.000000 0.243933
O O20 0.754102 0.000000 0.074454
O O21 0.750000 0.250000 0.000000
#
# Coordination Sequence:
#
# PCOD9206328 Si02
#       8
#     8   8   8   8   8   8   8   8
#     4  11  24  42  66  94 123 160 207 259 312 373
#     4  11  23  41  65  93 126 162 205 257 310 374
#     4  10  22  41  64  90 125 169 214 259 308 368
#     4  11  22  36  59  91 125 159 199 253 309 365
#     4  10  21  40  63  88 125 167 207 257 310 366
#     4  10  21  38  61  88 122 167 213 255 305 367
#     4  12  26  42  65  93 124 162 203 258 318 375
#     4  10  21  36  57  87 122 158 200 247 300 361
#
# _framework density 19.879010999999998
#
# number of rings (size 3 to 8) (size 9 to 14) (size 15 to 20)
#    0.000    1.375    1.250    4.125    0.000    8.250 
#    0.000    0.000    0.000    0.000    0.000    0.000 
#    0.000    0.000    0.000    0.000    0.000    0.000 
#
# Total GULP energy -178997.394124 kJ/mol
# GULP energy per Si atom -5593.668566 kJ/mol
# Density = 1.983377 g / cm^3
# Si number density = 19.879011 Si / 1000 Ang^3
#
#
#
# Elastic Constant Matrix: (Units=GPa)
#
#
# Indices 1 2 3 4 5 6 
#
# 1 83.6610 23.8775 1.3592 0.0000 -3.4243 -0.0001
# 2 23.8775 63.0418 31.7569 -0.0001 -1.2397 -0.0002
# 3 1.3592 31.7569 52.4129 0.0000 -0.1087 0.0000
# 4 0.0000 -0.0001 0.0000 27.2017 0.0000 -2.9603
# 5 -3.4243 -1.2397 -0.1087 0.0000 27.7064 0.0000
# 6 -0.0001 -0.0002 0.0000 -2.9603 0.0000 31.2216
#
#
#
# Elastic Compliance Matrix: (Units=1/GPa)
#
#
# Indices 1 2 3 4 5 6 
#
# 1 0.014043 -0.007354 0.004094 0.000000 0.001423 0.000000
# 2 -0.007354 0.026707 -0.015991 0.000000 0.000223 0.000000
# 3 0.004094 -0.015991 0.028662 0.000000 -0.000097 0.000000
# 4 0.000000 0.000000 0.000000 0.037146 0.000000 0.003522
# 5 0.001423 0.000223 -0.000097 0.000000 0.036278 0.000000
# 6 0.000000 0.000000 0.000000 0.003522 0.000000 0.032363
#
#
# Mechanical properties :
#
#
# Convention : Reuss Voigt Hill
#
# Bulk Modulus (GPa) = 32.34949 34.78922 33.56935
# Shear Modulus (GPa) = 22.32108 26.70077 24.51092
#
# Velocity S-wave (km/s) = 3.35453 3.66890 3.51523
# Velocity P-wave (km/s) = 5.59574 5.95703 5.77921
#
# Compressibility (1/GPa) = 0.03091238
#
# Stress axis : x y z
#
# Youngs Moduli (GPa) = 71.20745 37.44291 34.88981
#
# Poissons Ratio (x) = 0.27534 -0.14285
# Poissons Ratio (y) = 0.52363 0.55791
# Poissons Ratio (z) = -0.29154 0.59874
#
# Static dielectric constant tensor:
#      x y z
#    x 1.684250 0.000000 -0.002670 
#    y 0.000000 1.669570 0.000000 
#    z -0.002670 0.000000 1.697260 
# 
# From -- ./inp_files/249812.got.cif
#   From: 2010.05.17/outbox.cif.g08.bks.cpg/sg12_125_cif.got.tgz:249812.got - 2010.06.03 13:09:07.
