data_PCOD9206588
_publ_section_title
;
Structure prediction by ZEFSAII (Michael W. Deem and Ramdas Pophale) SiO2 
 PCOD9206588
Probable space group: C 2/M
;
_chemical_formula_sum "Si O2"
_cell_formula_units_Z 40
_cell_length_a 22.036651
_cell_length_b 9.050095
_cell_length_c 19.275105
_cell_angle_alpha 90.000000
_cell_angle_beta 150.819652
_cell_angle_gamma 90.000000
_cell_volume 1874.233746
_symmetry_space_group_name_H-M "C 2/M"
_symmetry_group_IT_number 12
_symmetry_cell_setting 'monoclinic'
loop_
_space_group_symop_operation_xyz
x,y,z
-x,y,-z
-x,-y,-z
x,-y,z
1/2+x,1/2+y,z
1/2-x,1/2+y,-z
1/2-x,1/2-y,-z
1/2+x,1/2-y,z
loop_
_atom_site_type_symbol
_atom_site_label
_atom_site_fract_x
_atom_site_fract_y
_atom_site_fract_z
Si Si1 0.761626 0.325996 0.689401
Si Si2 0.128554 0.675489 0.345912
Si Si3 0.766149 0.824048 0.840185
Si Si4 0.873709 0.824419 0.093126
Si Si5 0.993063 0.332522 0.576994
O O1 0.749027 0.500000 0.688254
O O2 0.857510 0.299919 0.723017
O O3 0.794878 0.250689 0.795632
O O4 0.628673 0.262528 0.530809
O O5 0.129683 0.500000 0.359291
O O6 0.250000 0.750000 0.500000
O O7 0.000678 0.747684 0.244153
O O8 0.629611 0.772119 0.731058
O O9 0.752723 0.000000 0.814587
O O10 0.861398 0.802637 0.997513
O O11 0.874658 0.000000 0.107961
O O12 0.750000 0.750000 0.000000
O O13 0.977847 0.500000 0.588663
O O14 0.000000 0.340892 0.500000
#
# Coordination Sequence:
#
# PCOD9206588 Si02
#       5
#     8   8   8   8   8
#     4  10  21  36  59  93 127 161 210 267 319 371
#     4  11  26  46  66  94 130 173 219 268 326 387
#     4   9  20  38  61  91 126 166 210 256 316 385
#     4  11  25  45  68  97 130 171 218 266 323 388
#     4   8  15  30  53  84 121 161 201 245 305 374
#
# _framework density 21.342055999999999
#
# number of rings (size 3 to 8) (size 9 to 14) (size 15 to 20)
#    0.000    2.200    0.000    3.000    2.800    9.200 
#    0.000    4.000    0.000    0.000    0.000    0.000 
#    0.000    0.000    0.000    0.000    0.000    0.000 
#
# Total GULP energy -111754.043732 kJ/mol
# GULP energy per Si atom -5587.702187 kJ/mol
# Density = 2.129348 g / cm^3
# Si number density = 21.342056 Si / 1000 Ang^3
#
#
#
# Elastic Constant Matrix: (Units=GPa)
#
#
# Indices 1 2 3 4 5 6 
#
# 1 126.0465 75.5696 44.3194 0.0000 11.6634 0.0000
# 2 75.5696 101.1422 61.0674 0.0000 13.9775 0.0000
# 3 44.3194 61.0674 101.8356 0.0000 17.8890 0.0000
# 4 0.0000 0.0000 0.0000 23.0356 0.0000 5.4780
# 5 11.6634 13.9775 17.8890 0.0000 40.8889 0.0000
# 6 0.0000 0.0000 0.0000 5.4780 0.0000 28.2537
#
#
#
# Elastic Compliance Matrix: (Units=1/GPa)
#
#
# Indices 1 2 3 4 5 6 
#
# 1 0.014388 -0.010898 0.000368 0.000000 -0.000540 0.000000
# 2 -0.010898 0.023820 -0.009378 0.000000 -0.000931 0.000000
# 3 0.000368 -0.009378 0.015965 0.000000 -0.003884 0.000000
# 4 0.000000 0.000000 0.000000 0.045509 0.000000 -0.008824
# 5 -0.000540 -0.000931 -0.003884 0.000000 0.026628 0.000000
# 6 0.000000 0.000000 0.000000 -0.008824 0.000000 0.037104
#
#
# Mechanical properties :
#
#
# Convention : Reuss Voigt Hill
#
# Bulk Modulus (GPa) = 69.64424 76.77079 73.20751
# Shear Modulus (GPa) = 24.03665 28.30686 26.17175
#
# Velocity S-wave (km/s) = 3.35962 3.64585 3.50566
# Velocity P-wave (km/s) = 6.91033 7.33298 7.12479
#
# Compressibility (1/GPa) = 0.01435869
#
# Stress axis : x y z
#
# Youngs Moduli (GPa) = 69.50457 41.98127 62.63525
#
# Poissons Ratio (x) = 0.45749 -0.02306
# Poissons Ratio (y) = 0.75743 0.58739
# Poissons Ratio (z) = -0.02559 0.39370
#
# Static dielectric constant tensor:
#      x y z
#    x 1.788850 0.000000 -0.020140 
#    y 0.000000 1.718730 0.000000 
#    z -0.020140 0.000000 1.816200 
# 
# From -- ./inp_files/230625.got.cif
#   From: 2010.05.17/outbox.cif.g08.bks.cpg/sg12_116_cif.got.tgz:230625.got - 2010.06.03 13:09:07.
