data_PCOD9206650
_publ_section_title
;
Structure prediction by ZEFSAII (Michael W. Deem and Ramdas Pophale) SiO2 
 PCOD9206650
Probable space group: C 2/M
;
_chemical_formula_sum "Si O2"
_cell_formula_units_Z 42
_cell_length_a 15.118062
_cell_length_b 7.670101
_cell_length_c 24.986993
_cell_angle_alpha 90.000000
_cell_angle_beta 137.756448
_cell_angle_gamma 90.000000
_cell_volume 1947.886521
_symmetry_space_group_name_H-M "C 2/M"
_symmetry_group_IT_number 12
_symmetry_cell_setting 'monoclinic'
loop_
_space_group_symop_operation_xyz
x,y,z
-x,y,-z
-x,-y,-z
x,-y,z
1/2+x,1/2+y,z
1/2-x,1/2+y,-z
1/2-x,1/2-y,-z
1/2+x,1/2-y,z
loop_
_atom_site_type_symbol
_atom_site_label
_atom_site_fract_x
_atom_site_fract_y
_atom_site_fract_z
Si Si1 0.146142 0.708550 0.288311
Si Si2 0.619489 0.703194 0.886983
Si Si3 0.592961 0.702662 0.995058
Si Si4 0.573968 0.701520 0.618329
Si Si5 0.145329 0.707679 0.407055
Si Si6 0.500000 0.000000 0.500000
O O1 0.131038 0.500000 0.282890
O O2 0.272111 0.746536 0.308181
O O3 0.182949 0.771278 0.364721
O O4 0.009235 0.781240 0.206640
O O5 0.652586 0.500000 0.908484
O O6 0.586265 0.776905 0.931482
O O7 0.751509 0.787406 0.922378
O O8 0.553202 0.500000 0.972165
O O9 0.500000 0.778889 0.000000
O O10 0.563937 0.500000 0.593886
O O11 0.492883 0.713933 0.636553
O O12 0.512542 0.845121 0.551678
O O13 0.135303 0.500000 0.400008
O O14 0.250000 0.750000 0.500000
#
# Coordination Sequence:
#
# PCOD9206650 Si02
#       6
#     8   8   8   8   8   2
#     4  10  24  42  62  87 127 169 207 260 323 383
#     4  10  21  36  60  91 123 160 204 256 310 371
#     4   9  19  38  62  89 122 163 205 247 305 377
#     4  11  24  42  63  92 123 162 214 267 326 386
#     4  11  23  41  63  90 119 162 213 266 323 386
#     4  12  22  40  68  86 120 166 206 268 322 390
#
# _framework density 21.56183
#
# number of rings (size 3 to 8) (size 9 to 14) (size 15 to 20)
#    0.000    1.714    0.952    2.571    1.333    5.714 
#    0.000    5.714    0.000    0.000    0.000    0.000 
#    0.000    0.000    0.000    0.000    0.000    0.000 
#
# Total GULP energy -116992.979260 kJ/mol
# GULP energy per Si atom -5571.094250 kJ/mol
# Density = 2.151275 g / cm^3
# Si number density = 21.561830 Si / 1000 Ang^3
#
#
#
# Elastic Constant Matrix: (Units=GPa)
#
#
# Indices 1 2 3 4 5 6 
#
# 1 138.5525 0.9872 45.1347 0.0000 26.4297 0.0000
# 2 0.9872 83.1819 -6.2427 0.0000 -2.2234 0.0000
# 3 45.1347 -6.2427 92.9627 0.0000 11.4201 0.0000
# 4 0.0000 0.0000 0.0000 19.6668 0.0000 3.7137
# 5 26.4297 -2.2234 11.4201 0.0000 18.0016 0.0000
# 6 0.0000 0.0000 0.0000 3.7137 0.0000 19.0745
#
#
#
# Elastic Compliance Matrix: (Units=1/GPa)
#
#
# Indices 1 2 3 4 5 6 
#
# 1 0.011118 -0.000787 -0.003724 0.000000 -0.014058 0.000000
# 2 -0.000787 0.012157 0.000946 0.000000 0.002057 0.000000
# 3 -0.003724 0.000946 0.012952 0.000000 -0.002633 0.000000
# 4 0.000000 0.000000 0.000000 0.052788 0.000000 -0.010278
# 5 -0.014058 0.002057 -0.002633 0.000000 0.078114 0.000000
# 6 0.000000 0.000000 0.000000 -0.010278 0.000000 0.054427
#
#
# Mechanical properties :
#
#
# Convention : Reuss Voigt Hill
#
# Bulk Modulus (GPa) = 34.36822 43.82842 39.09832
# Shear Modulus (GPa) = 20.97450 29.66978 25.32214
#
# Velocity S-wave (km/s) = 3.12229 3.71352 3.43066
# Velocity P-wave (km/s) = 5.38259 6.22559 5.81937
#
# Compressibility (1/GPa) = 0.02909665
#
# Stress axis : x y z
#
# Youngs Moduli (GPa) = 89.94637 82.25605 77.20905
#
# Poissons Ratio (x) = 0.06475 0.28751
# Poissons Ratio (y) = 0.07080 -0.07303
# Poissons Ratio (z) = 0.33494 -0.07780
#
# Static dielectric constant tensor:
#      x y z
#    x 1.826440 0.000000 0.001660 
#    y 0.000000 1.814390 0.000000 
#    z 0.001660 0.000000 1.763800 
# 
# From -- ./inp_files/267549.got.cif
#   From: 2010.05.17/outbox.cif.g08.bks.cpg/sg12_134_cif.got.tgz:267549.got - 2010.06.03 13:09:07.
