data_PCOD9206471
_publ_section_title
;
Structure prediction by ZEFSAII (Michael W. Deem and Ramdas Pophale) SiO2 
 PCOD9206471
Probable space group: C 2/M
;
_chemical_formula_sum "Si O2"
_cell_formula_units_Z 46
_cell_length_a 10.177230
_cell_length_b 16.023967
_cell_length_c 15.887310
_cell_angle_alpha 90.000000
_cell_angle_beta 135.355933
_cell_angle_gamma 90.000000
_cell_volume 1820.623935
_symmetry_space_group_name_H-M "C 2/M"
_symmetry_group_IT_number 12
_symmetry_cell_setting 'monoclinic'
loop_
_space_group_symop_operation_xyz
x,y,z
-x,y,-z
-x,-y,-z
x,-y,z
1/2+x,1/2+y,z
1/2-x,1/2+y,-z
1/2-x,1/2-y,-z
1/2+x,1/2-y,z
loop_
_atom_site_type_symbol
_atom_site_label
_atom_site_fract_x
_atom_site_fract_y
_atom_site_fract_z
Si Si1 0.428044 0.000000 0.874850
Si Si2 0.963397 0.000000 0.087732
Si Si3 0.435441 0.840094 0.785986
Si Si4 0.980009 0.000000 0.692402
Si Si5 0.481894 0.319033 0.894339
Si Si6 0.994422 0.841939 0.401628
Si Si7 0.042361 0.654212 0.648754
Si Si8 0.500000 0.000000 0.500000
O O1 0.507745 0.921217 0.863391
O O2 0.202875 0.000000 0.778357
O O3 0.500000 0.000000 0.000000
O O4 0.068502 0.000000 0.230701
O O5 0.903570 0.903635 0.067193
O O6 0.000000 0.000000 0.000000
O O7 0.537133 0.755330 0.857485
O O8 0.223510 0.834789 0.722289
O O9 0.436052 0.855202 0.688061
O O10 0.915404 0.912816 0.618108
O O11 0.263831 0.339801 0.773591
O O12 0.500000 0.293032 0.000000
O O13 0.041070 0.742981 0.422877
O O14 0.000000 0.873710 0.500000
O O15 0.014464 0.574675 0.578320
#
# Coordination Sequence:
#
# PCOD9206471 Si02
#       8
#     4   4   8   4   8   8   8   2
#     4  10  21  36  58  90 121 158 210 251 304 378
#     4  10  21  38  58  87 122 162 204 251 314 371
#     4  10  22  39  63  91 122 165 208 254 318 373
#     4  10  21  38  61  87 124 162 205 264 311 362
#     4  10  22  40  62  93 127 159 209 262 308 379
#     4  10  21  41  60  92 124 159 215 262 308 377
#     4  11  23  41  62  89 128 166 209 257 315 375
#     4  12  24  44  60  86 128 170 208 262 316 374
#
# _framework density 25.266064
#
# number of rings (size 3 to 8) (size 9 to 14) (size 15 to 20)
#    0.000    1.739    0.870    2.870    0.000    4.174 
#    6.261    0.000    0.000    0.000    0.000    0.000 
#    0.000    0.000    0.000    0.000    0.000    0.000 
#
# Total GULP energy -128073.290058 kJ/mol
# GULP energy per Si atom -5568.403916 kJ/mol
# Density = 2.520856 g / cm^3
# Si number density = 25.266064 Si / 1000 Ang^3
#
#
#
# Elastic Constant Matrix: (Units=GPa)
#
#
# Indices 1 2 3 4 5 6 
#
# 1 68.2727 40.6650 32.9292 0.0000 9.1559 0.0000
# 2 40.6650 243.5629 90.5516 0.0000 -37.3143 0.0000
# 3 32.9292 90.5516 117.3838 0.0000 -47.6718 0.0000
# 4 0.0000 0.0000 0.0000 54.0891 0.0000 -27.7109
# 5 9.1559 -37.3143 -47.6718 0.0000 69.3943 0.0000
# 6 0.0000 0.0000 0.0000 -27.7109 0.0000 -7.8032
#
#
#
# Elastic Compliance Matrix: (Units=1/GPa)
#
#
# Indices 1 2 3 4 5 6 
#
# 1 0.021050 -0.001879 -0.008313 0.000000 -0.009498 0.000000
# 2 -0.001879 0.005925 -0.003674 0.000000 0.000910 0.000000
# 3 -0.008313 -0.003674 0.018485 0.000000 0.011820 0.000000
# 4 0.000000 0.000000 0.000000 0.006558 0.000000 -0.023287
# 5 -0.009498 0.000910 0.011820 0.000000 0.024273 0.000000
# 6 0.000000 0.000000 0.000000 -0.023287 0.000000 -0.045455
#
#
# Mechanical properties :
#
#
# Convention : Reuss Voigt Hill
#
# Bulk Modulus (GPa) = 56.40653 84.16790 70.28722
# Shear Modulus (GPa) = 77.54737 40.80761 59.17749
#
# Velocity S-wave (km/s) = 5.54607 4.02321 4.84485
# Velocity P-wave (km/s) = 7.96149 7.41394 7.69259
#
# Compressibility (1/GPa) = 0.01772844
#
# Stress axis : x y z
#
# Youngs Moduli (GPa) = 47.50675 168.78649 54.09652
#
# Poissons Ratio (x) = 0.31715 0.44970
# Poissons Ratio (y) = 0.08927 0.19873
# Poissons Ratio (z) = 0.39492 0.62007
#
# Static dielectric constant tensor:
#      x y z
#    x 1.956790 0.000000 0.115590 
#    y 0.000000 1.998050 0.000000 
#    z 0.115590 0.000000 1.995400 
# 
# From -- ./inp_files/205169.got.cif
#   From: 2010.05.17/outbox.cif.g08.bks.cpg/sg12_103_cif.got.tgz:205169.got - 2010.06.03 13:09:07.
