data_PCOD9206740
_publ_section_title
;
Structure prediction by ZEFSAII (Michael W. Deem and Ramdas Pophale) SiO2 
 PCOD9206740
Probable space group: C 2/M
;
_chemical_formula_sum "Si O2"
_cell_formula_units_Z 58
_cell_length_a 18.747943
_cell_length_b 20.184131
_cell_length_c 11.766485
_cell_angle_alpha 90.000000
_cell_angle_beta 36.954750
_cell_angle_gamma 90.000000
_cell_volume 2676.812274
_symmetry_space_group_name_H-M "C 2/M"
_symmetry_group_IT_number 12
_symmetry_cell_setting 'monoclinic'
loop_
_space_group_symop_operation_xyz
x,y,z
-x,y,-z
-x,-y,-z
x,-y,z
1/2+x,1/2+y,z
1/2-x,1/2+y,-z
1/2-x,1/2-y,-z
1/2+x,1/2-y,z
loop_
_atom_site_type_symbol
_atom_site_label
_atom_site_fract_x
_atom_site_fract_y
_atom_site_fract_z
Si Si1 0.000000 0.500000 0.500000
Si Si2 0.722908 0.077331 0.882140
Si Si3 0.737888 0.150231 0.447063
Si Si4 0.841205 0.076084 0.501142
Si Si5 0.440809 0.755849 0.195262
Si Si6 0.367567 0.206565 0.874901
Si Si7 0.831622 0.374405 0.717240
Si Si8 0.103871 0.923649 0.131949
O O1 0.099696 0.442291 0.350255
O O2 0.764940 0.101225 0.704561
O O3 0.836423 0.074103 0.820070
O O4 0.674857 0.000000 0.939670
O O5 0.648140 0.136973 0.034321
O O6 0.771350 0.084392 0.472784
O O7 0.651473 0.190166 0.640336
O O8 0.859283 0.191544 0.278599
O O9 0.677041 0.140533 0.404236
O O10 0.972312 0.104566 0.315398
O O11 0.860751 0.000000 0.506384
O O12 0.539335 0.752517 0.169049
O O13 0.500000 0.773787 0.000000
O O14 0.394981 0.180692 0.713763
O O15 0.250000 0.250000 0.000000
O O16 0.696742 0.384630 0.935131
O O17 0.095391 0.000000 0.099924
#
# Coordination Sequence:
#
# PCOD9206740 Si02
#       8
#     2   8   8   8   8   8   8   8
#     4  12  24  44  72  94 148 180 236 304 348 452
#     4   9  19  38  64 100 137 180 234 290 358 416
#     4  11  26  43  67 100 137 185 231 288 367 424
#     4  10  21  36  61  96 136 177 224 281 350 426
#     4  11  25  47  69  93 136 184 235 295 352 422
#     4  11  24  43  73 104 137 187 245 297 355 435
#     4  11  24  42  67 103 134 188 233 295 364 424
#     4   9  18  35  59  95 132 172 222 278 347 413
#
# _framework density 21.667563999999999
#
# number of rings (size 3 to 8) (size 9 to 14) (size 15 to 20)
#    0.000    1.655    0.690    2.897    7.724    2.759 
#    0.000    1.379    0.000    2.483    0.000    0.000 
#    0.000    0.000    0.000    0.000    0.000    0.000 
#
# Total GULP energy -161540.914738 kJ/mol
# GULP energy per Si atom -5570.376370 kJ/mol
# Density = 2.161825 g / cm^3
# Si number density = 21.667564 Si / 1000 Ang^3
#
#
#
# Elastic Constant Matrix: (Units=GPa)
#
#
# Indices 1 2 3 4 5 6 
#
# 1 64.9972 6.8655 21.7113 0.0000 13.4125 0.0000
# 2 6.8655 71.1916 18.4721 0.0000 2.2514 0.0000
# 3 21.7113 18.4721 89.3769 0.0001 25.1887 0.0000
# 4 0.0000 0.0000 0.0001 -27.0893 0.0000 12.2789
# 5 13.4125 2.2514 25.1887 0.0000 37.4638 0.0000
# 6 0.0000 0.0000 0.0000 12.2789 0.0000 7.3545
#
#
#
# Elastic Compliance Matrix: (Units=1/GPa)
#
#
# Indices 1 2 3 4 5 6 
#
# 1 0.017292 -0.000796 -0.002844 0.000000 -0.004231 0.000000
# 2 -0.000796 0.014943 -0.003359 0.000000 0.001645 0.000000
# 3 -0.002844 -0.003359 0.015089 0.000000 -0.008925 0.000000
# 4 0.000000 0.000000 0.000000 -0.021013 0.000000 0.035083
# 5 -0.004231 0.001645 -0.008925 0.000000 0.034109 0.000000
# 6 0.000000 0.000000 0.000000 0.035083 0.000000 0.077398
#
#
# Mechanical properties :
#
#
# Convention : Reuss Voigt Hill
#
# Bulk Modulus (GPa) = 30.00534 35.51818 32.76176
# Shear Modulus (GPa) = 30.68919 15.44693 23.06806
#
# Velocity S-wave (km/s) = 3.76755 2.67293 3.26642
# Velocity P-wave (km/s) = 5.72748 5.09450 5.42024
#
# Compressibility (1/GPa) = 0.03332740
#
# Stress axis : x y z
#
# Youngs Moduli (GPa) = 57.82899 66.92187 66.27432
#
# Poissons Ratio (x) = 0.05327 0.18846
# Poissons Ratio (y) = 0.04603 0.22259
# Poissons Ratio (z) = 0.16445 0.22476
#
# Static dielectric constant tensor:
#      x y z
#    x 1.770460 0.000000 -0.024080 
#    y 0.000000 1.803480 0.000000 
#    z -0.024080 0.000000 1.858550 
# 
# From -- ./inp_files/159768.got.cif
#   From: 2010.05.17/outbox.cif.g08.bks.cpg/sg12_80_cif.got.tgz:159768.got - 2010.06.03 13:09:07.
