data_PCOD9206853
_publ_section_title
;
Structure prediction by ZEFSAII (Michael W. Deem and Ramdas Pophale) SiO2 
 PCOD9206853
Probable space group: C 2/M
;
_chemical_formula_sum "Si O2"
_cell_formula_units_Z 54
_cell_length_a 22.640679
_cell_length_b 20.025950
_cell_length_c 6.636391
_cell_angle_alpha 90.000000
_cell_angle_beta 65.456710
_cell_angle_gamma 90.000000
_cell_volume 2737.081698
_symmetry_space_group_name_H-M "C 2/M"
_symmetry_group_IT_number 12
_symmetry_cell_setting 'monoclinic'
loop_
_space_group_symop_operation_xyz
x,y,z
-x,y,-z
-x,-y,-z
x,-y,z
1/2+x,1/2+y,z
1/2-x,1/2+y,-z
1/2-x,1/2-y,-z
1/2+x,1/2-y,z
loop_
_atom_site_type_symbol
_atom_site_label
_atom_site_fract_x
_atom_site_fract_y
_atom_site_fract_z
Si Si1 0.384145 0.705527 0.417224
Si Si2 0.053332 0.075013 0.635716
Si Si3 0.000000 0.734112 0.000000
Si Si4 0.043828 0.380553 0.237859
Si Si5 0.592695 0.425004 0.052548
Si Si6 0.305930 0.689955 0.148828
Si Si7 0.500000 0.000000 0.000000
Si Si8 0.335776 0.809277 0.807389
O O1 0.404056 0.637022 0.497911
O O2 0.442766 0.723060 0.180528
O O3 0.321192 0.697037 0.364692
O O4 0.374019 0.764398 0.589509
O O5 0.072212 0.074066 0.846324
O O6 0.067593 0.000000 0.543447
O O7 0.024169 0.086492 0.262972
O O8 0.973344 0.686927 0.860625
O O9 0.118735 0.370490 0.194350
O O10 0.000000 0.385670 0.500000
O O11 0.028495 0.441503 0.112634
O O12 0.616988 0.500000 0.062430
O O13 0.645662 0.367565 0.997938
O O14 0.232570 0.671801 0.195880
O O15 0.321197 0.759948 0.015667
#
# Coordination Sequence:
#
# PCOD9206853 Si02
#       8
#     8   8   4   8   8   8   2   8
#     4  11  19  34  57  86 120 159 200 248 306 361
#     4   8  15  27  50  82 114 152 194 237 282 345
#     4  11  20  33  61  90 115 154 196 258 319 362
#     4  11  22  42  64  92 121 147 201 257 325 384
#     4   8  14  29  52  76 110 152 193 231 280 346
#     4  10  21  37  53  84 122 161 200 247 297 360
#     4  10  26  44  68  90 118 156 184 270 332 386
#     4  11  23  36  58  87 119 156 200 254 305 371
#
# _framework density 19.729043000000001
#
# number of rings (size 3 to 8) (size 9 to 14) (size 15 to 20)
#    0.000    2.074    2.963    3.333    0.000    0.000 
#    1.333    0.741    0.000    1.778    0.000    0.000 
#    0.000    0.000    0.000    0.000    0.000    0.000 
#
# Total GULP energy -150549.397039 kJ/mol
# GULP energy per Si atom -5575.903594 kJ/mol
# Density = 1.968414 g / cm^3
# Si number density = 19.729043 Si / 1000 Ang^3
#
#
#
# Elastic Constant Matrix: (Units=GPa)
#
#
# Indices 1 2 3 4 5 6 
#
# 1 128.1564 59.1558 28.2225 0.0000 14.0923 0.0000
# 2 59.1558 109.3617 26.7395 0.0000 10.0773 0.0000
# 3 28.2225 26.7395 72.3080 0.0000 12.4806 0.0000
# 4 0.0000 0.0000 0.0000 12.9017 0.0000 2.1286
# 5 14.0923 10.0773 12.4806 0.0000 27.0620 0.0000
# 6 0.0000 0.0000 0.0000 2.1286 0.0000 17.1978
#
#
#
# Elastic Compliance Matrix: (Units=1/GPa)
#
#
# Indices 1 2 3 4 5 6 
#
# 1 0.010924 -0.005191 -0.001843 0.000000 -0.002906 0.000000
# 2 -0.005191 0.012642 -0.002502 0.000000 -0.000851 0.000000
# 3 -0.001843 -0.002502 0.016458 0.000000 -0.005699 0.000000
# 4 0.000000 0.000000 0.000000 0.079125 0.000000 -0.009793
# 5 -0.002906 -0.000851 -0.005699 0.000000 0.041410 0.000000
# 6 0.000000 0.000000 0.000000 -0.009793 0.000000 0.059359
#
#
# Mechanical properties :
#
#
# Convention : Reuss Voigt Hill
#
# Bulk Modulus (GPa) = 47.72641 59.78462 53.75552
# Shear Modulus (GPa) = 20.32734 24.47953 22.40344
#
# Velocity S-wave (km/s) = 3.21335 3.52630 3.37346
# Velocity P-wave (km/s) = 6.16530 6.85189 6.51764
#
# Compressibility (1/GPa) = 0.02095276
#
# Stress axis : x y z
#
# Youngs Moduli (GPa) = 91.53845 79.10161 60.76114
#
# Poissons Ratio (x) = 0.41061 0.11197
# Poissons Ratio (y) = 0.47516 0.15203
# Poissons Ratio (z) = 0.16868 0.19792
#
# Static dielectric constant tensor:
#      x y z
#    x 1.700230 0.000000 0.033370 
#    y 0.000000 1.666950 0.000000 
#    z 0.033370 0.000000 1.758500 
# 
# From -- ./inp_files/25391.got.cif
#   From: 2010.05.17/outbox.cif.g08.bks.cpg/sg12_13_cif.got.tgz:25391.got - 2010.06.03 13:09:07.
