data_PCOD9206358
_publ_section_title
;
Structure prediction by ZEFSAII (Michael W. Deem and Ramdas Pophale) SiO2 
 PCOD9206358
Probable space group: C 2/M
;
_chemical_formula_sum "Si O2"
_cell_formula_units_Z 48
_cell_length_a 26.762094
_cell_length_b 9.197458
_cell_length_c 20.709932
_cell_angle_alpha 90.000000
_cell_angle_beta 26.658205
_cell_angle_gamma 90.000000
_cell_volume 2287.130258
_symmetry_space_group_name_H-M "C 2/M"
_symmetry_group_IT_number 12
_symmetry_cell_setting 'monoclinic'
loop_
_space_group_symop_operation_xyz
x,y,z
-x,y,-z
-x,-y,-z
x,-y,z
1/2+x,1/2+y,z
1/2-x,1/2+y,-z
1/2-x,1/2-y,-z
1/2+x,1/2-y,z
loop_
_atom_site_type_symbol
_atom_site_label
_atom_site_fract_x
_atom_site_fract_y
_atom_site_fract_z
Si Si1 0.192420 0.168943 0.153474
Si Si2 0.028548 0.330828 0.597882
Si Si3 0.331579 0.333324 0.663298
Si Si4 0.614209 0.334277 0.904237
Si Si5 0.139714 0.328859 0.602227
Si Si6 0.418062 0.332341 0.903985
O O1 0.174302 0.176302 0.252442
O O2 0.080910 0.241917 0.255380
O O3 0.204029 0.000000 0.122348
O O4 0.305029 0.256964 0.009323
O O5 0.999225 0.500000 0.625291
O O6 0.077646 0.267315 0.475290
O O7 0.121433 0.315608 0.546255
O O8 0.354411 0.500000 0.619219
O O9 0.211981 0.277859 0.776815
O O10 0.648642 0.500000 0.846793
O O11 0.500000 0.300866 0.000000
O O12 0.593343 0.332629 0.004993
O O13 0.143771 0.500000 0.613306
O O14 0.250000 0.250000 0.500000
O O15 0.028883 0.256064 0.759335
O O16 0.426370 0.500000 0.872931
#
# Coordination Sequence:
#
# PCOD9206358 Si02
#       6
#     8   8   8   8   8   8
#     4  10  21  39  63  92 125 157 196 247 301 355
#     4  11  24  40  61  88 120 161 204 245 298 358
#     4  10  21  36  57  90 125 156 194 244 299 354
#     4   9  19  35  57  85 118 156 196 242 295 353
#     4  11  26  45  63  86 119 159 203 251 299 352
#     4  10  21  39  63  89 120 158 199 246 299 353
#
# _framework density 20.986999000000001
#
# number of rings (size 3 to 8) (size 9 to 14) (size 15 to 20)
#    0.000    1.833    0.000    3.000    2.333    8.333 
#    0.000    0.000    0.000    0.000    0.000    0.000 
#    0.000    0.000    0.000    0.000    0.000    0.000 
#
# Total GULP energy -134243.328908 kJ/mol
# GULP energy per Si atom -5593.472038 kJ/mol
# Density = 2.093923 g / cm^3
# Si number density = 20.986999 Si / 1000 Ang^3
#
#
#
# Elastic Constant Matrix: (Units=GPa)
#
#
# Indices 1 2 3 4 5 6 
#
# 1 77.5511 52.9488 29.4393 0.0000 -30.1066 -0.0001
# 2 52.9488 158.2040 63.7865 -0.0010 -20.9081 0.0003
# 3 29.4393 63.7865 95.9687 -0.0008 -16.1881 0.0002
# 4 0.0000 -0.0010 -0.0008 38.5838 0.0002 -9.1357
# 5 -30.1066 -20.9081 -16.1881 0.0002 34.6705 0.0000
# 6 -0.0001 0.0003 0.0002 -9.1357 0.0000 26.1363
#
#
#
# Elastic Compliance Matrix: (Units=1/GPa)
#
#
# Indices 1 2 3 4 5 6 
#
# 1 0.023254 -0.005245 -0.000841 0.000000 0.016637 0.000000
# 2 -0.005245 0.010065 -0.005238 0.000000 -0.000930 0.000000
# 3 -0.000841 -0.005238 0.014658 0.000000 0.002955 0.000000
# 4 0.000000 0.000000 0.000000 0.028256 0.000000 0.009877
# 5 0.016637 -0.000930 0.002955 0.000000 0.044109 0.000000
# 6 0.000000 0.000000 0.000000 0.009877 0.000000 0.041713
#
#
# Mechanical properties :
#
#
# Convention : Reuss Voigt Hill
#
# Bulk Modulus (GPa) = 39.47962 69.34143 54.41052
# Shear Modulus (GPa) = 25.88714 32.24808 29.06761
#
# Velocity S-wave (km/s) = 3.51591 3.92417 3.72564
# Velocity P-wave (km/s) = 5.94428 7.32421 6.67003
#
# Compressibility (1/GPa) = 0.02532953
#
# Stress axis : x y z
#
# Youngs Moduli (GPa) = 43.00372 99.35078 68.22234
#
# Poissons Ratio (x) = 0.52109 0.05736
# Poissons Ratio (y) = 0.22555 0.35735
# Poissons Ratio (z) = 0.03616 0.52040
#
# Static dielectric constant tensor:
#      x y z
#    x 1.776930 0.000000 0.031020 
#    y 0.000000 1.712020 0.000000 
#    z 0.031020 0.000000 1.718740 
# 
# From -- ./inp_files/327147.got.cif
#   From: 2010.05.17/outbox.cif.g08.bks.cpg/sg12_164_cif.got.tgz:327147.got - 2010.06.03 13:09:07.
