data_PCOD9206847
_publ_section_title
;
Structure prediction by ZEFSAII (Michael W. Deem and Ramdas Pophale) SiO2 
 PCOD9206847
Probable space group: C 2/M
;
_chemical_formula_sum "Si O2"
_cell_formula_units_Z 64
_cell_length_a 31.803867
_cell_length_b 9.360716
_cell_length_c 15.883399
_cell_angle_alpha 90.000000
_cell_angle_beta 131.161396
_cell_angle_gamma 90.000000
_cell_volume 3559.965797
_symmetry_space_group_name_H-M "C 2/M"
_symmetry_group_IT_number 12
_symmetry_cell_setting 'monoclinic'
loop_
_space_group_symop_operation_xyz
x,y,z
-x,y,-z
-x,-y,-z
x,-y,z
1/2+x,1/2+y,z
1/2-x,1/2+y,-z
1/2-x,1/2-y,-z
1/2+x,1/2-y,z
loop_
_atom_site_type_symbol
_atom_site_label
_atom_site_fract_x
_atom_site_fract_y
_atom_site_fract_z
Si Si1 0.378554 0.167032 0.752558
Si Si2 0.325703 0.172841 0.866771
Si Si3 0.415644 0.831294 0.443442
Si Si4 0.088909 0.167273 0.900529
Si Si5 0.801850 0.834515 0.531648
Si Si6 0.302409 0.333397 0.330980
Si Si7 0.982395 0.155125 0.880826
Si Si8 0.968969 0.330422 0.328228
O O1 0.352603 0.207473 0.809970
O O2 0.352701 0.258811 0.643851
O O3 0.442837 0.208385 0.829414
O O4 0.367391 0.000000 0.726558
O O5 0.259838 0.212346 0.780252
O O6 0.329668 0.000000 0.880983
O O7 0.360673 0.251428 0.985628
O O8 0.356719 0.752350 0.373027
O O9 0.440186 0.815334 0.381699
O O10 0.466048 0.783709 0.572795
O O11 0.407382 0.000000 0.447843
O O12 0.066277 0.243557 0.786584
O O13 0.036300 0.172925 0.894477
O O14 0.102582 0.000000 0.904089
O O15 0.750000 0.750000 0.500000
O O16 0.802276 0.824115 0.432015
O O17 0.798499 0.000000 0.550326
O O18 0.308775 0.500000 0.315802
O O19 0.955489 0.000000 0.821935
O O20 0.000000 0.142481 0.000000
O O21 0.969257 0.500000 0.307785
#
# Coordination Sequence:
#
# PCOD9206847 Si02
#       8
#     8   8   8   8   8   8   8   8
#     4  11  22  36  54  78 110 153 200 238 282 338
#     4  10  21  39  57  78 115 156 194 236 284 334
#     4   9  20  40  65  90 114 145 186 230 285 348
#     4  11  23  37  58  87 115 150 196 237 284 342
#     4  11  22  37  55  80 116 154 194 238 283 333
#     4  10  22  39  58  84 117 151 190 238 288 335
#     4  10  21  37  53  77 115 152 189 237 286 330
#     4   9  20  41  64  87 118 148 179 232 291 341
#
# _framework density 17.977701
#
# number of rings (size 3 to 8) (size 9 to 14) (size 15 to 20)
#    0.000    1.875    2.500    1.875    1.750    4.250 
#    0.000    1.875    0.000    0.000    0.000    0.000 
#    0.000    0.000    0.000    0.000    0.000    0.000 
#
# Total GULP energy -178416.903316 kJ/mol
# GULP energy per Si atom -5575.528229 kJ/mol
# Density = 1.793678 g / cm^3
# Si number density = 17.977701 Si / 1000 Ang^3
#
#
#
# Elastic Constant Matrix: (Units=GPa)
#
#
# Indices 1 2 3 4 5 6 
#
# 1 60.2880 44.1523 33.0105 0.0000 24.0621 0.0000
# 2 44.1523 81.1271 70.2410 0.0000 10.3544 0.0000
# 3 33.0105 70.2410 139.8461 0.0000 15.8997 0.0000
# 4 0.0000 0.0000 0.0000 37.0215 0.0000 1.3913
# 5 24.0621 10.3544 15.8997 0.0000 24.1747 0.0000
# 6 0.0000 0.0000 0.0000 1.3913 0.0000 36.5107
#
#
#
# Elastic Compliance Matrix: (Units=1/GPa)
#
#
# Indices 1 2 3 4 5 6 
#
# 1 0.050296 -0.028042 0.007067 0.000000 -0.042699 0.000000
# 2 -0.028042 0.037566 -0.014692 0.000000 0.021484 0.000000
# 3 0.007067 -0.014692 0.013992 0.000000 -0.009944 0.000000
# 4 0.000000 0.000000 0.000000 0.027050 0.000000 -0.001031
# 5 -0.042699 0.021484 -0.009944 0.000000 0.081204 0.000000
# 6 0.000000 0.000000 0.000000 -0.001031 0.000000 0.027428
#
#
# Mechanical properties :
#
#
# Convention : Reuss Voigt Hill
#
# Bulk Modulus (GPa) = 32.76398 64.00764 48.38581
# Shear Modulus (GPa) = 15.67175 28.46521 22.06848
#
# Velocity S-wave (km/s) = 2.95571 3.98347 3.50744
# Velocity P-wave (km/s) = 5.46925 7.53913 6.58602
#
# Compressibility (1/GPa) = 0.03052132
#
# Stress axis : x y z
#
# Youngs Moduli (GPa) = 19.88214 26.61963 71.46690
#
# Poissons Ratio (x) = 0.74647 -0.50506
# Poissons Ratio (y) = 0.55754 1.04998
# Poissons Ratio (z) = -0.14051 0.39109
#
# Static dielectric constant tensor:
#      x y z
#    x 1.558300 0.000000 -0.064260 
#    y 0.000000 1.632010 0.000000 
#    z -0.064260 0.000000 1.454130 
# 
# From -- ./inp_files/249954.got.cif
#   From: 2010.05.17/outbox.cif.g08.bks.cpg/sg12_125_cif.got.tgz:249954.got - 2010.06.03 13:09:07.
