data_PCOD9206296
_publ_section_title
;
Structure prediction by ZEFSAII (Michael W. Deem and Ramdas Pophale) SiO2 
 PCOD9206296
Probable space group: C 2/M
;
_chemical_formula_sum "Si O2"
_cell_formula_units_Z 40
_cell_length_a 29.789681
_cell_length_b 9.032286
_cell_length_c 7.921179
_cell_angle_alpha 90.000000
_cell_angle_beta 75.938976
_cell_angle_gamma 90.000000
_cell_volume 2067.482727
_symmetry_space_group_name_H-M "C 2/M"
_symmetry_group_IT_number 12
_symmetry_cell_setting 'monoclinic'
loop_
_space_group_symop_operation_xyz
x,y,z
-x,y,-z
-x,-y,-z
x,-y,z
1/2+x,1/2+y,z
1/2-x,1/2+y,-z
1/2-x,1/2-y,-z
1/2+x,1/2-y,z
loop_
_atom_site_type_symbol
_atom_site_label
_atom_site_fract_x
_atom_site_fract_y
_atom_site_fract_z
Si Si1 0.395987 0.821632 0.953951
Si Si2 0.701528 0.824907 0.497716
Si Si3 0.297515 0.174308 0.903710
Si Si4 0.444833 0.826612 0.557614
Si Si5 0.891744 0.823855 0.301071
O O1 0.343249 0.774039 0.959771
O O2 0.426038 0.787807 0.760539
O O3 0.396674 0.000000 0.976976
O O4 0.411845 0.741859 0.109024
O O5 0.750000 0.750000 0.500000
O O6 0.694222 0.807244 0.303508
O O7 0.659246 0.746265 0.629637
O O8 0.702300 0.000000 0.536395
O O9 0.292760 0.000000 0.941283
O O10 0.250000 0.250000 0.000000
O O11 0.500000 0.813523 0.500000
O O12 0.421138 0.730551 0.434421
O O13 0.432127 0.000000 0.539856
O O14 0.889157 0.000000 0.297380
#
# Coordination Sequence:
#
# PCOD9206296 Si02
#       5
#     8   8   8   8   8
#     4  10  21  41  65  90 123 165 211 263 316 372
#     4  11  22  39  60  89 126 167 216 262 313 373
#     4  10  21  36  57  85 121 161 205 256 306 365
#     4  10  22  44  72  96 121 162 216 269 321 377
#     4  12  25  40  62  94 131 171 209 257 319 380
#
# _framework density 19.347200000000001
#
# number of rings (size 3 to 8) (size 9 to 14) (size 15 to 20)
#    0.000    1.400    2.000    3.600    0.000    7.600 
#    0.000    4.000    0.000    0.000    0.000    0.000 
#    0.000    0.000    0.000    0.000    0.000    0.000 
#
# Total GULP energy -111843.307671 kJ/mol
# GULP energy per Si atom -5592.165384 kJ/mol
# Density = 1.930317 g / cm^3
# Si number density = 19.347200 Si / 1000 Ang^3
#
#
#
# Elastic Constant Matrix: (Units=GPa)
#
#
# Indices 1 2 3 4 5 6 
#
# 1 57.5789 46.5705 51.7160 0.0000 2.3018 0.0000
# 2 46.5705 96.8968 77.7596 0.0000 14.2028 0.0000
# 3 51.7160 77.7596 147.0538 0.0000 2.7548 0.0000
# 4 0.0000 0.0000 0.0000 20.3951 0.0000 5.8715
# 5 2.3018 14.2028 2.7548 0.0000 28.6103 0.0000
# 6 0.0000 0.0000 0.0000 5.8715 0.0000 29.9335
#
#
#
# Elastic Compliance Matrix: (Units=1/GPa)
#
#
# Indices 1 2 3 4 5 6 
#
# 1 0.030863 -0.011478 -0.004853 0.000000 0.003682 0.000000
# 2 -0.011478 0.024233 -0.008585 0.000000 -0.010280 0.000000
# 3 -0.004853 -0.008585 0.012983 0.000000 0.003402 0.000000
# 4 0.000000 0.000000 0.000000 0.051966 0.000000 -0.010193
# 5 0.003682 -0.010280 0.003402 0.000000 0.039432 0.000000
# 6 0.000000 0.000000 0.000000 -0.010193 0.000000 0.035407
#
#
# Mechanical properties :
#
#
# Convention : Reuss Voigt Hill
#
# Bulk Modulus (GPa) = 54.80630 72.62462 63.71546
# Shear Modulus (GPa) = 19.93631 24.15334 22.04482
#
# Velocity S-wave (km/s) = 3.21354 3.53713 3.37921
# Velocity P-wave (km/s) = 6.49295 7.36890 6.94475
#
# Compressibility (1/GPa) = 0.01824608
#
# Stress axis : x y z
#
# Youngs Moduli (GPa) = 32.40081 41.26610 77.02500
#
# Poissons Ratio (x) = 0.47367 0.37384
# Poissons Ratio (y) = 0.37191 0.66123
# Poissons Ratio (z) = 0.15726 0.35426
#
# Static dielectric constant tensor:
#      x y z
#    x 1.661730 0.000000 0.007400 
#    y 0.000000 1.644940 0.000000 
#    z 0.007400 0.000000 1.683760 
# 
# From -- ./inp_files/107779.got.cif
#   From: 2010.05.17/outbox.cif.g08.bks.cpg/sg12_54_cif.got.tgz:107779.got - 2010.06.03 13:09:07.
