data_PCOD9206183
_publ_section_title
;
Structure prediction by ZEFSAII (Michael W. Deem and Ramdas Pophale) SiO2 
 PCOD9206183
Probable space group: C 2/M
;
_chemical_formula_sum "Si O2"
_cell_formula_units_Z 42
_cell_length_a 9.792693
_cell_length_b 7.389509
_cell_length_c 22.651601
_cell_angle_alpha 90.000000
_cell_angle_beta 104.105410
_cell_angle_gamma 90.000000
_cell_volume 1589.720414
_symmetry_space_group_name_H-M "C 2/M"
_symmetry_group_IT_number 12
_symmetry_cell_setting 'monoclinic'
loop_
_space_group_symop_operation_xyz
x,y,z
-x,y,-z
-x,-y,-z
x,-y,z
1/2+x,1/2+y,z
1/2-x,1/2+y,-z
1/2-x,1/2-y,-z
1/2+x,1/2-y,z
loop_
_atom_site_type_symbol
_atom_site_label
_atom_site_fract_x
_atom_site_fract_y
_atom_site_fract_z
Si Si1 0.567715 0.218489 0.819786
Si Si2 0.500000 0.000000 0.000000
Si Si3 0.107786 0.790768 0.362073
Si Si4 0.697248 0.713847 0.061317
Si Si5 0.599109 0.719340 0.563982
Si Si6 0.724319 0.708853 0.253396
O O1 0.676529 0.269491 0.882235
O O2 0.408812 0.286184 0.805147
O O3 0.641344 0.284273 0.766569
O O4 0.562965 0.000000 0.818398
O O5 0.563211 0.842323 0.051002
O O6 0.241016 0.783405 0.420304
O O7 0.165502 0.706206 0.307518
O O8 0.974479 0.715868 0.382949
O O9 0.075356 0.000000 0.346358
O O10 0.669658 0.500000 0.065205
O O11 0.750000 0.750000 0.000000
O O12 0.500000 0.778333 0.500000
O O13 0.600501 0.500000 0.564164
O O14 0.757355 0.500000 0.269328
#
# Coordination Sequence:
#
# PCOD9206183 Si02
#       6
#     8   2   8   8   8   8
#     4  10  24  41  62  91 121 157 205 256 306 377
#     4  12  26  44  72  92 132 176 210 268 336 382
#     4  10  21  37  58  85 118 156 200 248 301 363
#     4  11  25  44  67  98 130 170 217 269 328 396
#     4  10  21  36  56  85 119 155 199 248 300 360
#     4  10  22  40  61  87 120 157 201 251 305 365
#
# _framework density 26.419737999999999
#
# number of rings (size 3 to 8) (size 9 to 14) (size 15 to 20)
#    0.000    1.714    0.952    2.000    4.000    2.667 
#    0.000    0.000    0.000    0.000    0.000    0.000 
#    0.000    0.000    0.000    0.000    0.000    0.000 
#
# Total GULP energy -117380.425610 kJ/mol
# GULP energy per Si atom -5589.544077 kJ/mol
# Density = 2.635961 g / cm^3
# Si number density = 26.419738 Si / 1000 Ang^3
#
#
#
# Elastic Constant Matrix: (Units=GPa)
#
#
# Indices 1 2 3 4 5 6 
#
# 1 118.5962 3.5799 2.9155 0.0000 7.0273 0.0000
# 2 3.5799 133.3198 13.5943 0.0000 9.6784 0.0000
# 3 2.9155 13.5943 92.5724 0.0000 12.0126 0.0000
# 4 0.0000 0.0000 0.0000 19.4986 0.0000 14.8709
# 5 7.0273 9.6784 12.0126 0.0000 56.3707 0.0000
# 6 0.0000 0.0000 0.0000 14.8709 0.0000 15.1586
#
#
#
# Elastic Compliance Matrix: (Units=1/GPa)
#
#
# Indices 1 2 3 4 5 6 
#
# 1 0.008499 -0.000143 -0.000116 0.000000 -0.001010 0.000000
# 2 -0.000143 0.007684 -0.000982 0.000000 -0.001092 0.000000
# 3 -0.000116 -0.000982 0.011237 0.000000 -0.002212 0.000000
# 4 0.000000 0.000000 0.000000 0.203673 0.000000 -0.199808
# 5 -0.001010 -0.001092 -0.002212 0.000000 0.018524 0.000000
# 6 0.000000 0.000000 0.000000 -0.199808 0.000000 0.261986
#
#
# Mechanical properties :
#
#
# Convention : Reuss Voigt Hill
#
# Bulk Modulus (GPa) = 40.09842 42.74084 41.41963
# Shear Modulus (GPa) = 9.57123 39.83215 24.70169
#
# Velocity S-wave (km/s) = 1.90542 3.88708 3.06105
# Velocity P-wave (km/s) = 4.47786 6.02981 5.31083
#
# Compressibility (1/GPa) = 0.02493864
#
# Stress axis : x y z
#
# Youngs Moduli (GPa) = 117.66094 130.13986 88.98997
#
# Poissons Ratio (x) = 0.01862 0.01028
# Poissons Ratio (y) = 0.01684 0.08740
# Poissons Ratio (z) = 0.01360 0.12782
#
# Static dielectric constant tensor:
#      x y z
#    x 2.498610 0.000000 -0.150020 
#    y 0.000000 1.964530 0.000000 
#    z -0.150020 0.000000 2.160030 
# 
# From -- ./inp_files/303572.got.cif
#   From: 2010.05.17/outbox.cif.g08.bks.cpg/sg12_152_cif.got.tgz:303572.got - 2010.06.03 13:09:07.
