data_PCOD9206321
_publ_section_title
;
Structure prediction by ZEFSAII (Michael W. Deem and Ramdas Pophale) SiO2 
 PCOD9206321
Probable space group: C 2/M
;
_chemical_formula_sum "Si O2"
_cell_formula_units_Z 42
_cell_length_a 5.112533
_cell_length_b 18.525001
_cell_length_c 24.243354
_cell_angle_alpha 90.000000
_cell_angle_beta 107.603302
_cell_angle_gamma 90.000000
_cell_volume 2188.562275
_symmetry_space_group_name_H-M "C 2/M"
_symmetry_group_IT_number 12
_symmetry_cell_setting 'monoclinic'
loop_
_space_group_symop_operation_xyz
x,y,z
-x,y,-z
-x,-y,-z
x,-y,z
1/2+x,1/2+y,z
1/2-x,1/2+y,-z
1/2-x,1/2-y,-z
1/2+x,1/2-y,z
loop_
_atom_site_type_symbol
_atom_site_label
_atom_site_fract_x
_atom_site_fract_y
_atom_site_fract_z
Si Si1 0.862291 0.084447 0.836925
Si Si2 0.786115 0.851697 0.536132
Si Si3 0.500000 0.000000 0.500000
Si Si4 0.377149 0.701820 0.932612
Si Si5 0.247934 0.415602 0.240305
Si Si6 0.016180 0.203525 0.333732
O O1 0.878162 0.136590 0.889980
O O2 0.575454 0.097735 0.787005
O O3 0.108057 0.096921 0.809658
O O4 0.864519 0.000000 0.853356
O O5 0.500000 0.814112 0.500000
O O6 0.695365 0.935245 0.538337
O O7 0.000000 0.850757 0.500000
O O8 0.908202 0.819446 0.599357
O O9 0.577021 0.764771 0.922760
O O10 0.500000 0.680305 0.000000
O O11 0.289799 0.500000 0.257180
O O12 0.387214 0.363294 0.292977
O O13 0.789264 0.266383 0.322519
#
# Coordination Sequence:
#
# PCOD9206321 Si02
#       6
#     8   8   2   8   8   8
#     4  10  21  39  60  87 115 152 197 242 291 335
#     4  10  22  40  62  86 116 149 194 232 286 346
#     4   8  22  40  62  92 110 156 192 232 280 366
#     4  10  21  36  57  87 119 155 195 235 286 346
#     4  10  23  41  61  84 116 155 196 240 285 345
#     4  12  26  41  60  90 120 152 192 239 292 348
#
# _framework density 19.190681000000001
#
# number of rings (size 3 to 8) (size 9 to 14) (size 15 to 20)
#    0.571    1.143    0.000    3.714    1.333    7.238 
#    0.000    0.000    0.000    6.857    0.000    0.000 
#    0.000    0.000    0.000    0.000    0.000    0.000 
#
# Total GULP energy -117062.832713 kJ/mol
# GULP energy per Si atom -5574.420605 kJ/mol
# Density = 1.914700 g / cm^3
# Si number density = 19.190681 Si / 1000 Ang^3
#
#
#
# Elastic Constant Matrix: (Units=GPa)
#
#
# Indices 1 2 3 4 5 6 
#
# 1 51.4166 -15.2616 -16.2293 0.0000 2.0711 0.0000
# 2 -15.2616 60.9688 37.8469 0.0000 8.0064 0.0000
# 3 -16.2293 37.8469 68.9625 0.0000 1.0113 0.0000
# 4 0.0000 0.0000 0.0000 134.3487 0.0000 68.5328
# 5 2.0711 8.0064 1.0113 0.0000 17.6777 0.0000
# 6 0.0000 0.0000 0.0000 68.5328 0.0000 63.9942
#
#
#
# Elastic Compliance Matrix: (Units=1/GPa)
#
#
# Indices 1 2 3 4 5 6 
#
# 1 0.021812 0.004314 0.002834 0.000000 -0.004672 0.000000
# 2 0.004314 0.027840 -0.014083 0.000000 -0.012309 0.000000
# 3 0.002834 -0.014083 0.022827 0.000000 0.004741 0.000000
# 4 0.000000 0.000000 0.000000 0.016405 0.000000 -0.017569
# 5 -0.004672 -0.012309 0.004741 0.000000 0.062420 0.000000
# 6 0.000000 0.000000 0.000000 -0.017569 0.000000 0.034441
#
#
# Mechanical properties :
#
#
# Convention : Reuss Voigt Hill
#
# Bulk Modulus (GPa) = 17.06199 21.56223 19.31211
# Shear Modulus (GPa) = 22.81517 54.87024 38.84270
#
# Velocity S-wave (km/s) = 3.45174 5.35296 4.50381
# Velocity P-wave (km/s) = 4.97956 7.03319 6.09351
#
# Compressibility (1/GPa) = 0.05860981
#
# Stress axis : x y z
#
# Youngs Moduli (GPa) = 45.84580 35.91907 43.80792
#
# Poissons Ratio (x) = -0.15496 -0.12415
# Poissons Ratio (y) = -0.19779 0.61695
# Poissons Ratio (z) = -0.12993 0.50585
#
# Static dielectric constant tensor:
#      x y z
#    x 1.688380 0.000000 -0.029820 
#    y 0.000000 1.652440 0.000000 
#    z -0.029820 0.000000 1.734040 
# 
# From -- ./inp_files/297630.got.cif
#   From: 2010.05.17/outbox.cif.g08.bks.cpg/sg12_149_cif.got.tgz:297630.got - 2010.06.03 13:09:07.
