data_PCOD9206643
_publ_section_title
;
Structure prediction by ZEFSAII (Michael W. Deem and Ramdas Pophale) SiO2 
 PCOD9206643
Probable space group: C 2/M
;
_chemical_formula_sum "Si O2"
_cell_formula_units_Z 48
_cell_length_a 25.152513
_cell_length_b 16.421010
_cell_length_c 9.085093
_cell_angle_alpha 90.000000
_cell_angle_beta 144.524808
_cell_angle_gamma 90.000000
_cell_volume 2177.714368
_symmetry_space_group_name_H-M "C 2/M"
_symmetry_group_IT_number 12
_symmetry_cell_setting 'monoclinic'
loop_
_space_group_symop_operation_xyz
x,y,z
-x,y,-z
-x,-y,-z
x,-y,z
1/2+x,1/2+y,z
1/2-x,1/2+y,-z
1/2-x,1/2-y,-z
1/2+x,1/2-y,z
loop_
_atom_site_type_symbol
_atom_site_label
_atom_site_fract_x
_atom_site_fract_y
_atom_site_fract_z
Si Si1 0.263494 0.340122 0.597845
Si Si2 0.291006 0.247878 0.254218
Si Si3 0.421006 0.091394 0.944495
Si Si4 0.506129 0.770012 0.687254
Si Si5 0.476437 0.411582 0.271248
Si Si6 0.838904 0.909734 0.505607
O O1 0.250000 0.250000 0.500000
O O2 0.254653 0.322605 0.750575
O O3 0.345951 0.382243 0.692656
O O4 0.175552 0.392485 0.351223
O O5 0.400627 0.233610 0.503258
O O6 0.280086 0.338485 0.297343
O O7 0.250000 0.250000 0.000000
O O8 0.440145 0.160231 0.107550
O O9 0.425412 0.000000 0.015040
O O10 0.500000 0.099536 0.000000
O O11 0.500000 0.785020 0.500000
O O12 0.553547 0.682085 0.819965
O O13 0.500000 0.411780 0.500000
O O14 0.427823 0.500000 0.137231
O O15 0.566453 0.413790 0.370459
O O16 0.798485 0.000000 0.406384
#
# Coordination Sequence:
#
# PCOD9206643 Si02
#       6
#     8   8   8   8   8   8
#     4  10  21  38  62  86 119 165 215 277 330 392
#     4  10  21  38  58  88 124 165 214 265 332 399
#     4  11  23  41  63  89 128 178 224 272 326 390
#     4  10  21  36  60  90 123 169 218 268 327 392
#     4   8  15  32  59  88 121 158 203 261 326 390
#     4   9  18  34  58  86 116 158 206 261 323 384
#
# _framework density 22.041457999999999
#
# number of rings (size 3 to 8) (size 9 to 14) (size 15 to 20)
#    0.000    2.333    1.667    0.500    4.667    0.333 
#    0.000    2.500    0.000    5.500    0.000    0.000 
#    0.000    0.000    0.000    0.000    0.000    0.000 
#
# Total GULP energy -133894.859916 kJ/mol
# GULP energy per Si atom -5578.952496 kJ/mol
# Density = 2.199129 g / cm^3
# Si number density = 22.041458 Si / 1000 Ang^3
#
#
#
# Elastic Constant Matrix: (Units=GPa)
#
#
# Indices 1 2 3 4 5 6 
#
# 1 138.7123 39.2254 39.5790 0.0000 -9.7035 0.0000
# 2 39.2254 199.6603 51.9909 0.0000 -30.3922 0.0000
# 3 39.5790 51.9909 83.8725 0.0000 -15.9324 0.0000
# 4 0.0000 0.0000 0.0000 25.1512 0.0000 2.0852
# 5 -9.7035 -30.3922 -15.9324 0.0000 44.3099 0.0000
# 6 0.0000 0.0000 0.0000 2.0852 0.0000 -7.2455
#
#
#
# Elastic Compliance Matrix: (Units=1/GPa)
#
#
# Indices 1 2 3 4 5 6 
#
# 1 0.008422 -0.000729 -0.003507 0.000000 0.000084 0.000000
# 2 -0.000729 0.006423 -0.003039 0.000000 0.003153 0.000000
# 3 -0.003507 -0.003039 0.016013 0.000000 0.002906 0.000000
# 4 0.000000 0.000000 0.000000 0.038833 0.000000 0.011176
# 5 0.000084 0.003153 0.002906 0.000000 0.025794 0.000000
# 6 0.000000 0.000000 0.000000 0.011176 0.000000 -0.134800
#
#
# Mechanical properties :
#
#
# Convention : Reuss Voigt Hill
#
# Bulk Modulus (GPa) = 61.31193 75.98175 68.64684
# Shear Modulus (GPa) = -258.64875 31.87309 -113.38783
#
# Velocity S-wave (km/s) = -10.84441 3.80682 -7.18016
# Velocity P-wave (km/s) = 11.35450 7.33959 6.12597
#
# Compressibility (1/GPa) = 0.01631004
#
# Stress axis : x y z
#
# Youngs Moduli (GPa) = 118.74228 155.69308 62.44887
#
# Poissons Ratio (x) = 0.11345 0.21898
# Poissons Ratio (y) = 0.08653 0.18975
# Poissons Ratio (z) = 0.41637 0.47308
#
# Static dielectric constant tensor:
#      x y z
#    x 1.871170 0.000000 0.018490 
#    y 0.000000 1.811170 0.000000 
#    z 0.018490 0.000000 1.885700 
# 
# From -- ./inp_files/105033.got.cif
#   From: 2010.05.17/outbox.cif.g08.bks.cpg/sg12_53_cif.got.tgz:105033.got - 2010.06.03 13:09:07.
