data_PCOD9206640
_publ_section_title
;
Structure prediction by ZEFSAII (Michael W. Deem and Ramdas Pophale) SiO2 
 PCOD9206640
Probable space group: C 2/M
;
_chemical_formula_sum "Si O2"
_cell_formula_units_Z 42
_cell_length_a 23.934039
_cell_length_b 7.537321
_cell_length_c 12.287754
_cell_angle_alpha 90.000000
_cell_angle_beta 62.264109
_cell_angle_gamma 90.000000
_cell_volume 1961.999839
_symmetry_space_group_name_H-M "C 2/M"
_symmetry_group_IT_number 12
_symmetry_cell_setting 'monoclinic'
loop_
_space_group_symop_operation_xyz
x,y,z
-x,y,-z
-x,-y,-z
x,-y,z
1/2+x,1/2+y,z
1/2-x,1/2+y,-z
1/2-x,1/2-y,-z
1/2+x,1/2-y,z
loop_
_atom_site_type_symbol
_atom_site_label
_atom_site_fract_x
_atom_site_fract_y
_atom_site_fract_z
Si Si1 0.766368 0.207024 0.307827
Si Si2 0.555022 0.215561 0.114858
Si Si3 0.195990 0.301762 0.964713
Si Si4 0.000000 0.000000 0.000000
Si Si5 0.347456 0.784812 0.434976
Si Si6 0.016999 0.713820 0.603932
O O1 0.778137 0.292880 0.181156
O O2 0.706597 0.275464 0.431067
O O3 0.825868 0.226248 0.334734
O O4 0.755587 0.000000 0.295815
O O5 0.536108 0.243169 0.257604
O O6 0.547409 0.000000 0.098490
O O7 0.626758 0.283084 0.030166
O O8 0.511671 0.341521 0.081283
O O9 0.180269 0.500000 0.011266
O O10 0.250000 0.250000 0.000000
O O11 0.415763 0.722682 0.410953
O O12 0.346292 0.000000 0.434583
O O13 0.023923 0.500000 0.587838
O O14 0.000000 0.782582 0.500000
#
# Coordination Sequence:
#
# PCOD9206640 Si02
#       6
#     8   8   8   2   8   8
#     4  10  21  36  60  90 121 159 211 260 315 375
#     4  10  25  44  67 102 132 174 224 274 335 396
#     4  11  25  42  64  90 130 173 217 266 324 391
#     4  12  26  44  74  94 144 172 222 278 332 404
#     4   9  19  36  60  89 119 158 206 257 314 376
#     4   9  19  38  65  89 122 166 211 266 329 390
#
# _framework density 21.406728000000001
#
# number of rings (size 3 to 8) (size 9 to 14) (size 15 to 20)
#    0.000    2.095    0.000    1.429    8.000    0.762 
#    0.000    0.476    0.000    0.000    0.000    0.000 
#    0.000    0.000    0.000    0.000    0.000    0.000 
#
# Total GULP energy -116934.862647 kJ/mol
# GULP energy per Si atom -5568.326793 kJ/mol
# Density = 2.135801 g / cm^3
# Si number density = 21.406728 Si / 1000 Ang^3
#
#
#
# Elastic Constant Matrix: (Units=GPa)
#
#
# Indices 1 2 3 4 5 6 
#
# 1 48.4281 -2.5438 46.9324 0.0000 14.4965 0.0000
# 2 -2.5438 81.9502 10.3576 0.0000 4.8861 0.0000
# 3 46.9324 10.3576 108.7106 0.0000 25.4430 0.0000
# 4 0.0000 0.0000 0.0000 18.2976 0.0000 9.5884
# 5 14.4965 4.8861 25.4430 0.0000 29.2028 0.0000
# 6 0.0000 0.0000 0.0000 9.5884 0.0000 23.5550
#
#
#
# Elastic Compliance Matrix: (Units=1/GPa)
#
#
# Indices 1 2 3 4 5 6 
#
# 1 0.037092 0.003395 -0.014941 0.000000 -0.005964 0.000000
# 2 0.003395 0.012702 -0.002241 0.000000 -0.001858 0.000000
# 3 -0.014941 -0.002241 0.017635 0.000000 -0.007573 0.000000
# 4 0.000000 0.000000 0.000000 0.069471 0.000000 -0.028279
# 5 -0.005964 -0.001858 -0.007573 0.000000 0.044112 0.000000
# 6 0.000000 0.000000 0.000000 -0.028279 0.000000 0.053965
#
#
# Mechanical properties :
#
#
# Convention : Reuss Voigt Hill
#
# Bulk Modulus (GPa) = 25.09079 38.73125 31.91102
# Shear Modulus (GPa) = 18.12663 26.50060 22.31362
#
# Velocity S-wave (km/s) = 2.91309 3.52228 3.23207
# Velocity P-wave (km/s) = 4.80221 5.88848 5.37287
#
# Compressibility (1/GPa) = 0.03985525
#
# Stress axis : x y z
#
# Youngs Moduli (GPa) = 26.95966 78.72799 56.70547
#
# Poissons Ratio (x) = -0.26731 0.84725
# Poissons Ratio (y) = -0.09154 0.12709
# Poissons Ratio (z) = 0.40281 0.17644
#
# Static dielectric constant tensor:
#      x y z
#    x 1.872260 0.000000 -0.066430 
#    y 0.000000 1.511950 0.000000 
#    z -0.066430 0.000000 1.755250 
# 
# From -- ./inp_files/163028.got.cif
#   From: 2010.05.17/outbox.cif.g08.bks.cpg/sg12_82_cif.got.tgz:163028.got - 2010.06.03 13:09:07.
