data_PCOD9206220
_publ_section_title
;
Structure prediction by ZEFSAII (Michael W. Deem and Ramdas Pophale) SiO2 
 PCOD9206220
Probable space group: C 2/M
;
_chemical_formula_sum "Si O2"
_cell_formula_units_Z 48
_cell_length_a 22.484473
_cell_length_b 19.513575
_cell_length_c 8.653194
_cell_angle_alpha 90.000000
_cell_angle_beta 38.550612
_cell_angle_gamma 90.000000
_cell_volume 2366.069065
_symmetry_space_group_name_H-M "C 2/M"
_symmetry_group_IT_number 12
_symmetry_cell_setting 'monoclinic'
loop_
_space_group_symop_operation_xyz
x,y,z
-x,y,-z
-x,-y,-z
x,-y,z
1/2+x,1/2+y,z
1/2-x,1/2+y,-z
1/2-x,1/2-y,-z
1/2+x,1/2-y,z
loop_
_atom_site_type_symbol
_atom_site_label
_atom_site_fract_x
_atom_site_fract_y
_atom_site_fract_z
Si Si1 0.624576 0.280604 0.570696
Si Si2 0.771848 0.077885 0.147494
Si Si3 0.439513 0.925137 0.467929
Si Si4 0.274026 0.841891 0.476666
Si Si5 0.445408 0.801952 0.897205
Si Si6 0.847915 0.788924 0.837675
O O1 0.699074 0.216957 0.450762
O O2 0.674236 0.332216 0.589142
O O3 0.518407 0.254064 0.815171
O O4 0.618893 0.303992 0.404635
O O5 0.670670 0.085350 0.264976
O O6 0.738782 0.091629 0.391860
O O7 0.807399 0.000000 0.055924
O O8 0.836975 0.140016 0.954205
O O9 0.500000 0.925967 0.500000
O O10 0.484482 0.865402 0.276537
O O11 0.446733 0.000000 0.377307
O O12 0.358971 0.829519 0.179782
O O13 0.406099 0.766319 0.821279
O O14 0.750000 0.750000 0.000000
#
# Coordination Sequence:
#
# PCOD9206220 Si02
#       6
#     8   8   8   8   8   8
#     4  11  22  37  59  94 123 158 216 266 306 363
#     4  11  24  42  61  90 132 170 206 255 318 381
#     4  10  21  36  56  88 128 163 203 252 309 377
#     4  11  22  37  57  88 131 163 201 253 313 374
#     4  12  22  36  65  95 125 163 211 265 310 371
#     4  12  20  39  66  91 122 164 217 265 307 357
#
# _framework density 20.286814
#
# number of rings (size 3 to 8) (size 9 to 14) (size 15 to 20)
#    0.000    0.833    5.000    4.000    0.000    0.667 
#    0.000    2.500    0.000    4.000    0.000    0.000 
#    0.000    0.000    0.000    0.000    0.000    0.000 
#
# Total GULP energy -133731.438521 kJ/mol
# GULP energy per Si atom -5572.143272 kJ/mol
# Density = 2.024064 g / cm^3
# Si number density = 20.286814 Si / 1000 Ang^3
#
#
#
# Elastic Constant Matrix: (Units=GPa)
#
#
# Indices 1 2 3 4 5 6 
#
# 1 100.7033 4.5024 21.9901 0.0000 3.9990 0.0000
# 2 4.5024 90.9439 21.4364 0.0000 12.4461 0.0000
# 3 21.9901 21.4364 50.6651 0.0000 10.8224 0.0000
# 4 0.0000 0.0000 0.0000 12.0002 0.0000 -6.9262
# 5 3.9990 12.4461 10.8224 0.0000 30.2699 0.0000
# 6 0.0000 0.0000 0.0000 -6.9262 0.0000 18.3628
#
#
#
# Elastic Compliance Matrix: (Units=1/GPa)
#
#
# Indices 1 2 3 4 5 6 
#
# 1 0.011004 0.000636 -0.005066 0.000000 0.000096 0.000000
# 2 0.000636 0.012590 -0.004850 0.000000 -0.003527 0.000000
# 3 -0.005066 -0.004850 0.025356 0.000000 -0.006402 0.000000
# 4 0.000000 0.000000 0.000000 0.106523 0.000000 0.040179
# 5 0.000096 -0.003527 -0.006402 0.000000 0.036763 0.000000
# 6 0.000000 0.000000 0.000000 0.040179 0.000000 0.069613
#
#
# Mechanical properties :
#
#
# Convention : Reuss Voigt Hill
#
# Bulk Modulus (GPa) = 32.90412 37.57446 35.23929
# Shear Modulus (GPa) = 17.20953 25.08545 21.14749
#
# Velocity S-wave (km/s) = 2.91574 3.52026 3.23216
# Velocity P-wave (km/s) = 5.25262 5.92324 5.59798
#
# Compressibility (1/GPa) = 0.03039133
#
# Stress axis : x y z
#
# Youngs Moduli (GPa) = 90.87527 79.42768 39.43913
#
# Poissons Ratio (x) = -0.05053 0.19979
# Poissons Ratio (y) = -0.05781 0.19126
# Poissons Ratio (z) = 0.46035 0.38519
#
# Static dielectric constant tensor:
#      x y z
#    x 1.789030 0.000000 -0.000210 
#    y 0.000000 1.795500 0.000000 
#    z -0.000210 0.000000 1.849990 
# 
# From -- ./inp_files/89409.got.cif
#   From: 2010.05.17/outbox.cif.g08.bks.cpg/sg12_45_cif.got.tgz:89409.got - 2010.06.03 13:09:07.
