data_PCOD9206681
_publ_section_title
;
Structure prediction by ZEFSAII (Michael W. Deem and Ramdas Pophale) SiO2 
 PCOD9206681
Probable space group: C 2/M
;
_chemical_formula_sum "Si O2"
_cell_formula_units_Z 64
_cell_length_a 17.828880
_cell_length_b 15.400526
_cell_length_c 23.525948
_cell_angle_alpha 90.000000
_cell_angle_beta 28.457807
_cell_angle_gamma 90.000000
_cell_volume 3078.081413
_symmetry_space_group_name_H-M "C 2/M"
_symmetry_group_IT_number 12
_symmetry_cell_setting 'monoclinic'
loop_
_space_group_symop_operation_xyz
x,y,z
-x,y,-z
-x,-y,-z
x,-y,z
1/2+x,1/2+y,z
1/2-x,1/2+y,-z
1/2-x,1/2-y,-z
1/2+x,1/2-y,z
loop_
_atom_site_type_symbol
_atom_site_label
_atom_site_fract_x
_atom_site_fract_y
_atom_site_fract_z
Si Si1 0.360623 0.750765 0.675993
Si Si2 0.813106 0.399063 0.271221
Si Si3 0.184740 0.331522 0.488394
Si Si4 0.328847 0.899963 0.008431
Si Si5 0.745308 0.094226 0.331360
Si Si6 0.399959 0.598887 0.945579
Si Si7 0.244501 0.227658 0.877485
Si Si8 0.405669 0.824898 0.331497
O O1 0.309507 0.661883 0.680160
O O2 0.541541 0.763442 0.573248
O O3 0.330515 0.827118 0.651498
O O4 0.257353 0.768571 0.801117
O O5 0.768059 0.500000 0.300699
O O6 0.841366 0.366322 0.316777
O O7 0.985175 0.390711 0.127231
O O8 0.196954 0.397843 0.428926
O O9 0.339765 0.272840 0.381473
O O10 0.154686 0.370365 0.570536
O O11 0.298375 0.000000 0.046773
O O12 0.232816 0.885751 0.013845
O O13 0.274213 0.825614 0.087668
O O14 0.932431 0.104064 0.197513
O O15 0.698964 0.000000 0.339167
O O16 0.380763 0.500000 0.979867
O O17 0.386273 0.668228 0.005106
O O18 0.406872 0.183656 0.791075
#
# Coordination Sequence:
#
# PCOD9206681 Si02
#       8
#     8   8   8   8   8   8   8   8
#     4  11  25  41  59  90 129 164 204 253 307 370
#     4  11  23  40  64  93 127 166 209 254 310 372
#     4  10  22  41  63  88 123 158 205 261 300 360
#     4  10  21  36  60  94 126 159 204 256 305 368
#     4  11  23  39  62  89 121 162 202 249 313 373
#     4  10  21  37  61  93 124 153 200 260 312 367
#     4  11  22  38  65  92 123 165 203 251 313 368
#     4  10  21  39  66  92 116 158 210 258 303 354
#
# _framework density 20.792172999999998
#
# number of rings (size 3 to 8) (size 9 to 14) (size 15 to 20)
#    0.000    1.500    2.500    2.250    0.000    4.500 
#    0.000    6.250    0.000    4.500    0.000    0.000 
#    0.000    0.000    0.000    0.000    0.000    0.000 
#
# Total GULP energy -178819.203153 kJ/mol
# GULP energy per Si atom -5588.100099 kJ/mol
# Density = 2.074485 g / cm^3
# Si number density = 20.792173 Si / 1000 Ang^3
#
#
#
# Elastic Constant Matrix: (Units=GPa)
#
#
# Indices 1 2 3 4 5 6 
#
# 1 65.3790 26.8487 15.7687 -0.0005 10.5352 0.0007
# 2 26.8487 81.0707 23.6741 0.0018 18.7933 0.0002
# 3 15.7687 23.6741 65.4708 0.0022 16.6708 -0.0003
# 4 -0.0005 0.0018 0.0022 9.5416 -0.0022 0.2869
# 5 10.5352 18.7933 16.6708 -0.0022 38.3072 0.0003
# 6 0.0007 0.0002 -0.0003 0.2869 0.0003 -9.7281
#
#
#
# Elastic Compliance Matrix: (Units=1/GPa)
#
#
# Indices 1 2 3 4 5 6 
#
# 1 0.018126 -0.005006 -0.002150 0.000002 -0.001594 0.000001
# 2 -0.005006 0.016148 -0.003336 -0.000004 -0.005093 0.000000
# 3 -0.002150 -0.003336 0.018479 -0.000005 -0.005814 -0.000001
# 4 0.000002 -0.000004 -0.000005 0.104712 0.000010 0.003089
# 5 -0.001594 -0.005093 -0.005814 0.000010 0.031572 0.000001
# 6 0.000001 0.000000 -0.000001 0.003089 0.000001 -0.102704
#
#
# Mechanical properties :
#
#
# Convention : Reuss Voigt Hill
#
# Bulk Modulus (GPa) = 31.47773 38.27816 34.87794
# Shear Modulus (GPa) = 42.40669 17.33274 29.86971
#
# Velocity S-wave (km/s) = 4.52104 2.89038 3.79434
# Velocity P-wave (km/s) = 6.51346 5.43957 6.00058
#
# Compressibility (1/GPa) = 0.03176849
#
# Stress axis : x y z
#
# Youngs Moduli (GPa) = 55.16798 61.92820 54.11691
#
# Poissons Ratio (x) = 0.31000 0.11634
# Poissons Ratio (y) = 0.27616 0.18056
# Poissons Ratio (z) = 0.11860 0.20662
#
# Static dielectric constant tensor:
#      x y z
#    x 1.756270 0.000000 -0.008800 
#    y 0.000000 1.713990 0.000000 
#    z -0.008800 0.000000 1.771790 
# 
# From -- ./inp_files/344041.got.cif
#   From: 2010.05.17/outbox.cif.g08.bks.cpg/sg12_173_cif.got.tgz:344041.got - 2010.06.03 13:09:07.
