data_PCOD9206240
_publ_section_title
;
Structure prediction by ZEFSAII (Michael W. Deem and Ramdas Pophale) SiO2 
 PCOD9206240
Probable space group: C 2/M
;
_chemical_formula_sum "Si O2"
_cell_formula_units_Z 56
_cell_length_a 8.624055
_cell_length_b 13.716166
_cell_length_c 30.257551
_cell_angle_alpha 90.000000
_cell_angle_beta 49.111845
_cell_angle_gamma 90.000000
_cell_volume 2705.785664
_symmetry_space_group_name_H-M "C 2/M"
_symmetry_group_IT_number 12
_symmetry_cell_setting 'monoclinic'
loop_
_space_group_symop_operation_xyz
x,y,z
-x,y,-z
-x,-y,-z
x,-y,z
1/2+x,1/2+y,z
1/2-x,1/2+y,-z
1/2-x,1/2-y,-z
1/2+x,1/2-y,z
loop_
_atom_site_type_symbol
_atom_site_label
_atom_site_fract_x
_atom_site_fract_y
_atom_site_fract_z
Si Si1 0.497104 0.696555 0.216054
Si Si2 0.830356 0.608349 0.280690
Si Si3 0.438980 0.759359 0.131831
Si Si4 0.615842 0.386151 0.413991
Si Si5 0.844422 0.114696 0.070164
Si Si6 0.720250 0.208084 0.441160
Si Si7 0.126613 0.889170 0.673584
O O1 0.476364 0.808239 0.236238
O O2 0.429635 0.696495 0.178457
O O3 0.736774 0.673066 0.170819
O O4 0.364510 0.639854 0.276947
O O5 0.909045 0.500000 0.257678
O O6 0.772058 0.618031 0.343139
O O7 0.612369 0.619873 0.296105
O O8 0.634682 0.829857 0.096051
O O9 0.432223 0.683199 0.092916
O O10 0.578425 0.500000 0.430148
O O11 0.708899 0.325099 0.437223
O O12 0.406434 0.334197 0.435460
O O13 0.813420 0.000000 0.087912
O O14 0.000000 0.116798 0.000000
O O15 0.500000 0.175022 0.500000
O O16 0.751720 0.173012 0.384831
O O17 0.189495 0.000000 0.655810
#
# Coordination Sequence:
#
# PCOD9206240 Si02
#       7
#     8   8   8   8   8   8   8
#     4  11  19  36  58  86 126 157 195 257 310 360
#     4   9  18  35  59  79 110 161 202 240 306 378
#     4  10  23  36  63  98 126 161 207 254 296 362
#     4  10  22  40  62  86 115 155 200 252 314 374
#     4  10  22  44  69  93 129 171 208 250 299 349
#     4  11  22  40  64  86 118 156 206 266 310 374
#     4  10  21  36  57  82 116 162 204 250 317 377
#
# _framework density 20.696393
#
# number of rings (size 3 to 8) (size 9 to 14) (size 15 to 20)
#    0.000    1.857    2.857    2.143    0.000    4.857 
#    0.000    3.571    0.000    7.714    0.000    0.000 
#    0.000    0.000    0.000    0.000    0.000    0.000 
#
# Total GULP energy -156361.439710 kJ/mol
# GULP energy per Si atom -5584.337132 kJ/mol
# Density = 2.064929 g / cm^3
# Si number density = 20.696393 Si / 1000 Ang^3
#
#
#
# Elastic Constant Matrix: (Units=GPa)
#
#
# Indices 1 2 3 4 5 6 
#
# 1 58.9568 37.3367 29.6588 0.0002 1.6645 -0.0002
# 2 37.3367 132.5682 37.0428 0.0003 -7.9759 -0.0001
# 3 29.6588 37.0428 85.1409 0.0001 10.2960 -0.0002
# 4 0.0002 0.0003 0.0001 6.4703 -0.0002 -4.4766
# 5 1.6645 -7.9759 10.2960 -0.0002 21.0682 0.0001
# 6 -0.0002 -0.0001 -0.0002 -4.4766 0.0001 23.3306
#
#
#
# Elastic Compliance Matrix: (Units=1/GPa)
#
#
# Indices 1 2 3 4 5 6 
#
# 1 0.023003 -0.004918 -0.005769 0.000000 -0.000860 0.000000
# 2 -0.004918 0.010257 -0.003471 0.000000 0.005968 0.000000
# 3 -0.005769 -0.003471 0.016334 0.000000 -0.008841 0.000000
# 4 0.000000 0.000000 0.000000 0.178210 0.000002 0.034194
# 5 -0.000860 0.005968 -0.008841 0.000002 0.054113 0.000000
# 6 0.000000 0.000000 0.000000 0.034194 0.000000 0.049423
#
#
# Mechanical properties :
#
#
# Convention : Reuss Voigt Hill
#
# Bulk Modulus (GPa) = 46.99870 53.86029 50.42949
# Shear Modulus (GPa) = 13.63325 21.68230 17.65778
#
# Velocity S-wave (km/s) = 2.56935 3.24023 2.92410
# Velocity P-wave (km/s) = 5.61783 6.33082 5.98495
#
# Compressibility (1/GPa) = 0.02127719
#
# Stress axis : x y z
#
# Youngs Moduli (GPa) = 43.47302 97.48982 61.22069
#
# Poissons Ratio (x) = 0.47947 0.35320
# Poissons Ratio (y) = 0.21381 0.21251
# Poissons Ratio (z) = 0.25081 0.33841
#
# Static dielectric constant tensor:
#      x y z
#    x 1.766420 0.000000 0.008340 
#    y 0.000000 1.734650 0.000000 
#    z 0.008340 0.000000 1.769690 
# 
# From -- ./inp_files/372354.got.cif
#   From: 2010.05.17/outbox.cif.g08.bks.cpg/sg12_187_cif.got.tgz:372354.got - 2010.06.03 13:09:07.
