data_PCOD9206338
_publ_section_title
;
Structure prediction by ZEFSAII (Michael W. Deem and Ramdas Pophale) SiO2 
 PCOD9206338
Probable space group: C 2/M
;
_chemical_formula_sum "Si O2"
_cell_formula_units_Z 60
_cell_length_a 9.334632
_cell_length_b 10.894062
_cell_length_c 31.045015
_cell_angle_alpha 90.000000
_cell_angle_beta 73.462480
_cell_angle_gamma 90.000000
_cell_volume 3026.436310
_symmetry_space_group_name_H-M "C 2/M"
_symmetry_group_IT_number 12
_symmetry_cell_setting 'monoclinic'
loop_
_space_group_symop_operation_xyz
x,y,z
-x,y,-z
-x,-y,-z
x,-y,z
1/2+x,1/2+y,z
1/2-x,1/2+y,-z
1/2-x,1/2-y,-z
1/2+x,1/2-y,z
loop_
_atom_site_type_symbol
_atom_site_label
_atom_site_fract_x
_atom_site_fract_y
_atom_site_fract_z
Si Si1 0.332857 0.500000 0.111427
Si Si2 0.984487 0.639692 0.625954
Si Si3 0.761268 0.141559 0.664951
Si Si4 0.382406 0.202647 0.825085
Si Si5 0.618281 0.856359 0.954350
Si Si6 0.359276 0.861812 0.479953
Si Si7 0.211507 0.362488 0.770629
Si Si8 0.054973 0.785895 0.090921
O O1 0.223483 0.606384 0.141779
O O2 0.449142 0.393833 0.084218
O O3 0.919481 0.500000 0.632752
O O4 0.101518 0.650931 0.655101
O O5 0.078271 0.649102 0.573799
O O6 0.867133 0.750420 0.638475
O O7 0.743941 0.158827 0.717599
O O8 0.814855 0.000000 0.652663
O O9 0.294443 0.267531 0.794294
O O10 0.534942 0.146865 0.794018
O O11 0.429332 0.296779 0.859011
O O12 0.778093 0.791698 0.941633
O O13 0.532685 0.835594 0.916378
O O14 0.645193 0.000000 0.959014
O O15 0.500000 0.811650 0.000000
O O16 0.500000 0.855620 0.500000
O O17 0.250000 0.750000 0.500000
O O18 0.292471 0.000000 0.490290
O O19 0.262912 0.500000 0.777179
#
# Coordination Sequence:
#
# PCOD9206338 Si02
#       8
#     4   8   8   8   8   8   8   8
#     4  12  24  40  62  92 121 152 195 238 292 350
#     4  10  21  39  60  85 121 161 202 252 307 362
#     4  10  22  40  59  86 117 158 203 247 297 362
#     4  12  24  40  63  90 118 157 192 240 296 344
#     4  11  25  43  65  90 121 157 195 239 287 344
#     4  10  21  36  57  88 121 156 203 255 307 364
#     4  11  24  40  61  87 120 153 196 244 292 348
#     4  12  24  42  63  90 122 153 196 238 289 348
#
# _framework density 19.825296999999999
#
# number of rings (size 3 to 8) (size 9 to 14) (size 15 to 20)
#    0.000    1.067    4.000    2.000    1.867    2.400 
#    1.200    0.333    0.000    0.000    0.000    0.000 
#    0.000    0.000    0.000    0.000    0.000    0.000 
#
# Total GULP energy -167001.810518 kJ/mol
# GULP energy per Si atom -5566.727017 kJ/mol
# Density = 1.978017 g / cm^3
# Si number density = 19.825297 Si / 1000 Ang^3
#
#
#
# Elastic Constant Matrix: (Units=GPa)
#
#
# Indices 1 2 3 4 5 6 
#
# 1 46.7770 16.8442 1.6032 0.0000 -1.4840 0.0000
# 2 16.8442 80.6728 4.9830 0.0000 -19.3892 0.0000
# 3 1.6032 4.9830 40.5226 0.0000 -2.3940 0.0000
# 4 0.0000 0.0000 0.0000 30.3332 0.0000 -16.2539
# 5 -1.4840 -19.3892 -2.3940 0.0000 33.0712 0.0000
# 6 0.0000 0.0000 0.0000 -16.2539 0.0000 21.2141
#
#
#
# Elastic Compliance Matrix: (Units=1/GPa)
#
#
# Indices 1 2 3 4 5 6 
#
# 1 0.023246 -0.005338 -0.000388 0.000000 -0.002115 0.000000
# 2 -0.005338 0.015721 -0.001197 0.000000 0.008891 0.000000
# 3 -0.000388 -0.001197 0.024904 0.000000 0.001084 0.000000
# 4 0.000000 0.000000 0.000000 0.055929 0.000000 0.042852
# 5 -0.002115 0.008891 0.001084 0.000000 0.035434 0.000000
# 6 0.000000 0.000000 0.000000 0.042852 0.000000 0.079971
#
#
# Mechanical properties :
#
#
# Convention : Reuss Voigt Hill
#
# Bulk Modulus (GPa) = 19.98971 23.87036 21.93004
# Shear Modulus (GPa) = 18.81625 26.55983 22.68804
#
# Velocity S-wave (km/s) = 3.08409 3.66415 3.38657
# Velocity P-wave (km/s) = 4.77357 5.47429 5.13590
#
# Compressibility (1/GPa) = 0.05002573
#
# Stress axis : x y z
#
# Youngs Moduli (GPa) = 43.01726 63.60877 40.15396
#
# Poissons Ratio (x) = 0.33955 0.01559
# Poissons Ratio (y) = 0.22963 0.04805
# Poissons Ratio (z) = 0.01670 0.07612
#
# Static dielectric constant tensor:
#      x y z
#    x 1.681260 0.000000 0.020610 
#    y 0.000000 1.727820 0.000000 
#    z 0.020610 0.000000 1.701010 
# 
# From -- ./inp_files/372141.got.cif
#   From: 2010.05.17/outbox.cif.g08.bks.cpg/sg12_187_cif.got.tgz:372141.got - 2010.06.03 13:09:07.
