data_PCOD9206512
_publ_section_title
;
Structure prediction by ZEFSAII (Michael W. Deem and Ramdas Pophale) SiO2 
 PCOD9206512
Probable space group: C 2/M
;
_chemical_formula_sum "Si O2"
_cell_formula_units_Z 48
_cell_length_a 16.954914
_cell_length_b 16.895299
_cell_length_c 8.977737
_cell_angle_alpha 90.000000
_cell_angle_beta 83.761708
_cell_angle_gamma 90.000000
_cell_volume 2556.519212
_symmetry_space_group_name_H-M "C 2/M"
_symmetry_group_IT_number 12
_symmetry_cell_setting 'monoclinic'
loop_
_space_group_symop_operation_xyz
x,y,z
-x,y,-z
-x,-y,-z
x,-y,z
1/2+x,1/2+y,z
1/2-x,1/2+y,-z
1/2-x,1/2-y,-z
1/2+x,1/2-y,z
loop_
_atom_site_type_symbol
_atom_site_label
_atom_site_fract_x
_atom_site_fract_y
_atom_site_fract_z
Si Si1 0.404120 0.180265 0.322824
Si Si2 0.197253 0.218583 0.873539
Si Si3 0.967283 0.591461 0.848343
Si Si4 0.844790 0.681465 0.660540
Si Si5 0.086754 0.912097 0.051702
Si Si6 0.537437 0.680129 0.346728
O O1 0.348252 0.210460 0.201357
O O2 0.456673 0.104781 0.271143
O O3 0.359364 0.159264 0.485434
O O4 0.469306 0.252713 0.324676
O O5 0.255581 0.182402 0.736715
O O6 0.250000 0.250000 0.000000
O O7 0.138296 0.152951 0.953156
O O8 0.946759 0.500000 0.875201
O O9 0.896031 0.634378 0.775076
O O10 0.000000 0.625128 0.000000
O O11 0.883016 0.768807 0.648707
O O12 0.064328 0.881483 0.219280
O O13 0.123367 0.000000 0.042103
O O14 0.000000 0.916204 0.000000
O O15 0.500000 0.640907 0.500000
#
# Coordination Sequence:
#
# PCOD9206512 Si02
#       6
#     8   8   8   8   8   8
#     4  10  21  36  59  85 117 152 201 235 282 359
#     4  12  22  36  61  85 117 153 192 247 294 337
#     4  10  21  37  60  89 120 152 191 240 292 348
#     4  10  21  36  59  89 114 154 192 238 293 347
#     4  11  23  39  59  84 114 154 196 237 288 347
#     4   9  18  36  60  85 113 150 194 237 281 343
#
# _framework density 18.775528999999999
#
# number of rings (size 3 to 8) (size 9 to 14) (size 15 to 20)
#    0.000    1.667    3.333    3.000    2.333    2.333 
#    0.000    0.833    0.000    0.000    0.000    0.000 
#    0.000    0.000    0.000    0.000    0.000    0.000 
#
# Total GULP energy -133621.346724 kJ/mol
# GULP energy per Si atom -5567.556114 kJ/mol
# Density = 1.873279 g / cm^3
# Si number density = 18.775529 Si / 1000 Ang^3
#
#
#
# Elastic Constant Matrix: (Units=GPa)
#
#
# Indices 1 2 3 4 5 6 
#
# 1 66.0958 9.0451 15.2389 0.0000 -18.1261 0.0000
# 2 9.0451 36.7864 9.2676 0.0000 -8.8871 0.0000
# 3 15.2389 9.2676 74.4793 0.0000 -21.4499 0.0000
# 4 0.0000 0.0000 0.0000 32.5825 0.0000 -7.7224
# 5 -18.1261 -8.8871 -21.4499 0.0000 31.5744 0.0000
# 6 0.0000 0.0000 0.0000 -7.7224 0.0000 22.0953
#
#
#
# Elastic Compliance Matrix: (Units=1/GPa)
#
#
# Indices 1 2 3 4 5 6 
#
# 1 0.018140 -0.002013 -0.000777 0.000000 0.009319 0.000000
# 2 -0.002013 0.029540 -0.001494 0.000000 0.006143 0.000000
# 3 -0.000777 -0.001494 0.016811 0.000000 0.010554 0.000000
# 4 0.000000 0.000000 0.000000 0.033463 0.000000 0.011696
# 5 0.009319 0.006143 0.010554 0.000000 0.045920 0.000000
# 6 0.000000 0.000000 0.000000 0.011696 0.000000 0.049346
#
#
# Mechanical properties :
#
#
# Convention : Reuss Voigt Hill
#
# Bulk Modulus (GPa) = 17.88238 27.16274 22.52256
# Shear Modulus (GPa) = 22.68297 26.83775 24.76036
#
# Velocity S-wave (km/s) = 3.47956 3.78484 3.63541
# Velocity P-wave (km/s) = 5.06835 5.79643 5.44457
#
# Compressibility (1/GPa) = 0.05592096
#
# Stress axis : x y z
#
# Youngs Moduli (GPa) = 55.12706 33.85284 59.48506
#
# Poissons Ratio (x) = 0.06815 0.04623
# Poissons Ratio (y) = 0.11098 0.08890
# Poissons Ratio (z) = 0.04284 0.05059
#
# Static dielectric constant tensor:
#      x y z
#    x 1.651750 0.000000 0.002720 
#    y 0.000000 1.651760 0.000000 
#    z 0.002720 0.000000 1.642920 
# 
# From -- ./inp_files/61695.got.cif
#   From: 2010.05.17/outbox.cif.g08.bks.cpg/sg12_31_cif.got.tgz:61695.got - 2010.06.03 13:09:07.
