data_PCOD9206607
_publ_section_title
;
Structure prediction by ZEFSAII (Michael W. Deem and Ramdas Pophale) SiO2 
 PCOD9206607
Probable space group: C 2/M
;
_chemical_formula_sum "Si O2"
_cell_formula_units_Z 48
_cell_length_a 32.322122
_cell_length_b 16.919426
_cell_length_c 15.985867
_cell_angle_alpha 90.000000
_cell_angle_beta 17.058950
_cell_angle_gamma 90.000000
_cell_volume 2564.577741
_symmetry_space_group_name_H-M "C 2/M"
_symmetry_group_IT_number 12
_symmetry_cell_setting 'monoclinic'
loop_
_space_group_symop_operation_xyz
x,y,z
-x,y,-z
-x,-y,-z
x,-y,z
1/2+x,1/2+y,z
1/2-x,1/2+y,-z
1/2-x,1/2-y,-z
1/2+x,1/2-y,z
loop_
_atom_site_type_symbol
_atom_site_label
_atom_site_fract_x
_atom_site_fract_y
_atom_site_fract_z
Si Si1 0.920424 0.205112 0.438154
Si Si2 0.896544 0.369362 0.393951
Si Si3 0.211806 0.588316 0.751979
Si Si4 0.352356 0.797888 0.740586
Si Si5 0.812929 0.090556 0.053201
Si Si6 0.666733 0.831648 0.664318
O O1 0.929273 0.278124 0.356188
O O2 0.796125 0.148916 0.646541
O O3 0.885772 0.244224 0.594522
O O4 0.060407 0.151955 0.173854
O O5 0.795404 0.403889 0.659985
O O6 0.823028 0.372544 0.445712
O O7 0.047960 0.409967 0.094469
O O8 0.268741 0.500000 0.649971
O O9 0.217960 0.617268 0.643956
O O10 0.500000 0.816041 0.500000
O O11 0.271762 0.875106 0.862607
O O12 0.250000 0.750000 0.000000
O O13 0.859538 0.000000 0.951926
O O14 0.750000 0.750000 0.500000
O O15 0.500000 0.816400 0.000000
#
# Coordination Sequence:
#
# PCOD9206607 Si02
#       6
#     8   8   8   8   8   8
#     4  11  22  40  65  87 123 161 197 242 298 368
#     4  10  21  38  63  85 120 167 208 242 292 357
#     4  11  23  38  59  91 123 158 203 254 302 345
#     4  11  23  44  68  90 117 158 202 241 293 370
#     4  11  24  40  62  94 126 154 195 251 306 351
#     4  10  21  36  60  85 119 162 210 246 287 352
#
# _framework density 18.716531
#
# number of rings (size 3 to 8) (size 9 to 14) (size 15 to 20)
#    0.000    1.333    3.333    3.000    4.667    4.000 
#    0.000    2.500    0.000    2.500    0.000    0.000 
#    0.000    0.000    0.000    0.000    0.000    0.000 
#
# Total GULP energy -134087.089915 kJ/mol
# GULP energy per Si atom -5586.962080 kJ/mol
# Density = 1.867393 g / cm^3
# Si number density = 18.716531 Si / 1000 Ang^3
#
#
#
# Elastic Constant Matrix: (Units=GPa)
#
#
# Indices 1 2 3 4 5 6 
#
# 1 90.5016 12.9047 15.0687 -0.0002 -2.8328 0.0000
# 2 12.9047 105.4197 6.2254 -0.0004 -2.2583 0.0000
# 3 15.0687 6.2254 36.4512 -0.0005 2.5051 -0.0001
# 4 -0.0002 -0.0004 -0.0005 16.2230 -0.0002 0.0848
# 5 -2.8328 -2.2583 2.5051 -0.0002 36.6093 0.0000
# 6 0.0000 0.0000 -0.0001 0.0848 0.0000 6.6566
#
#
#
# Elastic Compliance Matrix: (Units=1/GPa)
#
#
# Indices 1 2 3 4 5 6 
#
# 1 0.012064 -0.001164 -0.004870 0.000000 0.001195 0.000000
# 2 -0.001164 0.009713 -0.001219 0.000000 0.000593 0.000000
# 3 -0.004870 -0.001219 0.029827 0.000001 -0.002493 0.000000
# 4 0.000000 0.000000 0.000001 0.061645 0.000000 -0.000785
# 5 0.001195 0.000593 -0.002493 0.000000 0.027615 0.000000
# 6 0.000000 0.000000 0.000000 -0.000785 0.000000 0.150237
#
#
# Mechanical properties :
#
#
# Convention : Reuss Voigt Hill
#
# Bulk Modulus (GPa) = 26.95537 33.41890 30.18714
# Shear Modulus (GPa) = 15.72467 25.10936 20.41702
#
# Velocity S-wave (km/s) = 2.90168 3.66671 3.30639
# Velocity P-wave (km/s) = 5.06552 5.98501 5.54436
#
# Compressibility (1/GPa) = 0.03709835
#
# Stress axis : x y z
#
# Youngs Moduli (GPa) = 82.89273 102.95501 33.52688
#
# Poissons Ratio (x) = 0.11979 0.16329
# Poissons Ratio (y) = 0.09645 0.04086
# Poissons Ratio (z) = 0.40373 0.12546
#
# Static dielectric constant tensor:
#      x y z
#    x 1.643730 0.000000 -0.001170 
#    y 0.000000 1.630270 0.000000 
#    z -0.001170 0.000000 1.632730 
# 
# From -- ./inp_files/251388.got.cif
#   From: 2010.05.17/outbox.cif.g08.bks.cpg/sg12_126_cif.got.tgz:251388.got - 2010.06.03 13:09:07.
