data_PCOD9206515
_publ_section_title
;
Structure prediction by ZEFSAII (Michael W. Deem and Ramdas Pophale) SiO2 
 PCOD9206515
Probable space group: C 2/M
;
_chemical_formula_sum "Si O2"
_cell_formula_units_Z 64
_cell_length_a 16.610152
_cell_length_b 14.592878
_cell_length_c 23.094488
_cell_angle_alpha 90.000000
_cell_angle_beta 148.190323
_cell_angle_gamma 90.000000
_cell_volume 2950.634132
_symmetry_space_group_name_H-M "C 2/M"
_symmetry_group_IT_number 12
_symmetry_cell_setting 'monoclinic'
loop_
_space_group_symop_operation_xyz
x,y,z
-x,y,-z
-x,-y,-z
x,-y,z
1/2+x,1/2+y,z
1/2-x,1/2+y,-z
1/2-x,1/2-y,-z
1/2+x,1/2-y,z
loop_
_atom_site_type_symbol
_atom_site_label
_atom_site_fract_x
_atom_site_fract_y
_atom_site_fract_z
Si Si1 0.304510 0.101336 0.585806
Si Si2 0.335011 0.105356 0.832728
Si Si3 0.983186 0.860396 0.422646
Si Si4 0.161798 0.107323 0.836191
Si Si5 0.384701 0.891845 0.075315
Si Si6 0.040935 0.250938 0.242675
Si Si7 0.036590 0.354719 0.438325
Si Si8 0.243086 0.900103 0.319816
O O1 0.343574 0.178252 0.656988
O O2 0.388841 0.126519 0.577966
O O3 0.121786 0.099874 0.469840
O O4 0.355129 0.000000 0.635464
O O5 0.181574 0.111873 0.701223
O O6 0.286317 0.141520 0.865618
O O7 0.476332 0.138852 0.881963
O O8 0.376405 0.000000 0.868987
O O9 0.000000 0.887554 0.500000
O O10 0.005164 0.751756 0.430583
O O11 0.021314 0.176511 0.749628
O O12 0.127004 0.000000 0.802702
O O13 0.233438 0.112592 0.944116
O O14 0.403977 0.816851 0.137203
O O15 0.405507 0.000000 0.104380
O O16 0.129236 0.186092 0.250878
O O17 0.154475 0.389679 0.559263
O O18 0.869638 0.397550 0.346701
O O19 0.165748 0.000000 0.273263
#
# Coordination Sequence:
#
# PCOD9206515 Si02
#       8
#     8   8   8   8   8   8   8   8
#     4  12  25  38  57  85 125 164 197 237 286 350
#     4  10  21  36  59  86 115 153 196 238 288 348
#     4  12  22  38  58  88 125 161 195 239 287 347
#     4  10  22  40  62  89 114 146 196 253 299 342
#     4  10  21  40  63  85 116 151 191 243 302 357
#     4  12  23  38  58  89 118 156 192 237 300 356
#     4  11  21  40  56  80 114 161 203 242 281 332
#     4  11  22  38  59  81 113 155 202 248 289 337
#
# _framework density 21.690252000000001
#
# number of rings (size 3 to 8) (size 9 to 14) (size 15 to 20)
#    0.000    1.000    2.500    6.000    1.750    3.500 
#    0.000    0.000    0.000    0.000    0.000    0.000 
#    0.000   14.000    0.000    0.000    0.000    0.000 
#
# Total GULP energy -178797.013393 kJ/mol
# GULP energy per Si atom -5587.406669 kJ/mol
# Density = 2.164088 g / cm^3
# Si number density = 21.690252 Si / 1000 Ang^3
#
#
#
# Elastic Constant Matrix: (Units=GPa)
#
#
# Indices 1 2 3 4 5 6 
#
# 1 69.2798 24.3002 -14.6115 0.0000 5.7208 0.0001
# 2 24.3002 132.7193 16.4905 -0.0015 4.1163 -0.0002
# 3 -14.6115 16.4905 42.9046 -0.0026 -9.1749 -0.0003
# 4 0.0000 -0.0015 -0.0026 17.3115 -0.0007 3.1789
# 5 5.7208 4.1163 -9.1749 -0.0007 22.3869 0.0000
# 6 0.0001 -0.0002 -0.0003 3.1789 0.0000 18.1980
#
#
#
# Elastic Compliance Matrix: (Units=1/GPa)
#
#
# Indices 1 2 3 4 5 6 
#
# 1 0.017485 -0.004097 0.007382 0.000001 -0.000689 0.000000
# 2 -0.004097 0.009056 -0.005489 0.000000 -0.002868 0.000000
# 3 0.007382 -0.005489 0.030409 0.000005 0.011586 0.000000
# 4 0.000001 0.000000 0.000005 0.059679 0.000004 -0.010425
# 5 -0.000689 -0.002868 0.011586 0.000004 0.050121 -0.000001
# 6 0.000000 0.000000 0.000000 -0.010425 -0.000001 0.056772
#
#
# Mechanical properties :
#
#
# Convention : Reuss Voigt Hill
#
# Bulk Modulus (GPa) = 19.03274 33.02912 26.03093
# Shear Modulus (GPa) = 20.37117 26.16091 23.26604
#
# Velocity S-wave (km/s) = 3.06794 3.47668 3.27869
# Velocity P-wave (km/s) = 4.61990 5.60153 5.13423
#
# Compressibility (1/GPa) = 0.05254106
#
# Stress axis : x y z
#
# Youngs Moduli (GPa) = 57.19114 110.42536 32.88512
#
# Poissons Ratio (x) = 0.45245 -0.24276
# Poissons Ratio (y) = 0.23433 0.18052
# Poissons Ratio (z) = -0.42219 0.60616
#
# Static dielectric constant tensor:
#      x y z
#    x 1.824710 0.000000 0.005690 
#    y 0.000000 1.810180 0.000000 
#    z 0.005690 0.000000 1.799370 
# 
# From -- ./inp_files/344103.got.cif
#   From: 2010.05.17/outbox.cif.g08.bks.cpg/sg12_173_cif.got.tgz:344103.got - 2010.06.03 13:09:07.
