data_PCOD9206535
_publ_section_title
;
Structure prediction by ZEFSAII (Michael W. Deem and Ramdas Pophale) SiO2 
 PCOD9206535
Probable space group: C 2/M
;
_chemical_formula_sum "Si O2"
_cell_formula_units_Z 56
_cell_length_a 32.431978
_cell_length_b 8.151148
_cell_length_c 12.248634
_cell_angle_alpha 90.000000
_cell_angle_beta 120.650493
_cell_angle_gamma 90.000000
_cell_volume 2785.648453
_symmetry_space_group_name_H-M "C 2/M"
_symmetry_group_IT_number 12
_symmetry_cell_setting 'monoclinic'
loop_
_space_group_symop_operation_xyz
x,y,z
-x,y,-z
-x,-y,-z
x,-y,z
1/2+x,1/2+y,z
1/2-x,1/2+y,-z
1/2-x,1/2-y,-z
1/2+x,1/2-y,z
loop_
_atom_site_type_symbol
_atom_site_label
_atom_site_fract_x
_atom_site_fract_y
_atom_site_fract_z
Si Si1 0.538356 0.298805 0.461845
Si Si2 0.009160 0.799932 0.183489
Si Si3 0.804825 0.306176 0.085895
Si Si4 0.647936 0.305930 0.625391
Si Si5 0.077129 0.800109 0.082724
Si Si6 0.264558 0.804797 0.397714
Si Si7 0.677407 0.300996 0.129906
O O1 0.500000 0.245271 0.500000
O O2 0.539179 0.500000 0.465733
O O3 0.519027 0.245728 0.318290
O O4 0.593241 0.242564 0.550228
O O5 0.958761 0.749157 0.062746
O O6 0.009026 0.000000 0.182953
O O7 0.051663 0.747384 0.159727
O O8 0.805968 0.500000 0.102853
O O9 0.829055 0.229002 0.225183
O O10 0.750000 0.250000 0.000000
O O11 0.827716 0.258498 0.000928
O O12 0.645537 0.500000 0.606088
O O13 0.683193 0.241487 0.578002
O O14 0.077660 0.000000 0.084429
O O15 0.131035 0.746710 0.135450
O O16 0.250000 0.750000 0.500000
O O17 0.225426 0.742407 0.255998
O O18 0.261399 0.000000 0.393059
O O19 0.678805 0.500000 0.128422
#
# Coordination Sequence:
#
# PCOD9206535 Si02
#       7
#     8   8   8   8   8   8   8
#     4   9  19  32  51  83 119 153 194 244 296 352
#     4   8  14  27  47  76 113 146 184 234 288 341
#     4  12  24  40  61  84 115 152 195 243 294 356
#     4  11  23  39  62  89 121 158 198 251 307 356
#     4   8  15  27  49  80 111 143 181 236 295 339
#     4  11  24  40  60  87 124 162 204 246 293 359
#     4  10  21  36  59  88 116 150 192 243 297 353
#
# _framework density 20.10304
#
# number of rings (size 3 to 8) (size 9 to 14) (size 15 to 20)
#    0.000    2.143    1.429    3.000    4.000    0.571 
#    0.000    0.000    0.000    1.714    0.000    2.000 
#    0.000    0.000    0.000    0.000    0.000    0.000 
#
# Total GULP energy -156296.961041 kJ/mol
# GULP energy per Si atom -5582.034323 kJ/mol
# Density = 2.005728 g / cm^3
# Si number density = 20.103040 Si / 1000 Ang^3
#
#
#
# Elastic Constant Matrix: (Units=GPa)
#
#
# Indices 1 2 3 4 5 6 
#
# 1 166.1663 14.2969 79.1502 0.0000 3.5869 0.0000
# 2 14.2969 20.5413 1.3381 0.0000 0.2909 0.0000
# 3 79.1502 1.3381 117.9247 0.0000 -19.8209 0.0000
# 4 0.0000 0.0000 0.0000 17.7188 0.0000 -4.6796
# 5 3.5869 0.2909 -19.8209 0.0000 26.8534 0.0000
# 6 0.0000 0.0000 0.0000 -4.6796 0.0000 19.4556
#
#
#
# Elastic Compliance Matrix: (Units=1/GPa)
#
#
# Indices 1 2 3 4 5 6 
#
# 1 0.010795 -0.006855 -0.008445 0.000000 -0.007601 0.000000
# 2 -0.006855 0.053099 0.004630 0.000000 0.003758 0.000000
# 3 -0.008445 0.004630 0.016299 0.000000 0.013108 0.000000
# 4 0.000000 0.000000 0.000000 0.060265 0.000000 0.014496
# 5 -0.007601 0.003758 0.013108 0.000000 0.047889 0.000000
# 6 0.000000 0.000000 0.000000 0.014496 0.000000 0.054886
#
#
# Mechanical properties :
#
#
# Convention : Reuss Voigt Hill
#
# Bulk Modulus (GPa) = 16.99163 54.91142 35.95153
# Shear Modulus (GPa) = 17.59383 26.79538 22.19461
#
# Velocity S-wave (km/s) = 2.96156 3.65485 3.32632
# Velocity P-wave (km/s) = 4.49055 6.72197 5.71620
#
# Compressibility (1/GPa) = 0.05885249
#
# Stress axis : x y z
#
# Youngs Moduli (GPa) = 92.63870 18.83278 61.35354
#
# Poissons Ratio (x) = 0.12911 0.51813
# Poissons Ratio (y) = 0.63507 -0.28409
# Poissons Ratio (z) = 0.78234 -0.08720
#
# Static dielectric constant tensor:
#      x y z
#    x 1.715780 0.000000 0.005290 
#    y 0.000000 1.727330 0.000000 
#    z 0.005290 0.000000 1.691850 
# 
# From -- ./inp_files/187735.got.cif
#   From: 2010.05.17/outbox.cif.g08.bks.cpg/sg12_94_cif.got.tgz:187735.got - 2010.06.03 13:09:07.
