data_PCOD9206194
_publ_section_title
;
Structure prediction by ZEFSAII (Michael W. Deem and Ramdas Pophale) SiO2 
 PCOD9206194
Probable space group: C 2/M
;
_chemical_formula_sum "Si O2"
_cell_formula_units_Z 32
_cell_length_a 14.702606
_cell_length_b 10.086991
_cell_length_c 9.887190
_cell_angle_alpha 90.000000
_cell_angle_beta 80.092994
_cell_angle_gamma 90.000000
_cell_volume 1444.454917
_symmetry_space_group_name_H-M "C 2/M"
_symmetry_group_IT_number 12
_symmetry_cell_setting 'monoclinic'
loop_
_space_group_symop_operation_xyz
x,y,z
-x,y,-z
-x,-y,-z
x,-y,z
1/2+x,1/2+y,z
1/2-x,1/2+y,-z
1/2-x,1/2-y,-z
1/2+x,1/2-y,z
loop_
_atom_site_type_symbol
_atom_site_label
_atom_site_fract_x
_atom_site_fract_y
_atom_site_fract_z
Si Si1 0.741972 0.150123 0.319316
Si Si2 0.889014 0.651901 0.173707
Si Si3 0.097359 0.852628 0.402366
Si Si4 0.902701 0.289820 0.856678
O O1 0.830116 0.242411 0.272226
O O2 0.668191 0.236510 0.423206
O O3 0.684953 0.142476 0.191630
O O4 0.759267 0.000000 0.358253
O O5 0.852829 0.500000 0.186410
O O6 0.996167 0.646930 0.189563
O O7 0.887877 0.707399 0.020072
O O8 0.000000 0.831707 0.500000
O O9 0.089863 0.840059 0.240430
O O10 0.129528 0.000000 0.425852
#
# Coordination Sequence:
#
# PCOD9206194 Si02
#       4
#     8   8   8   8
#     4  10  21  36  56  86 115 144 187 232 276 328
#     4  11  20  36  59  84 117 151 183 221 281 341
#     4   9  20  39  60  80 108 149 190 230 279 330
#     4   9  21  35  59  83 113 147 185 227 275 329
#
# _framework density 22.153686
#
# number of rings (size 3 to 8) (size 9 to 14) (size 15 to 20)
#    1.500    0.750    0.000    4.500    0.000    2.500 
#    0.000    3.750    0.000    0.000    0.000    0.000 
#    0.000    0.000    0.000    0.000    0.000    0.000 
#
# Total GULP energy -89077.195007 kJ/mol
# GULP energy per Si atom -5567.324688 kJ/mol
# Density = 2.210326 g / cm^3
# Si number density = 22.153686 Si / 1000 Ang^3
#
#
#
# Elastic Constant Matrix: (Units=GPa)
#
#
# Indices 1 2 3 4 5 6 
#
# 1 87.3040 37.0700 30.3390 0.0000 2.8766 0.0000
# 2 37.0700 190.8122 83.9275 0.0000 -32.1816 0.0000
# 3 30.3390 83.9275 73.6408 0.0000 -12.4288 0.0000
# 4 0.0000 0.0000 0.0000 5.9002 0.0000 -4.1581
# 5 2.8766 -32.1816 -12.4288 0.0000 39.5428 0.0000
# 6 0.0000 0.0000 0.0000 -4.1581 0.0000 -128.7485
#
#
#
# Elastic Compliance Matrix: (Units=1/GPa)
#
#
# Indices 1 2 3 4 5 6 
#
# 1 0.013768 -0.001009 -0.005100 0.000000 -0.003426 0.000000
# 2 -0.001009 0.011636 -0.011864 0.000000 0.005814 0.000000
# 3 -0.005100 -0.011864 0.029183 0.000000 -0.000112 0.000000
# 4 0.000000 0.000000 0.000000 0.165714 0.000000 -0.005352
# 5 -0.003426 0.005814 -0.000112 0.000000 0.030235 0.000000
# 6 0.000000 0.000000 0.000000 -0.005352 0.000000 -0.007594
#
#
# Mechanical properties :
#
#
# Convention : Reuss Voigt Hill
#
# Bulk Modulus (GPa) = 53.64861 72.71445 63.18153
# Shear Modulus (GPa) = 17.53762 -3.29972 7.11895
#
# Velocity S-wave (km/s) = 2.81665 -1.22176 1.79455
# Velocity P-wave (km/s) = 5.90315 5.55911 5.73371
#
# Compressibility (1/GPa) = 0.01863981
#
# Stress axis : x y z
#
# Youngs Moduli (GPa) = 72.63204 85.94236 34.26660
#
# Poissons Ratio (x) = 0.08675 0.17476
# Poissons Ratio (y) = 0.07331 0.40654
# Poissons Ratio (z) = 0.37043 1.01962
#
# Static dielectric constant tensor:
#      x y z
#    x 1.851280 0.000000 0.044720 
#    y 0.000000 1.789410 0.000000 
#    z 0.044720 0.000000 1.809470 
# 
# From -- ./inp_files/151445.got.cif
#   From: 2010.05.17/outbox.cif.g08.bks.cpg/sg12_76_cif.got.tgz:151445.got - 2010.06.03 13:09:07.
