data_PCOD9206542
_publ_section_title
;
Structure prediction by ZEFSAII (Michael W. Deem and Ramdas Pophale) SiO2 
 PCOD9206542
Probable space group: C 2/M
;
_chemical_formula_sum "Si O2"
_cell_formula_units_Z 40
_cell_length_a 9.239087
_cell_length_b 23.580697
_cell_length_c 9.001914
_cell_angle_alpha 90.000000
_cell_angle_beta 109.649608
_cell_angle_gamma 90.000000
_cell_volume 1846.987111
_symmetry_space_group_name_H-M "C 2/M"
_symmetry_group_IT_number 12
_symmetry_cell_setting 'monoclinic'
loop_
_space_group_symop_operation_xyz
x,y,z
-x,y,-z
-x,-y,-z
x,-y,z
1/2+x,1/2+y,z
1/2-x,1/2+y,-z
1/2-x,1/2-y,-z
1/2+x,1/2-y,z
loop_
_atom_site_type_symbol
_atom_site_label
_atom_site_fract_x
_atom_site_fract_y
_atom_site_fract_z
Si Si1 0.186295 0.175415 0.387966
Si Si2 0.889356 0.752572 0.238040
Si Si3 0.479547 0.059880 0.167522
Si Si4 0.635005 0.566993 0.167647
Si Si5 0.356535 0.824640 0.762669
O O1 0.296721 0.208628 0.310134
O O2 0.146022 0.113333 0.304835
O O3 0.271591 0.181415 0.574181
O O4 0.028198 0.209428 0.347911
O O5 0.762529 0.800394 0.156742
O O6 0.988750 0.711998 0.167539
O O7 0.302474 0.070767 0.147664
O O8 0.590964 0.111333 0.234809
O O9 0.523719 0.000000 0.256635
O O10 0.500000 0.054051 0.000000
O O11 0.613686 0.500000 0.204509
O O12 0.500000 0.580126 0.000000
#
# Coordination Sequence:
#
# PCOD9206542 Si02
#       5
#     8   8   8   8   8
#     4  11  20  37  62  89 116 151 192 235 282 341
#     4  10  21  36  59  88 123 154 183 230 293 342
#     4  10  23  42  61  82 114 154 192 237 291 340
#     4  10  23  42  61  82 114 154 192 237 291 340
#     4  11  20  37  62  89 116 151 192 235 282 341
#
# _framework density 21.656891999999999
#
# number of rings (size 3 to 8) (size 9 to 14) (size 15 to 20)
#    0.000    1.600    2.000    4.800    2.800    0.800 
#    0.000    8.000    0.000    2.400    0.000    0.000 
#    0.000    0.000    0.000    0.000    0.000    0.000 
#
# Total GULP energy -111363.013879 kJ/mol
# GULP energy per Si atom -5568.150694 kJ/mol
# Density = 2.160760 g / cm^3
# Si number density = 21.656892 Si / 1000 Ang^3
#
#
#
# Elastic Constant Matrix: (Units=GPa)
#
#
# Indices 1 2 3 4 5 6 
#
# 1 103.7903 43.4842 18.6946 0.0000 27.4386 0.0000
# 2 43.4842 157.3057 43.0648 0.0000 26.6160 0.0000
# 3 18.6946 43.0648 77.6782 0.0000 20.8496 0.0000
# 4 0.0000 0.0000 0.0000 41.8559 0.0000 16.5819
# 5 27.4386 26.6160 20.8496 0.0000 25.2730 0.0000
# 6 0.0000 0.0000 0.0000 16.5819 0.0000 38.2487
#
#
#
# Elastic Compliance Matrix: (Units=1/GPa)
#
#
# Indices 1 2 3 4 5 6 
#
# 1 0.013956 -0.001827 0.001547 0.000000 -0.014504 0.000000
# 2 -0.001827 0.008442 -0.003065 0.000000 -0.004378 0.000000
# 3 0.001547 -0.003065 0.017706 0.000000 -0.013058 0.000000
# 4 0.000000 0.000000 0.000000 0.028846 0.000000 -0.012505
# 5 -0.014504 -0.004378 -0.013058 0.000000 0.070698 0.000000
# 6 0.000000 0.000000 0.000000 -0.012505 0.000000 0.031566
#
#
# Mechanical properties :
#
#
# Convention : Reuss Voigt Hill
#
# Bulk Modulus (GPa) = 29.92863 61.02906 45.47884
# Shear Modulus (GPa) = 26.44908 36.64423 31.54666
#
# Velocity S-wave (km/s) = 3.49847 4.11790 3.82076
# Velocity P-wave (km/s) = 5.49259 7.13096 6.36471
#
# Compressibility (1/GPa) = 0.03341282
#
# Stress axis : x y z
#
# Youngs Moduli (GPa) = 71.65338 118.45324 56.47882
#
# Poissons Ratio (x) = 0.21647 -0.08739
# Poissons Ratio (y) = 0.13094 0.17314
# Poissons Ratio (z) = -0.11088 0.36312
#
# Static dielectric constant tensor:
#      x y z
#    x 1.742050 0.000000 -0.034060 
#    y 0.000000 2.158660 0.000000 
#    z -0.034060 0.000000 1.825460 
# 
# From -- ./inp_files/120075.got.cif
#   From: 2010.05.17/outbox.cif.g08.bks.cpg/sg12_61_cif.got.tgz:120075.got - 2010.06.03 13:09:07.
