data_PCOD9206737
_publ_section_title
;
Structure prediction by ZEFSAII (Michael W. Deem and Ramdas Pophale) SiO2 
 PCOD9206737
Probable space group: C 2/M
;
_chemical_formula_sum "Si O2"
_cell_formula_units_Z 56
_cell_length_a 14.776509
_cell_length_b 21.848762
_cell_length_c 14.349107
_cell_angle_alpha 90.000000
_cell_angle_beta 33.347940
_cell_angle_gamma 90.000000
_cell_volume 2546.634585
_symmetry_space_group_name_H-M "C 2/M"
_symmetry_group_IT_number 12
_symmetry_cell_setting 'monoclinic'
loop_
_space_group_symop_operation_xyz
x,y,z
-x,y,-z
-x,-y,-z
x,-y,z
1/2+x,1/2+y,z
1/2-x,1/2+y,-z
1/2-x,1/2-y,-z
1/2+x,1/2-y,z
loop_
_atom_site_type_symbol
_atom_site_label
_atom_site_fract_x
_atom_site_fract_y
_atom_site_fract_z
Si Si1 0.651050 0.377324 0.430816
Si Si2 0.940625 0.235825 0.831959
Si Si3 0.986723 0.648532 0.115509
Si Si4 0.476504 0.390930 0.910271
Si Si5 0.118634 0.570775 0.152905
Si Si6 0.265665 0.884314 0.538716
Si Si7 0.404431 0.760745 0.495854
O O1 0.500000 0.401241 0.500000
O O2 0.660844 0.388314 0.532876
O O3 0.657502 0.303560 0.409017
O O4 0.830988 0.397065 0.243700
O O5 0.030767 0.292983 0.802407
O O6 0.962708 0.174492 0.871141
O O7 0.987633 0.236983 0.683349
O O8 0.750000 0.250000 0.000000
O O9 0.123430 0.609650 0.052627
O O10 0.000000 0.672100 0.000000
O O11 0.646969 0.416538 0.717059
O O12 0.500000 0.385147 0.000000
O O13 0.297859 0.421496 0.046039
O O14 0.091014 0.500000 0.157683
O O15 0.953976 0.593482 0.352670
O O16 0.290827 0.813424 0.549512
O O17 0.500000 0.791244 0.500000
#
# Coordination Sequence:
#
# PCOD9206737 Si02
#       7
#     8   8   8   8   8   8   8
#     4  10  21  36  61  95 134 175 211 264 326 410
#     4  12  22  40  64 103 146 179 218 273 341 417
#     4  11  24  40  68  99 137 181 216 269 348 408
#     4  12  27  43  73 106 139 177 227 284 346 412
#     4  11  27  51  70  96 134 178 239 293 336 402
#     4  11  23  44  68  92 136 179 223 277 343 395
#     4  11  22  35  64  98 138 180 216 265 335 412
#
# _framework density 21.989806000000002
#
# number of rings (size 3 to 8) (size 9 to 14) (size 15 to 20)
#    0.000    0.857    5.714    1.714   10.000    1.143 
#    0.000    0.714    0.000    1.714    0.000    0.000 
#    0.000    0.000    0.000    0.000    0.000    0.000 
#
# Total GULP energy -155986.694808 kJ/mol
# GULP energy per Si atom -5570.953386 kJ/mol
# Density = 2.193976 g / cm^3
# Si number density = 21.989806 Si / 1000 Ang^3
#
#
#
# Elastic Constant Matrix: (Units=GPa)
#
#
# Indices 1 2 3 4 5 6 
#
# 1 135.6441 -6.9077 36.8867 0.0026 8.7771 0.0048
# 2 -6.9077 62.1696 -12.2256 -0.0020 3.7608 0.0003
# 3 36.8867 -12.2256 83.9110 -0.0178 -8.8362 -0.0009
# 4 0.0026 -0.0020 -0.0178 9.3870 0.0029 -0.8865
# 5 8.7771 3.7608 -8.8362 0.0029 38.8997 -0.0016
# 6 0.0048 0.0003 -0.0009 -0.8865 -0.0016 1.1331
#
#
#
# Elastic Compliance Matrix: (Units=1/GPa)
#
#
# Indices 1 2 3 4 5 6 
#
# 1 0.008687 0.000340 -0.004077 -0.000015 -0.002919 -0.000056
# 2 0.000340 0.016617 0.002146 0.000008 -0.001196 0.000001
# 3 -0.004077 0.002146 0.014443 0.000034 0.003993 0.000061
# 4 -0.000015 0.000008 0.000034 0.115030 0.000005 0.090001
# 5 -0.002919 -0.001196 0.003993 0.000005 0.027388 0.000059
# 6 -0.000056 0.000001 0.000061 0.090001 0.000059 0.952964
#
#
# Mechanical properties :
#
#
# Convention : Reuss Voigt Hill
#
# Bulk Modulus (GPa) = 27.34856 35.24794 31.29825
# Shear Modulus (GPa) = 4.34594 27.48204 15.91399
#
# Velocity S-wave (km/s) = 1.40735 3.53903 2.69308
# Velocity P-wave (km/s) = 3.88649 5.72396 4.89226
#
# Compressibility (1/GPa) = 0.03656499
#
# Stress axis : x y z
#
# Youngs Moduli (GPa) = 115.11450 60.17894 69.24000
#
# Poissons Ratio (x) = -0.02047 0.28226
# Poissons Ratio (y) = -0.03916 -0.14856
# Poissons Ratio (z) = 0.46927 -0.12912
#
# Static dielectric constant tensor:
#      x y z
#    x 1.920980 0.000000 -0.072910 
#    y 0.000000 1.804060 0.000020 
#    z -0.072910 0.000020 1.949140 
# 
# From -- ./inp_files/218663.got.cif
#   From: 2010.05.17/outbox.cif.g08.bks.cpg/sg12_110_cif.got.tgz:218663.got - 2010.06.03 13:09:07.
