data_PCOD9206388
_publ_section_title
;
Structure prediction by ZEFSAII (Michael W. Deem and Ramdas Pophale) SiO2 
 PCOD9206388
Probable space group: C 2/M
;
_chemical_formula_sum "Si O2"
_cell_formula_units_Z 48
_cell_length_a 11.516498
_cell_length_b 13.348213
_cell_length_c 13.913775
_cell_angle_alpha 90.000000
_cell_angle_beta 103.737979
_cell_angle_gamma 90.000000
_cell_volume 2077.700890
_symmetry_space_group_name_H-M "C 2/M"
_symmetry_group_IT_number 12
_symmetry_cell_setting 'monoclinic'
loop_
_space_group_symop_operation_xyz
x,y,z
-x,y,-z
-x,-y,-z
x,-y,z
1/2+x,1/2+y,z
1/2-x,1/2+y,-z
1/2-x,1/2-y,-z
1/2+x,1/2-y,z
loop_
_atom_site_type_symbol
_atom_site_label
_atom_site_fract_x
_atom_site_fract_y
_atom_site_fract_z
Si Si1 0.502111 0.606022 0.886128
Si Si2 0.785715 0.107702 0.602024
Si Si3 0.790090 0.890755 0.215151
Si Si4 0.374979 0.831305 0.262464
Si Si5 0.585758 0.194423 0.430036
Si Si6 0.526033 0.170602 0.118659
O O1 0.449697 0.500000 0.840527
O O2 0.636269 0.609087 0.870630
O O3 0.446276 0.712538 0.850160
O O4 0.500000 0.603589 0.000000
O O5 0.721126 0.111718 0.692633
O O6 0.686835 0.126519 0.498597
O O7 0.865600 0.205223 0.607812
O O8 0.844122 0.000000 0.599259
O O9 0.840128 0.787101 0.270467
O O10 0.648706 0.883829 0.169832
O O11 0.816412 0.000000 0.266865
O O12 0.501430 0.857399 0.336742
O O13 0.406500 0.853045 0.157554
O O14 0.500000 0.225331 0.500000
O O15 0.500000 0.160664 0.000000
#
# Coordination Sequence:
#
# PCOD9206388 Si02
#       6
#     8   8   8   8   8   8
#     4   8  16  32  54  77 102 139 187 238 292 344
#     4  10  21  39  64  92 121 153 188 232 289 348
#     4  10  21  37  55  76 109 153 197 242 293 345
#     4  10  21  38  58  85 119 154 196 241 287 344
#     4   9  20  39  61  89 122 151 189 236 283 348
#     4  10  21  36  58  84 117 156 201 251 295 341
#
# _framework density 23.102459
#
# number of rings (size 3 to 8) (size 9 to 14) (size 15 to 20)
#    0.000    2.500    0.000    1.000    0.000   11.000 
#    0.000   15.833    0.000    3.000    0.000    0.000 
#    0.000    0.000    0.000    0.000    0.000    0.000 
#
# Total GULP energy -133815.665213 kJ/mol
# GULP energy per Si atom -5575.652717 kJ/mol
# Density = 2.304988 g / cm^3
# Si number density = 23.102459 Si / 1000 Ang^3
#
#
#
# Elastic Constant Matrix: (Units=GPa)
#
#
# Indices 1 2 3 4 5 6 
#
# 1 28.7971 9.7130 8.1336 0.0000 4.9004 0.0000
# 2 9.7130 91.3176 8.4356 0.0000 -14.3236 0.0000
# 3 8.1336 8.4356 76.8782 0.0000 -11.3739 0.0000
# 4 0.0000 0.0000 0.0000 -7.8900 0.0000 -8.5074
# 5 4.9004 -14.3236 -11.3739 0.0000 29.9590 0.0000
# 6 0.0000 0.0000 0.0000 -8.5074 0.0000 1.1309
#
#
#
# Elastic Compliance Matrix: (Units=1/GPa)
#
#
# Indices 1 2 3 4 5 6 
#
# 1 0.039981 -0.005519 -0.005279 0.000000 -0.011183 0.000000
# 2 -0.005519 0.012618 0.000239 0.000000 0.007026 0.000000
# 3 -0.005279 0.000239 0.014499 0.000000 0.006482 0.000000
# 4 0.000000 0.000000 0.000000 -0.013910 0.000000 -0.104644
# 5 -0.011183 0.007026 0.006482 0.000000 0.041028 0.000000
# 6 0.000000 0.000000 0.000000 -0.104644 0.000000 0.097051
#
#
# Mechanical properties :
#
#
# Convention : Reuss Voigt Hill
#
# Bulk Modulus (GPa) = 21.74854 27.72858 24.73856
# Shear Modulus (GPa) = 21.95763 16.02067 18.98915
#
# Velocity S-wave (km/s) = 3.08627 2.63622 2.87008
# Velocity P-wave (km/s) = 4.70473 4.61462 4.65989
#
# Compressibility (1/GPa) = 0.04598009
#
# Stress axis : x y z
#
# Youngs Moduli (GPa) = 25.01174 79.25284 68.97075
#
# Poissons Ratio (x) = 0.43740 0.36408
# Poissons Ratio (y) = 0.13804 -0.01648
# Poissons Ratio (z) = 0.13203 -0.01893
#
# Static dielectric constant tensor:
#      x y z
#    x 1.865640 0.000000 -0.002220 
#    y 0.000000 1.920070 0.000000 
#    z -0.002220 0.000000 1.906190 
# 
# From -- ./inp_files/204454.got.cif
#   From: 2010.05.17/outbox.cif.g08.bks.cpg/sg12_103_cif.got.tgz:204454.got - 2010.06.03 13:09:07.
