data_PCOD9206238
_publ_section_title
;
Structure prediction by ZEFSAII (Michael W. Deem and Ramdas Pophale) SiO2 
 PCOD9206238
Probable space group: C 2/M
;
_chemical_formula_sum "Si O2"
_cell_formula_units_Z 56
_cell_length_a 17.858289
_cell_length_b 14.921369
_cell_length_c 20.745277
_cell_angle_alpha 90.000000
_cell_angle_beta 30.078199
_cell_angle_gamma 90.000000
_cell_volume 2770.529615
_symmetry_space_group_name_H-M "C 2/M"
_symmetry_group_IT_number 12
_symmetry_cell_setting 'monoclinic'
loop_
_space_group_symop_operation_xyz
x,y,z
-x,y,-z
-x,-y,-z
x,-y,z
1/2+x,1/2+y,z
1/2-x,1/2+y,-z
1/2-x,1/2-y,-z
1/2+x,1/2-y,z
loop_
_atom_site_type_symbol
_atom_site_label
_atom_site_fract_x
_atom_site_fract_y
_atom_site_fract_z
Si Si1 0.115799 0.398758 0.019312
Si Si2 0.646911 0.896421 0.150968
Si Si3 0.546454 0.601611 0.262181
Si Si4 0.622859 0.766981 0.647879
Si Si5 0.900819 0.899353 0.637422
Si Si6 0.016180 0.103055 0.064867
Si Si7 0.154410 0.726825 0.772389
O O1 0.069156 0.500000 0.037437
O O2 0.139262 0.394656 0.079010
O O3 0.990808 0.327879 0.096103
O O4 0.276648 0.381109 0.869497
O O5 0.506256 0.836878 0.278044
O O6 0.631008 0.000000 0.184186
O O7 0.814119 0.865856 0.045049
O O8 0.522546 0.500000 0.258173
O O9 0.463808 0.672942 0.280784
O O10 0.502344 0.610501 0.369907
O O11 0.750000 0.750000 0.500000
O O12 0.677968 0.792462 0.678440
O O13 0.789101 0.816752 0.711502
O O14 0.000000 0.900959 0.500000
O O15 0.829200 0.000000 0.695985
O O16 0.889890 0.170122 0.184897
O O17 0.002186 0.000000 0.098855
O O18 0.000000 0.102274 0.000000
#
# Coordination Sequence:
#
# PCOD9206238 Si02
#       7
#     8   8   8   8   8   8   8
#     4   9  18  33  56  87 114 137 176 232 292 343
#     4   9  19  37  58  80 113 151 186 233 290 341
#     4  10  21  36  57  82 112 147 184 235 289 339
#     4  11  23  37  56  85 115 150 196 234 279 343
#     4  10  22  39  57  81 118 159 192 228 284 352
#     4  10  22  38  57  83 112 150 194 241 297 348
#     4  11  22  35  58  86 112 152 188 240 286 346
#
# _framework density 20.212741999999999
#
# number of rings (size 3 to 8) (size 9 to 14) (size 15 to 20)
#    0.000    2.000    0.000    3.000    4.000    5.143 
#    0.000    2.143    0.000    0.429    0.000    0.000 
#    0.000    0.000    0.000    0.000    0.000    0.000 
#
# Total GULP energy -156302.965003 kJ/mol
# GULP energy per Si atom -5582.248750 kJ/mol
# Density = 2.016674 g / cm^3
# Si number density = 20.212742 Si / 1000 Ang^3
#
#
#
# Elastic Constant Matrix: (Units=GPa)
#
#
# Indices 1 2 3 4 5 6 
#
# 1 37.3378 11.9493 -7.4353 -0.0004 -2.7073 0.0000
# 2 11.9493 80.7104 31.0489 -0.0009 -13.2082 0.0003
# 3 -7.4353 31.0489 56.4321 0.0007 6.7287 -0.0001
# 4 -0.0004 -0.0009 0.0007 28.3284 -0.0001 1.3898
# 5 -2.7073 -13.2082 6.7287 -0.0001 23.2017 0.0000
# 6 0.0000 0.0003 -0.0001 1.3898 0.0000 20.7021
#
#
#
# Elastic Compliance Matrix: (Units=1/GPa)
#
#
# Indices 1 2 3 4 5 6 
#
# 1 0.031268 -0.009016 0.009589 0.000000 -0.004265 0.000000
# 2 -0.009016 0.022261 -0.015353 0.000001 0.016073 0.000000
# 3 0.009589 -0.015353 0.029355 -0.000001 -0.016134 0.000000
# 4 0.000000 0.000001 -0.000001 0.035417 0.000001 -0.002378
# 5 -0.004265 0.016073 -0.016134 0.000001 0.056432 0.000000
# 6 0.000000 0.000000 0.000000 -0.002378 0.000000 0.048464
#
#
# Mechanical properties :
#
#
# Convention : Reuss Voigt Hill
#
# Bulk Modulus (GPa) = 18.75301 27.28957 23.02129
# Shear Modulus (GPa) = 18.48214 23.70758 21.09486
#
# Velocity S-wave (km/s) = 3.02715 3.42848 3.23405
# Velocity P-wave (km/s) = 4.63855 5.40399 5.03584
#
# Compressibility (1/GPa) = 0.05332476
#
# Stress axis : x y z
#
# Youngs Moduli (GPa) = 31.98127 44.92095 34.06620
#
# Poissons Ratio (x) = 0.40502 -0.32666
# Poissons Ratio (y) = 0.28835 0.52301
# Poissons Ratio (z) = -0.30667 0.68965
#
# Static dielectric constant tensor:
#      x y z
#    x 1.713590 0.000000 0.016830 
#    y 0.000000 1.749550 0.000000 
#    z 0.016830 0.000000 1.724020 
# 
# From -- ./inp_files/316694.got.cif
#   From: 2010.05.17/outbox.cif.g08.bks.cpg/sg12_159_cif.got.tgz:316694.got - 2010.06.03 13:09:07.
