data_PCOD9206820
_publ_section_title
;
Structure prediction by ZEFSAII (Michael W. Deem and Ramdas Pophale) SiO2 
 PCOD9206820
Probable space group: C 2/M
;
_chemical_formula_sum "Si O2"
_cell_formula_units_Z 44
_cell_length_a 15.906977
_cell_length_b 19.018750
_cell_length_c 8.900170
_cell_angle_alpha 90.000000
_cell_angle_beta 46.881700
_cell_angle_gamma 90.000000
_cell_volume 1965.429503
_symmetry_space_group_name_H-M "C 2/M"
_symmetry_group_IT_number 12
_symmetry_cell_setting 'monoclinic'
loop_
_space_group_symop_operation_xyz
x,y,z
-x,y,-z
-x,-y,-z
x,-y,z
1/2+x,1/2+y,z
1/2-x,1/2+y,-z
1/2-x,1/2-y,-z
1/2+x,1/2-y,z
loop_
_atom_site_type_symbol
_atom_site_label
_atom_site_fract_x
_atom_site_fract_y
_atom_site_fract_z
Si Si1 0.631502 0.320162 0.527215
Si Si2 0.456732 0.418973 0.883772
Si Si3 0.000000 0.321986 0.000000
Si Si4 0.297914 0.193202 0.056120
Si Si5 0.320291 0.919499 0.791796
Si Si6 0.144480 0.656194 0.556380
O O1 0.519656 0.365988 0.694414
O O2 0.697109 0.332292 0.290023
O O3 0.724373 0.339662 0.543596
O O4 0.609453 0.236718 0.562858
O O5 0.489319 0.500000 0.808834
O O6 0.500000 0.404406 0.000000
O O7 0.319104 0.414373 0.046719
O O8 0.100155 0.278266 0.960870
O O9 0.069179 0.365838 0.791657
O O10 0.250000 0.250000 0.000000
O O11 0.350464 0.130849 0.892740
O O12 0.366419 0.890016 0.577889
O O13 0.353365 0.000000 0.774007
#
# Coordination Sequence:
#
# PCOD9206820 Si02
#       6
#     8   8   4   8   8   8
#     4  10  21  36  66  96 138 178 226 279 338 417
#     4  10  21  37  65 102 138 180 219 276 358 419
#     4  10  26  44  69  98 133 178 240 288 344 402
#     4  11  24  46  66 103 138 181 234 290 344 406
#     4  11  24  44  68  99 142 183 230 286 350 419
#     4  10  21  39  64  99 130 181 229 281 339 405
#
# _framework density 22.386965
#
# number of rings (size 3 to 8) (size 9 to 14) (size 15 to 20)
#    0.000    1.636    3.636    0.000    3.818    2.182 
#    0.000    7.273    0.000    0.000    0.000    0.000 
#    0.000    0.000    0.000    0.000    0.000    0.000 
#
# Total GULP energy -123115.126541 kJ/mol
# GULP energy per Si atom -5596.142115 kJ/mol
# Density = 2.233601 g / cm^3
# Si number density = 22.386965 Si / 1000 Ang^3
#
#
#
# Elastic Constant Matrix: (Units=GPa)
#
#
# Indices 1 2 3 4 5 6 
#
# 1 103.4334 32.7218 11.7321 0.0000 7.0725 0.0000
# 2 32.7218 102.6789 58.7380 0.0000 13.8395 0.0000
# 3 11.7321 58.7380 158.1771 0.0000 12.1791 0.0000
# 4 0.0000 0.0000 0.0000 38.3245 0.0000 1.2580
# 5 7.0725 13.8395 12.1791 0.0000 32.8032 0.0000
# 6 0.0000 0.0000 0.0000 1.2580 0.0000 19.5583
#
#
#
# Elastic Compliance Matrix: (Units=1/GPa)
#
#
# Indices 1 2 3 4 5 6 
#
# 1 0.010829 -0.003681 0.000642 0.000000 -0.001020 0.000000
# 2 -0.003681 0.014048 -0.004682 0.000000 -0.003395 0.000000
# 3 0.000642 -0.004682 0.008103 0.000000 -0.001172 0.000000
# 4 0.000000 0.000000 0.000000 0.026148 0.000000 -0.001682
# 5 -0.001020 -0.003395 -0.001172 0.000000 0.032572 0.000000
# 6 0.000000 0.000000 0.000000 -0.001682 0.000000 0.051237
#
#
# Mechanical properties :
#
#
# Convention : Reuss Voigt Hill
#
# Bulk Modulus (GPa) = 57.01604 63.40813 60.21209
# Shear Modulus (GPa) = 30.44564 35.54371 32.99468
#
# Velocity S-wave (km/s) = 3.69178 3.98891 3.84322
# Velocity P-wave (km/s) = 6.61030 7.04276 6.82995
#
# Compressibility (1/GPa) = 0.01753892
#
# Stress axis : x y z
#
# Youngs Moduli (GPa) = 92.34048 71.18309 123.40575
#
# Poissons Ratio (x) = 0.26203 -0.07926
# Poissons Ratio (y) = 0.33991 0.57783
# Poissons Ratio (z) = -0.05931 0.33330
#
# Static dielectric constant tensor:
#      x y z
#    x 1.875030 0.000000 -0.017830 
#    y 0.000000 1.785720 0.000000 
#    z -0.017830 0.000000 1.839790 
# 
# From -- ./inp_files/75697.got.cif
#   From: 2010.05.17/outbox.cif.g08.bks.cpg/sg12_38_cif.got.tgz:75697.got - 2010.06.03 13:09:07.
