data_PCOD9206096
_publ_section_title
;
Structure prediction by ZEFSAII (Michael W. Deem and Ramdas Pophale) SiO2 
 PCOD9206096
Probable space group: C 2/M
;
_chemical_formula_sum "Si O2"
_cell_formula_units_Z 56
_cell_length_a 19.640861
_cell_length_b 7.520082
_cell_length_c 32.681322
_cell_angle_alpha 90.000000
_cell_angle_beta 33.995001
_cell_angle_gamma 90.000000
_cell_volume 2698.908639
_symmetry_space_group_name_H-M "C 2/M"
_symmetry_group_IT_number 12
_symmetry_cell_setting 'monoclinic'
loop_
_space_group_symop_operation_xyz
x,y,z
-x,y,-z
-x,-y,-z
x,-y,z
1/2+x,1/2+y,z
1/2-x,1/2+y,-z
1/2-x,1/2-y,-z
1/2+x,1/2-y,z
loop_
_atom_site_type_symbol
_atom_site_label
_atom_site_fract_x
_atom_site_fract_y
_atom_site_fract_z
Si Si1 0.866186 0.213070 0.077698
Si Si2 0.045475 0.215921 0.291491
Si Si3 0.364217 0.218635 0.260023
Si Si4 0.123273 0.700588 0.163522
Si Si5 0.636277 0.702988 0.430170
Si Si6 0.228547 0.210530 0.557720
Si Si7 0.217230 0.712595 0.788160
O O1 0.758623 0.283430 0.101098
O O2 0.839792 0.242741 0.139137
O O3 0.864921 0.000000 0.072432
O O4 0.000000 0.280819 0.000000
O O5 0.908640 0.270427 0.366147
O O6 0.089296 0.303629 0.228169
O O7 0.140857 0.265144 0.279084
O O8 0.050205 0.000000 0.284474
O O9 0.500178 0.280097 0.205262
O O10 0.250141 0.275608 0.346000
O O11 0.340281 0.277129 0.225339
O O12 0.366992 0.000000 0.261376
O O13 0.136076 0.500000 0.140263
O O14 0.500000 0.784515 0.500000
O O15 0.619810 0.500000 0.423162
O O16 0.683520 0.702793 0.453128
O O17 0.250000 0.250000 0.500000
O O18 0.236444 0.000000 0.560732
O O19 0.212516 0.500000 0.787783
#
# Coordination Sequence:
#
# PCOD9206096 Si02
#       7
#     8   8   8   8   8   8   8
#     4   9  18  33  52  75 104 134 164 203 251 301
#     4   9  18  32  50  71  96 127 165 212 255 295
#     4   9  17  31  52  76 100 130 169 211 250 300
#     4   9  16  30  53  74  95 128 169 203 242 301
#     4  10  21  36  56  77 103 140 178 217 266 317
#     4  11  23  36  52  74 104 137 176 222 267 314
#     4   9  18  32  52  76 101 129 167 208 251 301
#
# _framework density 20.749127999999999
#
# number of rings (size 3 to 8) (size 9 to 14) (size 15 to 20)
#    0.000    2.571    1.429    0.429    2.000    1.143 
#    0.000    2.143    0.000    0.000    0.000    0.000 
#    0.000    0.000    0.000    0.000    0.000    0.000 
#
# Total GULP energy -155926.201125 kJ/mol
# GULP energy per Si atom -5568.792897 kJ/mol
# Density = 2.070190 g / cm^3
# Si number density = 20.749128 Si / 1000 Ang^3
#
#
#
# Elastic Constant Matrix: (Units=GPa)
#
#
# Indices 1 2 3 4 5 6 
#
# 1 193.4032 6.3890 71.9631 0.1241 -32.9205 0.0629
# 2 6.3890 50.6757 1.5625 0.3233 -8.1426 -0.1341
# 3 71.9631 1.5625 100.9144 -0.0141 -37.3319 0.0089
# 4 0.1241 0.3233 -0.0141 -10.9814 -0.0001 12.7276
# 5 -32.9205 -8.1426 -37.3319 -0.0001 39.7414 0.0109
# 6 0.0629 -0.1341 0.0089 12.7276 0.0109 10.9165
#
#
#
# Elastic Compliance Matrix: (Units=1/GPa)
#
#
# Indices 1 2 3 4 5 6 
#
# 1 0.007127 -0.000506 -0.004489 0.000008 0.001584 -0.000055
# 2 -0.000506 0.020675 0.002227 0.000378 0.005909 -0.000192
# 3 -0.004489 0.002227 0.018190 0.000008 0.013825 0.000015
# 4 0.000008 0.000378 0.000008 -0.038722 0.000080 0.045151
# 5 0.001584 0.005909 0.013825 0.000080 0.040672 -0.000081
# 6 -0.000055 -0.000192 0.000015 0.045151 -0.000081 0.038961
#
#
# Mechanical properties :
#
#
# Convention : Reuss Voigt Hill
#
# Bulk Modulus (GPa) = 24.71810 56.09138 40.40474
# Shear Modulus (GPa) = 47.20301 25.60723 36.40512
#
# Velocity S-wave (km/s) = 4.77481 3.51684 4.19326
# Velocity P-wave (km/s) = 6.50669 6.60172 6.55438
#
# Compressibility (1/GPa) = 0.04045619
#
# Stress axis : x y z
#
# Youngs Moduli (GPa) = 140.31137 48.36779 54.97429
#
# Poissons Ratio (x) = 0.02447 0.24676
# Poissons Ratio (y) = 0.07098 -0.12240
# Poissons Ratio (z) = 0.62981 -0.10769
#
# Static dielectric constant tensor:
#      x y z
#    x 1.753990 0.000000 -0.053310 
#    y 0.000000 1.789800 -0.000030 
#    z -0.053310 -0.000030 1.800440 
# 
# From -- ./inp_files/313713.got.cif
#   From: 2010.05.17/outbox.cif.g08.bks.cpg/sg12_157_cif.got.tgz:313713.got - 2010.06.03 13:09:07.
