data_PCOD9206543
_publ_section_title
;
Structure prediction by ZEFSAII (Michael W. Deem and Ramdas Pophale) SiO2 
 PCOD9206543
Probable space group: C 2/M
;
_chemical_formula_sum "Si O2"
_cell_formula_units_Z 48
_cell_length_a 30.879118
_cell_length_b 12.816298
_cell_length_c 17.634636
_cell_angle_alpha 90.000000
_cell_angle_beta 161.729465
_cell_angle_gamma 90.000000
_cell_volume 2187.949502
_symmetry_space_group_name_H-M "C 2/M"
_symmetry_group_IT_number 12
_symmetry_cell_setting 'monoclinic'
loop_
_space_group_symop_operation_xyz
x,y,z
-x,y,-z
-x,-y,-z
x,-y,z
1/2+x,1/2+y,z
1/2-x,1/2+y,-z
1/2-x,1/2-y,-z
1/2+x,1/2-y,z
loop_
_atom_site_type_symbol
_atom_site_label
_atom_site_fract_x
_atom_site_fract_y
_atom_site_fract_z
Si Si1 0.312428 0.803145 0.958176
Si Si2 0.417501 0.234733 0.784936
Si Si3 0.100865 0.329974 0.402679
Si Si4 0.899623 0.118747 0.515693
Si Si5 0.875195 0.882645 0.232349
Si Si6 0.131428 0.117252 0.065699
O O1 0.219708 0.869049 0.745257
O O2 0.230565 0.806823 0.900693
O O3 0.331015 0.695576 0.940980
O O4 0.462212 0.854472 0.217676
O O5 0.250000 0.250000 0.500000
O O6 0.238310 0.381771 0.660886
O O7 0.501784 0.336673 0.896396
O O8 0.437274 0.154185 0.748280
O O9 0.125225 0.206218 0.462183
O O10 0.043089 0.142775 0.709198
O O11 0.899309 0.000000 0.541309
O O12 0.000000 0.889487 0.500000
O O13 0.815194 0.000000 0.124424
O O14 0.109878 0.000000 0.003745
O O15 0.000000 0.293872 0.000000
#
# Coordination Sequence:
#
# PCOD9206543 Si02
#       6
#     8   8   8   8   8   8
#     4   9  18  32  56  84 118 167 208 254 302 358
#     4  11  22  43  71  92 120 157 201 256 312 376
#     4  10  21  36  59  88 123 162 201 253 310 373
#     4   9  18  34  57  86 119 159 211 265 309 358
#     4   8  14  28  53  84 118 158 209 262 310 354
#     4  10  22  39  60  90 127 169 204 242 312 384
#
# _framework density 21.938348999999999
#
# number of rings (size 3 to 8) (size 9 to 14) (size 15 to 20)
#    0.000    2.500    1.667    1.500    0.000    5.000 
#    0.000    0.000    0.000   14.500    0.000    0.000 
#    0.000    0.000    0.000    0.000    0.000    0.000 
#
# Total GULP energy -133675.260999 kJ/mol
# GULP energy per Si atom -5569.802542 kJ/mol
# Density = 2.188842 g / cm^3
# Si number density = 21.938349 Si / 1000 Ang^3
#
#
#
# Elastic Constant Matrix: (Units=GPa)
#
#
# Indices 1 2 3 4 5 6 
#
# 1 115.5450 33.1395 38.4186 0.0000 -24.6117 0.0000
# 2 33.1395 96.8727 37.2175 0.0000 7.3694 0.0000
# 3 38.4186 37.2175 164.2465 0.0000 -8.3485 0.0000
# 4 0.0000 0.0000 0.0000 -12.4912 0.0000 17.5717
# 5 -24.6117 7.3694 -8.3485 0.0000 45.4564 0.0000
# 6 0.0000 0.0000 0.0000 17.5717 0.0000 -1.7633
#
#
#
# Elastic Compliance Matrix: (Units=1/GPa)
#
#
# Indices 1 2 3 4 5 6 
#
# 1 0.011713 -0.003938 -0.001507 0.000000 0.006704 0.000000
# 2 -0.003938 0.012880 -0.002233 0.000000 -0.004630 0.000000
# 3 -0.001507 -0.002233 0.006989 0.000000 0.000830 0.000000
# 4 0.000000 0.000000 0.000000 0.006150 0.000000 0.061281
# 5 0.006704 -0.004630 0.000830 0.000000 0.026532 0.000000
# 6 0.000000 0.000000 0.000000 0.061281 0.000000 0.043563
#
#
# Mechanical properties :
#
#
# Convention : Reuss Voigt Hill
#
# Bulk Modulus (GPa) = 61.62579 66.02396 63.82487
# Shear Modulus (GPa) = 38.88323 24.09962 31.49142
#
# Velocity S-wave (km/s) = 4.21454 3.31798 3.79284
# Velocity P-wave (km/s) = 7.19962 6.69621 6.95247
#
# Compressibility (1/GPa) = 0.01622697
#
# Stress axis : x y z
#
# Youngs Moduli (GPa) = 85.37549 77.63936 143.08294
#
# Poissons Ratio (x) = 0.30575 0.21558
# Poissons Ratio (y) = 0.33621 0.31947
# Poissons Ratio (z) = 0.12863 0.17335
#
# Static dielectric constant tensor:
#      x y z
#    x 1.864250 0.000000 -0.015020 
#    y 0.000000 1.836190 0.000000 
#    z -0.015020 0.000000 1.863060 
# 
# From -- ./inp_files/330158.got.cif
#   From: 2010.05.17/outbox.cif.g08.bks.cpg/sg12_166_cif.got.tgz:330158.got - 2010.06.03 13:09:07.
