data_PCOD9206168
_publ_section_title
;
Structure prediction by ZEFSAII (Michael W. Deem and Ramdas Pophale) SiO2 
 PCOD9206168
Probable space group: C 2/M
;
_chemical_formula_sum "Si O2"
_cell_formula_units_Z 60
_cell_length_a 25.003443
_cell_length_b 12.080913
_cell_length_c 10.297443
_cell_angle_alpha 90.000000
_cell_angle_beta 97.975304
_cell_angle_gamma 90.000000
_cell_volume 3080.406361
_symmetry_space_group_name_H-M "C 2/M"
_symmetry_group_IT_number 12
_symmetry_cell_setting 'monoclinic'
loop_
_space_group_symop_operation_xyz
x,y,z
-x,y,-z
-x,-y,-z
x,-y,z
1/2+x,1/2+y,z
1/2-x,1/2+y,-z
1/2-x,1/2-y,-z
1/2+x,1/2-y,z
loop_
_atom_site_type_symbol
_atom_site_label
_atom_site_fract_x
_atom_site_fract_y
_atom_site_fract_z
Si Si1 0.582843 0.625894 0.597850
Si Si2 0.593915 0.279380 0.315140
Si Si3 0.813832 0.629551 0.745260
Si Si4 0.095687 0.500000 0.800423
Si Si5 0.303554 0.627756 0.216869
Si Si6 0.511219 0.827260 0.651481
Si Si7 0.650833 0.795640 0.955778
Si Si8 0.935690 0.873049 0.967975
O O1 0.565345 0.500000 0.608285
O O2 0.588426 0.656818 0.448464
O O3 0.641238 0.639991 0.683779
O O4 0.539701 0.708003 0.645884
O O5 0.649812 0.212428 0.326285
O O6 0.545538 0.189281 0.296498
O O7 0.584214 0.356155 0.187026
O O8 0.825926 0.500000 0.723164
O O9 0.749632 0.646498 0.714664
O O10 0.829506 0.659254 0.898849
O O11 0.052225 0.405666 0.736938
O O12 0.135949 0.401294 0.865428
O O13 0.300321 0.500000 0.168960
O O14 0.307258 0.715486 0.102387
O O15 0.500000 0.865656 0.500000
O O16 0.598547 0.716990 0.964108
O O17 0.925296 0.000000 0.006965
O O18 0.000000 0.853453 0.000000
#
# Coordination Sequence:
#
# PCOD9206168 Si02
#       8
#     8   8   8   4   8   8   8   8
#     4  10  21  39  64  90 115 151 195 246 298 344
#     4  10  22  38  58  87 119 154 196 233 295 349
#     4  10  22  40  58  85 118 159 194 240 294 346
#     4  12  21  36  59  84 126 148 198 233 284 352
#     4  10  21  39  64  86 115 148 200 250 293 344
#     4  10  22  38  58  89 119 158 192 237 290 350
#     4  11  21  38  59  86 116 156 196 241 287 349
#     4  10  21  36  56  84 119 153 191 237 290 344
#
# _framework density 19.477948999999999
#
# number of rings (size 3 to 8) (size 9 to 14) (size 15 to 20)
#    0.000    1.733    2.000    2.200    0.933    3.467 
#    1.200    1.667    2.933    0.000    0.000    0.000 
#    0.000    0.000    0.000    0.000    0.000    0.000 
#
# Total GULP energy -167038.914991 kJ/mol
# GULP energy per Si atom -5567.963833 kJ/mol
# Density = 1.943362 g / cm^3
# Si number density = 19.477949 Si / 1000 Ang^3
#
#
#
# Elastic Constant Matrix: (Units=GPa)
#
#
# Indices 1 2 3 4 5 6 
#
# 1 80.4849 31.9468 -4.3959 0.0000 -7.7166 0.0000
# 2 31.9468 105.6743 8.4300 0.0000 -11.0775 0.0000
# 3 -4.3959 8.4300 18.7214 0.0000 -0.8804 0.0000
# 4 0.0000 0.0000 0.0000 -1.8454 0.0000 35.8572
# 5 -7.7166 -11.0775 -0.8804 0.0000 21.8685 0.0000
# 6 0.0000 0.0000 0.0000 35.8572 0.0000 -131.6965
#
#
#
# Elastic Compliance Matrix: (Units=1/GPa)
#
#
# Indices 1 2 3 4 5 6 
#
# 1 0.014873 -0.004624 0.005722 0.000000 0.003136 0.000000
# 2 -0.004624 0.011784 -0.006200 0.000000 0.004088 0.000000
# 3 0.005722 -0.006200 0.057607 0.000000 0.001198 0.000000
# 4 0.000000 0.000000 0.000000 0.126303 0.000000 0.034389
# 5 0.003136 0.004088 0.001198 0.000000 0.048954 0.000000
# 6 0.000000 0.000000 0.000000 0.034389 0.000000 0.001770
#
#
# Mechanical properties :
#
#
# Convention : Reuss Voigt Hill
#
# Bulk Modulus (GPa) = 13.50251 30.76027 22.13139
# Shear Modulus (GPa) = 16.88156 -11.07471 2.90342
#
# Velocity S-wave (km/s) = 2.94717 -2.38707 1.22223
# Velocity P-wave (km/s) = 4.30446 2.86865 3.65770
#
# Compressibility (1/GPa) = 0.07406029
#
# Stress axis : x y z
#
# Youngs Moduli (GPa) = 67.23426 84.86027 17.35915
#
# Poissons Ratio (x) = 0.39241 -0.09933
# Poissons Ratio (y) = 0.31090 0.10762
# Poissons Ratio (z) = -0.38472 0.52612
#
# Static dielectric constant tensor:
#      x y z
#    x 1.677240 0.000000 0.000560 
#    y 0.000000 1.666060 0.000000 
#    z 0.000560 0.000000 1.693060 
# 
# From -- ./inp_files/165674.got.cif
#   From: 2010.05.17/outbox.cif.g08.bks.cpg/sg12_83_cif.got.tgz:165674.got - 2010.06.03 13:09:07.
