data_PCOD9206243
_publ_section_title
;
Structure prediction by ZEFSAII (Michael W. Deem and Ramdas Pophale) SiO2 
 PCOD9206243
Probable space group: C 2/M
;
_chemical_formula_sum "Si O2"
_cell_formula_units_Z 64
_cell_length_a 28.502053
_cell_length_b 8.989550
_cell_length_c 14.048758
_cell_angle_alpha 90.000000
_cell_angle_beta 107.164993
_cell_angle_gamma 90.000000
_cell_volume 3439.252155
_symmetry_space_group_name_H-M "C 2/M"
_symmetry_group_IT_number 12
_symmetry_cell_setting 'monoclinic'
loop_
_space_group_symop_operation_xyz
x,y,z
-x,y,-z
-x,-y,-z
x,-y,z
1/2+x,1/2+y,z
1/2-x,1/2+y,-z
1/2-x,1/2-y,-z
1/2+x,1/2-y,z
loop_
_atom_site_type_symbol
_atom_site_label
_atom_site_fract_x
_atom_site_fract_y
_atom_site_fract_z
Si Si1 0.041729 0.172477 0.853354
Si Si2 0.866189 0.822758 0.614547
Si Si3 0.619557 0.173975 0.773808
Si Si4 0.167080 0.823228 0.622378
Si Si5 0.062237 0.676789 0.211361
Si Si6 0.619352 0.673953 0.073224
Si Si7 0.302009 0.175504 0.008758
Si Si8 0.769653 0.321526 0.609660
O O1 0.073258 0.233533 0.784020
O O2 0.992896 0.267295 0.838629
O O3 0.028309 0.000000 0.832639
O O4 0.078076 0.183059 0.965463
O O5 0.853220 0.792206 0.496206
O O6 0.916110 0.748241 0.679315
O O7 0.822420 0.752860 0.652304
O O8 0.867262 0.000000 0.627519
O O9 0.639168 0.232197 0.685398
O O10 0.662828 0.192423 0.877893
O O11 0.607050 0.000000 0.762678
O O12 0.225698 0.790737 0.657028
O O13 0.161387 0.000000 0.635678
O O14 0.064443 0.500000 0.216127
O O15 0.096590 0.739365 0.147996
O O16 0.626999 0.500000 0.100442
O O17 0.668576 0.746391 0.059743
O O18 0.296088 0.000000 0.985847
O O19 0.250000 0.250000 0.000000
O O20 0.774121 0.500000 0.603205
O O21 0.750000 0.250000 0.500000
#
# Coordination Sequence:
#
# PCOD9206243 Si02
#       8
#     8   8   8   8   8   8   8   8
#     4  10  21  39  61  82 108 142 181 226 274 328
#     4  10  21  37  55  79 112 146 185 232 277 325
#     4  10  21  36  57  83 110 143 184 228 273 325
#     4   9  19  35  56  80 108 146 186 224 270 325
#     4  12  24  37  57  84 113 144 179 226 281 332
#     4  10  21  38  60  84 110 145 186 225 272 330
#     4  10  21  37  56  83 118 152 186 227 274 322
#     4   9  17  31  51  76 106 141 181 223 270 321
#
# _framework density 18.608698
#
# number of rings (size 3 to 8) (size 9 to 14) (size 15 to 20)
#    0.000    2.000    0.000    4.500    0.000    8.500 
#    0.000    3.125    0.000    3.750    0.000    0.000 
#    0.000    0.000    0.000    0.000    0.000    0.000 
#
# Total GULP energy -178697.404240 kJ/mol
# GULP energy per Si atom -5584.293883 kJ/mol
# Density = 1.856634 g / cm^3
# Si number density = 18.608698 Si / 1000 Ang^3
#
#
#
# Elastic Constant Matrix: (Units=GPa)
#
#
# Indices 1 2 3 4 5 6 
#
# 1 99.3370 57.0672 24.1347 0.0000 -6.9032 0.0000
# 2 57.0672 121.1413 40.1465 0.0000 -8.0876 0.0000
# 3 24.1347 40.1465 30.9037 0.0000 -13.5735 0.0000
# 4 0.0000 0.0000 0.0000 27.0617 0.0000 -0.1971
# 5 -6.9032 -8.0876 -13.5735 0.0000 25.2073 0.0000
# 6 0.0000 0.0000 0.0000 -0.1971 0.0000 39.4663
#
#
#
# Elastic Compliance Matrix: (Units=1/GPa)
#
#
# Indices 1 2 3 4 5 6 
#
# 1 0.014104 -0.005242 -0.004253 0.000000 -0.000110 0.000000
# 2 -0.005242 0.017512 -0.022028 0.000000 -0.007679 0.000000
# 3 -0.004253 -0.022028 0.079478 0.000000 0.034565 0.000000
# 4 0.000000 0.000000 0.000000 0.036954 0.000000 0.000185
# 5 -0.000110 -0.007679 0.034565 0.000000 0.055790 0.000000
# 6 0.000000 0.000000 0.000000 0.000185 0.000000 0.025339
#
#
# Mechanical properties :
#
#
# Convention : Reuss Voigt Hill
#
# Bulk Modulus (GPa) = 20.81280 54.89765 37.85523
# Shear Modulus (GPa) = 16.22126 27.01597 21.61862
#
# Velocity S-wave (km/s) = 2.95567 3.81437 3.41214
# Velocity P-wave (km/s) = 4.78087 6.99745 5.99254
#
# Compressibility (1/GPa) = 0.04804734
#
# Stress axis : x y z
#
# Youngs Moduli (GPa) = 70.90293 57.10486 12.58213
#
# Poissons Ratio (x) = 0.29933 0.05351
# Poissons Ratio (y) = 0.37166 0.27716
# Poissons Ratio (z) = 0.30156 1.25791
#
# Static dielectric constant tensor:
#      x y z
#    x 1.378350 0.000000 -0.345580 
#    y 0.000000 1.616230 0.000000 
#    z -0.345580 0.000000 1.132420 
# 
# From -- ./inp_files/244142.got.cif
#   From: 2010.05.17/outbox.cif.g08.bks.cpg/sg12_123_cif.got.tgz:244142.got - 2010.06.03 13:09:07.
