data_PCOD9206347
_publ_section_title
;
Structure prediction by ZEFSAII (Michael W. Deem and Ramdas Pophale) SiO2 
 PCOD9206347
Probable space group: C 2/M
;
_chemical_formula_sum "Si O2"
_cell_formula_units_Z 64
_cell_length_a 10.158360
_cell_length_b 24.139187
_cell_length_c 13.950234
_cell_angle_alpha 90.000000
_cell_angle_beta 91.252943
_cell_angle_gamma 90.000000
_cell_volume 3419.982480
_symmetry_space_group_name_H-M "C 2/M"
_symmetry_group_IT_number 12
_symmetry_cell_setting 'monoclinic'
loop_
_space_group_symop_operation_xyz
x,y,z
-x,y,-z
-x,-y,-z
x,-y,z
1/2+x,1/2+y,z
1/2-x,1/2+y,-z
1/2-x,1/2-y,-z
1/2+x,1/2-y,z
loop_
_atom_site_type_symbol
_atom_site_label
_atom_site_fract_x
_atom_site_fract_y
_atom_site_fract_z
Si Si1 0.739419 0.435052 0.267768
Si Si2 0.878138 0.257787 0.566766
Si Si3 0.824883 0.371974 0.095193
Si Si4 0.504023 0.933664 0.389551
Si Si5 0.081423 0.209191 0.097627
Si Si6 0.384381 0.840285 0.888684
Si Si7 0.023380 0.158693 0.299876
Si Si8 0.725509 0.141183 0.311907
O O1 0.711698 0.500000 0.283217
O O2 0.773734 0.423078 0.156714
O O3 0.869040 0.418688 0.331794
O O4 0.619408 0.394058 0.290602
O O5 0.750000 0.250000 0.500000
O O6 0.914221 0.202581 0.625736
O O7 0.843272 0.305547 0.641505
O O8 0.000000 0.272422 0.500000
O O9 0.719436 0.322990 0.104189
O O10 0.967008 0.355407 0.138268
O O11 0.847011 0.375308 0.981931
O O12 0.500000 0.915115 0.500000
O O13 0.635583 0.909335 0.344804
O O14 0.510402 0.000000 0.387597
O O15 0.110560 0.274617 0.091346
O O16 0.012529 0.190317 0.196130
O O17 0.000000 0.193936 0.000000
O O18 0.287768 0.853437 0.801891
O O19 0.880145 0.140913 0.335768
#
# Coordination Sequence:
#
# PCOD9206347 Si02
#       8
#     8   8   8   8   8   8   8   8
#     4  10  23  45  66  86 122 167 212 262 319 373
#     4  12  26  42  62  94 136 172 205 252 317 379
#     4  10  21  36  57  89 121 161 207 248 302 374
#     4  10  23  43  67  91 116 159 214 264 314 368
#     4  11  21  35  57  85 132 168 200 243 306 373
#     4  11  21  33  59  91 125 160 201 255 305 367
#     4  11  26  39  62  95 125 168 212 256 310 379
#     4  12  24  40  64  92 131 163 206 258 314 369
#
# _framework density 18.713543999999999
#
# number of rings (size 3 to 8) (size 9 to 14) (size 15 to 20)
#    0.000    1.125    5.000    1.500    5.250    0.500 
#    0.000    1.875    0.000   15.375    0.000    0.000 
#    0.000    0.000    0.000    0.000    0.000    0.000 
#
# Total GULP energy -178658.672341 kJ/mol
# GULP energy per Si atom -5583.083511 kJ/mol
# Density = 1.867095 g / cm^3
# Si number density = 18.713544 Si / 1000 Ang^3
#
#
#
# Elastic Constant Matrix: (Units=GPa)
#
#
# Indices 1 2 3 4 5 6 
#
# 1 127.4410 42.4137 45.0849 0.0000 -6.8218 0.0000
# 2 42.4137 68.1710 39.1070 0.0000 -1.1266 0.0000
# 3 45.0849 39.1070 97.6027 0.0000 7.3584 0.0000
# 4 0.0000 0.0000 0.0000 31.0262 0.0000 -1.3871
# 5 -6.8218 -1.1266 7.3584 0.0000 27.7328 0.0000
# 6 0.0000 0.0000 0.0000 -1.3871 0.0000 24.2217
#
#
#
# Elastic Compliance Matrix: (Units=1/GPa)
#
#
# Indices 1 2 3 4 5 6 
#
# 1 0.010783 -0.004741 -0.003333 0.000000 0.003344 0.000000
# 2 -0.004741 0.021356 -0.006474 0.000000 0.001419 0.000000
# 3 -0.003333 -0.006474 0.014756 0.000000 -0.004998 0.000000
# 4 0.000000 0.000000 0.000000 0.032314 0.000000 0.001851
# 5 0.003344 0.001419 -0.004998 0.000000 0.038265 0.000000
# 6 0.000000 0.000000 0.000000 0.001851 0.000000 0.041391
#
#
# Mechanical properties :
#
#
# Convention : Reuss Voigt Hill
#
# Bulk Modulus (GPa) = 56.18487 60.71398 58.44943
# Shear Modulus (GPa) = 25.78726 27.70341 26.74534
#
# Velocity S-wave (km/s) = 3.71617 3.85176 3.78457
# Velocity P-wave (km/s) = 6.96434 7.23158 7.09922
#
# Compressibility (1/GPa) = 0.01779839
#
# Stress axis : x y z
#
# Youngs Moduli (GPa) = 92.73886 46.82510 67.76899
#
# Poissons Ratio (x) = 0.22201 0.22589
# Poissons Ratio (y) = 0.43971 0.43872
# Poissons Ratio (z) = 0.30912 0.30313
#
# Static dielectric constant tensor:
#      x y z
#    x 1.645970 0.000000 -0.010190 
#    y 0.000000 1.616190 0.000000 
#    z -0.010190 0.000000 1.684020 
# 
# From -- ./inp_files/198878.got.cif
#   From: 2010.05.17/outbox.cif.g08.bks.cpg/sg12_100_cif.got.tgz:198878.got - 2010.06.03 13:09:07.
