data_PCOD9206376
_publ_section_title
;
Structure prediction by ZEFSAII (Michael W. Deem and Ramdas Pophale) SiO2 
 PCOD9206376
Probable space group: C 2/M
;
_chemical_formula_sum "Si O2"
_cell_formula_units_Z 64
_cell_length_a 14.075648
_cell_length_b 22.860407
_cell_length_c 16.171873
_cell_angle_alpha 90.000000
_cell_angle_beta 39.198410
_cell_angle_gamma 90.000000
_cell_volume 3288.782207
_symmetry_space_group_name_H-M "C 2/M"
_symmetry_group_IT_number 12
_symmetry_cell_setting 'monoclinic'
loop_
_space_group_symop_operation_xyz
x,y,z
-x,y,-z
-x,-y,-z
x,-y,z
1/2+x,1/2+y,z
1/2-x,1/2+y,-z
1/2-x,1/2-y,-z
1/2+x,1/2-y,z
loop_
_atom_site_type_symbol
_atom_site_label
_atom_site_fract_x
_atom_site_fract_y
_atom_site_fract_z
Si Si1 0.107729 0.723632 0.005077
Si Si2 0.446975 0.068125 0.128278
Si Si3 0.768828 0.431889 0.939871
Si Si4 0.634198 0.374358 0.346732
Si Si5 0.190646 0.322713 0.196201
Si Si6 0.334817 0.759128 0.629356
Si Si7 0.436962 0.246187 0.287577
Si Si8 0.387219 0.363717 0.820543
O O1 0.007720 0.723661 0.153559
O O2 0.199200 0.784134 0.936015
O O3 0.232990 0.673922 0.922332
O O4 0.000000 0.718004 0.000000
O O5 0.583359 0.072514 0.100933
O O6 0.299540 0.102434 0.256723
O O7 0.404942 0.000000 0.149787
O O8 0.500000 0.086021 0.000000
O O9 0.747326 0.500000 0.933336
O O10 0.794658 0.388607 0.845003
O O11 0.633303 0.406706 0.088328
O O12 0.500000 0.389870 0.500000
O O13 0.645480 0.303588 0.338968
O O14 0.600857 0.395149 0.275978
O O15 0.237781 0.304809 0.257321
O O16 0.024156 0.294795 0.293812
O O17 0.500000 0.781647 0.500000
O O18 0.240011 0.745860 0.610740
O O19 0.486227 0.313720 0.262324
#
# Coordination Sequence:
#
# PCOD9206376 Si02
#       8
#     8   8   8   8   8   8   8   8
#     4  11  18  29  57  87 110 147 179 227 286 352
#     4  10  21  36  58  83 112 159 201 237 285 337
#     4  11  22  35  57  86 115 142 192 250 289 337
#     4  11  22  36  53  85 125 156 194 229 280 359
#     4  11  20  36  56  85 112 150 185 229 297 337
#     4  11  24  38  55  84 118 156 191 230 291 349
#     4  11  19  35  57  83 115 148 188 240 276 359
#     4  11  20  33  55  85 117 151 187 226 298 338
#
# _framework density 19.460090999999998
#
# number of rings (size 3 to 8) (size 9 to 14) (size 15 to 20)
#    0.000    1.125    7.500    1.500    1.750    0.750 
#    2.250    0.000    0.000    3.750    0.000    0.000 
#    0.000    0.000    0.000    0.000    0.000    0.000 
#
# Total GULP energy -178717.932523 kJ/mol
# GULP energy per Si atom -5584.935391 kJ/mol
# Density = 1.941580 g / cm^3
# Si number density = 19.460091 Si / 1000 Ang^3
#
#
#
# Elastic Constant Matrix: (Units=GPa)
#
#
# Indices 1 2 3 4 5 6 
#
# 1 46.4942 7.7731 -8.2646 -0.0005 1.3465 0.0004
# 2 7.7731 108.1839 24.6016 -0.0019 1.0717 0.0007
# 3 -8.2646 24.6016 55.1832 -0.0030 -4.6587 0.0006
# 4 -0.0005 -0.0019 -0.0030 15.3861 0.0006 0.7836
# 5 1.3465 1.0717 -4.6587 0.0006 25.9671 0.0001
# 6 0.0004 0.0007 0.0006 0.7836 0.0001 22.8375
#
#
#
# Elastic Compliance Matrix: (Units=1/GPa)
#
#
# Indices 1 2 3 4 5 6 
#
# 1 0.022777 -0.002676 0.004584 0.000001 -0.000248 -0.000001
# 2 -0.002676 0.010642 -0.005250 0.000000 -0.001242 0.000000
# 3 0.004584 -0.005250 0.021472 0.000004 0.003831 -0.000001
# 4 0.000001 0.000000 0.000004 0.065107 -0.000001 -0.002234
# 5 -0.000248 -0.001242 0.003831 -0.000001 0.039262 0.000000
# 6 -0.000001 0.000000 -0.000001 -0.002234 0.000000 0.043864
#
#
# Mechanical properties :
#
#
# Convention : Reuss Voigt Hill
#
# Bulk Modulus (GPa) = 20.74457 28.67571 24.71014
# Shear Modulus (GPa) = 22.13571 25.22156 23.67863
#
# Velocity S-wave (km/s) = 3.37633 3.60400 3.49202
# Velocity P-wave (km/s) = 5.08750 5.66445 5.38371
#
# Compressibility (1/GPa) = 0.04820539
#
# Stress axis : x y z
#
# Youngs Moduli (GPa) = 43.90305 93.96701 46.57243
#
# Poissons Ratio (x) = 0.25150 -0.21347
# Poissons Ratio (y) = 0.11750 0.24451
# Poissons Ratio (z) = -0.20123 0.49334
#
# Static dielectric constant tensor:
#      x y z
#    x 1.742050 0.000000 0.002630 
#    y 0.000000 1.687050 0.000000 
#    z 0.002630 0.000000 1.721600 
# 
# From -- ./inp_files/218487.got.cif
#   From: 2010.05.17/outbox.cif.g08.bks.cpg/sg12_110_cif.got.tgz:218487.got - 2010.06.03 13:09:07.
