data_PCOD9206363
_publ_section_title
;
Structure prediction by ZEFSAII (Michael W. Deem and Ramdas Pophale) SiO2 
 PCOD9206363
Probable space group: C 2/M
;
_chemical_formula_sum "Si O2"
_cell_formula_units_Z 38
_cell_length_a 8.050683
_cell_length_b 22.316392
_cell_length_c 13.336442
_cell_angle_alpha 90.000000
_cell_angle_beta 50.353973
_cell_angle_gamma 90.000000
_cell_volume 1844.964194
_symmetry_space_group_name_H-M "C 2/M"
_symmetry_group_IT_number 12
_symmetry_cell_setting 'monoclinic'
loop_
_space_group_symop_operation_xyz
x,y,z
-x,y,-z
-x,-y,-z
x,-y,z
1/2+x,1/2+y,z
1/2-x,1/2+y,-z
1/2-x,1/2-y,-z
1/2+x,1/2-y,z
loop_
_atom_site_type_symbol
_atom_site_label
_atom_site_fract_x
_atom_site_fract_y
_atom_site_fract_z
Si Si1 0.257055 0.687125 0.555849
Si Si2 0.500000 0.500000 0.000000
Si Si3 0.000000 0.397164 0.500000
Si Si4 0.331992 0.202501 0.829388
Si Si5 0.256777 0.836175 0.083309
Si Si6 0.858667 0.903882 0.219682
O O1 0.500000 0.674678 0.500000
O O2 0.250000 0.750000 0.500000
O O3 0.152949 0.641067 0.516469
O O4 0.086341 0.692223 0.713096
O O5 0.400511 0.447764 0.112336
O O6 0.825293 0.428794 0.637222
O O7 0.279565 0.272919 0.846852
O O8 0.221831 0.161733 0.787235
O O9 0.243398 0.179466 0.969905
O O10 0.087394 0.886493 0.180300
O O11 0.500000 0.857788 0.000000
#
# Coordination Sequence:
#
# PCOD9206363 Si02
#       6
#     8   2   4   8   8   8
#     4  11  22  34  54  89 136 176 205 255 319 392
#     4  12  24  46  70  84 128 162 224 274 310 380
#     4  10  24  41  64  90 126 166 226 255 318 390
#     4  10  21  36  57  91 127 167 210 253 315 384
#     4  11  21  33  61  93 128 160 205 260 317 384
#     4  11  23  44  64  94 123 172 212 260 318 383
#
# _framework density 20.596606999999999
#
# number of rings (size 3 to 8) (size 9 to 14) (size 15 to 20)
#    0.000    1.263    3.158    3.789    8.842    0.421 
#    0.000    0.526    0.000    0.000    0.000    5.158 
#    0.000    0.000    0.000    0.000    0.000    0.000 
#
# Total GULP energy -105831.548188 kJ/mol
# GULP energy per Si atom -5570.081484 kJ/mol
# Density = 2.054973 g / cm^3
# Si number density = 20.596607 Si / 1000 Ang^3
#
#
#
# Elastic Constant Matrix: (Units=GPa)
#
#
# Indices 1 2 3 4 5 6 
#
# 1 100.4707 16.4065 38.5040 0.0000 -28.7712 0.0000
# 2 16.4065 62.0010 54.7145 0.0000 -5.9307 0.0000
# 3 38.5040 54.7145 193.8301 0.0000 -24.2853 0.0000
# 4 0.0000 0.0000 0.0000 -21.8073 0.0000 -3.6033
# 5 -28.7712 -5.9307 -24.2853 0.0000 46.0124 0.0000
# 6 0.0000 0.0000 0.0000 -3.6033 0.0000 -9.6947
#
#
#
# Elastic Compliance Matrix: (Units=1/GPa)
#
#
# Indices 1 2 3 4 5 6 
#
# 1 0.012708 -0.001653 -0.001166 0.000000 0.007118 0.000000
# 2 -0.001653 0.021704 -0.005972 0.000000 -0.001388 0.000000
# 3 -0.001166 -0.005972 0.007377 0.000000 0.002394 0.000000
# 4 0.000000 0.000000 0.000000 -0.048857 0.000000 0.018159
# 5 0.007118 -0.001388 0.002394 0.000000 0.027269 0.000000
# 6 0.000000 0.000000 0.000000 0.018159 0.000000 -0.109898
#
#
# Mechanical properties :
#
#
# Convention : Reuss Voigt Hill
#
# Bulk Modulus (GPa) = 41.31156 63.95021 52.63088
# Shear Modulus (GPa) = -78.06795 19.34721 -29.36037
#
# Velocity S-wave (km/s) = -6.16325 3.06819 -3.77967
# Velocity P-wave (km/s) = 5.52688 6.60818 2.56140
#
# Compressibility (1/GPa) = 0.02420630
#
# Stress axis : x y z
#
# Youngs Moduli (GPa) = 78.68901 46.07534 135.56382
#
# Poissons Ratio (x) = 0.07616 0.15808
# Poissons Ratio (y) = 0.13007 0.80960
# Poissons Ratio (z) = 0.09176 0.27517
#
# Static dielectric constant tensor:
#      x y z
#    x 1.800170 0.000000 -0.019720 
#    y 0.000000 1.670910 0.000000 
#    z -0.019720 0.000000 1.801070 
# 
# From -- ./inp_files/198215.got.cif
#   From: 2010.05.17/outbox.cif.g08.bks.cpg/sg12_100_cif.got.tgz:198215.got - 2010.06.03 13:09:07.
