data_PCOD9206504
_publ_section_title
;
Structure prediction by ZEFSAII (Michael W. Deem and Ramdas Pophale) SiO2 
 PCOD9206504
Probable space group: C 2/M
;
_chemical_formula_sum "Si O2"
_cell_formula_units_Z 38
_cell_length_a 7.903611
_cell_length_b 27.057668
_cell_length_c 7.993153
_cell_angle_alpha 90.000000
_cell_angle_beta 77.258348
_cell_angle_gamma 90.000000
_cell_volume 1667.268054
_symmetry_space_group_name_H-M "C 2/M"
_symmetry_group_IT_number 12
_symmetry_cell_setting 'monoclinic'
loop_
_space_group_symop_operation_xyz
x,y,z
-x,y,-z
-x,-y,-z
x,-y,z
1/2+x,1/2+y,z
1/2-x,1/2+y,-z
1/2-x,1/2-y,-z
1/2+x,1/2-y,z
loop_
_atom_site_type_symbol
_atom_site_label
_atom_site_fract_x
_atom_site_fract_y
_atom_site_fract_z
Si Si1 0.500000 0.748569 0.500000
Si Si2 0.903169 0.863111 0.866262
Si Si3 0.000000 0.000000 0.500000
Si Si4 0.319768 0.820471 0.340759
Si Si5 0.785021 0.906785 0.405758
Si Si6 0.330469 0.941428 0.923904
O O1 0.483454 0.786443 0.347000
O O2 0.337730 0.713026 0.556179
O O3 0.740082 0.833328 0.831965
O O4 0.047532 0.875788 0.697282
O O5 0.827990 0.915134 0.947380
O O6 0.000000 0.838041 0.000000
O O7 0.139710 0.956251 0.527047
O O8 0.314809 0.871673 0.443605
O O9 0.675301 0.920207 0.263087
O O10 0.305115 0.000000 0.920943
O O11 0.500000 0.931969 0.000000
#
# Coordination Sequence:
#
# PCOD9206504 Si02
#       6
#     4   8   2   8   8   8
#     4  10  23  38  70  80 120 148 205 250 314 342
#     4  10  21  36  59  83 119 155 193 240 291 353
#     4  12  18  32  60  94 118 160 200 240 272 358
#     4  11  21  42  61  94 112 156 199 254 296 361
#     4  11  21  36  62  87 123 155 204 237 288 354
#     4  10  23  38  55  85 125 164 197 236 295 353
#
# _framework density 22.791778000000001
#
# number of rings (size 3 to 8) (size 9 to 14) (size 15 to 20)
#    0.000    1.474    5.263    0.000    4.421    1.263 
#    0.000    1.053    0.000    4.421    0.000    0.000 
#    0.000    0.000    0.000    0.000    0.000    0.000 
#
# Total GULP energy -105869.568383 kJ/mol
# GULP energy per Si atom -5572.082546 kJ/mol
# Density = 2.273990 g / cm^3
# Si number density = 22.791778 Si / 1000 Ang^3
#
#
#
# Elastic Constant Matrix: (Units=GPa)
#
#
# Indices 1 2 3 4 5 6 
#
# 1 62.4387 33.3296 29.1734 0.0000 26.9309 0.0000
# 2 33.3296 111.2491 43.5194 0.0000 25.4397 0.0000
# 3 29.1734 43.5194 84.0113 0.0000 42.0358 0.0000
# 4 0.0000 0.0000 0.0000 -7.2129 0.0000 3.1721
# 5 26.9309 25.4397 42.0358 0.0000 44.3196 0.0000
# 6 0.0000 0.0000 0.0000 3.1721 0.0000 3.8683
#
#
#
# Elastic Compliance Matrix: (Units=1/GPa)
#
#
# Indices 1 2 3 4 5 6 
#
# 1 0.023381 -0.004318 -0.000026 0.000000 -0.011704 0.000000
# 2 -0.004318 0.012145 -0.004980 0.000000 0.000376 0.000000
# 3 -0.000026 -0.004980 0.024844 0.000000 -0.020690 0.000000
# 4 0.000000 0.000000 0.000000 -0.101894 0.000000 0.083557
# 5 -0.011704 0.000376 -0.020690 0.000000 0.049083 0.000000
# 6 0.000000 0.000000 0.000000 0.083557 0.000000 0.189993
#
#
# Mechanical properties :
#
#
# Convention : Reuss Voigt Hill
#
# Bulk Modulus (GPa) = 23.96827 52.19375 38.08101
# Shear Modulus (GPa) = 21.72898 18.30678 20.01788
#
# Velocity S-wave (km/s) = 3.09102 2.83719 2.96682
# Velocity P-wave (km/s) = 4.82475 5.80369 5.33671
#
# Compressibility (1/GPa) = 0.04172183
#
# Stress axis : x y z
#
# Youngs Moduli (GPa) = 42.76943 82.34123 40.25118
#
# Poissons Ratio (x) = 0.35557 0.00104
# Poissons Ratio (y) = 0.18469 0.20044
# Poissons Ratio (z) = 0.00111 0.41004
#
# Static dielectric constant tensor:
#      x y z
#    x 1.905370 0.000000 0.075450 
#    y 0.000000 1.821000 0.000000 
#    z 0.075450 0.000000 1.945000 
# 
# From -- ./inp_files/39495.got.cif
#   From: 2010.05.17/outbox.cif.g08.bks.cpg/sg12_20_cif.got.tgz:39495.got - 2010.06.03 13:09:07.
