data_PCOD9206594
_publ_section_title
;
Structure prediction by ZEFSAII (Michael W. Deem and Ramdas Pophale) SiO2 
 PCOD9206594
Probable space group: C 2/M
;
_chemical_formula_sum "Si O2"
_cell_formula_units_Z 40
_cell_length_a 15.564125
_cell_length_b 15.499811
_cell_length_c 19.564846
_cell_angle_alpha 90.000000
_cell_angle_beta 157.934603
_cell_angle_gamma 90.000000
_cell_volume 1773.078051
_symmetry_space_group_name_H-M "C 2/M"
_symmetry_group_IT_number 12
_symmetry_cell_setting 'monoclinic'
loop_
_space_group_symop_operation_xyz
x,y,z
-x,y,-z
-x,-y,-z
x,-y,z
1/2+x,1/2+y,z
1/2-x,1/2+y,-z
1/2-x,1/2-y,-z
1/2+x,1/2-y,z
loop_
_atom_site_type_symbol
_atom_site_label
_atom_site_fract_x
_atom_site_fract_y
_atom_site_fract_z
Si Si1 0.265450 0.599188 0.852424
Si Si2 0.469570 0.275581 0.208235
Si Si3 0.497071 0.906529 0.783633
Si Si4 0.144533 0.598292 0.537614
Si Si5 0.819180 0.598278 0.926856
O O1 0.269995 0.500000 0.829156
O O2 0.224015 0.594250 0.902522
O O3 0.033415 0.634609 0.649254
O O4 0.500000 0.640655 0.000000
O O5 0.607802 0.185271 0.314664
O O6 0.635352 0.343289 0.295140
O O7 0.250000 0.250000 0.000000
O O8 0.366472 0.326040 0.197861
O O9 0.553253 0.905495 0.905274
O O10 0.385052 0.000000 0.685416
O O11 0.212082 0.500000 0.570042
O O12 0.000000 0.596903 0.500000
O O13 0.728076 0.500000 0.848212
O O14 0.000000 0.616572 0.000000
#
# Coordination Sequence:
#
# PCOD9206594 Si02
#       5
#     8   8   8   8   8
#     4   9  19  35  60  93 129 170 210 260 331 391
#     4  10  21  36  59  94 128 165 212 268 322 382
#     4   9  19  36  59  85 123 166 213 261 315 380
#     4  10  22  39  63  96 133 169 212 268 329 395
#     4   9  18  34  58  88 124 171 220 261 311 381
#
# _framework density 22.559638
#
# number of rings (size 3 to 8) (size 9 to 14) (size 15 to 20)
#    0.000    2.600    0.000    0.600    5.600    2.400 
#    3.600    0.000    0.000    0.600    0.000    0.000 
#    0.000    0.800    0.000    0.000    0.000    0.000 
#
# Total GULP energy -111388.687053 kJ/mol
# GULP energy per Si atom -5569.434353 kJ/mol
# Density = 2.250829 g / cm^3
# Si number density = 22.559638 Si / 1000 Ang^3
#
#
#
# Elastic Constant Matrix: (Units=GPa)
#
#
# Indices 1 2 3 4 5 6 
#
# 1 136.6680 25.5953 30.0409 0.0065 10.7360 -0.0042
# 2 25.5953 177.4018 38.8085 0.0092 12.9822 0.0015
# 3 30.0409 38.8085 90.9353 0.0121 4.7099 -0.0102
# 4 0.0065 0.0092 0.0121 17.4358 0.0073 10.0630
# 5 10.7360 12.9822 4.7099 0.0073 23.7582 -0.0050
# 6 -0.0042 0.0015 -0.0102 10.0630 -0.0050 1.0778
#
#
#
# Elastic Compliance Matrix: (Units=1/GPa)
#
#
# Indices 1 2 3 4 5 6 
#
# 1 0.008150 -0.000444 -0.002349 0.000000 -0.002974 0.000001
# 2 -0.000444 0.006446 -0.002457 -0.000006 -0.002834 0.000010
# 3 -0.002349 -0.002457 0.012829 0.000017 -0.000139 -0.000040
# 4 0.000000 -0.000006 0.000017 -0.013069 0.000030 0.122018
# 5 -0.002974 -0.002834 -0.000139 0.000030 0.045011 -0.000080
# 6 0.000001 0.000010 -0.000040 0.122018 -0.000080 -0.211416
#
#
# Mechanical properties :
#
#
# Convention : Reuss Voigt Hill
#
# Bulk Modulus (GPa) = 59.08816 65.98828 62.53822
# Shear Modulus (GPa) = -36.79003 29.15839 -3.81582
#
# Velocity S-wave (km/s) = -4.04268 3.59904 -1.30196
# Velocity P-wave (km/s) = 2.11134 6.82531 5.05186
#
# Compressibility (1/GPa) = 0.01692386
#
# Stress axis : x y z
#
# Youngs Moduli (GPa) = 122.69686 155.13435 77.95042
#
# Poissons Ratio (x) = 0.06894 0.18308
# Poissons Ratio (y) = 0.05453 0.19155
# Poissons Ratio (z) = 0.28818 0.38122
#
# Static dielectric constant tensor:
#      x y z
#    x 1.858890 0.000000 -0.054910 
#    y 0.000000 1.970600 -0.000030 
#    z -0.054910 -0.000030 1.867980 
# 
# From -- ./inp_files/311799.got.cif
#   From: 2010.05.17/outbox.cif.g08.bks.cpg/sg12_156_cif.got.tgz:311799.got - 2010.06.03 13:09:07.
