data_PCOD9206926
_publ_section_title
;
Structure prediction by ZEFSAII (Michael W. Deem and Ramdas Pophale) SiO2 
 PCOD9206926
Probable space group: C 2/M
;
_chemical_formula_sum "Si O2"
_cell_formula_units_Z 48
_cell_length_a 20.415003
_cell_length_b 8.943949
_cell_length_c 21.661943
_cell_angle_alpha 90.000000
_cell_angle_beta 44.954106
_cell_angle_gamma 90.000000
_cell_volume 2794.557332
_symmetry_space_group_name_H-M "C 2/M"
_symmetry_group_IT_number 12
_symmetry_cell_setting 'monoclinic'
loop_
_space_group_symop_operation_xyz
x,y,z
-x,y,-z
-x,-y,-z
x,-y,z
1/2+x,1/2+y,z
1/2-x,1/2+y,-z
1/2-x,1/2-y,-z
1/2+x,1/2-y,z
loop_
_atom_site_type_symbol
_atom_site_label
_atom_site_fract_x
_atom_site_fract_y
_atom_site_fract_z
Si Si1 0.007313 0.320736 0.230908
Si Si2 0.999047 0.179017 0.898841
Si Si3 0.492419 0.820022 0.576851
Si Si4 0.347002 0.679161 0.103417
Si Si5 0.350539 0.178674 0.431553
Si Si6 0.645632 0.678299 0.235682
O O1 0.016780 0.500000 0.227280
O O2 0.090812 0.247132 0.213809
O O3 0.004542 0.263646 0.163143
O O4 0.912935 0.279398 0.330584
O O5 0.089967 0.215369 0.878908
O O6 0.999463 0.000000 0.888017
O O7 0.910855 0.212808 0.001274
O O8 0.500000 0.781943 0.500000
O O9 0.586206 0.781198 0.551482
O O10 0.408916 0.739815 0.668024
O O11 0.479526 0.000000 0.590963
O O12 0.330703 0.500000 0.114831
O O13 0.250693 0.764650 0.166501
O O14 0.250000 0.250000 0.500000
O O15 0.340401 0.000000 0.437988
O O16 0.641414 0.500000 0.236388
#
# Coordination Sequence:
#
# PCOD9206926 Si02
#       6
#     8   8   8   8   8   8
#     4  10  21  37  55  77 108 142 176 218 267 315
#     4   9  19  36  58  81 104 137 179 218 261 315
#     4   9  19  37  57  76 102 138 177 216 263 314
#     4   9  19  37  57  78 108 141 174 216 265 317
#     4   9  19  34  52  75 102 134 170 209 256 308
#     4  11  22  35  54  80 108 140 180 221 261 310
#
# _framework density 17.176245000000002
#
# number of rings (size 3 to 8) (size 9 to 14) (size 15 to 20)
#    0.000    2.500    0.000    4.000    0.000    7.000 
#    0.000    6.667    0.000    0.000    0.000    0.000 
#    0.000    0.000    0.000    0.000    0.000    0.000 
#
# Total GULP energy -133923.015448 kJ/mol
# GULP energy per Si atom -5580.125644 kJ/mol
# Density = 1.713715 g / cm^3
# Si number density = 17.176245 Si / 1000 Ang^3
#
#
#
# Elastic Constant Matrix: (Units=GPa)
#
#
# Indices 1 2 3 4 5 6 
#
# 1 136.8922 76.5242 127.1255 0.0000 1.2547 0.0000
# 2 76.5242 68.1657 77.4331 0.0000 -1.2963 0.0000
# 3 127.1255 77.4331 136.0016 0.0000 -0.8084 0.0000
# 4 0.0000 0.0000 0.0000 33.2737 0.0000 0.3430
# 5 1.2547 -1.2963 -0.8084 0.0000 42.4921 0.0000
# 6 0.0000 0.0000 0.0000 0.3430 0.0000 32.3803
#
#
#
# Elastic Compliance Matrix: (Units=1/GPa)
#
#
# Indices 1 2 3 4 5 6 
#
# 1 0.058002 -0.010086 -0.048492 0.000000 -0.002943 0.000000
# 2 -0.010086 0.043313 -0.015224 0.000000 0.001330 0.000000
# 3 -0.048492 -0.015224 0.061360 0.000000 0.002135 0.000000
# 4 0.000000 0.000000 0.000000 0.030057 0.000000 -0.000318
# 5 -0.002943 0.001330 0.002135 0.000000 0.023702 0.000000
# 6 0.000000 0.000000 0.000000 -0.000318 0.000000 0.030886
#
#
# Mechanical properties :
#
#
# Convention : Reuss Voigt Hill
#
# Bulk Modulus (GPa) = 66.35317 100.35835 83.35576
# Shear Modulus (GPa) = 12.50159 25.62766 19.06463
#
# Velocity S-wave (km/s) = 2.70078 3.86689 3.33519
# Velocity P-wave (km/s) = 6.95990 8.85960 7.96658
#
# Compressibility (1/GPa) = 0.01507087
#
# Stress axis : x y z
#
# Youngs Moduli (GPa) = 17.24064 23.08799 16.29713
#
# Poissons Ratio (x) = 0.23287 0.79028
# Poissons Ratio (y) = 0.17390 0.24811
# Poissons Ratio (z) = 0.83603 0.35150
#
# Static dielectric constant tensor:
#      x y z
#    x 1.561110 0.000000 0.004280 
#    y 0.000000 1.574640 0.000000 
#    z 0.004280 0.000000 1.561170 
# 
# From -- ./inp_files/229884.got.cif
#   From: 2010.05.17/outbox.cif.g08.bks.cpg/sg12_115_cif.got.tgz:229884.got - 2010.06.03 13:09:07.
