data_PCOD9206337
_publ_section_title
;
Structure prediction by ZEFSAII (Michael W. Deem and Ramdas Pophale) SiO2 
 PCOD9206337
Probable space group: C 2/M
;
_chemical_formula_sum "Si O2"
_cell_formula_units_Z 56
_cell_length_a 14.058861
_cell_length_b 18.687041
_cell_length_c 13.800244
_cell_angle_alpha 90.000000
_cell_angle_beta 53.033882
_cell_angle_gamma 90.000000
_cell_volume 2896.806370
_symmetry_space_group_name_H-M "C 2/M"
_symmetry_group_IT_number 12
_symmetry_cell_setting 'monoclinic'
loop_
_space_group_symop_operation_xyz
x,y,z
-x,y,-z
-x,-y,-z
x,-y,z
1/2+x,1/2+y,z
1/2-x,1/2+y,-z
1/2-x,1/2-y,-z
1/2+x,1/2-y,z
loop_
_atom_site_type_symbol
_atom_site_label
_atom_site_fract_x
_atom_site_fract_y
_atom_site_fract_z
Si Si1 0.935983 0.915519 0.935669
Si Si2 0.730383 0.188533 0.093825
Si Si3 0.375096 0.787993 0.132333
Si Si4 0.530932 0.638787 0.677829
Si Si5 0.284772 0.581167 0.748022
Si Si6 0.042648 0.699559 0.699367
Si Si7 0.226377 0.581059 0.554318
O O1 0.002468 0.874420 0.808420
O O2 0.934025 0.000000 0.915868
O O3 0.805172 0.881152 0.020589
O O4 0.000000 0.904960 0.000000
O O5 0.791505 0.223533 0.150340
O O6 0.592340 0.175623 0.197413
O O7 0.750000 0.250000 0.000000
O O8 0.305733 0.861573 0.150716
O O9 0.399595 0.786878 0.230851
O O10 0.500000 0.783665 0.000000
O O11 0.418868 0.605082 0.689870
O O12 0.538691 0.723256 0.650935
O O13 0.654048 0.601773 0.575063
O O14 0.265964 0.500000 0.793851
O O15 0.260708 0.582783 0.647563
O O16 0.123035 0.639148 0.600512
O O17 0.189202 0.500000 0.553795
#
# Coordination Sequence:
#
# PCOD9206337 Si02
#       7
#     8   8   8   8   8   8   8
#     4  11  24  39  60  89 118 156 203 248 298 352
#     4  12  20  37  59  86 119 156 197 244 298 353
#     4  11  20  35  56  84 122 156 191 242 294 351
#     4  12  20  39  62  88 117 157 204 247 291 351
#     4  10  21  36  57  88 120 153 195 240 295 354
#     4  11  23  36  61  88 118 158 200 242 297 358
#     4  10  23  40  59  87 123 157 195 246 301 354
#
# _framework density 19.331633
#
# number of rings (size 3 to 8) (size 9 to 14) (size 15 to 20)
#    0.000    1.000    4.286    3.429    0.000    2.000 
#    0.000    0.000    0.000    0.000    0.000    6.000 
#    0.000    0.000    0.000    0.000    0.000    0.000 
#
# Total GULP energy -156518.535346 kJ/mol
# GULP energy per Si atom -5589.947691 kJ/mol
# Density = 1.928763 g / cm^3
# Si number density = 19.331633 Si / 1000 Ang^3
#
#
#
# Elastic Constant Matrix: (Units=GPa)
#
#
# Indices 1 2 3 4 5 6 
#
# 1 68.1879 26.3921 18.9773 0.0000 -26.9664 0.0000
# 2 26.3921 114.3897 9.4473 0.0000 -13.4983 0.0000
# 3 18.9773 9.4473 30.8245 0.0000 -13.2642 0.0000
# 4 0.0000 0.0000 0.0000 26.6961 0.0000 -8.3992
# 5 -26.9664 -13.4983 -13.2642 0.0000 22.5935 0.0000
# 6 0.0000 0.0000 0.0000 -8.3992 0.0000 32.2518
#
#
#
# Elastic Compliance Matrix: (Units=1/GPa)
#
#
# Indices 1 2 3 4 5 6 
#
# 1 0.028887 -0.002739 -0.003764 0.000000 0.030632 0.000000
# 2 -0.002739 0.009674 -0.000265 0.000000 0.002354 0.000000
# 3 -0.003764 -0.000265 0.043939 0.000000 0.021145 0.000000
# 4 0.000000 0.000000 0.000000 0.040802 0.000000 0.010626
# 5 0.030632 0.002354 0.021145 0.000000 0.094642 0.000000
# 6 0.000000 0.000000 0.000000 0.010626 0.000000 0.033773
#
#
# Mechanical properties :
#
#
# Convention : Reuss Voigt Hill
#
# Bulk Modulus (GPa) = 14.50038 35.89281 25.19659
# Shear Modulus (GPa) = 17.34654 26.88065 22.11360
#
# Velocity S-wave (km/s) = 2.99877 3.73299 3.38584
# Velocity P-wave (km/s) = 4.41671 6.09815 5.32422
#
# Compressibility (1/GPa) = 0.06896373
#
# Stress axis : x y z
#
# Youngs Moduli (GPa) = 34.61734 103.37213 22.75872
#
# Poissons Ratio (x) = 0.28318 0.08565
# Poissons Ratio (y) = 0.09483 0.00604
# Poissons Ratio (z) = 0.13028 0.02743
#
# Static dielectric constant tensor:
#      x y z
#    x 1.683060 0.000000 0.035030 
#    y 0.000000 1.681390 0.000000 
#    z 0.035030 0.000000 1.665930 
# 
# From -- ./inp_files/145637.got.cif
#   From: 2010.05.17/outbox.cif.g08.bks.cpg/sg12_73_cif.got.tgz:145637.got - 2010.06.03 13:09:07.
