data_PCOD9206652
_publ_section_title
;
Structure prediction by ZEFSAII (Michael W. Deem and Ramdas Pophale) SiO2 
 PCOD9206652
Probable space group: C 2/M
;
_chemical_formula_sum "Si O2"
_cell_formula_units_Z 56
_cell_length_a 29.249538
_cell_length_b 21.575906
_cell_length_c 11.773036
_cell_angle_alpha 90.000000
_cell_angle_beta 21.399794
_cell_angle_gamma 90.000000
_cell_volume 2710.932921
_symmetry_space_group_name_H-M "C 2/M"
_symmetry_group_IT_number 12
_symmetry_cell_setting 'monoclinic'
loop_
_space_group_symop_operation_xyz
x,y,z
-x,y,-z
-x,-y,-z
x,-y,z
1/2+x,1/2+y,z
1/2-x,1/2+y,-z
1/2-x,1/2-y,-z
1/2+x,1/2-y,z
loop_
_atom_site_type_symbol
_atom_site_label
_atom_site_fract_x
_atom_site_fract_y
_atom_site_fract_z
Si Si1 0.752055 0.385277 0.825852
Si Si2 0.848413 0.932508 0.718324
Si Si3 0.839300 0.431836 0.038834
Si Si4 0.016913 0.816975 0.324020
Si Si5 0.478032 0.178217 0.415293
Si Si6 0.639397 0.427931 0.698183
Si Si7 0.639219 0.927407 0.652973
O O1 0.840485 0.343869 0.700282
O O2 0.829590 0.420988 0.551757
O O3 0.673648 0.426657 0.095736
O O4 0.656451 0.340415 0.982690
O O5 0.715294 0.930983 0.962223
O O6 0.925758 0.872808 0.498770
O O7 0.906101 0.000000 0.558326
O O8 0.898738 0.500000 0.921495
O O9 0.717879 0.427980 0.399941
O O10 0.928865 0.373845 0.849315
O O11 0.000000 0.812948 0.500000
O O12 0.995432 0.747968 0.329746
O O13 0.500000 0.178636 0.500000
O O14 0.617447 0.500000 0.784179
O O15 0.741517 0.401676 0.551659
O O16 0.500000 0.400768 0.000000
O O17 0.633191 0.000000 0.699590
O O18 0.500000 0.901089 0.000000
#
# Coordination Sequence:
#
# PCOD9206652 Si02
#       7
#     8   8   8   8   8   8   8
#     4  11  22  37  59  89 118 158 198 243 305 362
#     4  10  21  37  59  93 127 152 188 250 311 357
#     4  10  21  36  60  91 124 156 196 250 301 350
#     4   9  23  37  57  86 120 162 200 238 296 365
#     4  11  22  38  60  85 125 164 201 240 291 375
#     4   9  19  36  58  86 118 160 209 248 295 362
#     4  10  21  37  59  86 121 159 198 249 304 361
#
# _framework density 20.657095000000002
#
# number of rings (size 3 to 8) (size 9 to 14) (size 15 to 20)
#    0.000    2.000    1.429    1.286    4.000    7.429 
#    0.000    0.000    0.000    4.286    0.000    0.000 
#    0.000    0.000    0.000    0.000    0.000    0.000 
#
# Total GULP energy -156114.824068 kJ/mol
# GULP energy per Si atom -5575.529431 kJ/mol
# Density = 2.061008 g / cm^3
# Si number density = 20.657095 Si / 1000 Ang^3
#
#
#
# Elastic Constant Matrix: (Units=GPa)
#
#
# Indices 1 2 3 4 5 6 
#
# 1 63.7068 11.6629 19.5151 -0.0003 -6.4956 -0.0001
# 2 11.6629 147.2443 44.6244 -0.0001 -19.7821 0.0000
# 3 19.5151 44.6244 88.1124 -0.0006 -17.2223 -0.0002
# 4 -0.0003 -0.0001 -0.0006 9.1230 0.0002 -10.1520
# 5 -6.4956 -19.7821 -17.2223 0.0002 33.0235 0.0001
# 6 -0.0001 0.0000 -0.0002 -10.1520 0.0001 5.5306
#
#
#
# Elastic Compliance Matrix: (Units=1/GPa)
#
#
# Indices 1 2 3 4 5 6 
#
# 1 0.016910 -0.000109 -0.003399 -0.000001 0.001488 -0.000001
# 2 -0.000109 0.008298 -0.003575 0.000000 0.003085 0.000001
# 3 -0.003399 -0.003575 0.014880 -0.000001 0.004950 -0.000002
# 4 -0.000001 0.000000 -0.000001 -0.105130 0.000001 -0.192977
# 5 0.001488 0.003085 0.004950 0.000001 0.035003 0.000001
# 6 -0.000001 0.000001 -0.000002 -0.192977 0.000001 -0.173417
#
#
# Mechanical properties :
#
#
# Convention : Reuss Voigt Hill
#
# Bulk Modulus (GPa) = 38.57927 50.07426 44.32677
# Shear Modulus (GPa) = -27.67825 24.41948 -1.62939
#
# Velocity S-wave (km/s) = -3.66442 3.44195 -0.88910
# Velocity P-wave (km/s) = 0.90144 6.33162 4.52228
#
# Compressibility (1/GPa) = 0.02592065
#
# Stress axis : x y z
#
# Youngs Moduli (GPa) = 59.13715 120.50952 67.20336
#
# Poissons Ratio (x) = 0.01318 0.22842
# Poissons Ratio (y) = 0.00647 0.24028
# Poissons Ratio (z) = 0.20100 0.43087
#
# Static dielectric constant tensor:
#      x y z
#    x 1.779950 0.000000 -0.012920 
#    y 0.000000 1.749610 0.000000 
#    z -0.012920 0.000000 1.767700 
# 
# From -- ./inp_files/190391.got.cif
#   From: 2010.05.17/outbox.cif.g08.bks.cpg/sg12_96_cif.got.tgz:190391.got - 2010.06.03 13:09:07.
