data_PCOD9206062
_publ_section_title
;
Structure prediction by ZEFSAII (Michael W. Deem and Ramdas Pophale) SiO2 
 PCOD9206062
Probable space group: C 2/M
;
_chemical_formula_sum "Si O2"
_cell_formula_units_Z 64
_cell_length_a 31.055834
_cell_length_b 8.656035
_cell_length_c 15.085465
_cell_angle_alpha 90.000000
_cell_angle_beta 120.950133
_cell_angle_gamma 90.000000
_cell_volume 3477.870364
_symmetry_space_group_name_H-M "C 2/M"
_symmetry_group_IT_number 12
_symmetry_cell_setting 'monoclinic'
loop_
_space_group_symop_operation_xyz
x,y,z
-x,y,-z
-x,-y,-z
x,-y,z
1/2+x,1/2+y,z
1/2-x,1/2+y,-z
1/2-x,1/2-y,-z
1/2+x,1/2-y,z
loop_
_atom_site_type_symbol
_atom_site_label
_atom_site_fract_x
_atom_site_fract_y
_atom_site_fract_z
Si Si1 0.778653 0.814838 0.276783
Si Si2 0.113075 0.313511 0.933302
Si Si3 0.535240 0.685302 0.456157
Si Si4 0.298324 0.185748 0.103895
Si Si5 0.399266 0.186645 0.724221
Si Si6 0.861615 0.684042 0.490425
Si Si7 0.503485 0.683806 0.780968
Si Si8 0.663306 0.188205 0.171218
O O1 0.796992 0.745743 0.202790
O O2 0.814363 0.762184 0.394101
O O3 0.721303 0.763550 0.232546
O O4 0.779304 0.000000 0.270310
O O5 0.111054 0.500000 0.930976
O O6 0.151279 0.266332 0.895401
O O7 0.057261 0.250432 0.863395
O O8 0.137065 0.263151 0.052144
O O9 0.500000 0.730823 0.500000
O O10 0.543651 0.500000 0.469434
O O11 0.588566 0.769171 0.511029
O O12 0.508082 0.720031 0.334406
O O13 0.295919 0.000000 0.100550
O O14 0.250000 0.250000 0.000000
O O15 0.372946 0.234480 0.603730
O O16 0.456134 0.247633 0.783816
O O17 0.367570 0.239426 0.775406
O O18 0.401028 0.000000 0.726134
O O19 0.855272 0.500000 0.482945
O O20 0.503777 0.500000 0.791575
O O21 0.663146 0.000000 0.171905
#
# Coordination Sequence:
#
# PCOD9206062 Si02
#       8
#     8   8   8   8   8   8   8   8
#     4  11  22  38  59  84 116 154 193 234 282 339
#     4  10  21  38  58  82 113 149 192 229 273 339
#     4   9  19  36  55  77 106 146 190 230 278 340
#     4  11  22  38  59  85 117 153 190 235 284 337
#     4   9  19  39  63  81 109 150 192 237 283 336
#     4  10  21  36  55  85 115 144 186 237 287 337
#     4  10  21  36  55  83 116 145 184 234 286 336
#     4   9  19  38  61  83 107 149 199 234 275 339
#
# _framework density 18.402066000000001
#
# number of rings (size 3 to 8) (size 9 to 14) (size 15 to 20)
#    0.000    2.125    1.250    1.500    1.750    3.250 
#    0.000    4.375    0.000    0.000    0.000    0.000 
#    0.000    0.000    0.000    0.000    0.000    0.000 
#
# Total GULP energy -178675.641012 kJ/mol
# GULP energy per Si atom -5583.613782 kJ/mol
# Density = 1.836018 g / cm^3
# Si number density = 18.402066 Si / 1000 Ang^3
#
#
#
# Elastic Constant Matrix: (Units=GPa)
#
#
# Indices 1 2 3 4 5 6 
#
# 1 190.0698 38.2294 102.6523 0.0000 -2.1162 0.0000
# 2 38.2294 27.7695 32.9663 0.0000 5.4385 0.0000
# 3 102.6523 32.9663 110.9892 0.0000 31.1387 0.0000
# 4 0.0000 0.0000 0.0000 30.6187 0.0000 5.8154
# 5 -2.1162 5.4385 31.1387 0.0000 29.1939 0.0000
# 6 0.0000 0.0000 0.0000 5.8154 0.0000 25.2875
#
#
#
# Elastic Compliance Matrix: (Units=1/GPa)
#
#
# Indices 1 2 3 4 5 6 
#
# 1 0.020755 -0.002381 -0.027164 0.000000 0.030922 0.000000
# 2 -0.002381 0.058183 -0.017111 0.000000 0.007239 0.000000
# 3 -0.027164 -0.017111 0.055475 0.000000 -0.057952 0.000000
# 4 0.000000 0.000000 0.000000 0.034151 0.000000 -0.007854
# 5 0.030922 0.007239 -0.057952 0.000000 0.096959 0.000000
# 6 0.000000 0.000000 0.000000 -0.007854 0.000000 0.041351
#
#
# Mechanical properties :
#
#
# Convention : Reuss Voigt Hill
#
# Bulk Modulus (GPa) = 24.32996 75.16937 49.74966
# Shear Modulus (GPa) = 12.08058 27.35207 19.71633
#
# Velocity S-wave (km/s) = 2.56497 3.85952 3.27681
# Velocity P-wave (km/s) = 4.69277 7.79732 6.43507
#
# Compressibility (1/GPa) = 0.04110160
#
# Stress axis : x y z
#
# Youngs Moduli (GPa) = 48.18063 17.18704 18.02622
#
# Poissons Ratio (x) = 0.04092 0.48967
# Poissons Ratio (y) = 0.11472 0.30844
# Poissons Ratio (z) = 1.30880 0.29408
#
# Static dielectric constant tensor:
#      x y z
#    x 1.616110 0.000000 -0.010210 
#    y 0.000000 1.624460 0.000000 
#    z -0.010210 0.000000 1.614080 
# 
# From -- ./inp_files/249688.got.cif
#   From: 2010.05.17/outbox.cif.g08.bks.cpg/sg12_125_cif.got.tgz:249688.got - 2010.06.03 13:09:07.
