data_PCOD9206939
_publ_section_title
;
Structure prediction by ZEFSAII (Michael W. Deem and Ramdas Pophale) SiO2 
 PCOD9206939
Probable space group: C 2/M
;
_chemical_formula_sum "Si O2"
_cell_formula_units_Z 56
_cell_length_a 19.643479
_cell_length_b 9.198992
_cell_length_c 21.721956
_cell_angle_alpha 90.000000
_cell_angle_beta 55.034828
_cell_angle_gamma 90.000000
_cell_volume 3216.672355
_symmetry_space_group_name_H-M "C 2/M"
_symmetry_group_IT_number 12
_symmetry_cell_setting 'monoclinic'
loop_
_space_group_symop_operation_xyz
x,y,z
-x,y,-z
-x,-y,-z
x,-y,z
1/2+x,1/2+y,z
1/2-x,1/2+y,-z
1/2-x,1/2-y,-z
1/2+x,1/2-y,z
loop_
_atom_site_type_symbol
_atom_site_label
_atom_site_fract_x
_atom_site_fract_y
_atom_site_fract_z
Si Si1 0.167474 0.174819 0.860404
Si Si2 0.339200 0.173846 0.454782
Si Si3 0.898980 0.328579 0.291467
Si Si4 0.097640 0.167619 0.459778
Si Si5 0.007857 0.825175 0.863592
Si Si6 0.322632 0.676047 0.001781
Si Si7 0.764851 0.170884 0.705578
O O1 0.179798 0.217768 0.924781
O O2 0.237099 0.240172 0.779471
O O3 0.077592 0.219085 0.878288
O O4 0.170313 0.000000 0.856348
O O5 0.250000 0.250000 0.500000
O O6 0.390047 0.215947 0.366979
O O7 0.382037 0.229028 0.494224
O O8 0.329535 0.000000 0.458714
O O9 0.918613 0.500000 0.278418
O O10 0.808531 0.308781 0.306702
O O11 0.962914 0.241384 0.216182
O O12 0.149923 0.211934 0.372361
O O13 0.000000 0.167622 0.500000
O O14 0.124242 0.000000 0.459997
O O15 0.010519 0.000000 0.858879
O O16 0.914528 0.783215 0.929831
O O17 0.315147 0.500000 0.001840
O O18 0.250000 0.750000 0.000000
O O19 0.767798 0.000000 0.719731
#
# Coordination Sequence:
#
# PCOD9206939 Si02
#       7
#     8   8   8   8   8   8   8
#     4   9  18  34  57  81 102 133 176 221 264 308
#     4  11  21  35  57  82 111 145 185 229 274 325
#     4   9  18  33  53  80 110 137 171 224 275 313
#     4  10  21  38  56  77 110 150 187 227 275 323
#     4   9  18  34  57  81 103 134 179 221 259 311
#     4  10  21  37  55  78 110 142 172 213 262 317
#     4   9  17  33  54  78 108 138 175 221 267 318
#
# _framework density 17.409296000000001
#
# number of rings (size 3 to 8) (size 9 to 14) (size 15 to 20)
#    0.000    2.429    1.429    0.857    0.000    4.857 
#    2.571    0.000    0.000    4.286    0.000    0.000 
#    0.000    0.000    0.000    0.000    0.000    0.000 
#
# Total GULP energy -156150.856102 kJ/mol
# GULP energy per Si atom -5576.816289 kJ/mol
# Density = 1.736967 g / cm^3
# Si number density = 17.409296 Si / 1000 Ang^3
#
#
#
# Elastic Constant Matrix: (Units=GPa)
#
#
# Indices 1 2 3 4 5 6 
#
# 1 85.6651 37.3041 84.7434 0.0000 0.0340 0.0002
# 2 37.3041 30.5801 51.8242 0.0000 4.9759 0.0004
# 3 84.7434 51.8242 182.0542 0.0000 -1.2660 0.0000
# 4 0.0000 0.0000 0.0000 32.4789 0.0000 1.4466
# 5 0.0340 4.9759 -1.2660 0.0000 21.7659 0.0000
# 6 0.0002 0.0004 0.0000 1.4466 0.0000 26.4183
#
#
#
# Elastic Compliance Matrix: (Units=1/GPa)
#
#
# Indices 1 2 3 4 5 6 
#
# 1 0.028977 -0.026001 -0.006048 0.000000 0.005547 0.000000
# 2 -0.026001 0.092207 -0.014297 0.000000 -0.021870 -0.000001
# 3 -0.006048 -0.014297 0.012406 0.000000 0.003999 0.000000
# 4 0.000000 0.000000 0.000000 0.030865 0.000000 -0.001690
# 5 0.005547 -0.021870 0.003999 0.000000 0.051167 0.000000
# 6 0.000000 -0.000001 0.000000 -0.001690 0.000000 0.037945
#
#
# Mechanical properties :
#
#
# Convention : Reuss Voigt Hill
#
# Bulk Modulus (GPa) = 24.45147 71.78253 48.11700
# Shear Modulus (GPa) = 13.89313 24.42782 19.16047
#
# Velocity S-wave (km/s) = 2.82801 3.74993 3.32111
# Velocity P-wave (km/s) = 4.97384 7.75055 6.51192
#
# Compressibility (1/GPa) = 0.04089733
#
# Stress axis : x y z
#
# Youngs Moduli (GPa) = 34.51060 10.84518 80.60735
#
# Poissons Ratio (x) = 0.28198 0.48752
# Poissons Ratio (y) = 0.89730 1.15245
# Poissons Ratio (z) = 0.20872 0.15505
#
# Static dielectric constant tensor:
#      x y z
#    x 1.578390 0.000000 -0.000830 
#    y 0.000000 1.587870 0.000000 
#    z -0.000830 0.000000 1.581530 
# 
# From -- ./inp_files/319704.got.cif
#   From: 2010.05.17/outbox.cif.g08.bks.cpg/sg12_160_cif.got.tgz:319704.got - 2010.06.03 13:09:07.
