data_PCOD9206728
_publ_section_title
;
Structure prediction by ZEFSAII (Michael W. Deem and Ramdas Pophale) SiO2 
 PCOD9206728
Probable space group: C 2/M
;
_chemical_formula_sum "Si O2"
_cell_formula_units_Z 48
_cell_length_a 22.120120
_cell_length_b 18.651209
_cell_length_c 5.377949
_cell_angle_alpha 90.000000
_cell_angle_beta 114.239575
_cell_angle_gamma 90.000000
_cell_volume 2023.150743
_symmetry_space_group_name_H-M "C 2/M"
_symmetry_group_IT_number 12
_symmetry_cell_setting 'monoclinic'
loop_
_space_group_symop_operation_xyz
x,y,z
-x,y,-z
-x,-y,-z
x,-y,z
1/2+x,1/2+y,z
1/2-x,1/2+y,-z
1/2-x,1/2-y,-z
1/2+x,1/2-y,z
loop_
_atom_site_type_symbol
_atom_site_label
_atom_site_fract_x
_atom_site_fract_y
_atom_site_fract_z
Si Si1 0.428496 0.414421 0.482489
Si Si2 0.458113 0.800606 0.175079
Si Si3 0.227392 0.341489 0.489352
Si Si4 0.744717 0.500000 0.502526
Si Si5 0.740722 0.500000 0.997820
Si Si6 0.120660 0.845068 0.087135
Si Si7 0.824485 0.353908 0.100417
O O1 0.500000 0.388933 0.500000
O O2 0.432832 0.500000 0.502077
O O3 0.413149 0.383663 0.731150
O O4 0.380245 0.386170 0.180634
O O5 0.500000 0.790524 0.500000
O O6 0.400265 0.857261 0.145021
O O7 0.500000 0.820615 0.000000
O O8 0.418457 0.728355 0.033529
O O9 0.214127 0.427296 0.432973
O O10 0.303446 0.335397 0.696852
O O11 0.182334 0.316248 0.642068
O O12 0.213254 0.314201 0.189265
O O13 0.701288 0.500000 0.184543
O O14 0.702511 0.500000 0.677713
O O15 0.787231 0.429872 0.072650
#
# Coordination Sequence:
#
# PCOD9206728 Si02
#       7
#     8   8   8   4   4   8   8
#     4  11  24  41  61  88 127 173 220 266 306 355
#     4  12  26  44  66  88 121 171 221 264 313 375
#     4  10  21  36  61  94 125 163 197 260 315 382
#     4   8  16  30  52  83 121 154 186 228 305 376
#     4   8  16  34  58  85 120 152 185 248 305 364
#     4  12  24  40  63  93 127 167 212 266 311 374
#     4  10  21  41  63  92 128 162 206 253 323 382
#
# _framework density 23.725369000000001
#
# number of rings (size 3 to 8) (size 9 to 14) (size 15 to 20)
#    0.000    1.500    0.000    5.500    2.333    2.667 
#    3.000    0.833    0.000    0.000    0.000    0.000 
#    0.000    0.000    0.000    0.000    0.000    0.000 
#
# Total GULP energy -134060.027423 kJ/mol
# GULP energy per Si atom -5585.834476 kJ/mol
# Density = 2.367137 g / cm^3
# Si number density = 23.725369 Si / 1000 Ang^3
#
#
#
# Elastic Constant Matrix: (Units=GPa)
#
#
# Indices 1 2 3 4 5 6 
#
# 1 123.6857 7.5228 24.8972 0.0000 -29.6753 0.0000
# 2 7.5228 73.8019 -3.2649 0.0000 -6.3129 0.0000
# 3 24.8972 -3.2649 120.2706 0.0000 -50.2135 0.0000
# 4 0.0000 0.0000 0.0000 8.5263 0.0000 -0.9852
# 5 -29.6753 -6.3129 -50.2135 0.0000 62.1770 0.0000
# 6 0.0000 0.0000 0.0000 -0.9852 0.0000 29.6242
#
#
#
# Elastic Compliance Matrix: (Units=1/GPa)
#
#
# Indices 1 2 3 4 5 6 
#
# 1 0.009156 -0.000584 -0.000168 0.000000 0.004175 0.000000
# 2 -0.000584 0.013872 0.001462 0.000000 0.002311 0.000000
# 3 -0.000168 0.001462 0.012699 0.000000 0.010324 0.000000
# 4 0.000000 0.000000 0.000000 0.117736 0.000000 0.003916
# 5 0.004175 0.002311 0.010324 0.000000 0.026648 0.000000
# 6 0.000000 0.000000 0.000000 0.003916 0.000000 0.033886
#
#
# Mechanical properties :
#
#
# Convention : Reuss Voigt Hill
#
# Bulk Modulus (GPa) = 26.91973 41.78537 34.35255
# Shear Modulus (GPa) = 22.22619 39.30571 30.76595
#
# Velocity S-wave (km/s) = 3.06406 4.07467 3.60495
# Velocity P-wave (km/s) = 4.88763 6.30774 5.64254
#
# Compressibility (1/GPa) = 0.03714748
#
# Stress axis : x y z
#
# Youngs Moduli (GPa) = 109.21798 72.08970 78.74351
#
# Poissons Ratio (x) = 0.04207 0.01325
# Poissons Ratio (y) = 0.06374 -0.11513
# Poissons Ratio (z) = 0.01837 -0.10540
#
# Static dielectric constant tensor:
#      x y z
#    x 1.896570 0.000000 -0.036560 
#    y 0.000000 1.970030 0.000000 
#    z -0.036560 0.000000 1.989730 
# 
# From -- ./inp_files/20995.got.cif
#   From: 2010.05.17/outbox.cif.g08.bks.cpg/sg12_11_cif.got.tgz:20995.got - 2010.06.03 13:09:07.
