data_PCOD9206065
_publ_section_title
;
Structure prediction by ZEFSAII (Michael W. Deem and Ramdas Pophale) SiO2 
 PCOD9206065
Probable space group: C 2/M
;
_chemical_formula_sum "Si O2"
_cell_formula_units_Z 52
_cell_length_a 15.017432
_cell_length_b 10.009991
_cell_length_c 18.722306
_cell_angle_alpha 90.000000
_cell_angle_beta 79.779081
_cell_angle_gamma 90.000000
_cell_volume 2769.756326
_symmetry_space_group_name_H-M "C 2/M"
_symmetry_group_IT_number 12
_symmetry_cell_setting 'monoclinic'
loop_
_space_group_symop_operation_xyz
x,y,z
-x,y,-z
-x,-y,-z
x,-y,z
1/2+x,1/2+y,z
1/2-x,1/2+y,-z
1/2-x,1/2-y,-z
1/2+x,1/2-y,z
loop_
_atom_site_type_symbol
_atom_site_label
_atom_site_fract_x
_atom_site_fract_y
_atom_site_fract_z
Si Si1 0.679269 0.149559 0.544405
Si Si2 0.286253 0.160634 0.307750
Si Si3 0.500000 0.223412 0.500000
Si Si4 0.784432 0.338255 0.147159
Si Si5 0.438758 0.657967 0.079177
Si Si6 0.421792 0.340221 0.654290
Si Si7 0.928283 0.838405 0.812534
O O1 0.750000 0.250000 0.500000
O O2 0.658900 0.194566 0.628844
O O3 0.589397 0.146214 0.510550
O O4 0.718996 0.000000 0.542474
O O5 0.310470 0.204986 0.224893
O O6 0.182980 0.203365 0.337938
O O7 0.286828 0.000000 0.301761
O O8 0.474294 0.302465 0.575515
O O9 0.795268 0.500000 0.137377
O O10 0.850534 0.251588 0.088691
O O11 0.677180 0.307261 0.155519
O O12 0.414977 0.500000 0.091575
O O13 0.501984 0.703475 0.136522
O O14 0.500000 0.668248 0.000000
O O15 0.421899 0.500000 0.658575
O O16 0.451613 0.290285 0.728780
O O17 0.931729 0.000000 0.810993
#
# Coordination Sequence:
#
# PCOD9206065 Si02
#       7
#     8   8   4   8   8   8   8
#     4  11  23  39  54  76 111 147 182 226 277 326
#     4   8  16  34  55  73 102 142 182 222 265 313
#     4  12  22  30  54  82 109 142 179 232 281 318
#     4   9  18  35  60  80 101 142 188 222 258 313
#     4  10  21  36  55  83 117 143 168 214 276 329
#     4   9  17  31  53  80 107 141 187 225 260 322
#     4   8  17  35  55  75 108 148 181 216 266 322
#
# _framework density 18.774215999999999
#
# number of rings (size 3 to 8) (size 9 to 14) (size 15 to 20)
#    0.000    2.615    1.538    2.308    2.154    1.538 
#    0.000    1.538    0.000    0.000    0.000    0.000 
#    0.000    0.000    0.000    0.000    0.000    0.000 
#
# Total GULP energy -144741.161968 kJ/mol
# GULP energy per Si atom -5566.967768 kJ/mol
# Density = 1.873148 g / cm^3
# Si number density = 18.774216 Si / 1000 Ang^3
#
#
#
# Elastic Constant Matrix: (Units=GPa)
#
#
# Indices 1 2 3 4 5 6 
#
# 1 70.8112 22.7187 27.0530 0.0000 -4.5376 0.0000
# 2 22.7187 38.8575 16.0720 0.0000 -14.3467 0.0000
# 3 27.0530 16.0720 66.9912 0.0000 -10.3089 0.0000
# 4 0.0000 0.0000 0.0000 19.5290 0.0000 -4.6330
# 5 -4.5376 -14.3467 -10.3089 0.0000 35.7561 0.0000
# 6 0.0000 0.0000 0.0000 -4.6330 0.0000 18.0757
#
#
#
# Elastic Compliance Matrix: (Units=1/GPa)
#
#
# Indices 1 2 3 4 5 6 
#
# 1 0.019422 -0.010126 -0.005922 0.000000 -0.003306 0.000000
# 2 -0.010126 0.037667 -0.002951 0.000000 0.012978 0.000000
# 3 -0.005922 -0.002951 0.018552 0.000000 0.003413 0.000000
# 4 0.000000 0.000000 0.000000 0.054521 0.000000 0.013974
# 5 -0.003306 0.012978 0.003413 0.000000 0.033739 0.000000
# 6 0.000000 0.000000 0.000000 0.013974 0.000000 0.058905
#
#
# Mechanical properties :
#
#
# Convention : Reuss Voigt Hill
#
# Bulk Modulus (GPa) = 26.56528 34.26079 30.41304
# Shear Modulus (GPa) = 18.29145 22.05991 20.17568
#
# Velocity S-wave (km/s) = 3.12474 3.43156 3.28174
# Velocity P-wave (km/s) = 5.21529 5.83003 5.53121
#
# Compressibility (1/GPa) = 0.03764312
#
# Stress axis : x y z
#
# Youngs Moduli (GPa) = 51.48900 26.54810 53.90238
#
# Poissons Ratio (x) = 0.26883 0.31923
# Poissons Ratio (y) = 0.52139 0.15904
# Poissons Ratio (z) = 0.30493 0.07833
#
# Static dielectric constant tensor:
#      x y z
#    x 1.671190 0.000000 0.020930 
#    y 0.000000 1.622030 0.000000 
#    z 0.020930 0.000000 1.697040 
# 
# From -- ./inp_files/268113.got.cif
#   From: 2010.05.17/outbox.cif.g08.bks.cpg/sg12_135_cif.got.tgz:268113.got - 2010.06.03 13:09:07.
