data_PCOD9206636
_publ_section_title
;
Structure prediction by ZEFSAII (Michael W. Deem and Ramdas Pophale) SiO2 
 PCOD9206636
Probable space group: C 2/M
;
_chemical_formula_sum "Si O2"
_cell_formula_units_Z 50
_cell_length_a 9.189694
_cell_length_b 14.549125
_cell_length_c 18.735565
_cell_angle_alpha 90.000000
_cell_angle_beta 57.770165
_cell_angle_gamma 90.000000
_cell_volume 2119.003822
_symmetry_space_group_name_H-M "C 2/M"
_symmetry_group_IT_number 12
_symmetry_cell_setting 'monoclinic'
loop_
_space_group_symop_operation_xyz
x,y,z
-x,y,-z
-x,-y,-z
x,-y,z
1/2+x,1/2+y,z
1/2-x,1/2+y,-z
1/2-x,1/2-y,-z
1/2+x,1/2-y,z
loop_
_atom_site_type_symbol
_atom_site_label
_atom_site_fract_x
_atom_site_fract_y
_atom_site_fract_z
Si Si1 0.169926 0.612107 0.995366
Si Si2 0.527570 0.603557 0.842676
Si Si3 0.565813 0.359773 0.671184
Si Si4 0.726304 0.137847 0.515723
Si Si5 0.365306 0.110281 0.828909
Si Si6 0.000000 0.500000 0.500000
Si Si7 0.228812 0.325890 0.672292
O O1 0.168434 0.500000 0.987934
O O2 0.160528 0.631937 0.081418
O O3 0.348160 0.646584 0.914571
O O4 0.000000 0.647107 0.000000
O O5 0.525913 0.500000 0.873905
O O6 0.534538 0.595494 0.755677
O O7 0.702029 0.647481 0.827150
O O8 0.658632 0.403799 0.578411
O O9 0.382283 0.331695 0.687643
O O10 0.692361 0.277631 0.659015
O O11 0.750000 0.250000 0.500000
O O12 0.549429 0.083272 0.545953
O O13 0.771841 0.122489 0.586598
O O14 0.548241 0.143082 0.752429
O O15 0.369765 0.000000 0.820337
#
# Coordination Sequence:
#
# PCOD9206636 Si02
#       7
#     8   8   8   8   8   2   8
#     4   9  17  33  56  85 122 163 208 275 347 409
#     4  10  21  36  60  89 124 165 218 275 339 425
#     4  11  24  42  65  93 132 179 225 287 362 423
#     4  10  27  44  75 103 146 188 247 304 364 439
#     4  10  21  36  60  89 124 165 218 275 339 425
#     4  12  28  48  82 110 144 210 258 292 400 450
#     4  11  24  42  65  93 132 179 225 287 362 423
#
# _framework density 23.595993
#
# number of rings (size 3 to 8) (size 9 to 14) (size 15 to 20)
#    0.000    1.760    0.000    2.880   13.440    3.840 
#    0.000    1.600    0.000    0.000    0.000    0.000 
#    0.000    0.000    0.000    0.000    0.000    0.000 
#
# Total GULP energy -139285.076870 kJ/mol
# GULP energy per Si atom -5571.403075 kJ/mol
# Density = 2.354229 g / cm^3
# Si number density = 23.595993 Si / 1000 Ang^3
#
#
#
# Elastic Constant Matrix: (Units=GPa)
#
#
# Indices 1 2 3 4 5 6 
#
# 1 153.8457 6.9370 32.0881 0.0000 9.8282 0.0001
# 2 6.9370 85.9903 -5.3883 0.0000 -1.3925 0.0000
# 3 32.0881 -5.3883 138.3628 0.0000 -16.6538 0.0000
# 4 0.0000 0.0000 0.0000 23.9198 0.0000 -2.5064
# 5 9.8282 -1.3925 -16.6538 0.0000 36.4746 0.0000
# 6 0.0001 0.0000 0.0000 -2.5064 0.0000 15.1057
#
#
#
# Elastic Compliance Matrix: (Units=1/GPa)
#
#
# Indices 1 2 3 4 5 6 
#
# 1 0.007142 -0.000750 -0.002032 0.000000 -0.002881 0.000000
# 2 -0.000750 0.011753 0.000751 0.000000 0.000994 0.000000
# 3 -0.002032 0.000751 0.008251 0.000000 0.004343 0.000000
# 4 0.000000 0.000000 0.000000 0.042546 0.000000 0.007059
# 5 -0.002881 0.000994 0.004343 0.000000 0.030214 0.000000
# 6 0.000000 0.000000 0.000000 0.007059 0.000000 0.067372
#
#
# Mechanical properties :
#
#
# Convention : Reuss Voigt Hill
#
# Bulk Modulus (GPa) = 43.32148 49.49692 46.40920
# Shear Modulus (GPa) = 27.92777 38.07082 32.99930
#
# Velocity S-wave (km/s) = 3.44405 4.02113 3.74373
# Velocity P-wave (km/s) = 5.84935 6.52546 6.19663
#
# Compressibility (1/GPa) = 0.02308324
#
# Stress axis : x y z
#
# Youngs Moduli (GPa) = 140.02162 85.08530 121.20143
#
# Poissons Ratio (x) = 0.06383 0.24631
# Poissons Ratio (y) = 0.10504 -0.09106
# Poissons Ratio (z) = 0.28456 -0.06392
#
# Static dielectric constant tensor:
#      x y z
#    x 1.910090 0.000000 -0.054620 
#    y 0.000000 2.056610 0.000000 
#    z -0.054620 0.000000 1.900790 
# 
# From -- ./inp_files/256944.got.cif
#   From: 2010.05.17/outbox.cif.g08.bks.cpg/sg12_129_cif.got.tgz:256944.got - 2010.06.03 13:09:07.
