data_PCOD9206040
_publ_section_title
;
Structure prediction by ZEFSAII (Michael W. Deem and Ramdas Pophale) SiO2 
 PCOD9206040
Probable space group: C 2/M
;
_chemical_formula_sum "Si O2"
_cell_formula_units_Z 48
_cell_length_a 10.481696
_cell_length_b 8.584186
_cell_length_c 27.689986
_cell_angle_alpha 90.000000
_cell_angle_beta 79.272043
_cell_angle_gamma 90.000000
_cell_volume 2447.911634
_symmetry_space_group_name_H-M "C 2/M"
_symmetry_group_IT_number 12
_symmetry_cell_setting 'monoclinic'
loop_
_space_group_symop_operation_xyz
x,y,z
-x,y,-z
-x,-y,-z
x,-y,z
1/2+x,1/2+y,z
1/2-x,1/2+y,-z
1/2-x,1/2-y,-z
1/2+x,1/2-y,z
loop_
_atom_site_type_symbol
_atom_site_label
_atom_site_fract_x
_atom_site_fract_y
_atom_site_fract_z
Si Si1 0.660198 0.311857 0.109640
Si Si2 0.382558 0.686439 0.277884
Si Si3 0.456773 0.688259 0.556330
Si Si4 0.325584 0.186645 0.387535
Si Si5 0.442063 0.811950 0.055223
Si Si6 0.667206 0.688136 0.221498
O O1 0.653271 0.500000 0.108248
O O2 0.536071 0.244633 0.091077
O O3 0.794007 0.260912 0.074482
O O4 0.666302 0.265909 0.165364
O O5 0.379767 0.500000 0.281571
O O6 0.338355 0.757419 0.331744
O O7 0.529955 0.733917 0.254956
O O8 0.285842 0.740244 0.242612
O O9 0.500000 0.741028 0.500000
O O10 0.458935 0.500000 0.556653
O O11 0.557163 0.748022 0.588949
O O12 0.311419 0.739091 0.580018
O O13 0.329060 0.000000 0.388298
O O14 0.442139 0.000000 0.055152
O O15 0.500000 0.757316 0.000000
O O16 0.677547 0.500000 0.222934
#
# Coordination Sequence:
#
# PCOD9206040 Si02
#       6
#     8   8   8   8   8   8
#     4  10  21  37  57  81 110 145 184 227 275 327
#     4  11  23  38  58  83 111 146 186 227 275 329
#     4  10  22  40  60  84 115 148 184 228 274 323
#     4  11  23  38  59  86 114 147 186 227 274 327
#     4  10  21  36  55  82 113 144 182 227 274 327
#     4  10  22  39  57  81 112 144 184 231 275 325
#
# _framework density 19.608550999999999
#
# number of rings (size 3 to 8) (size 9 to 14) (size 15 to 20)
#    0.000    1.667    0.000    4.000    0.000    8.667 
#    0.000    0.000    0.000    0.000    0.000    0.000 
#    0.000    0.000    0.000    0.000    0.000    0.000 
#
# Total GULP energy -134200.545418 kJ/mol
# GULP energy per Si atom -5591.689392 kJ/mol
# Density = 1.956392 g / cm^3
# Si number density = 19.608551 Si / 1000 Ang^3
#
#
#
# Elastic Constant Matrix: (Units=GPa)
#
#
# Indices 1 2 3 4 5 6 
#
# 1 1063.8410 797.8151 878.0046 0.0000 96.0218 0.0000
# 2 797.8151 633.6323 722.5047 0.0000 72.2563 0.0000
# 3 878.0046 722.5047 878.9711 0.0000 86.2470 0.0000
# 4 0.0000 0.0000 0.0000 29.3445 0.0000 22.2189
# 5 96.0218 72.2563 86.2470 0.0000 53.9458 0.0000
# 6 0.0000 0.0000 0.0000 22.2189 0.0000 70.2862
#
#
#
# Elastic Compliance Matrix: (Units=1/GPa)
#
#
# Indices 1 2 3 4 5 6 
#
# 1 0.025063 -0.047858 0.014697 0.000000 -0.004005 0.000000
# 2 -0.047858 0.116574 -0.048694 0.000000 0.006894 0.000000
# 3 0.014697 -0.048694 0.026865 0.000000 -0.003888 0.000000
# 4 0.000000 0.000000 0.000000 0.044802 0.000000 -0.014163
# 5 -0.004005 0.006894 -0.003888 0.000000 0.022649 0.000000
# 6 0.000000 0.000000 0.000000 -0.014163 0.000000 0.018705
#
#
# Mechanical properties :
#
#
# Convention : Reuss Voigt Hill
#
# Bulk Modulus (GPa) = 208.72070 819.23258 513.97664
# Shear Modulus (GPa) = 11.90575 42.58996 27.24785
#
# Velocity S-wave (km/s) = 2.46676 4.66554 3.73177
# Velocity P-wave (km/s) = 10.71392 21.15948 16.77068
#
# Compressibility (1/GPa) = 0.00479109
#
# Stress axis : x y z
#
# Youngs Moduli (GPa) = 39.90003 8.57821 37.22330
#
# Poissons Ratio (x) = 0.41053 -0.54705
# Poissons Ratio (y) = 1.90953 1.81256
# Poissons Ratio (z) = -0.58639 0.41771
#
# Static dielectric constant tensor:
#      x y z
#    x 1.649720 0.000000 -0.029730 
#    y 0.000000 1.669920 0.000000 
#    z -0.029730 0.000000 1.663130 
# 
# From -- ./inp_files/334661.got.cif
#   From: 2010.05.17/outbox.cif.g08.bks.cpg/sg12_168_cif.got.tgz:334661.got - 2010.06.03 13:09:07.
