data_PCOD9206274
_publ_section_title
;
Structure prediction by ZEFSAII (Michael W. Deem and Ramdas Pophale) SiO2 
 PCOD9206274
Probable space group: C 2/M
;
_chemical_formula_sum "Si O2"
_cell_formula_units_Z 50
_cell_length_a 15.324017
_cell_length_b 7.617694
_cell_length_c 19.899697
_cell_angle_alpha 90.000000
_cell_angle_beta 58.389106
_cell_angle_gamma 90.000000
_cell_volume 1978.300141
_symmetry_space_group_name_H-M "C 2/M"
_symmetry_group_IT_number 12
_symmetry_cell_setting 'monoclinic'
loop_
_space_group_symop_operation_xyz
x,y,z
-x,y,-z
-x,-y,-z
x,-y,z
1/2+x,1/2+y,z
1/2-x,1/2+y,-z
1/2-x,1/2-y,-z
1/2+x,1/2-y,z
loop_
_atom_site_type_symbol
_atom_site_label
_atom_site_fract_x
_atom_site_fract_y
_atom_site_fract_z
Si Si1 0.914104 0.297413 0.444661
Si Si2 0.858823 0.212070 0.684128
Si Si3 0.686158 0.204535 0.648001
Si Si4 0.000000 0.000000 0.500000
Si Si5 0.360172 0.709285 0.983908
Si Si6 0.021175 0.192930 0.815761
Si Si7 0.184874 0.299178 0.847661
O O1 0.890998 0.500000 0.473159
O O2 0.030674 0.296068 0.367806
O O3 0.924655 0.156005 0.499207
O O4 0.837723 0.229454 0.416954
O O5 0.775278 0.273600 0.661843
O O6 0.802329 0.239155 0.778984
O O7 0.877320 0.000000 0.666000
O O8 0.577433 0.222411 0.730601
O O9 0.706503 0.000000 0.633026
O O10 0.379981 0.500000 0.981588
O O11 0.354899 0.784126 0.060839
O O12 0.250000 0.750000 0.000000
O O13 0.436198 0.782341 0.896481
O O14 0.113166 0.180162 0.832048
O O15 0.983141 0.000000 0.810218
O O16 0.170158 0.500000 0.830251
#
# Coordination Sequence:
#
# PCOD9206274 Si02
#       7
#     8   8   8   2   8   8   8
#     4  11  24  44  73 100 135 174 214 262 319 392
#     4   9  19  40  66  95 131 169 213 269 323 379
#     4   9  21  40  66  97 130 167 218 266 317 386
#     4  12  26  48  72 102 140 174 206 264 324 386
#     4  11  24  37  50  77 119 161 211 266 318 378
#     4  10  21  36  57  84 117 159 208 262 320 373
#     4  10  21  37  59  84 117 161 208 260 319 374
#
# _framework density 25.274224
#
# number of rings (size 3 to 8) (size 9 to 14) (size 15 to 20)
#    0.000    1.920    0.800    3.120    3.360    7.680 
#    0.000    0.800    0.000    0.000    0.000    0.000 
#    0.000    0.000    0.000    0.000    0.000    0.000 
#
# Total GULP energy -139443.617693 kJ/mol
# GULP energy per Si atom -5577.744708 kJ/mol
# Density = 2.521670 g / cm^3
# Si number density = 25.274224 Si / 1000 Ang^3
#
#
#
# Elastic Constant Matrix: (Units=GPa)
#
#
# Indices 1 2 3 4 5 6 
#
# 1 55.4170 2.1022 47.6380 0.0000 3.5241 0.0000
# 2 2.1022 94.0357 19.1015 0.0000 0.6786 0.0001
# 3 47.6380 19.1015 149.4505 0.0000 -19.7107 0.0000
# 4 0.0000 0.0000 0.0000 32.4506 0.0000 0.8947
# 5 3.5241 0.6786 -19.7107 0.0000 58.4125 0.0000
# 6 0.0000 0.0001 0.0000 0.8947 0.0000 21.0586
#
#
#
# Elastic Compliance Matrix: (Units=1/GPa)
#
#
# Indices 1 2 3 4 5 6 
#
# 1 0.026121 0.001300 -0.009108 0.000000 -0.004664 0.000000
# 2 0.001300 0.011004 -0.001934 0.000000 -0.000859 0.000000
# 3 -0.009108 -0.001934 0.010379 0.000000 0.004074 0.000000
# 4 0.000000 0.000000 0.000000 0.030852 0.000000 -0.001311
# 5 -0.004664 -0.000859 0.004074 0.000000 0.018786 0.000000
# 6 0.000000 0.000000 0.000000 -0.001311 0.000000 0.047542
#
#
# Mechanical properties :
#
#
# Convention : Reuss Voigt Hill
#
# Bulk Modulus (GPa) = 35.68793 48.50964 42.09878
# Shear Modulus (GPa) = 28.81698 37.72179 33.26938
#
# Velocity S-wave (km/s) = 3.38031 3.86748 3.63207
# Velocity P-wave (km/s) = 5.42091 6.25925 5.85510
#
# Compressibility (1/GPa) = 0.02802068
#
# Stress axis : x y z
#
# Youngs Moduli (GPa) = 38.28268 90.87385 96.35021
#
# Poissons Ratio (x) = -0.11811 0.87752
# Poissons Ratio (y) = -0.04976 0.18635
# Poissons Ratio (z) = 0.34866 0.17575
#
# Static dielectric constant tensor:
#      x y z
#    x 1.969230 0.000000 -0.045060 
#    y 0.000000 1.982030 0.000000 
#    z -0.045060 0.000000 2.336640 
# 
# From -- ./inp_files/274491.got.cif
#   From: 2010.05.17/outbox.cif.g08.bks.cpg/sg12_138_cif.got.tgz:274491.got - 2010.06.03 13:09:07.
