data_PCOD9206454
_publ_section_title
;
Structure prediction by ZEFSAII (Michael W. Deem and Ramdas Pophale) SiO2 
 PCOD9206454
Probable space group: C 2/M
;
_chemical_formula_sum "Si O2"
_cell_formula_units_Z 48
_cell_length_a 14.347139
_cell_length_b 9.470878
_cell_length_c 17.621990
_cell_angle_alpha 90.000000
_cell_angle_beta 102.482175
_cell_angle_gamma 90.000000
_cell_volume 2337.878533
_symmetry_space_group_name_H-M "C 2/M"
_symmetry_group_IT_number 12
_symmetry_cell_setting 'monoclinic'
loop_
_space_group_symop_operation_xyz
x,y,z
-x,y,-z
-x,-y,-z
x,-y,z
1/2+x,1/2+y,z
1/2-x,1/2+y,-z
1/2-x,1/2-y,-z
1/2+x,1/2-y,z
loop_
_atom_site_type_symbol
_atom_site_label
_atom_site_fract_x
_atom_site_fract_y
_atom_site_fract_z
Si Si1 0.596466 0.836218 0.973090
Si Si2 0.031114 0.836163 0.314450
Si Si3 0.151921 0.165216 0.491016
Si Si4 0.719442 0.662663 0.883113
Si Si5 0.204255 0.838235 0.243090
Si Si6 0.387024 0.161716 0.372041
O O1 0.686958 0.832471 0.046059
O O2 0.581800 0.000000 0.947405
O O3 0.500000 0.789742 0.000000
O O4 0.632028 0.742352 0.908984
O O5 0.093231 0.826287 0.402809
O O6 0.100384 0.800594 0.256883
O O7 0.946247 0.727980 0.313265
O O8 0.000162 0.000000 0.301883
O O9 0.250000 0.250000 0.500000
O O10 0.100969 0.239193 0.553170
O O11 0.168718 0.000000 0.510258
O O12 0.694318 0.500000 0.865879
O O13 0.753815 0.737871 0.813020
O O14 0.277013 0.837199 0.326777
O O15 0.201399 0.000000 0.214037
O O16 0.415045 0.000000 0.392462
#
# Coordination Sequence:
#
# PCOD9206454 Si02
#       6
#     8   8   8   8   8   8
#     4   9  19  38  62  86 116 151 184 223 276 332
#     4  10  22  40  58  81 113 151 191 237 294 345
#     4  11  21  37  60  83 112 148 191 242 294 344
#     4  10  21  36  58  89 117 145 189 232 272 329
#     4  10  22  41  58  77 117 158 187 228 286 341
#     4  11  23  39  58  84 112 148 196 240 289 347
#
# _framework density 20.531434000000001
#
# number of rings (size 3 to 8) (size 9 to 14) (size 15 to 20)
#    0.000    1.833    1.667    2.000    0.000    7.667 
#    0.000    5.000    0.000    0.000    0.000    0.000 
#    0.000    0.000    0.000    0.000    0.000    0.000 
#
# Total GULP energy -134092.266804 kJ/mol
# GULP energy per Si atom -5587.177783 kJ/mol
# Density = 2.048470 g / cm^3
# Si number density = 20.531434 Si / 1000 Ang^3
#
#
#
# Elastic Constant Matrix: (Units=GPa)
#
#
# Indices 1 2 3 4 5 6 
#
# 1 103.9942 50.7626 11.8911 0.0000 -38.7618 0.0000
# 2 50.7626 120.6652 50.4533 0.0000 -39.0361 0.0000
# 3 11.8911 50.4533 67.0832 0.0000 -35.3619 0.0000
# 4 0.0000 0.0000 0.0000 26.7002 0.0000 -8.3066
# 5 -38.7618 -39.0361 -35.3619 0.0000 39.8902 0.0000
# 6 0.0000 0.0000 0.0000 -8.3066 0.0000 31.5549
#
#
#
# Elastic Compliance Matrix: (Units=1/GPa)
#
#
# Indices 1 2 3 4 5 6 
#
# 1 0.022070 -0.006669 0.016835 0.000000 0.029843 0.000000
# 2 -0.006669 0.015272 -0.010967 0.000000 -0.001258 0.000000
# 3 0.016835 -0.010967 0.043433 0.000000 0.044130 0.000000
# 4 0.000000 0.000000 0.000000 0.040794 0.000000 0.010739
# 5 0.029843 -0.001258 0.044130 0.000000 0.091958 0.000000
# 6 0.000000 0.000000 0.000000 0.010739 0.000000 0.034518
#
#
# Mechanical properties :
#
#
# Convention : Reuss Voigt Hill
#
# Bulk Modulus (GPa) = 12.63049 57.55076 35.09062
# Shear Modulus (GPa) = 18.11358 31.53812 24.82585
#
# Velocity S-wave (km/s) = 2.97347 3.92355 3.48107
# Velocity P-wave (km/s) = 4.23720 6.97259 5.76935
#
# Compressibility (1/GPa) = 0.07917351
#
# Stress axis : x y z
#
# Youngs Moduli (GPa) = 45.31048 65.48068 23.02392
#
# Poissons Ratio (x) = 0.43672 -0.38762
# Poissons Ratio (y) = 0.30219 0.25249
# Poissons Ratio (z) = -0.76282 0.71810
#
# Static dielectric constant tensor:
#      x y z
#    x 1.762400 0.000000 0.001510 
#    y 0.000000 1.694050 0.000000 
#    z 0.001510 0.000000 1.736280 
# 
# From -- ./inp_files/267628.got.cif
#   From: 2010.05.17/outbox.cif.g08.bks.cpg/sg12_134_cif.got.tgz:267628.got - 2010.06.03 13:09:07.
