data_PCOD9206547
_publ_section_title
;
Structure prediction by ZEFSAII (Michael W. Deem and Ramdas Pophale) SiO2 
 PCOD9206547
Probable space group: C 2/M
;
_chemical_formula_sum "Si O2"
_cell_formula_units_Z 56
_cell_length_a 23.006280
_cell_length_b 8.870686
_cell_length_c 14.141203
_cell_angle_alpha 90.000000
_cell_angle_beta 83.862300
_cell_angle_gamma 90.000000
_cell_volume 2869.414858
_symmetry_space_group_name_H-M "C 2/M"
_symmetry_group_IT_number 12
_symmetry_cell_setting 'monoclinic'
loop_
_space_group_symop_operation_xyz
x,y,z
-x,y,-z
-x,-y,-z
x,-y,z
1/2+x,1/2+y,z
1/2-x,1/2+y,-z
1/2-x,1/2-y,-z
1/2+x,1/2-y,z
loop_
_atom_site_type_symbol
_atom_site_label
_atom_site_fract_x
_atom_site_fract_y
_atom_site_fract_z
Si Si1 0.486770 0.816161 0.608736
Si Si2 0.399441 0.181423 0.294870
Si Si3 0.768198 0.180420 0.794741
Si Si4 0.778415 0.679409 0.403410
Si Si5 0.606521 0.820616 0.230510
Si Si6 0.847498 0.820819 0.114044
Si Si7 0.560674 0.179306 0.036975
O O1 0.500000 0.764459 0.500000
O O2 0.539878 0.773522 0.668580
O O3 0.426237 0.768724 0.668435
O O4 0.485732 0.000000 0.606792
O O5 0.346849 0.213972 0.377152
O O6 0.382439 0.261169 0.200436
O O7 0.399932 0.000000 0.277746
O O8 0.752198 0.225968 0.689442
O O9 0.833178 0.237739 0.801289
O O10 0.717500 0.251812 0.867921
O O11 0.764569 0.000000 0.802560
O O12 0.772947 0.500000 0.411389
O O13 0.750000 0.750000 0.500000
O O14 0.563163 0.799573 0.149085
O O15 0.618129 0.000000 0.235986
O O16 0.843970 0.000000 0.115572
O O17 0.884646 0.762409 0.019295
O O18 0.566526 0.000000 0.017182
O O19 0.500000 0.229663 0.000000
#
# Coordination Sequence:
#
# PCOD9206547 Si02
#       7
#     8   8   8   8   8   8   8
#     4   9  18  33  57  86 115 150 192 235 283 342
#     4   9  18  35  56  81 113 151 190 232 286 346
#     4  10  22  40  58  80 116 158 193 235 292 352
#     4   9  19  32  52  79 106 144 190 236 284 334
#     4  10  21  36  59  89 117 149 193 242 287 339
#     4  11  22  37  60  88 115 149 193 245 293 340
#     4  10  21  39  63  89 118 156 195 235 285 346
#
# _framework density 19.516175
#
# number of rings (size 3 to 8) (size 9 to 14) (size 15 to 20)
#    0.000    2.286    0.000    3.429    2.000    6.571 
#    0.000    2.143    0.000    0.857    0.000    0.000 
#    0.000    0.000    0.000    0.000    0.000    0.000 
#
# Total GULP energy -156334.228143 kJ/mol
# GULP energy per Si atom -5583.365291 kJ/mol
# Density = 1.947176 g / cm^3
# Si number density = 19.516175 Si / 1000 Ang^3
#
#
#
# Elastic Constant Matrix: (Units=GPa)
#
#
# Indices 1 2 3 4 5 6 
#
# 1 105.2592 28.9425 28.9208 0.0000 -9.9095 0.0000
# 2 28.9425 39.0274 34.6435 0.0000 -6.3704 0.0000
# 3 28.9208 34.6435 92.7101 0.0000 -24.9350 0.0000
# 4 0.0000 0.0000 0.0000 25.6019 0.0000 -2.9348
# 5 -9.9095 -6.3704 -24.9350 0.0000 18.4953 0.0000
# 6 0.0000 0.0000 0.0000 -2.9348 0.0000 19.2113
#
#
#
# Elastic Compliance Matrix: (Units=1/GPa)
#
#
# Indices 1 2 3 4 5 6 
#
# 1 0.012180 -0.008971 0.000748 0.000000 0.004445 0.000000
# 2 -0.008971 0.046063 -0.017947 0.000000 -0.013138 0.000000
# 3 0.000748 -0.017947 0.024639 0.000000 0.027437 0.000000
# 4 0.000000 0.000000 0.000000 0.039756 0.000000 0.006073
# 5 0.004445 -0.013138 0.027437 0.000000 0.088913 0.000000
# 6 0.000000 0.000000 0.000000 0.006073 0.000000 0.052980
#
#
# Mechanical properties :
#
#
# Convention : Reuss Voigt Hill
#
# Bulk Modulus (GPa) = 32.74324 46.89001 39.81662
# Shear Modulus (GPa) = 15.28806 22.29438 18.79122
#
# Velocity S-wave (km/s) = 2.80188 3.38354 3.10635
# Velocity P-wave (km/s) = 5.22315 6.27239 5.77166
#
# Compressibility (1/GPa) = 0.03054065
#
# Stress axis : x y z
#
# Youngs Moduli (GPa) = 82.10188 21.70937 40.58658
#
# Poissons Ratio (x) = 0.19476 -0.03037
# Poissons Ratio (y) = 0.73656 0.72843
# Poissons Ratio (z) = -0.06143 0.38963
#
# Static dielectric constant tensor:
#      x y z
#    x 1.686190 0.000000 0.005300 
#    y 0.000000 1.659130 0.000000 
#    z 0.005300 0.000000 1.689930 
# 
# From -- ./inp_files/237327.got.cif
#   From: 2010.05.17/outbox.cif.g08.bks.cpg/sg12_119_cif.got.tgz:237327.got - 2010.06.03 13:09:07.
