data_PCOD9206801
_publ_section_title
;
Structure prediction by ZEFSAII (Michael W. Deem and Ramdas Pophale) SiO2 
 PCOD9206801
Probable space group: C 2/M
;
_chemical_formula_sum "Si O2"
_cell_formula_units_Z 48
_cell_length_a 10.839820
_cell_length_b 15.347358
_cell_length_c 16.381510
_cell_angle_alpha 90.000000
_cell_angle_beta 49.039433
_cell_angle_gamma 90.000000
_cell_volume 2058.017841
_symmetry_space_group_name_H-M "C 2/M"
_symmetry_group_IT_number 12
_symmetry_cell_setting 'monoclinic'
loop_
_space_group_symop_operation_xyz
x,y,z
-x,y,-z
-x,-y,-z
x,-y,z
1/2+x,1/2+y,z
1/2-x,1/2+y,-z
1/2-x,1/2-y,-z
1/2+x,1/2-y,z
loop_
_atom_site_type_symbol
_atom_site_label
_atom_site_fract_x
_atom_site_fract_y
_atom_site_fract_z
Si Si1 0.318877 0.144178 0.886527
Si Si2 0.311262 0.400471 0.221186
Si Si3 0.352588 0.902758 0.348943
Si Si4 0.592947 0.404874 0.321779
Si Si5 0.323958 0.646897 0.882393
Si Si6 0.002601 0.720042 0.402239
O O1 0.194338 0.104485 0.874766
O O2 0.497032 0.118295 0.776921
O O3 0.303211 0.248873 0.887090
O O4 0.282398 0.116511 0.994530
O O5 0.272899 0.500000 0.262846
O O6 0.487455 0.374309 0.178336
O O7 0.172163 0.331430 0.308114
O O8 0.193903 0.900196 0.361852
O O9 0.364416 0.836738 0.418135
O O10 0.375123 0.000000 0.371115
O O11 0.510498 0.500000 0.354101
O O12 0.707002 0.395689 0.192101
O O13 0.495208 0.315249 0.365088
O O14 0.000000 0.725576 0.500000
#
# Coordination Sequence:
#
# PCOD9206801 Si02
#       6
#     8   8   8   8   8   8
#     4  10  21  36  64  91 128 171 207 246 302 362
#     4  11  23  41  64  93 128 161 208 265 310 360
#     4  10  22  42  64  92 129 162 203 255 306 368
#     4  11  24  42  63  91 130 166 203 255 315 376
#     4  11  22  38  61  95 129 167 206 248 304 371
#     4  11  24  43  71  90 118 160 215 262 317 372
#
# _framework density 23.323415000000001
#
# number of rings (size 3 to 8) (size 9 to 14) (size 15 to 20)
#    0.000    1.333    3.333    4.000    0.000    6.333 
#    0.000    1.667    0.000    0.000    0.000    0.000 
#    0.000    0.000    0.000    0.000    0.000    0.000 
#
# Total GULP energy -134271.068505 kJ/mol
# GULP energy per Si atom -5594.627854 kJ/mol
# Density = 2.327033 g / cm^3
# Si number density = 23.323415 Si / 1000 Ang^3
#
#
#
# Elastic Constant Matrix: (Units=GPa)
#
#
# Indices 1 2 3 4 5 6 
#
# 1 36.0317 10.9260 10.4785 0.0000 10.0551 0.0000
# 2 10.9260 173.2144 46.4292 0.0000 13.0686 0.0000
# 3 10.4785 46.4292 122.5399 -0.0001 22.6179 0.0001
# 4 0.0000 0.0000 -0.0001 3.9351 0.0001 18.5171
# 5 10.0551 13.0686 22.6179 0.0001 39.6201 0.0000
# 6 0.0000 0.0000 0.0001 18.5171 0.0000 24.5990
#
#
#
# Elastic Compliance Matrix: (Units=1/GPa)
#
#
# Indices 1 2 3 4 5 6 
#
# 1 0.030258 -0.001156 -0.000897 0.000000 -0.006786 0.000000
# 2 -0.001156 0.006494 -0.002258 0.000000 -0.000559 0.000000
# 3 -0.000897 -0.002258 0.009963 0.000000 -0.004715 0.000000
# 4 0.000000 0.000000 0.000000 -0.099962 0.000000 0.075247
# 5 -0.006786 -0.000559 -0.004715 0.000000 0.029838 0.000000
# 6 0.000000 0.000000 0.000000 0.075247 0.000000 -0.015991
#
#
# Mechanical properties :
#
#
# Convention : Reuss Voigt Hill
#
# Bulk Modulus (GPa) = 26.25179 51.93925 39.09552
# Shear Modulus (GPa) = -276.55495 31.22764 -122.66366
#
# Velocity S-wave (km/s) = -10.90098 3.66306 -7.25994
# Velocity P-wave (km/s) = 12.13103 6.34099 7.31278
#
# Compressibility (1/GPa) = 0.03809264
#
# Stress axis : x y z
#
# Youngs Moduli (GPa) = 33.04858 153.99679 100.36877
#
# Poissons Ratio (x) = 0.17806 0.09001
# Poissons Ratio (y) = 0.03821 0.22666
# Poissons Ratio (z) = 0.02964 0.34777
#
# Static dielectric constant tensor:
#      x y z
#    x 1.857230 0.000000 -0.009130 
#    y 0.000000 1.883870 0.000000 
#    z -0.009130 0.000000 1.902820 
# 
# From -- ./inp_files/204308.got.cif
#   From: 2010.05.17/outbox.cif.g08.bks.cpg/sg12_103_cif.got.tgz:204308.got - 2010.06.03 13:09:07.
