data_PCOD9206270
_publ_section_title
;
Structure prediction by ZEFSAII (Michael W. Deem and Ramdas Pophale) SiO2 
 PCOD9206270
Probable space group: C 2/M
;
_chemical_formula_sum "Si O2"
_cell_formula_units_Z 64
_cell_length_a 32.105817
_cell_length_b 7.822520
_cell_length_c 17.711687
_cell_angle_alpha 90.000000
_cell_angle_beta 40.504246
_cell_angle_gamma 90.000000
_cell_volume 2889.165584
_symmetry_space_group_name_H-M "C 2/M"
_symmetry_group_IT_number 12
_symmetry_cell_setting 'monoclinic'
loop_
_space_group_symop_operation_xyz
x,y,z
-x,y,-z
-x,-y,-z
x,-y,z
1/2+x,1/2+y,z
1/2-x,1/2+y,-z
1/2-x,1/2-y,-z
1/2+x,1/2-y,z
loop_
_atom_site_type_symbol
_atom_site_label
_atom_site_fract_x
_atom_site_fract_y
_atom_site_fract_z
Si Si1 0.789368 0.292602 0.289360
Si Si2 0.648139 0.795126 0.474248
Si Si3 0.027005 0.804081 0.882496
Si Si4 0.062708 0.698756 0.455828
Si Si5 0.817712 0.797276 0.996504
Si Si6 0.843994 0.696914 0.367158
Si Si7 0.330037 0.704701 0.807872
Si Si8 0.397041 0.195239 0.025943
O O1 0.790884 0.500000 0.287521
O O2 0.721608 0.237551 0.347827
O O3 0.798212 0.230669 0.363929
O O4 0.850358 0.234188 0.156063
O O5 0.594487 0.728301 0.489500
O O6 0.648374 0.724422 0.559977
O O7 0.638713 0.000000 0.490826
O O8 0.085695 0.702538 0.767484
O O9 0.048079 0.000000 0.862402
O O10 0.000000 0.741190 0.000000
O O11 0.962736 0.794389 0.922161
O O12 0.046875 0.500000 0.493934
O O13 0.120019 0.709271 0.316575
O O14 0.000000 0.774856 0.500000
O O15 0.742780 0.756607 0.108270
O O16 0.856065 0.700790 0.007176
O O17 0.826902 0.000000 0.992888
O O18 0.839948 0.748453 0.881827
O O19 0.824582 0.500000 0.404402
O O20 0.336005 0.500000 0.792172
O O21 0.413404 0.000000 0.022461
#
# Coordination Sequence:
#
# PCOD9206270 Si02
#       8
#     8   8   8   8   8   8   8   8
#     4  10  21  36  57  84 116 152 190 239 289 342
#     4  10  22  38  59  86 113 149 194 241 290 346
#     4  11  23  38  57  83 115 153 195 238 285 337
#     4  10  22  40  60  83 115 153 194 241 296 352
#     4  10  21  37  58  87 120 151 190 241 291 345
#     4  10  21  39  59  82 116 155 197 239 288 345
#     4  10  21  38  60  86 116 151 192 238 295 351
#     4  11  22  36  58  86 117 156 197 236 288 347
#
# _framework density 22.151724000000002
#
# number of rings (size 3 to 8) (size 9 to 14) (size 15 to 20)
#    0.000    1.750    1.250    2.625    0.000    7.750 
#    0.000    1.250    0.000    0.000    0.000    0.000 
#    0.000    0.000    0.000    0.000    0.000    0.000 
#
# Total GULP energy -178731.200055 kJ/mol
# GULP energy per Si atom -5585.350002 kJ/mol
# Density = 2.210131 g / cm^3
# Si number density = 22.151724 Si / 1000 Ang^3
#
#
#
# Elastic Constant Matrix: (Units=GPa)
#
#
# Indices 1 2 3 4 5 6 
#
# 1 146.8513 23.2398 24.8632 -0.0032 -3.2969 -0.0036
# 2 23.2398 36.6599 -2.2097 -0.0839 0.0084 -0.2146
# 3 24.8632 -2.2097 42.7694 0.0072 -3.2607 -0.0090
# 4 -0.0032 -0.0839 0.0072 -3.7145 0.0153 -74.9150
# 5 -3.2969 0.0084 -3.2607 0.0153 14.4665 0.0437
# 6 -0.0036 -0.2146 -0.0090 -74.9150 0.0437 -173.0222
#
#
#
# Elastic Compliance Matrix: (Units=1/GPa)
#
#
# Indices 1 2 3 4 5 6 
#
# 1 0.008634 -0.005790 -0.005258 0.000004 0.000786 0.000006
# 2 -0.005790 0.031248 0.004964 -0.000012 -0.000219 -0.000034
# 3 -0.005258 0.004964 0.027068 -0.000012 0.004900 -0.000001
# 4 0.000004 -0.000012 -0.000012 0.034816 0.000007 -0.015075
# 5 0.000786 -0.000219 0.004900 0.000007 0.070409 0.000015
# 6 0.000006 -0.000034 -0.000001 -0.015075 0.000015 0.000747
#
#
# Mechanical properties :
#
#
# Convention : Reuss Voigt Hill
#
# Bulk Modulus (GPa) = 18.25496 35.34082 26.79789
# Shear Modulus (GPa) = 24.58789 -20.42824 2.07983
#
# Velocity S-wave (km/s) = 3.33525 -3.04006 0.97002
# Velocity P-wave (km/s) = 4.80527 1.91467 3.65763
#
# Compressibility (1/GPa) = 0.05477962
#
# Stress axis : x y z
#
# Youngs Moduli (GPa) = 115.82249 32.00255 36.94387
#
# Poissons Ratio (x) = 0.18531 0.19427
# Poissons Ratio (y) = 0.67066 -0.18338
# Poissons Ratio (z) = 0.60904 -0.15886
#
# Static dielectric constant tensor:
#      x y z
#    x 1.873810 0.000000 0.014520 
#    y 0.000000 1.828910 0.000000 
#    z 0.014520 0.000000 1.789480 
# 
# From -- ./inp_files/295632.got.cif
#   From: 2010.05.17/outbox.cif.g08.bks.cpg/sg12_148_cif.got.tgz:295632.got - 2010.06.03 13:09:07.
