data_PCOD9206583
_publ_section_title
;
Structure prediction by ZEFSAII (Michael W. Deem and Ramdas Pophale) SiO2 
 PCOD9206583
Probable space group: C 2/M
;
_chemical_formula_sum "Si O2"
_cell_formula_units_Z 42
_cell_length_a 9.081930
_cell_length_b 27.149389
_cell_length_c 13.139502
_cell_angle_alpha 90.000000
_cell_angle_beta 33.761205
_cell_angle_gamma 90.000000
_cell_volume 1800.458717
_symmetry_space_group_name_H-M "C 2/M"
_symmetry_group_IT_number 12
_symmetry_cell_setting 'monoclinic'
loop_
_space_group_symop_operation_xyz
x,y,z
-x,y,-z
-x,-y,-z
x,-y,z
1/2+x,1/2+y,z
1/2-x,1/2+y,-z
1/2-x,1/2-y,-z
1/2+x,1/2-y,z
loop_
_atom_site_type_symbol
_atom_site_label
_atom_site_fract_x
_atom_site_fract_y
_atom_site_fract_z
Si Si1 0.719121 0.301266 0.461360
Si Si2 0.500000 0.500000 0.000000
Si Si3 0.784123 0.801826 0.038771
Si Si4 0.821947 0.398504 0.502806
Si Si5 0.315972 0.090527 0.909639
Si Si6 0.661036 0.557611 0.305287
O O1 0.500000 0.300721 0.500000
O O2 0.750000 0.250000 0.500000
O O3 0.694055 0.344754 0.556782
O O4 0.994583 0.310155 0.248808
O O5 0.372253 0.543843 0.999007
O O6 0.838884 0.858696 0.973252
O O7 0.750000 0.750000 0.000000
O O8 0.000000 0.791322 0.000000
O O9 0.563345 0.433218 0.650047
O O10 0.000000 0.401104 0.500000
O O11 0.021037 0.408915 0.293103
O O12 0.555384 0.083651 0.852908
O O13 0.500000 0.573700 0.500000
O O14 0.716632 0.500000 0.281680
#
# Coordination Sequence:
#
# PCOD9206583 Si02
#       6
#     8   2   8   8   8   8
#     4  11  22  40  63  90 124 165 211 262 320 381
#     4  12  20  40  68  86 122 164 226 250 306 386
#     4  11  23  40  62  93 128 163 212 259 314 381
#     4  10  21  36  59  92 124 155 201 260 315 377
#     4  10  21  39  64  92 119 168 210 255 318 382
#     4   9  17  33  58  86 117 154 202 255 314 374
#
# _framework density 23.327390000000001
#
# number of rings (size 3 to 8) (size 9 to 14) (size 15 to 20)
#    0.000    1.714    1.905    4.571    1.333    1.905 
#    0.000    0.000    0.000    1.143    0.000    0.000 
#    0.000    0.000    0.000    0.000    0.000    0.000 
#
# Total GULP energy -116927.319565 kJ/mol
# GULP energy per Si atom -5567.967598 kJ/mol
# Density = 2.327430 g / cm^3
# Si number density = 23.327390 Si / 1000 Ang^3
#
#
#
# Elastic Constant Matrix: (Units=GPa)
#
#
# Indices 1 2 3 4 5 6 
#
# 1 217.0766 45.7076 48.7765 0.0000 -43.3249 0.0000
# 2 45.7076 153.5976 17.8713 0.0000 -10.3731 0.0000
# 3 48.7765 17.8713 38.4660 0.0000 -11.0264 0.0000
# 4 0.0000 0.0000 0.0000 21.4382 0.0000 -19.0129
# 5 -43.3249 -10.3731 -11.0264 0.0000 41.3966 0.0000
# 6 0.0000 0.0000 0.0000 -19.0129 0.0000 39.1772
#
#
#
# Elastic Compliance Matrix: (Units=1/GPa)
#
#
# Indices 1 2 3 4 5 6 
#
# 1 0.007680 -0.001010 -0.007620 0.000000 0.005755 0.000000
# 2 -0.001010 0.007050 -0.001939 0.000000 0.000193 0.000000
# 3 -0.007620 -0.001939 0.036956 0.000000 0.001383 0.000000
# 4 0.000000 0.000000 0.000000 0.081893 0.000000 0.039743
# 5 0.005755 0.000193 0.001383 0.000000 0.030597 0.000000
# 6 0.000000 0.000000 0.000000 0.039743 0.000000 0.044813
#
#
# Mechanical properties :
#
#
# Convention : Reuss Voigt Hill
#
# Bulk Modulus (GPa) = 32.73490 70.42788 51.58139
# Shear Modulus (GPa) = 20.80655 40.18806 30.49730
#
# Velocity S-wave (km/s) = 2.98977 4.15515 3.61967
# Velocity P-wave (km/s) = 5.09721 7.29911 6.29518
#
# Compressibility (1/GPa) = 0.03054844
#
# Stress axis : x y z
#
# Youngs Moduli (GPa) = 130.20619 141.84864 27.05895
#
# Poissons Ratio (x) = 0.14330 0.20618
# Poissons Ratio (y) = 0.13154 0.05247
# Poissons Ratio (z) = 0.99212 0.27505
#
# Static dielectric constant tensor:
#      x y z
#    x 1.895270 0.000000 0.063170 
#    y 0.000000 2.483060 0.000000 
#    z 0.063170 0.000000 2.090770 
# 
# From -- ./inp_files/199585.got.cif
#   From: 2010.05.17/outbox.cif.g08.bks.cpg/sg12_100_cif.got.tgz:199585.got - 2010.06.03 13:09:07.
