data_PCOD9206628
_publ_section_title
;
Structure prediction by ZEFSAII (Michael W. Deem and Ramdas Pophale) SiO2 
 PCOD9206628
Probable space group: C 2/M
;
_chemical_formula_sum "Si O2"
_cell_formula_units_Z 30
_cell_length_a 5.381738
_cell_length_b 29.640781
_cell_length_c 9.621789
_cell_angle_alpha 90.000000
_cell_angle_beta 50.656525
_cell_angle_gamma 90.000000
_cell_volume 1186.996354
_symmetry_space_group_name_H-M "C 2/M"
_symmetry_group_IT_number 12
_symmetry_cell_setting 'monoclinic'
loop_
_space_group_symop_operation_xyz
x,y,z
-x,y,-z
-x,-y,-z
x,-y,z
1/2+x,1/2+y,z
1/2-x,1/2+y,-z
1/2-x,1/2-y,-z
1/2+x,1/2-y,z
loop_
_atom_site_type_symbol
_atom_site_label
_atom_site_fract_x
_atom_site_fract_y
_atom_site_fract_z
Si Si1 0.355928 0.047432 0.267957
Si Si2 0.316934 0.733017 0.704967
Si Si3 0.847877 0.865320 0.800194
Si Si4 0.000000 0.086893 0.000000
Si Si5 0.500000 0.000000 0.500000
O O1 0.170001 0.092354 0.296414
O O2 0.699903 0.055266 0.072873
O O3 0.193943 0.000000 0.276050
O O4 0.437837 0.038255 0.398908
O O5 0.500000 0.748472 0.500000
O O6 0.447308 0.761555 0.789343
O O7 0.410181 0.681766 0.705869
O O8 0.079685 0.880837 0.842577
O O9 0.500000 0.860467 0.000000
#
# Coordination Sequence:
#
# PCOD9206628 Si02
#       5
#     8   8   8   4   2
#     4   9  20  39  57  89 124 161 212 257 316 382
#     4  10  24  45  68  97 129 171 216 269 332 391
#     4  10  23  39  62  93 125 165 214 266 323 381
#     4  10  21  36  60  88 122 174 202 262 319 380
#     4   8  20  38  56  86 118 164 200 268 302 386
#
# _framework density 25.273878
#
# number of rings (size 3 to 8) (size 9 to 14) (size 15 to 20)
#    0.800    1.600    0.000    0.400    7.467    9.067 
#    2.400    1.333    0.000    0.000    0.000    0.000 
#    0.000    0.000    0.000    0.000    0.000    0.000 
#
# Total GULP energy -83553.759383 kJ/mol
# GULP energy per Si atom -5570.250626 kJ/mol
# Density = 2.521635 g / cm^3
# Si number density = 25.273878 Si / 1000 Ang^3
#
#
#
# Elastic Constant Matrix: (Units=GPa)
#
#
# Indices 1 2 3 4 5 6 
#
# 1 77.6333 45.7532 28.6693 0.0000 39.3402 0.0000
# 2 45.7532 180.2980 24.1248 0.0000 44.0992 0.0000
# 3 28.6693 24.1248 70.8863 0.0000 24.4742 0.0000
# 4 0.0000 0.0000 0.0000 19.8608 0.0000 2.1336
# 5 39.3402 44.0992 24.4742 0.0000 62.0749 0.0000
# 6 0.0000 0.0000 0.0000 2.1336 0.0000 31.7237
#
#
#
# Elastic Compliance Matrix: (Units=1/GPa)
#
#
# Indices 1 2 3 4 5 6 
#
# 1 0.020804 -0.002296 -0.004218 0.000000 -0.009891 0.000000
# 2 -0.002296 0.007000 -0.000277 0.000000 -0.003409 0.000000
# 3 -0.004218 -0.000277 0.017267 0.000000 -0.003938 0.000000
# 4 0.000000 0.000000 0.000000 0.050717 0.000000 -0.003411
# 5 -0.009891 -0.003409 -0.003938 0.000000 0.026352 0.000000
# 6 0.000000 0.000000 0.000000 -0.003411 0.000000 0.031752
#
#
# Mechanical properties :
#
#
# Convention : Reuss Voigt Hill
#
# Bulk Modulus (GPa) = 31.75660 58.43468 45.09564
# Shear Modulus (GPa) = 28.09501 38.08324 33.08912
#
# Velocity S-wave (km/s) = 3.33772 3.88599 3.62224
# Velocity P-wave (km/s) = 5.23890 6.58068 5.94775
#
# Compressibility (1/GPa) = 0.03148952
#
# Stress axis : x y z
#
# Youngs Moduli (GPa) = 48.06870 142.86287 57.91465
#
# Poissons Ratio (x) = 0.32797 0.24427
# Poissons Ratio (y) = 0.11035 0.01603
# Poissons Ratio (z) = 0.20274 0.03955
#
# Static dielectric constant tensor:
#      x y z
#    x 2.145280 0.000000 -0.046220 
#    y 0.000000 1.869170 0.000000 
#    z -0.046220 0.000000 2.028210 
# 
# From -- ./inp_files/34516.got.cif
#   From: 2010.05.17/outbox.cif.g08.bks.cpg/sg12_18_cif.got.tgz:34516.got - 2010.06.03 13:09:07.
