data_PCOD9206064
_publ_section_title
;
Structure prediction by ZEFSAII (Michael W. Deem and Ramdas Pophale) SiO2 
 PCOD9206064
Probable space group: C 2/M
;
_chemical_formula_sum "Si O2"
_cell_formula_units_Z 44
_cell_length_a 9.778540
_cell_length_b 7.438965
_cell_length_c 28.326826
_cell_angle_alpha 90.000000
_cell_angle_beta 56.836582
_cell_angle_gamma 90.000000
_cell_volume 1724.919857
_symmetry_space_group_name_H-M "C 2/M"
_symmetry_group_IT_number 12
_symmetry_cell_setting 'monoclinic'
loop_
_space_group_symop_operation_xyz
x,y,z
-x,y,-z
-x,-y,-z
x,-y,z
1/2+x,1/2+y,z
1/2-x,1/2+y,-z
1/2-x,1/2-y,-z
1/2+x,1/2-y,z
loop_
_atom_site_type_symbol
_atom_site_label
_atom_site_fract_x
_atom_site_fract_y
_atom_site_fract_z
Si Si1 0.135349 0.716130 0.574649
Si Si2 0.500000 0.750685 0.500000
Si Si3 0.861845 0.784261 0.702685
Si Si4 0.482890 0.292026 0.127525
Si Si5 0.342239 0.281961 0.059185
Si Si6 0.997064 0.792503 0.229135
O O1 0.158685 0.500000 0.562004
O O2 0.312738 0.803166 0.549592
O O3 0.054853 0.801954 0.543062
O O4 0.011742 0.734497 0.641062
O O5 0.892142 0.715052 0.750294
O O6 0.688948 0.714233 0.717354
O O7 0.853412 0.000000 0.705562
O O8 0.436090 0.500000 0.142015
O O9 0.367634 0.217580 0.108446
O O10 0.668635 0.283657 0.073559
O O11 0.490158 0.208127 0.178279
O O12 0.339687 0.500000 0.059391
O O13 0.500000 0.223884 0.000000
O O14 0.046225 0.000000 0.214161
#
# Coordination Sequence:
#
# PCOD9206064 Si02
#       6
#     8   4   8   8   8   8
#     4  11  23  41  63  87 117 152 188 231 281 332
#     4  10  24  40  62  90 116 148 192 232 274 334
#     4  11  24  39  59  87 116 148 190 234 280 337
#     4  10  21  37  58  83 112 149 192 235 283 339
#     4  10  21  36  55  83 116 149 189 236 285 339
#     4  10  22  40  59  83 115 150 190 236 284 336
#
# _framework density 25.508431000000002
#
# number of rings (size 3 to 8) (size 9 to 14) (size 15 to 20)
#    0.000    1.636    0.000    3.818    0.000   10.545 
#    0.000    0.000    0.000    0.000    0.000    0.000 
#    0.000    0.000    0.000    0.000    0.000    0.000 
#
# Total GULP energy -122797.912120 kJ/mol
# GULP energy per Si atom -5581.723278 kJ/mol
# Density = 2.545037 g / cm^3
# Si number density = 25.508431 Si / 1000 Ang^3
#
#
#
# Elastic Constant Matrix: (Units=GPa)
#
#
# Indices 1 2 3 4 5 6 
#
# 1 160.9079 5.2910 5.3769 0.0000 -10.0586 0.0000
# 2 5.2910 128.3814 11.5428 0.0000 5.6615 0.0000
# 3 5.3769 11.5428 97.0426 0.0000 -9.3324 0.0000
# 4 0.0000 0.0000 0.0000 15.0839 0.0000 -8.3853
# 5 -10.0586 5.6615 -9.3324 0.0000 49.1727 0.0000
# 6 0.0000 0.0000 0.0000 -8.3853 0.0000 -2.6168
#
#
#
# Elastic Compliance Matrix: (Units=1/GPa)
#
#
# Indices 1 2 3 4 5 6 
#
# 1 0.006312 -0.000300 -0.000190 0.000000 0.001290 0.000000
# 2 -0.000300 0.007947 -0.001042 0.000000 -0.001174 0.000000
# 3 -0.000190 -0.001042 0.010641 0.000000 0.002101 0.000000
# 4 0.000000 0.000000 0.000000 0.023835 0.000000 -0.076380
# 5 0.001290 -0.001174 0.002101 0.000000 0.021134 0.000000
# 6 0.000000 0.000000 0.000000 -0.076380 0.000000 -0.137395
#
#
# Mechanical properties :
#
#
# Convention : Reuss Voigt Hill
#
# Bulk Modulus (GPa) = 45.79417 47.86149 46.82783
# Shear Modulus (GPa) = -87.43695 36.60271 -25.41712
#
# Velocity S-wave (km/s) = -5.86106 3.79215 -3.16004
# Velocity P-wave (km/s) = 5.27364 6.16260 2.25459
#
# Compressibility (1/GPa) = 0.02183684
#
# Stress axis : x y z
#
# Youngs Moduli (GPa) = 158.43956 125.83255 93.97452
#
# Poissons Ratio (x) = 0.03774 0.01786
# Poissons Ratio (y) = 0.04752 0.09788
# Poissons Ratio (z) = 0.03011 0.13106
#
# Static dielectric constant tensor:
#      x y z
#    x 1.928710 0.000000 0.017870 
#    y 0.000000 2.042860 0.000000 
#    z 0.017870 0.000000 2.022560 
# 
# From -- ./inp_files/371821.got.cif
#   From: 2010.05.17/outbox.cif.g08.bks.cpg/sg12_186_cif.got.tgz:371821.got - 2010.06.03 13:09:07.
