data_PCOD9206925
_publ_section_title
;
Structure prediction by ZEFSAII (Michael W. Deem and Ramdas Pophale) SiO2 
 PCOD9206925
Probable space group: C 2/M
;
_chemical_formula_sum "Si O2"
_cell_formula_units_Z 40
_cell_length_a 20.356949
_cell_length_b 9.401640
_cell_length_c 18.050375
_cell_angle_alpha 90.000000
_cell_angle_beta 44.064654
_cell_angle_gamma 90.000000
_cell_volume 2402.595818
_symmetry_space_group_name_H-M "C 2/M"
_symmetry_group_IT_number 12
_symmetry_cell_setting 'monoclinic'
loop_
_space_group_symop_operation_xyz
x,y,z
-x,y,-z
-x,-y,-z
x,-y,z
1/2+x,1/2+y,z
1/2-x,1/2+y,-z
1/2-x,1/2-y,-z
1/2+x,1/2-y,z
loop_
_atom_site_type_symbol
_atom_site_label
_atom_site_fract_x
_atom_site_fract_y
_atom_site_fract_z
Si Si1 0.417274 0.663712 0.504317
Si Si2 0.210131 0.667859 0.286341
Si Si3 0.047999 0.332700 0.295324
Si Si4 0.847511 0.670487 0.940107
Si Si5 0.602904 0.332481 0.951876
O O1 0.500000 0.669036 0.500000
O O2 0.396016 0.500000 0.506103
O O3 0.329454 0.743632 0.612788
O O4 0.462270 0.741865 0.397369
O O5 0.205274 0.500000 0.307505
O O6 0.139051 0.693024 0.274600
O O7 0.314724 0.703102 0.173644
O O8 0.025484 0.500000 0.320042
O O9 0.080045 0.301618 0.186019
O O10 0.832953 0.500000 0.956072
O O11 0.884574 0.735126 0.986565
O O12 0.750000 0.750000 0.000000
O O13 0.616941 0.500000 0.960581
O O14 0.500000 0.317052 0.000000
#
# Coordination Sequence:
#
# PCOD9206925 Si02
#       5
#     8   8   8   8   8
#     4   9  17  27  43  72 102 129 164 211 260 302
#     4   9  16  30  49  70 100 137 171 206 254 310
#     4   9  17  30  48  72 101 134 168 207 258 312
#     4  11  21  34  54  79 108 139 176 218 264 312
#     4  10  21  37  55  77 107 143 180 215 259 315
#
# _framework density 16.648658999999999
#
# number of rings (size 3 to 8) (size 9 to 14) (size 15 to 20)
#    0.000    2.400    2.000    1.200    0.000    5.200 
#    0.000    0.000    0.000    1.200    0.000    0.000 
#    0.000    0.000    0.000    0.000    0.000    0.000 
#
# Total GULP energy -111527.122928 kJ/mol
# GULP energy per Si atom -5576.356146 kJ/mol
# Density = 1.661077 g / cm^3
# Si number density = 16.648659 Si / 1000 Ang^3
#
#
#
# Elastic Constant Matrix: (Units=GPa)
#
#
# Indices 1 2 3 4 5 6 
#
# 1 41.3328 42.1621 48.7560 0.0000 -0.2845 0.0000
# 2 42.1621 92.2821 104.2827 0.0000 5.5776 0.0000
# 3 48.7560 104.2827 185.6530 0.0000 0.0081 0.0000
# 4 0.0000 0.0000 0.0000 31.7146 0.0000 6.2660
# 5 -0.2845 5.5776 0.0081 0.0000 16.0348 0.0000
# 6 0.0000 0.0000 0.0000 6.2660 0.0000 18.4285
#
#
#
# Elastic Compliance Matrix: (Units=1/GPa)
#
#
# Indices 1 2 3 4 5 6 
#
# 1 0.046386 -0.021719 0.000018 0.000000 0.008378 0.000000
# 2 -0.021719 0.041647 -0.017689 0.000000 -0.014863 0.000000
# 3 0.000018 -0.017689 0.015317 0.000000 0.006146 0.000000
# 4 0.000000 0.000000 0.000000 0.033802 0.000000 -0.011493
# 5 0.008378 -0.014863 0.006146 0.000000 0.067680 0.000000
# 6 0.000000 0.000000 0.000000 -0.011493 0.000000 0.058172
#
#
# Mechanical properties :
#
#
# Convention : Reuss Voigt Hill
#
# Bulk Modulus (GPa) = 40.70114 78.85216 59.77665
# Shear Modulus (GPa) = 14.28676 21.50673 17.89675
#
# Velocity S-wave (km/s) = 2.93257 3.59806 3.28222
# Velocity P-wave (km/s) = 5.99723 8.04529 7.09554
#
# Compressibility (1/GPa) = 0.02456933
#
# Stress axis : x y z
#
# Youngs Moduli (GPa) = 21.55839 24.01131 65.28491
#
# Poissons Ratio (x) = 0.52151 -0.00116
# Poissons Ratio (y) = 0.46823 1.15482
# Poissons Ratio (z) = -0.00038 0.42473
#
# Static dielectric constant tensor:
#      x y z
#    x 1.534690 0.000000 -0.000950 
#    y 0.000000 1.557910 0.000000 
#    z -0.000950 0.000000 1.554690 
# 
# From -- ./inp_files/162753.got.cif
#   From: 2010.05.17/outbox.cif.g08.bks.cpg/sg12_82_cif.got.tgz:162753.got - 2010.06.03 13:09:07.
