data_PCOD9206301
_publ_section_title
;
Structure prediction by ZEFSAII (Michael W. Deem and Ramdas Pophale) SiO2 
 PCOD9206301
Probable space group: C 2/M
;
_chemical_formula_sum "Si O2"
_cell_formula_units_Z 56
_cell_length_a 14.052975
_cell_length_b 17.199412
_cell_length_c 17.944304
_cell_angle_alpha 90.000000
_cell_angle_beta 41.817439
_cell_angle_gamma 90.000000
_cell_volume 2891.862227
_symmetry_space_group_name_H-M "C 2/M"
_symmetry_group_IT_number 12
_symmetry_cell_setting 'monoclinic'
loop_
_space_group_symop_operation_xyz
x,y,z
-x,y,-z
-x,-y,-z
x,-y,z
1/2+x,1/2+y,z
1/2-x,1/2+y,-z
1/2-x,1/2-y,-z
1/2+x,1/2-y,z
loop_
_atom_site_type_symbol
_atom_site_label
_atom_site_fract_x
_atom_site_fract_y
_atom_site_fract_z
Si Si1 0.844149 0.820772 0.914367
Si Si2 0.869673 0.685301 0.418511
Si Si3 0.697383 0.798766 0.269964
Si Si4 0.832545 0.415506 0.579379
Si Si5 0.162713 0.087630 0.931393
Si Si6 0.582140 0.801105 0.777801
Si Si7 0.604329 0.910107 0.008966
O O1 0.992696 0.778460 0.812526
O O2 0.750000 0.750000 0.000000
O O3 0.847482 0.883900 0.978040
O O4 0.750936 0.863667 0.906452
O O5 0.750000 0.750000 0.500000
O O6 0.826066 0.615811 0.499335
O O7 0.872689 0.667013 0.329026
O O8 0.028728 0.712618 0.352320
O O9 0.717756 0.854598 0.329818
O O10 0.756941 0.847184 0.164504
O O11 0.791412 0.724444 0.239543
O O12 0.763825 0.500000 0.628449
O O13 0.000000 0.422359 0.500000
O O14 0.223549 0.000000 0.887887
O O15 0.000000 0.085727 0.000000
O O16 0.478347 0.863074 0.877989
O O17 0.630776 0.000000 0.012923
O O18 0.500000 0.907776 0.000000
#
# Coordination Sequence:
#
# PCOD9206301 Si02
#       7
#     8   8   8   8   8   8   8
#     4  10  21  36  57  86 118 157 199 239 286 357
#     4  11  23  39  58  89 116 153 203 247 303 351
#     4  11  21  37  62  88 122 157 193 250 299 362
#     4   9  19  37  60  85 114 148 192 246 302 354
#     4  11  22  36  58  91 126 154 191 243 306 368
#     4  11  23  36  62  89 116 158 204 245 301 358
#     4  10  23  40  59  86 121 162 203 242 286 350
#
# _framework density 19.364685999999999
#
# number of rings (size 3 to 8) (size 9 to 14) (size 15 to 20)
#    0.000    1.571    2.857    2.571    6.000    1.143 
#    0.000    0.000    0.000    0.857    0.000    2.000 
#    0.000    0.000    0.000    0.000    0.000    0.000 
#
# Total GULP energy -156138.284541 kJ/mol
# GULP energy per Si atom -5576.367305 kJ/mol
# Density = 1.932061 g / cm^3
# Si number density = 19.364686 Si / 1000 Ang^3
#
#
#
# Elastic Constant Matrix: (Units=GPa)
#
#
# Indices 1 2 3 4 5 6 
#
# 1 81.2977 35.3934 10.0983 -0.0001 0.1954 0.0000
# 2 35.3934 80.7549 8.9503 0.0000 -1.2027 0.0000
# 3 10.0983 8.9503 49.1964 -0.0001 11.6419 0.0000
# 4 -0.0001 0.0000 -0.0001 17.2893 0.0001 -2.9953
# 5 0.1954 -1.2027 11.6419 0.0001 39.9422 0.0000
# 6 0.0000 0.0000 0.0000 -2.9953 0.0000 23.4221
#
#
#
# Elastic Compliance Matrix: (Units=1/GPa)
#
#
# Indices 1 2 3 4 5 6 
#
# 1 0.015390 -0.006513 -0.002051 0.000000 0.000326 0.000000
# 2 -0.006513 0.015442 -0.001708 0.000000 0.000995 0.000000
# 3 -0.002051 -0.001708 0.022629 0.000000 -0.006637 0.000000
# 4 0.000000 0.000000 0.000000 0.059150 0.000000 0.007564
# 5 0.000326 0.000995 -0.006637 0.000000 0.026999 0.000000
# 6 0.000000 0.000000 0.000000 0.007564 0.000000 0.043662
#
#
# Mechanical properties :
#
#
# Convention : Reuss Voigt Hill
#
# Bulk Modulus (GPa) = 30.37987 35.57033 32.97510
# Shear Modulus (GPa) = 23.27880 26.58454 24.93167
#
# Velocity S-wave (km/s) = 3.47093 3.70920 3.59204
# Velocity P-wave (km/s) = 5.63786 6.06240 5.85398
#
# Compressibility (1/GPa) = 0.03291653
#
# Stress axis : x y z
#
# Youngs Moduli (GPa) = 64.97759 64.75963 44.19104
#
# Poissons Ratio (x) = 0.42177 0.09065
# Poissons Ratio (y) = 0.42319 0.07547
# Poissons Ratio (z) = 0.13329 0.11060
#
# Static dielectric constant tensor:
#      x y z
#    x 1.760240 0.000000 0.018170 
#    y 0.000000 1.702730 0.000000 
#    z 0.018170 0.000000 1.709410 
# 
# From -- ./inp_files/271402.got.cif
#   From: 2010.05.17/outbox.cif.g08.bks.cpg/sg12_136_cif.got.tgz:271402.got - 2010.06.03 13:09:07.
