data_PCOD9206424
_publ_section_title
;
Structure prediction by ZEFSAII (Michael W. Deem and Ramdas Pophale) SiO2 
 PCOD9206424
Probable space group: C 2/M
;
_chemical_formula_sum "Si O2"
_cell_formula_units_Z 36
_cell_length_a 13.802879
_cell_length_b 10.866374
_cell_length_c 19.356518
_cell_angle_alpha 90.000000
_cell_angle_beta 143.567704
_cell_angle_gamma 90.000000
_cell_volume 1724.148909
_symmetry_space_group_name_H-M "C 2/M"
_symmetry_group_IT_number 12
_symmetry_cell_setting 'monoclinic'
loop_
_space_group_symop_operation_xyz
x,y,z
-x,y,-z
-x,-y,-z
x,-y,z
1/2+x,1/2+y,z
1/2-x,1/2+y,-z
1/2-x,1/2-y,-z
1/2+x,1/2-y,z
loop_
_atom_site_type_symbol
_atom_site_label
_atom_site_fract_x
_atom_site_fract_y
_atom_site_fract_z
Si Si1 0.500000 0.699409 0.500000
Si Si2 0.721965 0.642317 0.274987
Si Si3 0.366168 0.367886 0.567250
Si Si4 0.899211 0.858611 0.164701
Si Si5 0.193910 0.859209 0.100249
O O1 0.657811 0.779547 0.609648
O O2 0.543050 0.630779 0.454212
O O3 0.741721 0.500000 0.304998
O O4 0.532625 0.670434 0.182229
O O5 0.762237 0.655602 0.217477
O O6 0.277635 0.500000 0.524526
O O7 0.250000 0.250000 0.500000
O O8 0.493696 0.358599 0.703235
O O9 0.768140 0.750336 0.097503
O O10 0.838069 0.000000 0.120324
O O11 0.229607 0.000000 0.096860
O O12 0.000000 0.850306 0.000000
#
# Coordination Sequence:
#
# PCOD9206424 Si02
#       5
#     4   8   8   8   8
#     4  12  20  36  58  86 119 156 187 240 279 338
#     4  10  21  36  58  87 117 153 191 231 286 349
#     4  11  23  37  56  86 121 155 191 235 285 342
#     4  10  21  39  58  84 117 151 192 236 285 343
#     4  10  22  41  62  85 113 148 193 243 291 342
#
# _framework density 20.879866
#
# number of rings (size 3 to 8) (size 9 to 14) (size 15 to 20)
#    0.000    1.556    4.444    0.667    0.000    3.111 
#    0.000    1.111    0.000    0.000    0.000    0.000 
#    0.000    0.000    0.000    0.000    0.000    0.000 
#
# Total GULP energy -100522.610997 kJ/mol
# GULP energy per Si atom -5584.589500 kJ/mol
# Density = 2.083234 g / cm^3
# Si number density = 20.879866 Si / 1000 Ang^3
#
#
#
# Elastic Constant Matrix: (Units=GPa)
#
#
# Indices 1 2 3 4 5 6 
#
# 1 93.3551 62.4634 -0.1445 0.0000 -2.9642 0.0000
# 2 62.4634 171.1568 33.4328 0.0000 35.4196 0.0000
# 3 -0.1445 33.4328 48.5832 0.0000 -4.0643 0.0000
# 4 0.0000 0.0000 0.0000 51.1589 0.0000 -7.6155
# 5 -2.9642 35.4196 -4.0643 0.0000 33.1469 0.0000
# 6 0.0000 0.0000 0.0000 -7.6155 0.0000 51.5682
#
#
#
# Elastic Compliance Matrix: (Units=1/GPa)
#
#
# Indices 1 2 3 4 5 6 
#
# 1 0.019603 -0.012490 0.010019 0.000000 0.016328 0.000000
# 2 -0.012490 0.017608 -0.013965 0.000000 -0.021644 0.000000
# 3 0.010019 -0.013965 0.031873 0.000000 0.019726 0.000000
# 4 0.000000 0.000000 0.000000 0.019986 0.000000 0.002952
# 5 0.016328 -0.021644 0.019726 0.000000 0.057176 0.000000
# 6 0.000000 0.000000 0.000000 0.002952 0.000000 0.019828
#
#
# Mechanical properties :
#
#
# Convention : Reuss Voigt Hill
#
# Bulk Modulus (GPa) = 27.61451 56.06652 41.84051
# Shear Modulus (GPa) = 23.69496 41.66435 32.67966
#
# Velocity S-wave (km/s) = 3.37237 4.47187 3.96046
# Velocity P-wave (km/s) = 5.33085 7.31941 6.40280
#
# Compressibility (1/GPa) = 0.03621285
#
# Stress axis : x y z
#
# Youngs Moduli (GPa) = 51.01312 56.79322 31.37438
#
# Poissons Ratio (x) = 0.70935 -0.31435
# Poissons Ratio (y) = 0.63716 0.43813
# Poissons Ratio (z) = -0.51112 0.79310
#
# Static dielectric constant tensor:
#      x y z
#    x 1.795040 0.000000 -0.025170 
#    y 0.000000 1.746240 0.000000 
#    z -0.025170 0.000000 1.742150 
# 
# From -- ./inp_files/127801.got.cif
#   From: 2010.05.17/outbox.cif.g08.bks.cpg/sg12_64_cif.got.tgz:127801.got - 2010.06.03 13:09:07.
