data_PCOD9206141
_publ_section_title
;
Structure prediction by ZEFSAII (Michael W. Deem and Ramdas Pophale) SiO2 
 PCOD9206141
Probable space group: C 2/M
;
_chemical_formula_sum "Si O2"
_cell_formula_units_Z 56
_cell_length_a 21.219092
_cell_length_b 9.141065
_cell_length_c 28.742810
_cell_angle_alpha 90.000000
_cell_angle_beta 149.553690
_cell_angle_gamma 90.000000
_cell_volume 2825.075535
_symmetry_space_group_name_H-M "C 2/M"
_symmetry_group_IT_number 12
_symmetry_cell_setting 'monoclinic'
loop_
_space_group_symop_operation_xyz
x,y,z
-x,y,-z
-x,-y,-z
x,-y,z
1/2+x,1/2+y,z
1/2-x,1/2+y,-z
1/2-x,1/2-y,-z
1/2+x,1/2-y,z
loop_
_atom_site_type_symbol
_atom_site_label
_atom_site_fract_x
_atom_site_fract_y
_atom_site_fract_z
Si Si1 0.643717 0.172477 0.091661
Si Si2 0.234483 0.328222 0.916667
Si Si3 0.946386 0.828002 0.129765
Si Si4 0.705137 0.175516 0.302541
Si Si5 0.165369 0.171810 0.707175
Si Si6 0.945279 0.668644 0.620301
Si Si7 0.294761 0.330815 0.599840
O O1 0.724075 0.262727 0.105942
O O2 0.707520 0.186899 0.182451
O O3 0.647129 0.000000 0.080909
O O4 0.500000 0.219542 0.000000
O O5 0.203968 0.500000 0.894227
O O6 0.123199 0.239450 0.869812
O O7 0.351959 0.311508 0.026459
O O8 0.072888 0.740747 0.202700
O O9 0.970316 0.000000 0.151393
O O10 0.806725 0.215003 0.328073
O O11 0.729890 0.243105 0.368725
O O12 0.698583 0.000000 0.300695
O O13 0.060692 0.262964 0.666656
O O14 0.130505 0.000000 0.686043
O O15 0.968443 0.500000 0.647385
O O16 0.827089 0.674545 0.510318
O O17 0.905595 0.758544 0.640644
O O18 0.322640 0.500000 0.627818
#
# Coordination Sequence:
#
# PCOD9206141 Si02
#       7
#     8   8   8   8   8   8   8
#     4  10  21  38  59  82 115 160 204 246 299 356
#     4  10  21  36  56  83 113 152 200 251 301 355
#     4  10  21  37  57  82 116 155 197 247 303 357
#     4  11  23  39  61  89 120 158 202 248 300 359
#     4  10  23  40  60  88 123 162 202 250 304 360
#     4  10  22  41  65  92 121 157 201 248 298 362
#     4  10  22  41  65  91 122 158 197 247 306 362
#
# _framework density 19.822479000000001
#
# number of rings (size 3 to 8) (size 9 to 14) (size 15 to 20)
#    0.000    1.857    0.000    3.000    2.000    7.143 
#    0.000    2.857    0.000    0.000    0.000    0.000 
#    0.000    0.000    0.000    0.000    0.000    0.000 
#
# Total GULP energy -156545.277259 kJ/mol
# GULP energy per Si atom -5590.902759 kJ/mol
# Density = 1.977736 g / cm^3
# Si number density = 19.822479 Si / 1000 Ang^3
#
#
#
# Elastic Constant Matrix: (Units=GPa)
#
#
# Indices 1 2 3 4 5 6 
#
# 1 122.1417 51.0625 15.5045 -0.0001 -4.6074 0.0000
# 2 51.0625 85.3419 20.4739 0.0000 -3.4646 0.0000
# 3 15.5045 20.4739 31.7265 -0.0001 4.4734 0.0000
# 4 -0.0001 0.0000 -0.0001 30.5168 0.0000 0.8842
# 5 -4.6074 -3.4646 4.4734 0.0000 26.9635 0.0000
# 6 0.0000 0.0000 0.0000 0.8842 0.0000 35.3404
#
#
#
# Elastic Compliance Matrix: (Units=1/GPa)
#
#
# Indices 1 2 3 4 5 6 
#
# 1 0.011013 -0.006149 -0.001605 0.000000 0.001358 0.000000
# 2 -0.006149 0.017598 -0.008726 0.000000 0.002658 0.000000
# 3 -0.001605 -0.008726 0.039045 0.000000 -0.007873 0.000000
# 4 0.000000 0.000000 0.000000 0.032793 0.000000 -0.000820
# 5 0.001358 0.002658 -0.007873 0.000000 0.038967 0.000000
# 6 0.000000 0.000000 0.000000 -0.000820 0.000000 0.028317
#
#
# Mechanical properties :
#
#
# Convention : Reuss Voigt Hill
#
# Bulk Modulus (GPa) = 28.82255 45.92134 37.37195
# Shear Modulus (GPa) = 23.55610 28.70874 26.13242
#
# Velocity S-wave (km/s) = 3.45099 3.80977 3.63481
# Velocity P-wave (km/s) = 5.51824 6.52450 6.04235
#
# Compressibility (1/GPa) = 0.03469505
#
# Stress axis : x y z
#
# Youngs Moduli (GPa) = 90.80269 56.82415 25.61124
#
# Poissons Ratio (x) = 0.34942 0.04111
# Poissons Ratio (y) = 0.55835 0.22349
# Poissons Ratio (z) = 0.14576 0.49587
#
# Static dielectric constant tensor:
#      x y z
#    x 1.660890 0.000000 -0.018830 
#    y 0.000000 1.661980 0.000000 
#    z -0.018830 0.000000 1.716850 
# 
# From -- ./inp_files/380715.got.cif
#   From: 2010.05.17/outbox.cif.g08.bks.cpg/sg12_191_cif.got.tgz:380715.got - 2010.06.03 13:09:07.
