data_PCOD9206189
_publ_section_title
;
Structure prediction by ZEFSAII (Michael W. Deem and Ramdas Pophale) SiO2 
 PCOD9206189
Probable space group: C 2/M
;
_chemical_formula_sum "Si O2"
_cell_formula_units_Z 50
_cell_length_a 16.415571
_cell_length_b 9.442389
_cell_length_c 15.416454
_cell_angle_alpha 90.000000
_cell_angle_beta 69.399393
_cell_angle_gamma 90.000000
_cell_volume 2236.784352
_symmetry_space_group_name_H-M "C 2/M"
_symmetry_group_IT_number 12
_symmetry_cell_setting 'monoclinic'
loop_
_space_group_symop_operation_xyz
x,y,z
-x,y,-z
-x,-y,-z
x,-y,z
1/2+x,1/2+y,z
1/2-x,1/2+y,-z
1/2-x,1/2-y,-z
1/2+x,1/2-y,z
loop_
_atom_site_type_symbol
_atom_site_label
_atom_site_fract_x
_atom_site_fract_y
_atom_site_fract_z
Si Si1 0.601247 0.331807 0.936039
Si Si2 0.167213 0.841276 0.553771
Si Si3 0.134593 0.828985 0.111414
Si Si4 0.486528 0.336799 0.282300
Si Si5 0.000000 0.500000 0.500000
Si Si6 0.610524 0.731209 0.393294
Si Si7 0.267357 0.170215 0.218255
O O1 0.615097 0.500000 0.915683
O O2 0.642194 0.245425 0.840940
O O3 0.500000 0.313836 0.000000
O O4 0.648168 0.283837 0.008065
O O5 0.250000 0.750000 0.500000
O O6 0.102606 0.772304 0.648512
O O7 0.114808 0.848393 0.482966
O O8 0.192352 0.000000 0.570349
O O9 0.207107 0.801463 0.155905
O O10 0.043155 0.771751 0.184109
O O11 0.125615 0.000000 0.111070
O O12 0.466501 0.500000 0.267542
O O13 0.553157 0.337721 0.338736
O O14 0.935833 0.377500 0.566015
O O15 0.709090 0.733882 0.317972
O O16 0.275733 0.000000 0.227140
#
# Coordination Sequence:
#
# PCOD9206189 Si02
#       7
#     8   8   8   8   2   8   8
#     4  10  21  36  56  85 123 159 192 239 299 353
#     4  11  23  36  55  81 118 157 196 241 295 357
#     4   8  16  33  57  83 110 143 192 240 285 341
#     4   9  17  35  60  80 104 150 199 244 292 350
#     4  12  24  36  66  92 122 152 194 260 300 364
#     4  11  22  39  60  86 117 151 196 250 302 355
#     4  10  21  38  63  86 112 152 202 247 292 351
#
# _framework density 22.353518000000001
#
# number of rings (size 3 to 8) (size 9 to 14) (size 15 to 20)
#    0.000    2.080    1.600    2.880    2.240    2.880 
#    0.000    1.600    1.760    0.000    0.000    0.000 
#    0.000    0.000    0.000    0.000    0.000    0.000 
#
# Total GULP energy -139215.320571 kJ/mol
# GULP energy per Si atom -5568.612823 kJ/mol
# Density = 2.230264 g / cm^3
# Si number density = 22.353518 Si / 1000 Ang^3
#
#
#
# Elastic Constant Matrix: (Units=GPa)
#
#
# Indices 1 2 3 4 5 6 
#
# 1 51.5253 14.8795 28.4404 0.0000 -19.5018 0.0000
# 2 14.8795 84.6502 47.9719 0.0000 -25.8330 0.0000
# 3 28.4404 47.9719 181.3075 0.0000 -43.4660 0.0000
# 4 0.0000 0.0000 0.0000 28.1036 0.0000 -12.8338
# 5 -19.5018 -25.8330 -43.4660 0.0000 53.6555 0.0000
# 6 0.0000 0.0000 0.0000 -12.8338 0.0000 -11.5554
#
#
#
# Elastic Compliance Matrix: (Units=1/GPa)
#
#
# Indices 1 2 3 4 5 6 
#
# 1 0.023151 -0.001085 -0.001802 0.000000 0.006432 0.000000
# 2 -0.001085 0.014930 -0.002670 0.000000 0.004631 0.000000
# 3 -0.001802 -0.002670 0.007495 0.000000 0.004131 0.000000
# 4 0.000000 0.000000 0.000000 0.023609 0.000000 -0.026221
# 5 0.006432 0.004631 0.004131 0.000000 0.026551 0.000000
# 6 0.000000 0.000000 0.000000 -0.026221 0.000000 -0.057418
#
#
# Mechanical properties :
#
#
# Convention : Reuss Voigt Hill
#
# Bulk Modulus (GPa) = 29.01817 55.56296 42.29056
# Shear Modulus (GPa) = 82.07478 29.12014 55.59746
#
# Velocity S-wave (km/s) = 6.06601 3.61322 4.99258
# Velocity P-wave (km/s) = 7.87855 6.50520 7.22458
#
# Compressibility (1/GPa) = 0.03446117
#
# Stress axis : x y z
#
# Youngs Moduli (GPa) = 43.19552 66.97728 133.42157
#
# Poissons Ratio (x) = 0.07267 0.24048
# Poissons Ratio (y) = 0.04687 0.35623
# Poissons Ratio (z) = 0.07786 0.17883
#
# Static dielectric constant tensor:
#      x y z
#    x 1.943460 0.000000 0.006270 
#    y 0.000000 1.756820 0.000000 
#    z 0.006270 0.000000 1.858530 
# 
# From -- ./inp_files/274926.got.cif
#   From: 2010.05.17/outbox.cif.g08.bks.cpg/sg12_138_cif.got.tgz:274926.got - 2010.06.03 13:09:07.
