data_PCOD9206100
_publ_section_title
;
Structure prediction by ZEFSAII (Michael W. Deem and Ramdas Pophale) SiO2 
 PCOD9206100
Probable space group: C 2/M
;
_chemical_formula_sum "Si O2"
_cell_formula_units_Z 64
_cell_length_a 17.876837
_cell_length_b 11.923018
_cell_length_c 20.482699
_cell_angle_alpha 90.000000
_cell_angle_beta 126.137792
_cell_angle_gamma 90.000000
_cell_volume 3525.826621
_symmetry_space_group_name_H-M "C 2/M"
_symmetry_group_IT_number 12
_symmetry_cell_setting 'monoclinic'
loop_
_space_group_symop_operation_xyz
x,y,z
-x,y,-z
-x,-y,-z
x,-y,z
1/2+x,1/2+y,z
1/2-x,1/2+y,-z
1/2-x,1/2-y,-z
1/2+x,1/2-y,z
loop_
_atom_site_type_symbol
_atom_site_label
_atom_site_fract_x
_atom_site_fract_y
_atom_site_fract_z
Si Si1 0.395306 0.624832 0.451425
Si Si2 0.208754 0.129676 0.831148
Si Si3 0.120961 0.125945 0.271131
Si Si4 0.695336 0.132211 0.990537
Si Si5 0.849535 0.802874 0.565409
Si Si6 0.299341 0.778362 0.300051
Si Si7 0.551802 0.780798 0.819189
Si Si8 0.986857 0.624755 0.338552
O O1 0.500000 0.669068 0.500000
O O2 0.394871 0.500000 0.422165
O O3 0.369693 0.620048 0.513847
O O4 0.326480 0.702486 0.375919
O O5 0.224519 0.198998 0.773604
O O6 0.122979 0.188222 0.825291
O O7 0.186848 0.000000 0.805729
O O8 0.294377 0.133429 0.925918
O O9 0.144642 0.142811 0.360114
O O10 0.213006 0.146639 0.276454
O O11 0.042408 0.216097 0.212760
O O12 0.085988 0.000000 0.243368
O O13 0.599512 0.155253 0.903812
O O14 0.725166 0.000000 0.988418
O O15 0.750000 0.250000 0.000000
O O16 0.750000 0.750000 0.500000
O O17 0.930876 0.710475 0.604765
O O18 0.392011 0.844013 0.326615
O O19 0.533436 0.863248 0.749103
O O20 0.015807 0.500000 0.370572
#
# Coordination Sequence:
#
# PCOD9206100 Si02
#       8
#     8   8   8   8   8   8   8   8
#     4  11  22  38  58  78 106 144 185 230 279 331
#     4   9  18  34  59  86 112 147 189 234 285 341
#     4  11  23  38  58  81 113 152 190 238 293 344
#     4   9  17  33  59  91 122 154 195 244 295 353
#     4  11  22  40  55  81 112 139 187 235 283 344
#     4  11  21  38  55  80 113 145 190 233 278 344
#     4   9  19  35  57  84 117 145 189 234 284 343
#     4  10  21  36  56  79 109 146 182 226 280 335
#
# _framework density 18.151772999999999
#
# number of rings (size 3 to 8) (size 9 to 14) (size 15 to 20)
#    0.000    1.875    2.500    1.875    0.000    1.500 
#    0.000    3.750    0.000    2.250    0.000    0.000 
#    0.000    0.000    0.000    0.000    0.000    0.000 
#
# Total GULP energy -178244.260644 kJ/mol
# GULP energy per Si atom -5570.133145 kJ/mol
# Density = 1.811046 g / cm^3
# Si number density = 18.151773 Si / 1000 Ang^3
#
#
#
# Elastic Constant Matrix: (Units=GPa)
#
#
# Indices 1 2 3 4 5 6 
#
# 1 85.3508 20.4822 18.3622 0.0000 3.5260 0.0000
# 2 20.4822 94.4575 20.0203 0.0000 -6.5733 0.0000
# 3 18.3622 20.0203 77.5211 0.0000 2.6727 0.0000
# 4 0.0000 0.0000 0.0000 13.6050 0.0000 -3.9759
# 5 3.5260 -6.5733 2.6727 0.0000 18.8259 0.0000
# 6 0.0000 0.0000 0.0000 -3.9759 0.0000 9.0949
#
#
#
# Elastic Compliance Matrix: (Units=1/GPa)
#
#
# Indices 1 2 3 4 5 6 
#
# 1 0.012942 -0.002524 -0.002311 0.000000 -0.002977 0.000000
# 2 -0.002524 0.012057 -0.002691 0.000000 0.005064 0.000000
# 3 -0.002311 -0.002691 0.014229 0.000000 -0.002527 0.000000
# 4 0.000000 0.000000 0.000000 0.084268 0.000000 0.036838
# 5 -0.002977 0.005064 -0.002527 0.000000 0.055803 0.000000
# 6 0.000000 0.000000 0.000000 0.036838 0.000000 0.126056
#
#
# Mechanical properties :
#
#
# Convention : Reuss Voigt Hill
#
# Bulk Modulus (GPa) = 41.36137 41.67322 41.51730
# Shear Modulus (GPa) = 15.22234 21.53614 18.37924
#
# Velocity S-wave (km/s) = 2.89903 3.44822 3.18548
# Velocity P-wave (km/s) = 5.83452 6.23392 6.03752
#
# Compressibility (1/GPa) = 0.02417715
#
# Stress axis : x y z
#
# Youngs Moduli (GPa) = 77.26661 82.94134 70.27840
#
# Poissons Ratio (x) = 0.20932 0.16243
# Poissons Ratio (y) = 0.19500 0.18909
# Poissons Ratio (z) = 0.17858 0.22316
#
# Static dielectric constant tensor:
#      x y z
#    x 1.628470 0.000000 0.011480 
#    y 0.000000 1.507090 0.000000 
#    z 0.011480 0.000000 1.630190 
# 
# From -- ./inp_files/315742.got.cif
#   From: 2010.05.17/outbox.cif.g08.bks.cpg/sg12_158_cif.got.tgz:315742.got - 2010.06.03 13:09:07.
