data_PCOD9206478
_publ_section_title
;
Structure prediction by ZEFSAII (Michael W. Deem and Ramdas Pophale) SiO2 
 PCOD9206478
Probable space group: C 2/M
;
_chemical_formula_sum "Si O2"
_cell_formula_units_Z 48
_cell_length_a 21.911852
_cell_length_b 11.620541
_cell_length_c 15.389221
_cell_angle_alpha 90.000000
_cell_angle_beta 138.834778
_cell_angle_gamma 90.000000
_cell_volume 2579.297737
_symmetry_space_group_name_H-M "C 2/M"
_symmetry_group_IT_number 12
_symmetry_cell_setting 'monoclinic'
loop_
_space_group_symop_operation_xyz
x,y,z
-x,y,-z
-x,-y,-z
x,-y,z
1/2+x,1/2+y,z
1/2-x,1/2+y,-z
1/2-x,1/2-y,-z
1/2+x,1/2-y,z
loop_
_atom_site_type_symbol
_atom_site_label
_atom_site_fract_x
_atom_site_fract_y
_atom_site_fract_z
Si Si1 0.625798 0.500000 0.368487
Si Si2 0.450485 0.748344 0.039522
Si Si3 0.457824 0.500000 0.051196
Si Si4 0.110800 0.500000 0.628656
Si Si5 0.067105 0.742423 0.339928
Si Si6 0.787397 0.373694 0.940540
Si Si7 0.170622 0.500000 0.495782
Si Si8 0.126608 0.306495 0.785059
O O1 0.542268 0.500000 0.209242
O O2 0.613817 0.370912 0.399765
O O3 0.724709 0.500000 0.426958
O O4 0.406878 0.620580 0.007526
O O5 0.524786 0.763831 0.196604
O O6 0.500000 0.753872 0.000000
O O7 0.366463 0.835086 0.958656
O O8 0.500000 0.500000 0.000000
O O9 0.160347 0.500000 0.589072
O O10 0.133372 0.390135 0.711140
O O11 0.000000 0.500000 0.500000
O O12 0.124150 0.622810 0.415967
O O13 0.978066 0.734187 0.308149
O O14 0.755865 0.500000 0.887359
O O15 0.698191 0.295008 0.847280
O O16 0.838129 0.366582 0.088519
#
# Coordination Sequence:
#
# PCOD9206478 Si02
#       8
#     4   8   4   4   8   8   4   8
#     4  10  22  38  60  92 117 158 200 249 314 367
#     4   9  19  34  59  86 124 157 194 242 308 366
#     4   8  16  34  55  84 117 151 188 233 299 355
#     4  12  22  40  66  86 116 157 218 255 295 353
#     4  10  21  39  62  86 121 161 205 250 307 369
#     4  10  21  36  58  90 125 152 196 248 303 369
#     4  12  24  40  66  87 117 159 216 264 291 362
#     4  10  21  38  61  89 116 160 204 248 304 359
#
# _framework density 18.609717
#
# number of rings (size 3 to 8) (size 9 to 14) (size 15 to 20)
#    0.000    2.000    2.500    0.500    4.667    5.000 
#    4.500    0.000    1.833    1.500    0.000    0.000 
#    0.000    0.000    0.000    0.000    0.000    0.000 
#
# Total GULP energy -133702.182654 kJ/mol
# GULP energy per Si atom -5570.924277 kJ/mol
# Density = 1.856736 g / cm^3
# Si number density = 18.609717 Si / 1000 Ang^3
#
#
#
# Elastic Constant Matrix: (Units=GPa)
#
#
# Indices 1 2 3 4 5 6 
#
# 1 108.7815 64.1570 26.6449 0.0000 3.7493 0.0000
# 2 64.1570 156.4719 37.9274 0.0000 3.9895 0.0000
# 3 26.6449 37.9274 22.7266 0.0000 1.5657 0.0000
# 4 0.0000 0.0000 0.0000 28.3350 0.0000 -0.1497
# 5 3.7493 3.9895 1.5657 0.0000 30.4545 0.0000
# 6 0.0000 0.0000 0.0000 -0.1497 0.0000 9.9222
#
#
#
# Elastic Compliance Matrix: (Units=1/GPa)
#
#
# Indices 1 2 3 4 5 6 
#
# 1 0.013644 -0.002872 -0.011152 0.000000 -0.000730 0.000000
# 2 -0.002872 0.011344 -0.015541 0.000000 -0.000333 0.000000
# 3 -0.011152 -0.015541 0.083071 0.000000 -0.000862 0.000000
# 4 0.000000 0.000000 0.000000 0.035295 0.000000 0.000532
# 5 -0.000730 -0.000333 -0.000862 0.000000 0.033014 0.000000
# 6 0.000000 0.000000 0.000000 0.000532 0.000000 0.100792
#
#
# Mechanical properties :
#
#
# Convention : Reuss Voigt Hill
#
# Bulk Modulus (GPa) = 20.43816 60.60430 40.52123
# Shear Modulus (GPa) = 14.18037 24.35906 19.26972
#
# Velocity S-wave (km/s) = 2.76341 3.62186 3.22136
# Velocity P-wave (km/s) = 4.60307 7.08005 5.97141
#
# Compressibility (1/GPa) = 0.04892807
#
# Stress axis : x y z
#
# Youngs Moduli (GPa) = 73.29483 88.15021 12.03784
#
# Poissons Ratio (x) = 0.25321 0.13424
# Poissons Ratio (y) = 0.21053 0.18708
# Poissons Ratio (z) = 0.81737 1.36997
#
# Static dielectric constant tensor:
#      x y z
#    x 1.616140 0.000000 -0.013530 
#    y 0.000000 1.690480 0.000000 
#    z -0.013530 0.000000 1.637750 
# 
# From -- ./inp_files/232902.got.cif
#   From: 2010.05.17/outbox.cif.g08.bks.cpg/sg12_117_cif.got.tgz:232902.got - 2010.06.03 13:09:07.
