data_PCOD9206190
_publ_section_title
;
Structure prediction by ZEFSAII (Michael W. Deem and Ramdas Pophale) SiO2 
 PCOD9206190
Probable space group: C 2/M
;
_chemical_formula_sum "Si O2"
_cell_formula_units_Z 60
_cell_length_a 27.610313
_cell_length_b 16.347334
_cell_length_c 5.755617
_cell_angle_alpha 90.000000
_cell_angle_beta 100.129198
_cell_angle_gamma 90.000000
_cell_volume 2557.336017
_symmetry_space_group_name_H-M "C 2/M"
_symmetry_group_IT_number 12
_symmetry_cell_setting 'monoclinic'
loop_
_space_group_symop_operation_xyz
x,y,z
-x,y,-z
-x,-y,-z
x,-y,z
1/2+x,1/2+y,z
1/2-x,1/2+y,-z
1/2-x,1/2-y,-z
1/2+x,1/2-y,z
loop_
_atom_site_type_symbol
_atom_site_label
_atom_site_fract_x
_atom_site_fract_y
_atom_site_fract_z
Si Si1 0.686933 0.408548 0.480023
Si Si2 0.663869 0.094652 0.535430
Si Si3 0.920078 0.911605 0.372002
Si Si4 0.500000 0.268441 0.500000
Si Si5 0.393361 0.092599 0.013926
Si Si6 0.135779 0.837017 0.051408
Si Si7 0.206741 0.753616 0.778368
Si Si8 0.549946 0.231731 0.128112
O O1 0.705788 0.500000 0.530250
O O2 0.629524 0.408050 0.514527
O O3 0.681511 0.380104 0.211376
O O4 0.713388 0.336373 0.637202
O O5 0.639095 0.106920 0.255802
O O6 0.699066 0.172608 0.617156
O O7 0.683117 0.000000 0.546753
O O8 0.631891 0.097172 0.751405
O O9 0.956525 0.834977 0.411932
O O10 0.943227 0.000000 0.435851
O O11 0.896838 0.905507 0.096908
O O12 0.531304 0.208435 0.363222
O O13 0.436578 0.158177 0.027068
O O14 0.411054 0.000000 0.004161
O O15 0.098184 0.786516 0.176864
O O16 0.156915 0.773178 0.881911
O O17 0.250000 0.750000 0.000000
O O18 0.500000 0.277479 0.000000
#
# Coordination Sequence:
#
# PCOD9206190 Si02
#       8
#     8   8   8   4   8   8   8   8
#     4  10  22  41  65  91 130 175 219 273 335 399
#     4  10  22  44  72 102 135 179 227 282 349 418
#     4  10  21  36  56  85 123 167 216 265 313 379
#     4  12  23  36  55  90 124 170 218 270 327 394
#     4  10  23  43  69  95 131 180 226 279 346 410
#     4  11  21  41  62  89 127 171 219 267 332 397
#     4  11  25  42  70 100 132 170 218 280 349 419
#     4  12  24  37  61  90 127 169 221 272 335 397
#
# _framework density 23.461914
#
# number of rings (size 3 to 8) (size 9 to 14) (size 15 to 20)
#    0.000    1.333    4.000    1.400    3.733    1.867 
#    0.000    1.000    0.000    0.000    0.000    0.000 
#    0.000    0.000    0.000    0.000    0.000    0.000 
#
# Total GULP energy -167088.666435 kJ/mol
# GULP energy per Si atom -5569.622214 kJ/mol
# Density = 2.340851 g / cm^3
# Si number density = 23.461914 Si / 1000 Ang^3
#
#
#
# Elastic Constant Matrix: (Units=GPa)
#
#
# Indices 1 2 3 4 5 6 
#
# 1 98.8575 26.5431 22.1051 0.0000 -20.4803 0.0000
# 2 26.5431 129.2299 19.6552 0.0000 11.0871 0.0000
# 3 22.1051 19.6552 74.1281 0.0000 -0.2323 0.0000
# 4 0.0000 0.0000 0.0000 28.3851 0.0000 10.7185
# 5 -20.4803 11.0871 -0.2323 0.0000 44.6209 0.0000
# 6 0.0000 0.0000 0.0000 10.7185 0.0000 19.9172
#
#
#
# Elastic Compliance Matrix: (Units=1/GPa)
#
#
# Indices 1 2 3 4 5 6 
#
# 1 0.012912 -0.002746 -0.003102 0.000000 0.006593 0.000000
# 2 -0.002746 0.008833 -0.001534 0.000000 -0.003463 0.000000
# 3 -0.003102 -0.001534 0.014819 0.000000 -0.000965 0.000000
# 4 0.000000 0.000000 0.000000 0.044215 0.000000 -0.023794
# 5 0.006593 -0.003463 -0.000965 0.000000 0.026292 0.000000
# 6 0.000000 0.000000 0.000000 -0.023794 0.000000 0.063013
#
#
# Mechanical properties :
#
#
# Convention : Reuss Voigt Hill
#
# Bulk Modulus (GPa) = 45.87083 48.75804 47.31443
# Shear Modulus (GPa) = 26.02627 34.17878 30.10253
#
# Velocity S-wave (km/s) = 3.33423 3.82092 3.58584
# Velocity P-wave (km/s) = 5.86655 6.34766 6.11184
#
# Compressibility (1/GPa) = 0.02180035
#
# Stress axis : x y z
#
# Youngs Moduli (GPa) = 77.44605 113.21742 67.48180
#
# Poissons Ratio (x) = 0.31089 0.20931
# Poissons Ratio (y) = 0.21266 0.10352
# Poissons Ratio (z) = 0.24021 0.17367
#
# Static dielectric constant tensor:
#      x y z
#    x 1.922640 0.000000 -0.093160 
#    y 0.000000 1.896360 0.000000 
#    z -0.093160 0.000000 2.254260 
# 
# From -- ./inp_files/32090.got.cif
#   From: 2010.05.17/outbox.cif.g08.bks.cpg/sg12_17_cif.got.tgz:32090.got - 2010.06.03 13:09:07.
