data_PCOD9206199
_publ_section_title
;
Structure prediction by ZEFSAII (Michael W. Deem and Ramdas Pophale) SiO2 
 PCOD9206199
Probable space group: C 2/M
;
_chemical_formula_sum "Si O2"
_cell_formula_units_Z 34
_cell_length_a 13.969642
_cell_length_b 8.042541
_cell_length_c 16.333417
_cell_angle_alpha 90.000000
_cell_angle_beta 126.592937
_cell_angle_gamma 90.000000
_cell_volume 1473.371219
_symmetry_space_group_name_H-M "C 2/M"
_symmetry_group_IT_number 12
_symmetry_cell_setting 'monoclinic'
loop_
_space_group_symop_operation_xyz
x,y,z
-x,y,-z
-x,-y,-z
x,-y,z
1/2+x,1/2+y,z
1/2-x,1/2+y,-z
1/2-x,1/2-y,-z
1/2+x,1/2-y,z
loop_
_atom_site_type_symbol
_atom_site_label
_atom_site_fract_x
_atom_site_fract_y
_atom_site_fract_z
Si Si1 0.435281 0.693274 0.709121
Si Si2 0.824971 0.317764 0.243840
Si Si3 0.079656 0.309513 0.113929
Si Si4 0.000000 0.000000 0.500000
Si Si5 0.333655 0.194743 0.446078
O O1 0.452942 0.500000 0.702211
O O2 0.546956 0.788153 0.729339
O O3 0.432830 0.719838 0.805641
O O4 0.305070 0.740770 0.607789
O O5 0.780803 0.500000 0.198400
O O6 0.719954 0.195201 0.164006
O O7 0.836296 0.310391 0.347499
O O8 0.042065 0.500000 0.107952
O O9 0.000000 0.239465 0.000000
O O10 0.920836 0.149722 0.505918
O O11 0.359892 0.000000 0.484616
#
# Coordination Sequence:
#
# PCOD9206199 Si02
#       5
#     8   8   8   2   8
#     4  10  21  37  61  84 115 156 194 240 286 348
#     4  10  21  37  61  84 115 156 194 240 286 348
#     4  10  21  36  56  86 119 153 197 241 284 338
#     4  12  22  36  72  82 114 162 178 256 304 346
#     4   9  22  40  59  89 118 150 200 241 294 359
#
# _framework density 23.076329999999999
#
# number of rings (size 3 to 8) (size 9 to 14) (size 15 to 20)
#    0.000    2.118    0.000    3.882    9.882    2.824 
#    0.000    1.176    0.000    0.000    0.000    0.000 
#    0.000    0.000    0.000    0.000    0.000    0.000 
#
# Total GULP energy -94746.975215 kJ/mol
# GULP energy per Si atom -5573.351483 kJ/mol
# Density = 2.302381 g / cm^3
# Si number density = 23.076330 Si / 1000 Ang^3
#
#
#
# Elastic Constant Matrix: (Units=GPa)
#
#
# Indices 1 2 3 4 5 6 
#
# 1 128.6816 13.9704 17.8060 0.0000 16.1478 0.0000
# 2 13.9704 112.6871 36.5427 0.0000 8.1696 0.0000
# 3 17.8060 36.5427 101.8176 0.0000 -2.2977 0.0000
# 4 0.0000 0.0000 0.0000 25.7810 0.0000 4.5229
# 5 16.1478 8.1696 -2.2977 0.0000 19.9237 0.0000
# 6 0.0000 0.0000 0.0000 4.5229 0.0000 40.8125
#
#
#
# Elastic Compliance Matrix: (Units=1/GPa)
#
#
# Indices 1 2 3 4 5 6 
#
# 1 0.008946 -0.000008 -0.001729 0.000000 -0.007446 0.000000
# 2 -0.000008 0.010471 -0.003863 0.000000 -0.004732 0.000000
# 3 -0.001729 -0.003863 0.011608 0.000000 0.004325 0.000000
# 4 0.000000 0.000000 0.000000 0.039557 0.000000 -0.004384
# 5 -0.007446 -0.004732 0.004325 0.000000 0.058666 0.000000
# 6 0.000000 0.000000 0.000000 -0.004384 0.000000 0.024988
#
#
# Mechanical properties :
#
#
# Convention : Reuss Voigt Hill
#
# Bulk Modulus (GPa) = 50.44793 53.31383 51.88088
# Shear Modulus (GPa) = 29.06194 35.62793 32.34494
#
# Velocity S-wave (km/s) = 3.55263 3.93353 3.74792
# Velocity P-wave (km/s) = 6.22391 6.61692 6.42342
#
# Compressibility (1/GPa) = 0.01982242
#
# Stress axis : x y z
#
# Youngs Moduli (GPa) = 111.78478 95.50088 86.14649
#
# Poissons Ratio (x) = 0.00080 0.14899
# Poissons Ratio (y) = 0.00093 0.33282
# Poissons Ratio (z) = 0.19333 0.36896
#
# Static dielectric constant tensor:
#      x y z
#    x 1.903830 0.000000 -0.027850 
#    y 0.000000 1.826440 0.000000 
#    z -0.027850 0.000000 1.893280 
# 
# From -- ./inp_files/266892.got.cif
#   From: 2010.05.17/outbox.cif.g08.bks.cpg/sg12_134_cif.got.tgz:266892.got - 2010.06.03 13:09:07.
