data_PCOD9206398
_publ_section_title
;
Structure prediction by ZEFSAII (Michael W. Deem and Ramdas Pophale) SiO2 
 PCOD9206398
Probable space group: C 2/M
;
_chemical_formula_sum "Si O2"
_cell_formula_units_Z 40
_cell_length_a 29.036186
_cell_length_b 14.821823
_cell_length_c 9.091640
_cell_angle_alpha 90.000000
_cell_angle_beta 149.276672
_cell_angle_gamma 90.000000
_cell_volume 1999.002538
_symmetry_space_group_name_H-M "C 2/M"
_symmetry_group_IT_number 12
_symmetry_cell_setting 'monoclinic'
loop_
_space_group_symop_operation_xyz
x,y,z
-x,y,-z
-x,-y,-z
x,-y,z
1/2+x,1/2+y,z
1/2-x,1/2+y,-z
1/2-x,1/2-y,-z
1/2+x,1/2-y,z
loop_
_atom_site_type_symbol
_atom_site_label
_atom_site_fract_x
_atom_site_fract_y
_atom_site_fract_z
Si Si1 0.913382 0.797138 0.193961
Si Si2 0.061035 0.688475 0.035136
Si Si3 0.778736 0.606364 0.358030
Si Si4 0.316907 0.169642 0.145748
Si Si5 0.842487 0.500000 0.075816
Si Si6 0.987118 0.500000 0.229607
O O1 0.894601 0.717494 0.263288
O O2 0.000000 0.847003 0.500000
O O3 0.933654 0.751727 0.092618
O O4 0.823392 0.856920 0.932874
O O5 0.161407 0.664600 0.365941
O O6 0.017055 0.591972 0.872655
O O7 0.000000 0.727284 0.000000
O O8 0.781228 0.500000 0.398617
O O9 0.825234 0.623052 0.326984
O O10 0.285994 0.089246 0.953851
O O11 0.250000 0.250000 0.000000
O O12 0.893077 0.500000 0.061617
O O13 0.928293 0.500000 0.425696
#
# Coordination Sequence:
#
# PCOD9206398 Si02
#       6
#     8   8   8   8   4   4
#     4  11  23  41  61  84 118 160 200 239 287 351
#     4  12  23  37  59  90 121 149 189 243 301 354
#     4  11  23  39  60  89 120 152 196 245 293 347
#     4  10  21  36  58  85 116 152 194 239 288 350
#     4  11  18  34  56  86 118 151 188 235 295 353
#     4  11  21  30  58  86 118 145 181 239 298 359
#
# _framework density 20.009982000000001
#
# number of rings (size 3 to 8) (size 9 to 14) (size 15 to 20)
#    0.000    1.000    4.000    4.500    0.000    0.400 
#    0.000    0.000    0.000    0.600    0.000    0.000 
#    0.000    0.000    0.000    0.000    0.000    0.000 
#
# Total GULP energy -111577.230476 kJ/mol
# GULP energy per Si atom -5578.861524 kJ/mol
# Density = 1.996444 g / cm^3
# Si number density = 20.009982 Si / 1000 Ang^3
#
#
#
# Elastic Constant Matrix: (Units=GPa)
#
#
# Indices 1 2 3 4 5 6 
#
# 1 145.1332 32.0051 41.3440 0.0000 -3.6689 0.0000
# 2 32.0051 62.4098 22.8488 0.0000 11.5332 0.0000
# 3 41.3440 22.8488 131.4384 0.0000 15.1448 0.0000
# 4 0.0000 0.0000 0.0000 15.7691 0.0000 -1.1177
# 5 -3.6689 11.5332 15.1448 0.0000 23.5344 0.0000
# 6 0.0000 0.0000 0.0000 -1.1177 0.0000 24.2422
#
#
#
# Elastic Compliance Matrix: (Units=1/GPa)
#
#
# Indices 1 2 3 4 5 6 
#
# 1 0.008750 -0.004512 -0.002570 0.000000 0.005229 0.000000
# 2 -0.004512 0.020575 -0.000988 0.000000 -0.010151 0.000000
# 3 -0.002570 -0.000988 0.009266 0.000000 -0.005879 0.000000
# 4 0.000000 0.000000 0.000000 0.063623 0.000000 0.002933
# 5 0.005229 -0.010151 -0.005879 0.000000 0.052064 0.000000
# 6 0.000000 0.000000 0.000000 0.002933 0.000000 0.041386
#
#
# Mechanical properties :
#
#
# Convention : Reuss Voigt Hill
#
# Bulk Modulus (GPa) = 44.54496 59.04192 51.79344
# Shear Modulus (GPa) = 22.80120 28.89472 25.84796
#
# Velocity S-wave (km/s) = 3.37930 3.80414 3.59800
# Velocity P-wave (km/s) = 6.12665 6.99039 6.57273
#
# Compressibility (1/GPa) = 0.02244923
#
# Stress axis : x y z
#
# Youngs Moduli (GPa) = 114.28932 48.60372 107.92405
#
# Poissons Ratio (x) = 0.21932 0.27740
# Poissons Ratio (y) = 0.51572 0.10659
# Poissons Ratio (z) = 0.29377 0.04800
#
# Static dielectric constant tensor:
#      x y z
#    x 1.724450 0.000000 -0.006760 
#    y 0.000000 1.718510 0.000000 
#    z -0.006760 0.000000 1.787190 
# 
# From -- ./inp_files/72888.got.cif
#   From: 2010.05.17/outbox.cif.g08.bks.cpg/sg12_37_cif.got.tgz:72888.got - 2010.06.03 13:09:07.
