data_PCOD9206474
_publ_section_title
;
Structure prediction by ZEFSAII (Michael W. Deem and Ramdas Pophale) SiO2 
 PCOD9206474
Probable space group: C 2/M
;
_chemical_formula_sum "Si O2"
_cell_formula_units_Z 44
_cell_length_a 14.193063
_cell_length_b 14.363749
_cell_length_c 17.928807
_cell_angle_alpha 90.000000
_cell_angle_beta 150.536595
_cell_angle_gamma 90.000000
_cell_volume 1797.808839
_symmetry_space_group_name_H-M "C 2/M"
_symmetry_group_IT_number 12
_symmetry_cell_setting 'monoclinic'
loop_
_space_group_symop_operation_xyz
x,y,z
-x,y,-z
-x,-y,-z
x,-y,z
1/2+x,1/2+y,z
1/2-x,1/2+y,-z
1/2-x,1/2-y,-z
1/2+x,1/2-y,z
loop_
_atom_site_type_symbol
_atom_site_label
_atom_site_fract_x
_atom_site_fract_y
_atom_site_fract_z
Si Si1 0.679563 0.105537 0.579472
Si Si2 0.746053 0.387611 0.532159
Si Si3 0.469465 0.341355 0.898594
Si Si4 0.500000 0.635665 0.500000
Si Si5 0.142798 0.605789 0.878300
Si Si6 0.608025 0.869278 0.150006
O O1 0.500000 0.151677 0.500000
O O2 0.773898 0.141308 0.567656
O O3 0.843719 0.103662 0.753872
O O4 0.615105 0.000000 0.515082
O O5 0.703779 0.500000 0.512363
O O6 0.626097 0.334846 0.513540
O O7 0.971032 0.375072 0.703080
O O8 0.368482 0.242103 0.840885
O O9 0.500000 0.385897 0.000000
O O10 0.679497 0.327515 0.009941
O O11 0.685200 0.597242 0.676460
O O12 0.212450 0.500000 0.914647
O O13 0.042604 0.610825 0.888787
O O14 0.500000 0.899856 0.000000
#
# Coordination Sequence:
#
# PCOD9206474 Si02
#       6
#     8   8   8   4   8   8
#     4  10  21  36  58  90 123 160 209 259 307 371
#     4   9  19  37  61  91 124 158 203 259 311 371
#     4  11  23  39  60  86 125 164 202 256 312 370
#     4  10  21  40  62  90 123 170 208 250 314 374
#     4  10  21  40  63  90 120 159 207 256 315 368
#     4  10  24  42  62  91 128 164 209 257 307 376
#
# _framework density 24.474236999999999
#
# number of rings (size 3 to 8) (size 9 to 14) (size 15 to 20)
#    0.000    2.000    0.000    2.455    3.818    4.000 
#    0.000    1.818    0.000    0.000    0.000    0.000 
#    0.000    0.000    0.000    0.000    0.000    0.000 
#
# Total GULP energy -122633.842388 kJ/mol
# GULP energy per Si atom -5574.265563 kJ/mol
# Density = 2.441853 g / cm^3
# Si number density = 24.474237 Si / 1000 Ang^3
#
#
#
# Elastic Constant Matrix: (Units=GPa)
#
#
# Indices 1 2 3 4 5 6 
#
# 1 135.1373 8.6250 91.2907 0.0259 -12.6306 0.0078
# 2 8.6250 69.9278 16.3540 0.0410 -1.8792 0.0147
# 3 91.2907 16.3540 181.7909 0.0476 -18.7146 0.0205
# 4 0.0259 0.0410 0.0476 -50.7428 0.0091 -26.0724
# 5 -12.6306 -1.8792 -18.7146 0.0091 56.8410 -0.0012
# 6 0.0078 0.0147 0.0205 -26.0724 -0.0012 -1.2387
#
#
#
# Elastic Compliance Matrix: (Units=1/GPa)
#
#
# Indices 1 2 3 4 5 6 
#
# 1 0.011223 -0.000066 -0.005562 -0.000001 0.000660 0.000004
# 2 -0.000066 0.014608 -0.001276 0.000007 0.000048 0.000007
# 3 -0.005562 -0.001276 0.008568 0.000004 0.001543 0.000000
# 4 -0.000001 0.000007 0.000004 0.002008 0.000000 -0.042262
# 5 0.000660 0.000048 0.001543 0.000000 0.018249 0.000010
# 6 0.000004 0.000007 0.000000 -0.042262 0.000010 0.082252
#
#
# Mechanical properties :
#
#
# Convention : Reuss Voigt Hill
#
# Bulk Modulus (GPa) = 48.56478 68.82171 58.69324
# Shear Modulus (GPa) = 31.72984 19.01098 25.37041
#
# Velocity S-wave (km/s) = 3.60454 2.79009 3.22315
# Velocity P-wave (km/s) = 6.10000 6.20972 6.15510
#
# Compressibility (1/GPa) = 0.02059105
#
# Stress axis : x y z
#
# Youngs Moduli (GPa) = 89.10081 68.45407 116.71883
#
# Poissons Ratio (x) = 0.00450 0.64920
# Poissons Ratio (y) = 0.00586 0.14896
# Poissons Ratio (z) = 0.49559 0.08736
#
# Static dielectric constant tensor:
#      x y z
#    x 1.950190 0.000010 -0.066190 
#    y 0.000010 2.038850 -0.000020 
#    z -0.066190 -0.000020 1.961780 
# 
# From -- ./inp_files/271509.got.cif
#   From: 2010.05.17/outbox.cif.g08.bks.cpg/sg12_136_cif.got.tgz:271509.got - 2010.06.03 13:09:07.
