data_PCOD9206935
_publ_section_title
;
Structure prediction by ZEFSAII (Michael W. Deem and Ramdas Pophale) SiO2 
 PCOD9206935
Probable space group: C 2/M
;
_chemical_formula_sum "Si O2"
_cell_formula_units_Z 64
_cell_length_a 15.480580
_cell_length_b 7.887826
_cell_length_c 25.565012
_cell_angle_alpha 90.000000
_cell_angle_beta 79.854494
_cell_angle_gamma 90.000000
_cell_volume 3072.883471
_symmetry_space_group_name_H-M "C 2/M"
_symmetry_group_IT_number 12
_symmetry_cell_setting 'monoclinic'
loop_
_space_group_symop_operation_xyz
x,y,z
-x,y,-z
-x,-y,-z
x,-y,z
1/2+x,1/2+y,z
1/2-x,1/2+y,-z
1/2-x,1/2-y,-z
1/2+x,1/2-y,z
loop_
_atom_site_type_symbol
_atom_site_label
_atom_site_fract_x
_atom_site_fract_y
_atom_site_fract_z
Si Si1 0.304806 0.294261 0.069265
Si Si2 0.952008 0.203933 0.129586
Si Si3 0.464140 0.306111 0.557132
Si Si4 0.773561 0.709036 0.327254
Si Si5 0.243830 0.188645 0.441759
Si Si6 0.553479 0.798223 0.749735
Si Si7 0.424912 0.296217 0.671697
Si Si8 0.119997 0.201218 0.049459
O O1 0.301417 0.500000 0.068445
O O2 0.360996 0.238182 0.113062
O O3 0.205700 0.230689 0.075733
O O4 0.354981 0.234526 0.011059
O O5 0.960874 0.245585 0.189208
O O6 0.033377 0.270677 0.086370
O O7 0.952965 0.000000 0.125058
O O8 0.500000 0.224037 0.500000
O O9 0.500820 0.500000 0.554299
O O10 0.359357 0.316153 0.561055
O O11 0.474283 0.229389 0.613903
O O12 0.773060 0.500000 0.328606
O O13 0.785735 0.772622 0.385885
O O14 0.853390 0.766302 0.282694
O O15 0.676670 0.761319 0.318068
O O16 0.250000 0.250000 0.500000
O O17 0.280889 0.000000 0.439343
O O18 0.476913 0.744208 0.718420
O O19 0.557449 0.000000 0.748022
O O20 0.422645 0.500000 0.665689
O O21 0.106821 0.000000 0.044509
#
# Coordination Sequence:
#
# PCOD9206935 Si02
#       8
#     8   8   8   8   8   8   8   8
#     4   9  18  34  57  84 113 144 179 219 262 310
#     4  10  21  37  55  78 108 143 185 222 259 313
#     4   8  15  28  48  74  99 124 159 203 251 306
#     4   8  18  37  54  70 101 141 171 205 262 325
#     4   9  17  30  49  73  99 126 158 200 254 311
#     4  11  23  37  54  76 105 141 180 223 272 314
#     4   9  18  36  58  75  98 136 179 215 256 318
#     4   9  18  34  57  83 112 146 178 215 267 319
#
# _framework density 20.827342999999999
#
# number of rings (size 3 to 8) (size 9 to 14) (size 15 to 20)
#    0.000    2.875    0.000    2.250    1.750    3.500 
#    0.000    8.125    0.000    4.500    0.000    0.000 
#    0.000    0.000    0.000    0.000    0.000    0.000 
#
# Total GULP energy -178395.590952 kJ/mol
# GULP energy per Si atom -5574.862217 kJ/mol
# Density = 2.077994 g / cm^3
# Si number density = 20.827343 Si / 1000 Ang^3
#
#
#
# Elastic Constant Matrix: (Units=GPa)
#
#
# Indices 1 2 3 4 5 6 
#
# 1 53.5043 -5.2806 17.4134 0.0000 17.9246 0.0000
# 2 -5.2806 15.9543 -6.1135 0.0000 -0.5523 0.0000
# 3 17.4134 -6.1135 44.4832 0.0000 26.6360 0.0000
# 4 0.0000 0.0000 0.0000 13.0180 0.0000 1.8643
# 5 17.9246 -0.5523 26.6360 0.0000 38.0484 0.0000
# 6 0.0000 0.0000 0.0000 1.8643 0.0000 17.2075
#
#
#
# Elastic Compliance Matrix: (Units=1/GPa)
#
#
# Indices 1 2 3 4 5 6 
#
# 1 0.023210 0.006234 -0.002989 0.000000 -0.008751 0.000000
# 2 0.006234 0.069809 0.014300 0.000000 -0.011934 0.000000
# 3 -0.002989 0.014300 0.042437 0.000000 -0.028093 0.000000
# 4 0.000000 0.000000 0.000000 0.078028 0.000000 -0.008454
# 5 -0.008751 -0.011934 -0.028093 0.000000 0.049898 0.000000
# 6 0.000000 0.000000 0.000000 -0.008454 0.000000 0.059030
#
#
# Mechanical properties :
#
#
# Convention : Reuss Voigt Hill
#
# Bulk Modulus (GPa) = 5.86353 13.99781 9.93067
# Shear Modulus (GPa) = 14.52768 20.84962 17.68865
#
# Velocity S-wave (km/s) = 2.64394 3.16740 2.91744
# Velocity P-wave (km/s) = 3.48454 4.48464 4.01585
#
# Compressibility (1/GPa) = 0.17054560
#
# Stress axis : x y z
#
# Youngs Moduli (GPa) = 43.08510 14.32490 23.56411
#
# Poissons Ratio (x) = -0.08930 0.07043
# Poissons Ratio (y) = -0.26859 -0.33696
# Poissons Ratio (z) = 0.12877 -0.20484
#
# Static dielectric constant tensor:
#      x y z
#    x 1.738220 0.000000 -0.000630 
#    y 0.000000 1.781370 0.000000 
#    z -0.000630 0.000000 1.780750 
# 
# From -- ./inp_files/359861.got.cif
#   From: 2010.05.17/outbox.cif.g08.bks.cpg/sg12_180_cif.got.tgz:359861.got - 2010.06.03 13:09:07.
