data_PCOD9206648
_publ_section_title
;
Structure prediction by ZEFSAII (Michael W. Deem and Ramdas Pophale) SiO2 
 PCOD9206648
Probable space group: C 2/M
;
_chemical_formula_sum "Si O2"
_cell_formula_units_Z 64
_cell_length_a 20.117555
_cell_length_b 8.347010
_cell_length_c 31.373033
_cell_angle_alpha 90.000000
_cell_angle_beta 141.840089
_cell_angle_gamma 90.000000
_cell_volume 3255.004453
_symmetry_space_group_name_H-M "C 2/M"
_symmetry_group_IT_number 12
_symmetry_cell_setting 'monoclinic'
loop_
_space_group_symop_operation_xyz
x,y,z
-x,y,-z
-x,-y,-z
x,-y,z
1/2+x,1/2+y,z
1/2-x,1/2+y,-z
1/2-x,1/2-y,-z
1/2+x,1/2-y,z
loop_
_atom_site_type_symbol
_atom_site_label
_atom_site_fract_x
_atom_site_fract_y
_atom_site_fract_z
Si Si1 0.989526 0.686767 0.302199
Si Si2 0.876645 0.807501 0.936855
Si Si3 0.205598 0.806131 0.281944
Si Si4 0.762217 0.303529 0.214804
Si Si5 0.240254 0.184156 0.947516
Si Si6 0.376450 0.193415 0.439207
Si Si7 0.025227 0.683321 0.806018
Si Si8 0.772167 0.693003 0.558875
O O1 0.996690 0.500000 0.319361
O O2 0.884861 0.756320 0.272165
O O3 0.964128 0.689697 0.239456
O O4 0.107968 0.755016 0.369048
O O5 0.810491 0.749600 0.861835
O O6 0.812760 0.768409 0.947958
O O7 0.881005 0.000000 0.935532
O O8 0.000000 0.747914 0.000000
O O9 0.219763 0.759182 0.239861
O O10 0.304257 0.754981 0.362211
O O11 0.094653 0.735006 0.242991
O O12 0.200164 0.000000 0.281054
O O13 0.764913 0.500000 0.214211
O O14 0.116151 0.206757 0.871918
O O15 0.271384 0.000000 0.963071
O O16 0.250000 0.250000 0.000000
O O17 0.500000 0.251017 0.500000
O O18 0.314164 0.245221 0.450465
O O19 0.379430 0.000000 0.440014
O O20 0.044839 0.500000 0.829609
O O21 0.771135 0.500000 0.560527
O O22 0.750000 0.750000 0.500000
#
# Coordination Sequence:
#
# PCOD9206648 Si02
#       8
#     8   8   8   8   8   8   8   8
#     4   9  18  35  62  86 113 154 202 246 297 360
#     4  10  21  39  63  91 125 163 201 243 299 366
#     4  10  21  36  60  91 121 158 204 251 298 360
#     4   9  18  35  59  87 117 155 198 239 291 357
#     4  12  26  43  64  92 124 162 209 258 307 361
#     4  10  22  39  59  86 123 164 208 255 302 360
#     4  11  21  40  65  89 120 159 201 253 312 368
#     4  11  23  39  61  89 120 160 206 255 310 368
#
# _framework density 19.662032
#
# number of rings (size 3 to 8) (size 9 to 14) (size 15 to 20)
#    0.000    1.750    2.500    1.875    3.500    0.500 
#    0.000    0.625    0.000    0.000    0.000    0.000 
#    0.000    0.000    0.000    0.000    0.000    0.000 
#
# Total GULP energy -178659.180798 kJ/mol
# GULP energy per Si atom -5583.099400 kJ/mol
# Density = 1.961728 g / cm^3
# Si number density = 19.662032 Si / 1000 Ang^3
#
#
#
# Elastic Constant Matrix: (Units=GPa)
#
#
# Indices 1 2 3 4 5 6 
#
# 1 90.1810 3.8748 27.3393 0.0000 -0.0699 0.0000
# 2 3.8748 8.3251 3.7835 -0.0001 -0.7519 0.0002
# 3 27.3393 3.7835 97.9159 0.0000 2.9746 0.0000
# 4 0.0000 -0.0001 0.0000 12.5377 0.0000 1.2972
# 5 -0.0699 -0.7519 2.9746 0.0000 35.7720 0.0000
# 6 0.0000 0.0002 0.0000 1.2972 0.0000 26.7522
#
#
#
# Elastic Compliance Matrix: (Units=1/GPa)
#
#
# Indices 1 2 3 4 5 6 
#
# 1 0.012260 -0.004203 -0.003267 0.000000 0.000207 0.000000
# 2 -0.004203 0.124022 -0.003707 0.000002 0.002907 -0.000001
# 3 -0.003267 -0.003707 0.011299 0.000000 -0.001024 0.000000
# 4 0.000000 0.000002 0.000000 0.080161 0.000000 -0.003887
# 5 0.000207 0.002907 -0.001024 0.000000 0.028101 0.000000
# 6 0.000000 -0.000001 0.000000 -0.003887 0.000000 0.037569
#
#
# Mechanical properties :
#
#
# Convention : Reuss Voigt Hill
#
# Bulk Modulus (GPa) = 7.98546 29.60192 18.79369
# Shear Modulus (GPa) = 13.98566 25.77401 19.87983
#
# Velocity S-wave (km/s) = 2.66992 3.62450 3.18319
# Velocity P-wave (km/s) = 3.68440 5.70999 4.80514
#
# Compressibility (1/GPa) = 0.12522761
#
# Stress axis : x y z
#
# Youngs Moduli (GPa) = 81.56619 8.06308 88.50038
#
# Poissons Ratio (x) = 0.03389 0.28913
# Poissons Ratio (y) = 0.34280 0.32808
# Poissons Ratio (z) = 0.26648 0.02989
#
# Static dielectric constant tensor:
#      x y z
#    x 1.685550 0.000000 -0.002370 
#    y 0.000000 1.693000 0.000000 
#    z -0.002370 0.000000 1.717020 
# 
# From -- ./inp_files/378290.got.cif
#   From: 2010.05.17/outbox.cif.g08.bks.cpg/sg12_190_cif.got.tgz:378290.got - 2010.06.03 13:09:07.
