data_PCOD9206793
_publ_section_title
;
Structure prediction by ZEFSAII (Michael W. Deem and Ramdas Pophale) SiO2 
 PCOD9206793
Probable space group: C 2/M
;
_chemical_formula_sum "Si O2"
_cell_formula_units_Z 48
_cell_length_a 26.671885
_cell_length_b 13.759632
_cell_length_c 5.122579
_cell_angle_alpha 90.000000
_cell_angle_beta 85.961175
_cell_angle_gamma 90.000000
_cell_volume 1875.293743
_symmetry_space_group_name_H-M "C 2/M"
_symmetry_group_IT_number 12
_symmetry_cell_setting 'monoclinic'
loop_
_space_group_symop_operation_xyz
x,y,z
-x,y,-z
-x,-y,-z
x,-y,z
1/2+x,1/2+y,z
1/2-x,1/2+y,-z
1/2-x,1/2-y,-z
1/2+x,1/2-y,z
loop_
_atom_site_type_symbol
_atom_site_label
_atom_site_fract_x
_atom_site_fract_y
_atom_site_fract_z
Si Si1 0.602858 0.385843 0.771634
Si Si2 0.261761 0.161687 0.301957
Si Si3 0.863751 0.610123 0.524605
Si Si4 0.042457 0.885754 0.291586
Si Si5 0.327506 0.272668 0.899682
Si Si6 0.468431 0.883666 0.251979
O O1 0.611770 0.500000 0.819289
O O2 0.589599 0.378075 0.472649
O O3 0.558281 0.356313 0.994094
O O4 0.648146 0.321826 0.857495
O O5 0.250000 0.250000 0.500000
O O6 0.307504 0.105310 0.423685
O O7 0.204150 0.141917 0.235923
O O8 0.288395 0.193554 0.025755
O O9 0.875185 0.500000 0.623536
O O10 0.862921 0.700384 0.723798
O O11 0.909344 0.637538 0.311040
O O12 0.000000 0.843517 0.500000
O O13 0.029222 0.000000 0.267393
O O14 0.500000 0.862883 0.500000
O O15 0.468671 0.000000 0.221607
O O16 0.500000 0.841849 0.000000
#
# Coordination Sequence:
#
# PCOD9206793 Si02
#       6
#     8   8   8   8   8   8
#     4  10  21  36  63  94 127 172 211 259 327 385
#     4   9  21  41  62  86 120 170 208 273 341 385
#     4  10  22  39  66  96 128 178 226 271 334 406
#     4   9  18  35  60  92 127 167 213 258 313 382
#     4  10  22  40  64  91 131 166 215 279 332 393
#     4   9  19  36  60  91 128 169 215 269 327 384
#
# _framework density 25.595987999999998
#
# number of rings (size 3 to 8) (size 9 to 14) (size 15 to 20)
#    0.000    2.500    0.000    0.500    7.000    3.333 
#    0.000    7.500    3.667    0.000    0.000    0.000 
#    0.000    0.667    0.000    0.000    0.000    0.000 
#
# Total GULP energy -133800.325515 kJ/mol
# GULP energy per Si atom -5575.013563 kJ/mol
# Density = 2.553773 g / cm^3
# Si number density = 25.595988 Si / 1000 Ang^3
#
#
#
# Elastic Constant Matrix: (Units=GPa)
#
#
# Indices 1 2 3 4 5 6 
#
# 1 106.6554 40.3698 21.7403 0.0000 -7.9309 0.0000
# 2 40.3698 93.7754 16.8169 0.0000 -13.0232 0.0000
# 3 21.7403 16.8169 119.5094 0.0000 -16.5412 0.0000
# 4 0.0000 0.0000 0.0000 5.1814 0.0000 -2.0107
# 5 -7.9309 -13.0232 -16.5412 0.0000 50.1531 0.0000
# 6 0.0000 0.0000 0.0000 -2.0107 0.0000 33.7570
#
#
#
# Elastic Compliance Matrix: (Units=1/GPa)
#
#
# Indices 1 2 3 4 5 6 
#
# 1 0.011433 -0.004651 -0.001407 0.000000 0.000136 0.000000
# 2 -0.004651 0.013125 -0.000661 0.000000 0.002455 0.000000
# 3 -0.001407 -0.000661 0.009076 0.000000 0.002599 0.000000
# 4 0.000000 0.000000 0.000000 0.197567 0.000000 0.011768
# 5 0.000136 0.002455 0.002599 0.000000 0.021455 0.000000
# 6 0.000000 0.000000 0.000000 0.011768 0.000000 0.030324
#
#
# Mechanical properties :
#
#
# Convention : Reuss Voigt Hill
#
# Bulk Modulus (GPa) = 49.51006 53.08823 51.29915
# Shear Modulus (GPa) = 16.49345 33.88583 25.18964
#
# Velocity S-wave (km/s) = 2.54121 3.64245 3.14048
# Velocity P-wave (km/s) = 5.29105 6.20289 5.76503
#
# Compressibility (1/GPa) = 0.02019791
#
# Stress axis : x y z
#
# Youngs Moduli (GPa) = 87.46476 76.18837 110.17805
#
# Poissons Ratio (x) = 0.35433 0.15497
# Poissons Ratio (y) = 0.40678 0.07285
# Poissons Ratio (z) = 0.12302 0.05037
#
# Static dielectric constant tensor:
#      x y z
#    x 2.227480 0.000000 -0.003510 
#    y 0.000000 2.024300 0.000000 
#    z -0.003510 0.000000 2.018490 
# 
# From -- ./inp_files/28160.got.cif
#   From: 2010.05.17/outbox.cif.g08.bks.cpg/sg12_15_cif.got.tgz:28160.got - 2010.06.03 13:09:07.
