data_PCOD9206406
_publ_section_title
;
Structure prediction by ZEFSAII (Michael W. Deem and Ramdas Pophale) SiO2 
 PCOD9206406
Probable space group: C 2/M
;
_chemical_formula_sum "Si O2"
_cell_formula_units_Z 56
_cell_length_a 28.254858
_cell_length_b 15.630436
_cell_length_c 11.499138
_cell_angle_alpha 90.000000
_cell_angle_beta 33.463577
_cell_angle_gamma 90.000000
_cell_volume 2800.280929
_symmetry_space_group_name_H-M "C 2/M"
_symmetry_group_IT_number 12
_symmetry_cell_setting 'monoclinic'
loop_
_space_group_symop_operation_xyz
x,y,z
-x,y,-z
-x,-y,-z
x,-y,z
1/2+x,1/2+y,z
1/2-x,1/2+y,-z
1/2-x,1/2-y,-z
1/2+x,1/2-y,z
loop_
_atom_site_type_symbol
_atom_site_label
_atom_site_fract_x
_atom_site_fract_y
_atom_site_fract_z
Si Si1 0.574420 0.098191 0.752276
Si Si2 0.023270 0.760319 0.724446
Si Si3 0.767829 0.900235 0.339818
Si Si4 0.410335 0.645988 0.638676
Si Si5 0.260670 0.591048 0.789847
Si Si6 0.835753 0.231931 0.021627
Si Si7 0.615042 0.597180 0.681647
O O1 0.559966 0.169257 0.685189
O O2 0.673180 0.108898 0.590793
O O3 0.566285 0.000000 0.728351
O O4 0.500000 0.111878 0.000000
O O5 0.060463 0.789447 0.523627
O O6 0.051116 0.831635 0.762424
O O7 0.921591 0.755191 0.920833
O O8 0.777611 0.834150 0.213995
O O9 0.842290 0.884644 0.281697
O O10 0.775743 0.000000 0.285921
O O11 0.500000 0.605436 0.500000
O O12 0.338276 0.590700 0.723351
O O13 0.365698 0.690786 0.839262
O O14 0.213187 0.500000 0.894754
O O15 0.207500 0.677129 0.913239
O O16 0.306477 0.596655 0.570832
O O17 0.578996 0.500000 0.753994
#
# Coordination Sequence:
#
# PCOD9206406 Si02
#       7
#     8   8   8   8   8   8   8
#     4  10  23  40  59  86 122 162 204 244 290 353
#     4  10  22  38  61  86 119 163 197 242 303 349
#     4  10  22  39  60  89 120 155 197 249 302 350
#     4   9  20  41  60  84 118 154 200 249 298 353
#     4  10  21  36  58  86 114 154 197 242 295 349
#     4  11  23  37  61  89 120 157 199 248 294 353
#     4   9  20  38  59  85 121 152 192 244 297 363
#
# _framework density 19.997993999999998
#
# number of rings (size 3 to 8) (size 9 to 14) (size 15 to 20)
#    0.000    2.143    0.000    2.143    4.000    3.143 
#    0.000    6.429    0.000    2.571    0.000    0.000 
#    0.000    0.000    0.000    0.000    0.000    0.000 
#
# Total GULP energy -156259.958067 kJ/mol
# GULP energy per Si atom -5580.712788 kJ/mol
# Density = 1.995248 g / cm^3
# Si number density = 19.997994 Si / 1000 Ang^3
#
#
#
# Elastic Constant Matrix: (Units=GPa)
#
#
# Indices 1 2 3 4 5 6 
#
# 1 84.0669 66.8595 38.0500 0.0000 -2.5788 0.0000
# 2 66.8595 108.0218 51.8779 0.0000 -1.8654 0.0000
# 3 38.0500 51.8779 87.5819 0.0000 -10.0935 0.0000
# 4 0.0000 0.0000 0.0000 73.9113 0.0000 37.4128
# 5 -2.5788 -1.8654 -10.0935 0.0000 20.7593 0.0000
# 6 0.0000 0.0000 0.0000 37.4128 0.0000 34.1113
#
#
#
# Elastic Compliance Matrix: (Units=1/GPa)
#
#
# Indices 1 2 3 4 5 6 
#
# 1 0.023750 -0.013655 -0.002152 0.000000 0.000677 0.000000
# 2 -0.013655 0.020935 -0.006829 0.000000 -0.003136 0.000000
# 3 -0.002152 -0.006829 0.017264 0.000000 0.007513 0.000000
# 4 0.000000 0.000000 0.000000 0.030416 0.000000 -0.033360
# 5 0.000677 -0.003136 0.007513 0.000000 0.051626 0.000000
# 6 0.000000 0.000000 0.000000 -0.033360 0.000000 0.065904
#
#
# Mechanical properties :
#
#
# Convention : Reuss Voigt Hill
#
# Bulk Modulus (GPa) = 59.96531 65.91617 62.94074
# Shear Modulus (GPa) = 19.17724 33.94858 26.56291
#
# Velocity S-wave (km/s) = 3.10006 4.12466 3.64851
# Velocity P-wave (km/s) = 6.54711 7.46437 7.02073
#
# Compressibility (1/GPa) = 0.01667631
#
# Stress axis : x y z
#
# Youngs Moduli (GPa) = 42.10575 47.76798 57.92417
#
# Poissons Ratio (x) = 0.65225 0.12465
# Poissons Ratio (y) = 0.57494 0.39559
# Poissons Ratio (z) = 0.09061 0.32623
#
# Static dielectric constant tensor:
#      x y z
#    x 1.702190 0.000000 -0.024090 
#    y 0.000000 1.695340 0.000000 
#    z -0.024090 0.000000 1.715960 
# 
# From -- ./inp_files/189612.got.cif
#   From: 2010.05.17/outbox.cif.g08.bks.cpg/sg12_95_cif.got.tgz:189612.got - 2010.06.03 13:09:07.
