data_PCOD9206763
_publ_section_title
;
Structure prediction by ZEFSAII (Michael W. Deem and Ramdas Pophale) SiO2 
 PCOD9206763
Probable space group: C 2/M
;
_chemical_formula_sum "Si O2"
_cell_formula_units_Z 60
_cell_length_a 24.074857
_cell_length_b 9.564206
_cell_length_c 14.655818
_cell_angle_alpha 90.000000
_cell_angle_beta 65.879726
_cell_angle_gamma 90.000000
_cell_volume 3079.965264
_symmetry_space_group_name_H-M "C 2/M"
_symmetry_group_IT_number 12
_symmetry_cell_setting 'monoclinic'
loop_
_space_group_symop_operation_xyz
x,y,z
-x,y,-z
-x,-y,-z
x,-y,z
1/2+x,1/2+y,z
1/2-x,1/2+y,-z
1/2-x,1/2-y,-z
1/2+x,1/2-y,z
loop_
_atom_site_type_symbol
_atom_site_label
_atom_site_fract_x
_atom_site_fract_y
_atom_site_fract_z
Si Si1 0.170147 0.660257 0.342209
Si Si2 0.832284 0.734745 0.446732
Si Si3 0.017773 0.335519 0.092791
Si Si4 0.959002 0.163573 0.288414
Si Si5 0.051491 0.160106 0.388581
Si Si6 0.752579 0.500000 0.458329
Si Si7 0.271758 0.665637 0.844670
Si Si8 0.342653 0.835005 0.949776
O O1 0.173892 0.500000 0.309333
O O2 0.175072 0.665207 0.448089
O O3 0.105649 0.731358 0.362323
O O4 0.219307 0.755039 0.256751
O O5 0.901727 0.766240 0.376464
O O6 0.801913 0.624116 0.399879
O O7 0.795916 0.878279 0.477455
O O8 0.008954 0.500000 0.119749
O O9 0.088861 0.303917 0.065005
O O10 0.976053 0.242090 0.185098
O O11 0.000000 0.313349 0.000000
O O12 0.017220 0.172967 0.316005
O O13 0.945982 0.000000 0.282762
O O14 0.000000 0.180873 0.500000
O O15 0.074794 0.000000 0.384119
O O16 0.283348 0.500000 0.827255
O O17 0.319527 0.737856 0.882642
O O18 0.205878 0.684497 0.935597
O O19 0.339294 0.000000 0.925752
#
# Coordination Sequence:
#
# PCOD9206763 Si02
#       8
#     8   8   8   8   8   4   8   8
#     4  12  24  38  58  94 130 160 206 256 303 370
#     4  11  23  44  62  91 121 164 208 256 303 371
#     4  10  23  43  63  90 121 160 209 260 311 372
#     4  11  23  41  66  93 125 164 204 257 314 375
#     4  10  21  37  61  92 127 165 202 245 312 374
#     4  10  24  44  64  82 124 166 208 250 302 348
#     4  10  21  36  62  92 121 163 201 250 318 376
#     4   9  19  41  63  87 121 155 204 259 314 373
#
# _framework density 19.480739
#
# number of rings (size 3 to 8) (size 9 to 14) (size 15 to 20)
#    0.000    1.600    2.667    1.600    2.800    4.267 
#    4.800    0.000    0.000    0.000    0.000    0.000 
#    0.000    0.000    0.000    0.000    0.000    0.000 
#
# Total GULP energy -167085.357773 kJ/mol
# GULP energy per Si atom -5569.511926 kJ/mol
# Density = 1.943640 g / cm^3
# Si number density = 19.480739 Si / 1000 Ang^3
#
#
#
# Elastic Constant Matrix: (Units=GPa)
#
#
# Indices 1 2 3 4 5 6 
#
# 1 53.6657 23.5952 8.7341 0.0000 -11.2199 0.0000
# 2 23.5952 115.9084 32.6771 0.0000 -4.5916 0.0000
# 3 8.7341 32.6771 85.0616 0.0000 -4.2231 0.0000
# 4 0.0000 0.0000 0.0000 23.1942 0.0000 -8.5924
# 5 -11.2199 -4.5916 -4.2231 0.0000 14.0381 0.0000
# 6 0.0000 0.0000 0.0000 -8.5924 0.0000 20.6004
#
#
#
# Elastic Compliance Matrix: (Units=1/GPa)
#
#
# Indices 1 2 3 4 5 6 
#
# 1 0.024255 -0.004232 0.000030 0.000000 0.018011 0.000000
# 2 -0.004232 0.010474 -0.003641 0.000000 -0.001052 0.000000
# 3 0.000030 -0.003641 0.013293 0.000000 0.002832 0.000000
# 4 0.000000 0.000000 0.000000 0.050994 0.000000 0.021269
# 5 0.018011 -0.001052 0.002832 0.000000 0.086137 0.000000
# 6 0.000000 0.000000 0.000000 0.021269 0.000000 0.057414
#
#
# Mechanical properties :
#
#
# Convention : Reuss Voigt Hill
#
# Bulk Modulus (GPa) = 30.92764 42.73872 36.83318
# Shear Modulus (GPa) = 18.58508 24.20851 21.39679
#
# Velocity S-wave (km/s) = 3.09208 3.52900 3.31774
# Velocity P-wave (km/s) = 5.35335 6.21223 5.79871
#
# Compressibility (1/GPa) = 0.03233354
#
# Stress axis : x y z
#
# Youngs Moduli (GPa) = 41.22790 95.47475 75.23003
#
# Poissons Ratio (x) = 0.40410 -0.00223
# Poissons Ratio (y) = 0.17450 0.27394
# Poissons Ratio (z) = -0.00122 0.34765
#
# Static dielectric constant tensor:
#      x y z
#    x 1.704200 0.000000 0.027090 
#    y 0.000000 1.656330 0.000000 
#    z 0.027090 0.000000 1.698240 
# 
# From -- ./inp_files/238553.got.cif
#   From: 2010.05.17/outbox.cif.g08.bks.cpg/sg12_120_cif.got.tgz:238553.got - 2010.06.03 13:09:07.
