data_PCOD9206393
_publ_section_title
;
Structure prediction by ZEFSAII (Michael W. Deem and Ramdas Pophale) SiO2 
 PCOD9206393
Probable space group: C 2/M
;
_chemical_formula_sum "Si O2"
_cell_formula_units_Z 50
_cell_length_a 10.053137
_cell_length_b 10.177558
_cell_length_c 30.664056
_cell_angle_alpha 90.000000
_cell_angle_beta 119.168148
_cell_angle_gamma 90.000000
_cell_volume 2739.587076
_symmetry_space_group_name_H-M "C 2/M"
_symmetry_group_IT_number 12
_symmetry_cell_setting 'monoclinic'
loop_
_space_group_symop_operation_xyz
x,y,z
-x,y,-z
-x,-y,-z
x,-y,z
1/2+x,1/2+y,z
1/2-x,1/2+y,-z
1/2-x,1/2-y,-z
1/2+x,1/2-y,z
loop_
_atom_site_type_symbol
_atom_site_label
_atom_site_fract_x
_atom_site_fract_y
_atom_site_fract_z
Si Si1 0.445252 0.349436 0.856261
Si Si2 0.608226 0.347167 0.475698
Si Si3 0.583835 0.847068 0.808108
Si Si4 0.405446 0.346506 0.357028
Si Si5 0.547959 0.153932 0.309402
Si Si6 0.931863 0.236097 0.031857
Si Si7 0.500000 0.000000 0.000000
O O1 0.469724 0.500000 0.846001
O O2 0.516085 0.249009 0.833308
O O3 0.264776 0.327611 0.832320
O O4 0.521203 0.328679 0.915623
O O5 0.500000 0.325520 0.500000
O O6 0.658276 0.500000 0.484808
O O7 0.750000 0.250000 0.500000
O O8 0.510019 0.327375 0.416253
O O9 0.506870 0.824103 0.748865
O O10 0.557703 0.000000 0.815875
O O11 0.418069 0.500000 0.345535
O O12 0.460559 0.249561 0.328111
O O13 0.229078 0.323034 0.340631
O O14 0.518978 0.000000 0.315327
O O15 0.999497 0.382559 0.037051
O O16 0.750000 0.250000 0.000000
O O17 0.000000 0.163985 0.000000
#
# Coordination Sequence:
#
# PCOD9206393 Si02
#       7
#     8   8   8   8   8   8   2
#     4  11  24  39  59  88 117 148 188 232 285 337
#     4  10  21  37  56  82 117 151 190 235 281 333
#     4  10  23  40  60  86 115 149 188 233 281 339
#     4  10  21  36  58  85 113 150 191 233 282 335
#     4  10  21  39  60  84 114 148 191 234 282 334
#     4  10  22  39  60  82 113 150 186 230 278 333
#     4   8  24  40  56  84 116 140 196 232 272 332
#
# _framework density 18.250927000000001
#
# number of rings (size 3 to 8) (size 9 to 14) (size 15 to 20)
#    0.480    1.440    0.000    2.880    2.240    4.480 
#    0.000    0.000    0.000    0.000    0.000    0.000 
#    0.000    0.000    0.000    0.000    0.000    0.000 
#
# Total GULP energy -139300.998694 kJ/mol
# GULP energy per Si atom -5572.039948 kJ/mol
# Density = 1.820939 g / cm^3
# Si number density = 18.250927 Si / 1000 Ang^3
#
#
#
# Elastic Constant Matrix: (Units=GPa)
#
#
# Indices 1 2 3 4 5 6 
#
# 1 65.0267 48.4117 31.5533 0.0000 -6.6032 0.0000
# 2 48.4117 91.4757 35.5859 0.0000 -19.0481 0.0000
# 3 31.5533 35.5859 70.3278 0.0000 1.1377 0.0000
# 4 0.0000 0.0000 0.0000 49.6108 0.0000 8.9227
# 5 -6.6032 -19.0481 1.1377 0.0000 38.4915 0.0000
# 6 0.0000 0.0000 0.0000 8.9227 0.0000 54.4498
#
#
#
# Elastic Compliance Matrix: (Units=1/GPa)
#
#
# Indices 1 2 3 4 5 6 
#
# 1 0.027421 -0.012452 -0.005981 0.000000 -0.001281 0.000000
# 2 -0.012452 0.021412 -0.005387 0.000000 0.008619 0.000000
# 3 -0.005981 -0.005387 0.019698 0.000000 -0.004274 0.000000
# 4 0.000000 0.000000 0.000000 0.020769 0.000000 -0.003403
# 5 -0.001281 0.008619 -0.004274 0.000000 0.030152 0.000000
# 6 0.000000 0.000000 0.000000 -0.003403 0.000000 0.018923
#
#
# Mechanical properties :
#
#
# Convention : Reuss Voigt Hill
#
# Bulk Modulus (GPa) = 47.86993 50.88133 49.37563
# Shear Modulus (GPa) = 25.90948 35.92905 30.91926
#
# Velocity S-wave (km/s) = 3.77188 4.44172 4.12043
# Velocity P-wave (km/s) = 6.72719 7.36508 7.05335
#
# Compressibility (1/GPa) = 0.02088994
#
# Stress axis : x y z
#
# Youngs Moduli (GPa) = 36.46867 46.70185 50.76687
#
# Poissons Ratio (x) = 0.58153 0.30365
# Poissons Ratio (y) = 0.45410 0.27351
# Poissons Ratio (z) = 0.21813 0.25161
#
# Static dielectric constant tensor:
#      x y z
#    x 1.616670 0.000000 -0.002990 
#    y 0.000000 1.614510 0.000000 
#    z -0.002990 0.000000 1.620160 
# 
# From -- ./inp_files/373490.got.cif
#   From: 2010.05.17/outbox.cif.g08.bks.cpg/sg12_187_cif.got.tgz:373490.got - 2010.06.03 13:09:07.
