data_PCOD9206156
_publ_section_title
;
Structure prediction by ZEFSAII (Michael W. Deem and Ramdas Pophale) SiO2 
 PCOD9206156
Probable space group: C 2/M
;
_chemical_formula_sum "Si O2"
_cell_formula_units_Z 52
_cell_length_a 9.674615
_cell_length_b 19.817299
_cell_length_c 15.618828
_cell_angle_alpha 90.000000
_cell_angle_beta 121.146552
_cell_angle_gamma 90.000000
_cell_volume 2562.847663
_symmetry_space_group_name_H-M "C 2/M"
_symmetry_group_IT_number 12
_symmetry_cell_setting 'monoclinic'
loop_
_space_group_symop_operation_xyz
x,y,z
-x,y,-z
-x,-y,-z
x,-y,z
1/2+x,1/2+y,z
1/2-x,1/2+y,-z
1/2-x,1/2-y,-z
1/2+x,1/2-y,z
loop_
_atom_site_type_symbol
_atom_site_label
_atom_site_fract_x
_atom_site_fract_y
_atom_site_fract_z
Si Si1 0.350399 0.076210 0.591296
Si Si2 0.713342 0.077408 0.755106
Si Si3 0.500000 0.224205 0.000000
Si Si4 0.643161 0.782105 0.318557
Si Si5 0.612174 0.420909 0.356066
Si Si6 0.832936 0.689597 0.119305
Si Si7 0.529156 0.301043 0.609528
O O1 0.544100 0.076258 0.648637
O O2 0.323529 0.139829 0.645060
O O3 0.257401 0.087301 0.472188
O O4 0.302932 0.000000 0.605842
O O5 0.840130 0.100907 0.724262
O O6 0.694256 0.122472 0.832991
O O7 0.749734 0.000000 0.790131
O O8 0.339779 0.271486 0.932764
O O9 0.579769 0.181560 0.946379
O O10 0.479967 0.772343 0.214016
O O11 0.614517 0.740243 0.394326
O O12 0.805062 0.760978 0.323051
O O13 0.573465 0.500000 0.342172
O O14 0.472905 0.373459 0.346647
O O15 0.500000 0.307439 0.500000
#
# Coordination Sequence:
#
# PCOD9206156 Si02
#       7
#     8   8   4   8   8   8   8
#     4   9  18  34  57  82 117 162 205 240 274 327
#     4   9  19  36  60  90 119 156 196 240 290 347
#     4  10  22  42  66  96 110 146 186 242 318 368
#     4  11  24  38  58  86 120 158 198 245 296 348
#     4  10  21  36  56  83 120 166 213 243 277 333
#     4  10  22  41  66  89 118 146 190 246 298 376
#     4  12  25  37  52  85 124 167 201 246 287 329
#
# _framework density 20.289929999999998
#
# number of rings (size 3 to 8) (size 9 to 14) (size 15 to 20)
#    0.000    1.846    1.538    1.846    6.462    2.769 
#    0.000    0.769    0.000    0.000    0.000    0.000 
#    0.000    0.000    0.000    0.000    0.000    0.000 
#
# Total GULP energy -144836.508367 kJ/mol
# GULP energy per Si atom -5570.634937 kJ/mol
# Density = 2.024375 g / cm^3
# Si number density = 20.289930 Si / 1000 Ang^3
#
#
#
# Elastic Constant Matrix: (Units=GPa)
#
#
# Indices 1 2 3 4 5 6 
#
# 1 142.1539 46.1523 58.5243 0.0000 -18.2100 0.0000
# 2 46.1523 63.4385 22.0265 0.0000 -10.0884 0.0000
# 3 58.5243 22.0265 57.5072 0.0000 -4.9857 0.0000
# 4 0.0000 0.0000 0.0000 14.4322 0.0000 -5.5493
# 5 -18.2100 -10.0884 -4.9857 0.0000 35.2493 0.0000
# 6 0.0000 0.0000 0.0000 -5.5493 0.0000 31.7797
#
#
#
# Elastic Compliance Matrix: (Units=1/GPa)
#
#
# Indices 1 2 3 4 5 6 
#
# 1 0.014367 -0.005589 -0.012124 0.000000 0.004107 0.000000
# 2 -0.005589 0.021014 -0.002115 0.000000 0.002827 0.000000
# 3 -0.012124 -0.002115 0.030314 0.000000 -0.002581 0.000000
# 4 0.000000 0.000000 0.000000 0.074277 0.000000 0.012970
# 5 0.004107 0.002827 -0.002581 0.000000 0.030935 0.000000
# 6 0.000000 0.000000 0.000000 0.012970 0.000000 0.033731
#
#
# Mechanical properties :
#
#
# Convention : Reuss Voigt Hill
#
# Bulk Modulus (GPa) = 38.40666 57.38953 47.89810
# Shear Modulus (GPa) = 19.76482 25.38535 22.57509
#
# Velocity S-wave (km/s) = 3.12447 3.54097 3.33922
# Velocity P-wave (km/s) = 5.65566 6.71298 6.20687
#
# Compressibility (1/GPa) = 0.02603715
#
# Stress axis : x y z
#
# Youngs Moduli (GPa) = 69.60461 47.58799 32.98800
#
# Poissons Ratio (x) = 0.26598 0.39995
# Poissons Ratio (y) = 0.38904 0.06978
# Poissons Ratio (z) = 0.84389 0.10067
#
# Static dielectric constant tensor:
#      x y z
#    x 1.786000 0.000000 0.010050 
#    y 0.000000 1.756060 0.000000 
#    z 0.010050 0.000000 1.764900 
# 
# From -- ./inp_files/198556.got.cif
#   From: 2010.05.17/outbox.cif.g08.bks.cpg/sg12_100_cif.got.tgz:198556.got - 2010.06.03 13:09:07.
