data_PCOD9206172
_publ_section_title
;
Structure prediction by ZEFSAII (Michael W. Deem and Ramdas Pophale) SiO2 
 PCOD9206172
Probable space group: C 2/M
;
_chemical_formula_sum "Si O2"
_cell_formula_units_Z 52
_cell_length_a 11.685724
_cell_length_b 22.692719
_cell_length_c 13.139968
_cell_angle_alpha 90.000000
_cell_angle_beta 127.862520
_cell_angle_gamma 90.000000
_cell_volume 2750.937752
_symmetry_space_group_name_H-M "C 2/M"
_symmetry_group_IT_number 12
_symmetry_cell_setting 'monoclinic'
loop_
_space_group_symop_operation_xyz
x,y,z
-x,y,-z
-x,-y,-z
x,-y,z
1/2+x,1/2+y,z
1/2-x,1/2+y,-z
1/2-x,1/2-y,-z
1/2+x,1/2-y,z
loop_
_atom_site_type_symbol
_atom_site_label
_atom_site_fract_x
_atom_site_fract_y
_atom_site_fract_z
Si Si1 0.148651 0.000000 0.758709
Si Si2 0.919674 0.500000 0.758859
Si Si3 0.119322 0.801629 0.656521
Si Si4 0.184186 0.624749 0.377855
Si Si5 0.730389 0.500000 0.037535
Si Si6 0.798393 0.933091 0.788698
Si Si7 0.047444 0.108131 0.323136
Si Si8 0.924358 0.672085 0.349747
O O1 0.305337 0.000000 0.790572
O O2 0.050299 0.943294 0.679925
O O3 0.173748 0.000000 0.893356
O O4 0.879571 0.560210 0.678997
O O5 0.093406 0.500000 0.870869
O O6 0.242108 0.844189 0.678875
O O7 0.000000 0.799722 0.500000
O O8 0.043270 0.832409 0.710932
O O9 0.158652 0.734235 0.700434
O O10 0.304700 0.616685 0.532071
O O11 0.056158 0.667617 0.343246
O O12 0.673835 0.445640 0.076521
O O13 0.915296 0.910628 0.771154
O O14 0.674687 0.884620 0.716872
O O15 0.755264 0.000000 0.730429
O O16 0.000000 0.668200 0.500000
#
# Coordination Sequence:
#
# PCOD9206172 Si02
#       8
#     4   4   8   8   4   8   8   8
#     4  12  23  40  60  81 118 153 194 247 285 340
#     4  12  22  37  61  88 114 153 182 245 299 341
#     4   9  22  34  51  85 122 160 187 216 277 353
#     4  11  21  35  58  89 127 148 188 228 290 356
#     4  10  24  41  57  86 109 149 206 240 291 336
#     4  10  21  36  56  85 112 148 191 240 294 326
#     4  11  21  35  56  90 118 152 182 233 290 344
#     4  11  21  34  57  83 124 160 186 230 277 350
#
# _framework density 18.902646000000001
#
# number of rings (size 3 to 8) (size 9 to 14) (size 15 to 20)
#    0.462    0.923    5.385    0.692    2.154    4.000 
#    0.000    0.000    0.000    0.923    0.000    0.000 
#    0.000    0.000    0.000    0.000    0.000    0.000 
#
# Total GULP energy -144902.315879 kJ/mol
# GULP energy per Si atom -5573.165995 kJ/mol
# Density = 1.885962 g / cm^3
# Si number density = 18.902646 Si / 1000 Ang^3
#
#
#
# Elastic Constant Matrix: (Units=GPa)
#
#
# Indices 1 2 3 4 5 6 
#
# 1 113.9060 18.4905 11.7739 0.0000 4.6222 0.0000
# 2 18.4905 91.7508 7.7286 0.0000 -0.8762 0.0000
# 3 11.7739 7.7286 22.2262 0.0000 3.1220 0.0000
# 4 0.0000 0.0000 0.0000 -4.2718 0.0000 -8.9911
# 5 4.6222 -0.8762 3.1220 0.0000 19.4918 0.0000
# 6 0.0000 0.0000 0.0000 -8.9911 0.0000 74.1056
#
#
#
# Elastic Compliance Matrix: (Units=1/GPa)
#
#
# Indices 1 2 3 4 5 6 
#
# 1 0.009544 -0.001579 -0.004275 0.000000 -0.001650 0.000000
# 2 -0.001579 0.011515 -0.003369 0.000000 0.001432 0.000000
# 3 -0.004275 -0.003369 0.049419 0.000000 -0.007053 0.000000
# 4 0.000000 0.000000 0.000000 -0.186473 0.000000 -0.022625
# 5 -0.001650 0.001432 -0.007053 0.000000 0.052889 0.000000
# 6 0.000000 0.000000 0.000000 -0.022625 0.000000 0.010749
#
#
# Mechanical properties :
#
#
# Convention : Reuss Voigt Hill
#
# Bulk Modulus (GPa) = 19.21885 33.76320 26.49103
# Shear Modulus (GPa) = -301.79753 30.52446 -135.63654
#
# Velocity S-wave (km/s) = -12.64933 4.02285 -8.48004
# Velocity P-wave (km/s) = 14.25312 6.28316 9.04636
#
# Compressibility (1/GPa) = 0.05203225
#
# Stress axis : x y z
#
# Youngs Moduli (GPa) = 104.77415 86.84525 20.23524
#
# Poissons Ratio (x) = 0.13714 0.08651
# Poissons Ratio (y) = 0.16545 0.06816
# Poissons Ratio (z) = 0.44792 0.29254
#
# Static dielectric constant tensor:
#      x y z
#    x 1.704920 0.000000 0.006460 
#    y 0.000000 1.653930 0.000000 
#    z 0.006460 0.000000 1.643000 
# 
# From -- ./inp_files/207797.got.cif
#   From: 2010.05.17/outbox.cif.g08.bks.cpg/sg12_104_cif.got.tgz:207797.got - 2010.06.03 13:09:07.
