data_PCOD9206359
_publ_section_title
;
Structure prediction by ZEFSAII (Michael W. Deem and Ramdas Pophale) SiO2 
 PCOD9206359
Probable space group: C 2/M
;
_chemical_formula_sum "Si O2"
_cell_formula_units_Z 48
_cell_length_a 27.985242
_cell_length_b 16.902190
_cell_length_c 7.398371
_cell_angle_alpha 90.000000
_cell_angle_beta 35.764200
_cell_angle_gamma 90.000000
_cell_volume 2045.295668
_symmetry_space_group_name_H-M "C 2/M"
_symmetry_group_IT_number 12
_symmetry_cell_setting 'monoclinic'
loop_
_space_group_symop_operation_xyz
x,y,z
-x,y,-z
-x,-y,-z
x,-y,z
1/2+x,1/2+y,z
1/2-x,1/2+y,-z
1/2-x,1/2-y,-z
1/2+x,1/2-y,z
loop_
_atom_site_type_symbol
_atom_site_label
_atom_site_fract_x
_atom_site_fract_y
_atom_site_fract_z
Si Si1 0.457230 0.084318 0.435320
Si Si2 0.563361 0.777556 0.930219
Si Si3 0.833306 0.090437 0.808550
Si Si4 0.807212 0.590880 0.458896
Si Si5 0.291910 0.857131 0.088675
Si Si6 0.907848 0.785932 0.798582
O O1 0.500000 0.081398 0.500000
O O2 0.500255 0.155973 0.202575
O O3 0.471008 0.000000 0.301840
O O4 0.361307 0.093252 0.769141
O O5 0.602245 0.717178 0.954646
O O6 0.500000 0.731153 0.000000
O O7 0.635117 0.837294 0.649588
O O8 0.791054 0.133645 0.768049
O O9 0.906518 0.138648 0.674432
O O10 0.851256 0.000000 0.705167
O O11 0.769366 0.090696 0.172559
O O12 0.839880 0.500000 0.359068
O O13 0.788314 0.612641 0.306902
O O14 0.334824 0.771205 0.957155
O O15 0.000000 0.753226 0.500000
#
# Coordination Sequence:
#
# PCOD9206359 Si02
#       6
#     8   8   8   8   8   8
#     4  11  18  30  54  86 125 165 193 230 296 367
#     4  11  21  34  56  86 123 160 201 243 300 361
#     4  11  25  42  64  90 120 161 207 253 299 356
#     4  10  21  36  57  90 128 156 195 247 297 363
#     4  11  20  39  64  91 122 161 194 246 308 364
#     4  11  23  44  62  87 122 158 205 252 301 358
#
# _framework density 23.468489000000002
#
# number of rings (size 3 to 8) (size 9 to 14) (size 15 to 20)
#    0.000    1.167    5.000    3.500    0.000    5.667 
#    3.000    0.000    0.000    0.500    0.000    0.000 
#    0.000    0.000    0.000    0.000    0.000    0.000 
#
# Total GULP energy -133945.390688 kJ/mol
# GULP energy per Si atom -5581.057945 kJ/mol
# Density = 2.341507 g / cm^3
# Si number density = 23.468489 Si / 1000 Ang^3
#
#
#
# Elastic Constant Matrix: (Units=GPa)
#
#
# Indices 1 2 3 4 5 6 
#
# 1 115.8879 47.5437 3.5201 0.0000 -18.4501 0.0000
# 2 47.5437 60.7577 -7.1602 0.0000 -20.9345 0.0000
# 3 3.5201 -7.1602 16.8976 0.0000 2.7220 0.0000
# 4 0.0000 0.0000 0.0000 13.8343 0.0000 3.1826
# 5 -18.4501 -20.9345 2.7220 0.0000 30.2053 0.0000
# 6 0.0000 0.0000 0.0000 3.1826 0.0000 25.0797
#
#
#
# Elastic Compliance Matrix: (Units=1/GPa)
#
#
# Indices 1 2 3 4 5 6 
#
# 1 0.013645 -0.011141 -0.007775 0.000000 0.001314 0.000000
# 2 -0.011141 0.031529 0.013452 0.000000 0.013834 0.000000
# 3 -0.007775 0.013452 0.066732 0.000000 -0.001439 0.000000
# 4 0.000000 0.000000 0.000000 0.074458 0.000000 -0.009449
# 5 0.001314 0.013834 -0.001439 0.000000 0.043627 0.000000
# 6 0.000000 0.000000 0.000000 -0.009449 0.000000 0.041072
#
#
# Mechanical properties :
#
#
# Convention : Reuss Voigt Hill
#
# Bulk Modulus (GPa) = 9.90307 31.26115 20.58211
# Shear Modulus (GPa) = 15.84034 23.79982 19.82008
#
# Velocity S-wave (km/s) = 2.60082 3.18798 2.90925
# Velocity P-wave (km/s) = 3.63977 5.18655 4.48042
#
# Compressibility (1/GPa) = 0.10097875
#
# Stress axis : x y z
#
# Youngs Moduli (GPa) = 73.28680 31.71694 14.98530
#
# Poissons Ratio (x) = 0.35336 0.11651
# Poissons Ratio (y) = 0.81649 -0.20159
# Poissons Ratio (z) = 0.56981 -0.42667
#
# Static dielectric constant tensor:
#      x y z
#    x 2.064040 0.000000 0.023750 
#    y 0.000000 1.936930 0.000000 
#    z 0.023750 0.000000 1.948450 
# 
# From -- ./inp_files/106506.got.cif
#   From: 2010.05.17/outbox.cif.g08.bks.cpg/sg12_54_cif.got.tgz:106506.got - 2010.06.03 13:09:07.
