data_PCOD9206232
_publ_section_title
;
Structure prediction by ZEFSAII (Michael W. Deem and Ramdas Pophale) SiO2 
 PCOD9206232
Probable space group: C 2/M
;
_chemical_formula_sum "Si O2"
_cell_formula_units_Z 56
_cell_length_a 11.592915
_cell_length_b 32.731529
_cell_length_c 14.571107
_cell_angle_alpha 90.000000
_cell_angle_beta 146.142119
_cell_angle_gamma 90.000000
_cell_volume 3080.433100
_symmetry_space_group_name_H-M "C 2/M"
_symmetry_group_IT_number 12
_symmetry_cell_setting 'monoclinic'
loop_
_space_group_symop_operation_xyz
x,y,z
-x,y,-z
-x,-y,-z
x,-y,z
1/2+x,1/2+y,z
1/2-x,1/2+y,-z
1/2-x,1/2-y,-z
1/2+x,1/2-y,z
loop_
_atom_site_type_symbol
_atom_site_label
_atom_site_fract_x
_atom_site_fract_y
_atom_site_fract_z
Si Si1 0.500000 0.091296 0.500000
Si Si2 0.072653 0.048911 0.152993
Si Si3 0.261669 0.774689 0.371519
Si Si4 0.605740 0.392045 0.823202
Si Si5 0.929869 0.178394 0.049486
Si Si6 0.464767 0.808977 0.783098
Si Si7 0.500000 0.149040 0.000000
Si Si8 0.780892 0.355170 0.505308
O O1 0.301124 0.066031 0.332112
O O2 0.566452 0.121068 0.461590
O O3 0.924574 0.067641 0.135306
O O4 0.074965 0.000000 0.159251
O O5 0.000000 0.059684 0.000000
O O6 0.500000 0.772318 0.500000
O O7 0.241275 0.810357 0.434112
O O8 0.110687 0.789764 0.190880
O O9 0.171108 0.730294 0.332524
O O10 0.570439 0.356876 0.875826
O O11 0.422972 0.383051 0.630117
O O12 0.816884 0.380495 0.913029
O O13 0.702126 0.197795 0.907682
O O14 0.000000 0.159939 0.000000
O O15 0.380154 0.847017 0.668734
O O16 0.451698 0.821562 0.881138
#
# Coordination Sequence:
#
# PCOD9206232 Si02
#       8
#     4   8   8   8   8   8   4   8
#     4  10  21  38  60  94 128 148 190 238 300 370
#     4  10  21  37  66  99 125 152 184 236 305 361
#     4  11  22  36  53  78 115 150 201 253 300 343
#     4   9  21  38  58  83 119 146 196 237 278 364
#     4  10  21  36  57  79 107 149 194 246 305 345
#     4  11  24  37  57  77 114 155 204 253 294 340
#     4  10  24  40  55  82 112 164 202 238 293 340
#     4  10  21  37  57  85 108 159 198 242 300 346
#
# _framework density 18.179262000000001
#
# number of rings (size 3 to 8) (size 9 to 14) (size 15 to 20)
#    0.000    1.857    0.714    2.357   11.000    0.000 
#    2.571    0.357    0.000    0.000    0.000    2.000 
#    0.000    0.000    0.000    0.000    0.000    0.000 
#
# Total GULP energy -156091.260729 kJ/mol
# GULP energy per Si atom -5574.687883 kJ/mol
# Density = 1.813789 g / cm^3
# Si number density = 18.179262 Si / 1000 Ang^3
#
#
#
# Elastic Constant Matrix: (Units=GPa)
#
#
# Indices 1 2 3 4 5 6 
#
# 1 106.6934 42.8206 57.5585 0.0000 0.0689 0.0000
# 2 42.8206 94.2948 37.9475 0.0000 0.2227 0.0000
# 3 57.5585 37.9475 91.1496 0.0000 1.6117 0.0000
# 4 0.0000 0.0000 0.0000 10.3015 0.0000 3.6914
# 5 0.0689 0.2227 1.6117 0.0000 19.9272 0.0000
# 6 0.0000 0.0000 0.0000 3.6914 0.0000 12.3376
#
#
#
# Elastic Compliance Matrix: (Units=1/GPa)
#
#
# Indices 1 2 3 4 5 6 
#
# 1 0.015202 -0.003648 -0.008092 0.000000 0.000643 0.000000
# 2 -0.003648 0.013617 -0.003367 0.000000 0.000133 0.000000
# 3 -0.008092 -0.003367 0.017507 0.000000 -0.001350 0.000000
# 4 0.000000 0.000000 0.000000 0.108731 0.000000 -0.032533
# 5 0.000643 0.000133 -0.001350 0.000000 0.050288 0.000000
# 6 0.000000 0.000000 0.000000 -0.032533 0.000000 0.090787
#
#
# Mechanical properties :
#
#
# Convention : Reuss Voigt Hill
#
# Bulk Modulus (GPa) = 62.07486 63.19900 62.63693
# Shear Modulus (GPa) = 15.07307 18.76733 16.92020
#
# Velocity S-wave (km/s) = 2.88259 3.21650 3.05412
# Velocity P-wave (km/s) = 6.73047 6.97383 6.85323
#
# Compressibility (1/GPa) = 0.01610958
#
# Stress axis : x y z
#
# Youngs Moduli (GPa) = 65.78092 73.43940 57.12103
#
# Poissons Ratio (x) = 0.26794 0.46223
# Poissons Ratio (y) = 0.24000 0.19235
# Poissons Ratio (z) = 0.53230 0.24730
#
# Static dielectric constant tensor:
#      x y z
#    x 1.645600 0.000000 -0.004830 
#    y 0.000000 1.614670 0.000000 
#    z -0.004830 0.000000 1.704770 
# 
# From -- ./inp_files/209191.got.cif
#   From: 2010.05.17/outbox.cif.g08.bks.cpg/sg12_105_cif.got.tgz:209191.got - 2010.06.03 13:09:07.
