data_PCOD9206057
_publ_section_title
;
Structure prediction by ZEFSAII (Michael W. Deem and Ramdas Pophale) SiO2 
 PCOD9206057
Probable space group: C 2/M
;
_chemical_formula_sum "Si O2"
_cell_formula_units_Z 56
_cell_length_a 12.778416
_cell_length_b 13.562125
_cell_length_c 18.402078
_cell_angle_alpha 90.000000
_cell_angle_beta 58.582875
_cell_angle_gamma 90.000000
_cell_volume 2721.584010
_symmetry_space_group_name_H-M "C 2/M"
_symmetry_group_IT_number 12
_symmetry_cell_setting 'monoclinic'
loop_
_space_group_symop_operation_xyz
x,y,z
-x,y,-z
-x,-y,-z
x,-y,z
1/2+x,1/2+y,z
1/2-x,1/2+y,-z
1/2-x,1/2-y,-z
1/2+x,1/2-y,z
loop_
_atom_site_type_symbol
_atom_site_label
_atom_site_fract_x
_atom_site_fract_y
_atom_site_fract_z
Si Si1 0.825908 0.380558 0.623176
Si Si2 0.903427 0.619182 0.434573
Si Si3 0.427470 0.323180 0.957395
Si Si4 0.312780 0.114837 0.033689
Si Si5 0.936562 0.200215 0.236217
Si Si6 0.171871 0.384447 0.695386
Si Si7 0.657537 0.616172 0.235479
O O1 0.816909 0.500000 0.628741
O O2 0.845927 0.349323 0.531911
O O3 0.700286 0.336640 0.698709
O O4 0.952521 0.352427 0.618275
O O5 0.903670 0.500000 0.437216
O O6 0.828985 0.645616 0.389001
O O7 0.299196 0.373847 0.983024
O O8 0.512150 0.339806 0.857122
O O9 0.500000 0.362245 0.000000
O O10 0.400390 0.206144 0.981085
O O11 0.255303 0.137738 0.135082
O O12 0.356129 0.000000 0.017834
O O13 0.933802 0.318156 0.232215
O O14 0.031495 0.169684 0.263746
O O15 0.146668 0.500000 0.708786
O O16 0.288604 0.365061 0.704189
O O17 0.633778 0.500000 0.238151
#
# Coordination Sequence:
#
# PCOD9206057 Si02
#       7
#     8   8   8   8   8   8   8
#     4   9  18  36  60  86 114 149 188 233 286 341
#     4   8  17  36  59  82 115 150 187 233 280 334
#     4  10  21  37  55  83 115 143 189 242 276 325
#     4   9  19  37  58  77 109 156 190 222 281 341
#     4  11  22  33  60  85 114 150 190 233 289 338
#     4  10  21  36  55  82 117 150 185 233 280 331
#     4   9  19  37  57  82 116 150 188 234 283 337
#
# _framework density 20.576253000000001
#
# number of rings (size 3 to 8) (size 9 to 14) (size 15 to 20)
#    0.000    2.571    0.000    2.143    2.000    2.286 
#    0.000    0.714    0.000    3.429    0.000    0.000 
#    0.000    0.000    0.000    0.000    0.000    0.000 
#
# Total GULP energy -156130.593197 kJ/mol
# GULP energy per Si atom -5576.092614 kJ/mol
# Density = 2.052942 g / cm^3
# Si number density = 20.576253 Si / 1000 Ang^3
#
#
#
# Elastic Constant Matrix: (Units=GPa)
#
#
# Indices 1 2 3 4 5 6 
#
# 1 148.1229 33.0864 62.7860 0.0000 22.0445 0.0000
# 2 33.0864 60.7012 13.1054 0.0000 -3.8717 0.0000
# 3 62.7860 13.1054 48.9117 0.0000 -0.8229 0.0000
# 4 0.0000 0.0000 0.0000 24.7054 0.0000 -2.4991
# 5 22.0445 -3.8717 -0.8229 0.0000 32.3352 0.0000
# 6 0.0000 0.0000 0.0000 -2.4991 0.0000 21.6554
#
#
#
# Elastic Compliance Matrix: (Units=1/GPa)
#
#
# Indices 1 2 3 4 5 6 
#
# 1 0.022350 -0.007429 -0.026982 0.000000 -0.016813 0.000000
# 2 -0.007429 0.020082 0.004283 0.000000 0.007578 0.000000
# 3 -0.026982 0.004283 0.054274 0.000000 0.020289 0.000000
# 4 0.000000 0.000000 0.000000 0.040955 0.000000 0.004726
# 5 -0.016813 0.007578 0.020289 0.000000 0.043812 0.000000
# 6 0.000000 0.000000 0.000000 0.004726 0.000000 0.046723
#
#
# Mechanical properties :
#
#
# Convention : Reuss Voigt Hill
#
# Bulk Modulus (GPa) = 27.43439 52.85459 40.14449
# Shear Modulus (GPa) = 16.63323 25.65640 21.14482
#
# Velocity S-wave (km/s) = 2.84627 3.53497 3.20915
# Velocity P-wave (km/s) = 4.91565 6.51186 5.76923
#
# Compressibility (1/GPa) = 0.03645060
#
# Stress axis : x y z
#
# Youngs Moduli (GPa) = 44.74295 49.79533 18.42493
#
# Poissons Ratio (x) = 0.36994 0.49714
# Poissons Ratio (y) = 0.33241 -0.07892
# Poissons Ratio (z) = 1.20725 -0.21329
#
# Static dielectric constant tensor:
#      x y z
#    x 1.748330 0.000000 0.021460 
#    y 0.000000 1.760970 0.000000 
#    z 0.021460 0.000000 1.731140 
# 
# From -- ./inp_files/263263.got.cif
#   From: 2010.05.17/outbox.cif.g08.bks.cpg/sg12_132_cif.got.tgz:263263.got - 2010.06.03 13:09:07.
