data_PCOD9206826
_publ_section_title
;
Structure prediction by ZEFSAII (Michael W. Deem and Ramdas Pophale) SiO2 
 PCOD9206826
Probable space group: C 2/M
;
_chemical_formula_sum "Si O2"
_cell_formula_units_Z 48
_cell_length_a 9.272915
_cell_length_b 21.737166
_cell_length_c 11.475866
_cell_angle_alpha 90.000000
_cell_angle_beta 61.140963
_cell_angle_gamma 90.000000
_cell_volume 2025.883560
_symmetry_space_group_name_H-M "C 2/M"
_symmetry_group_IT_number 12
_symmetry_cell_setting 'monoclinic'
loop_
_space_group_symop_operation_xyz
x,y,z
-x,y,-z
-x,-y,-z
x,-y,z
1/2+x,1/2+y,z
1/2-x,1/2+y,-z
1/2-x,1/2-y,-z
1/2+x,1/2-y,z
loop_
_atom_site_type_symbol
_atom_site_label
_atom_site_fract_x
_atom_site_fract_y
_atom_site_fract_z
Si Si1 0.504013 0.000000 0.354119
Si Si2 0.651283 0.165156 0.889188
Si Si3 0.445885 0.808768 0.633484
Si Si4 0.891608 0.000000 0.162001
Si Si5 0.438041 0.731145 0.840775
Si Si6 0.645006 0.382030 0.670397
Si Si7 0.725329 0.113416 0.622562
O O1 0.500000 0.000000 0.500000
O O2 0.690594 0.000000 0.231961
O O3 0.399784 0.057148 0.345943
O O4 0.543234 0.221403 0.875308
O O5 0.780163 0.189241 0.936862
O O6 0.750085 0.128973 0.748958
O O7 0.500000 0.125399 0.000000
O O8 0.500000 0.770392 0.500000
O O9 0.361152 0.769567 0.764351
O O10 0.334902 0.866071 0.634698
O O11 0.617437 0.828840 0.622057
O O12 0.922011 0.061263 0.227741
O O13 0.000000 0.000000 0.000000
O O14 0.559388 0.681199 0.738279
O O15 0.642584 0.394695 0.532835
#
# Coordination Sequence:
#
# PCOD9206826 Si02
#       7
#     4   8   8   4   8   8   8
#     4  12  18  42  74  94 133 178 241 279 334 413
#     4  11  25  42  60  94 134 181 228 276 350 416
#     4   9  18  33  59  98 125 161 218 275 330 396
#     4  12  26  40  65 104 138 175 229 291 341 400
#     4  11  23  39  66  92 138 177 219 283 345 414
#     4  11  21  40  64  99 134 169 228 282 342 394
#     4  10  21  36  68  94 123 174 227 285 325 405
#
# _framework density 23.693365
#
# number of rings (size 3 to 8) (size 9 to 14) (size 15 to 20)
#    0.000    1.333    5.000    1.000    2.333    4.000 
#    0.000    1.250    0.000    2.000    0.000    0.000 
#    0.000    0.000    0.000    0.000    0.000    0.000 
#
# Total GULP energy -133705.684060 kJ/mol
# GULP energy per Si atom -5571.070169 kJ/mol
# Density = 2.363944 g / cm^3
# Si number density = 23.693365 Si / 1000 Ang^3
#
#
#
# Elastic Constant Matrix: (Units=GPa)
#
#
# Indices 1 2 3 4 5 6 
#
# 1 61.4337 7.7146 24.0607 0.0000 3.0297 0.0000
# 2 7.7146 70.4109 48.7436 0.0000 17.4369 0.0000
# 3 24.0607 48.7436 177.4299 0.0000 1.2500 0.0000
# 4 0.0000 0.0000 0.0000 26.3187 0.0000 -5.4747
# 5 3.0297 17.4369 1.2500 0.0000 34.7132 0.0000
# 6 0.0000 0.0000 0.0000 -5.4747 0.0000 13.7978
#
#
#
# Elastic Compliance Matrix: (Units=1/GPa)
#
#
# Indices 1 2 3 4 5 6 
#
# 1 0.017261 0.000108 -0.002360 0.000000 -0.001476 0.000000
# 2 0.000108 0.020576 -0.005596 0.000000 -0.010144 0.000000
# 3 -0.002360 -0.005596 0.007474 0.000000 0.002748 0.000000
# 4 0.000000 0.000000 0.000000 0.041414 0.000000 0.016432
# 5 -0.001476 -0.010144 0.002748 0.000000 0.033933 0.000000
# 6 0.000000 0.000000 0.000000 0.016432 0.000000 0.078995
#
#
# Mechanical properties :
#
#
# Convention : Reuss Voigt Hill
#
# Bulk Modulus (GPa) = 33.76576 52.25694 43.01135
# Shear Modulus (GPa) = 22.20039 30.21633 26.20836
#
# Velocity S-wave (km/s) = 3.06435 3.57502 3.32949
# Velocity P-wave (km/s) = 5.17710 6.25655 5.74225
#
# Compressibility (1/GPa) = 0.02961580
#
# Stress axis : x y z
#
# Youngs Moduli (GPa) = 57.93331 48.59921 133.79675
#
# Poissons Ratio (x) = -0.00525 0.31576
# Poissons Ratio (y) = -0.00626 0.74872
# Poissons Ratio (z) = 0.13672 0.27196
#
# Static dielectric constant tensor:
#      x y z
#    x 1.960050 0.000000 -0.013060 
#    y 0.000000 1.895340 0.000000 
#    z -0.013060 0.000000 2.093580 
# 
# From -- ./inp_files/135225.got.cif
#   From: 2010.05.17/outbox.cif.g08.bks.cpg/sg12_68_cif.got.tgz:135225.got - 2010.06.03 13:09:07.
