data_PCOD9206459
_publ_section_title
;
Structure prediction by ZEFSAII (Michael W. Deem and Ramdas Pophale) SiO2 
 PCOD9206459
Probable space group: C 2/M
;
_chemical_formula_sum "Si O2"
_cell_formula_units_Z 52
_cell_length_a 17.914600
_cell_length_b 21.292676
_cell_length_c 6.558469
_cell_angle_alpha 90.000000
_cell_angle_beta 94.709092
_cell_angle_gamma 90.000000
_cell_volume 2493.281616
_symmetry_space_group_name_H-M "C 2/M"
_symmetry_group_IT_number 12
_symmetry_cell_setting 'monoclinic'
loop_
_space_group_symop_operation_xyz
x,y,z
-x,y,-z
-x,-y,-z
x,-y,z
1/2+x,1/2+y,z
1/2-x,1/2+y,-z
1/2-x,1/2-y,-z
1/2+x,1/2-y,z
loop_
_atom_site_type_symbol
_atom_site_label
_atom_site_fract_x
_atom_site_fract_y
_atom_site_fract_z
Si Si1 0.280055 0.931217 0.197292
Si Si2 0.184837 0.852023 0.882173
Si Si3 0.916940 0.617448 0.985100
Si Si4 0.816817 0.356589 0.584196
Si Si5 0.000000 0.175378 0.500000
Si Si6 0.967433 0.928523 0.216091
Si Si7 0.618223 0.232718 0.736221
O O1 0.354253 0.925985 0.074711
O O2 0.303232 0.915399 0.432014
O O3 0.246081 0.000000 0.171857
O O4 0.224241 0.879945 0.090321
O O5 0.244948 0.850618 0.712540
O O6 0.114567 0.896285 0.808410
O O7 0.160301 0.779970 0.898009
O O8 0.918386 0.678677 0.133613
O O9 0.886503 0.635324 0.754110
O O10 0.000000 0.590499 0.000000
O O11 0.832244 0.300685 0.426888
O O12 0.978779 0.123414 0.665062
O O13 0.061408 0.221634 0.605600
O O14 0.963050 0.000000 0.296882
O O15 0.000000 0.933528 0.000000
#
# Coordination Sequence:
#
# PCOD9206459 Si02
#       7
#     8   8   8   8   4   8   8
#     4  10  23  41  60  86 117 152 197 241 286 342
#     4  10  22  38  60  87 118 156 193 236 289 340
#     4  10  22  40  62  87 119 153 188 237 293 347
#     4  10  22  38  60  86 117 153 191 238 290 345
#     4  10  21  36  60  88 117 156 196 234 286 342
#     4  10  22  39  58  85 121 158 198 240 282 334
#     4  10  21  36  58  89 120 152 192 237 287 344
#
# _framework density 20.856047
#
# number of rings (size 3 to 8) (size 9 to 14) (size 15 to 20)
#    0.000    2.000    0.000    2.077    0.000   19.385 
#    0.000    0.769    0.000    0.000    0.000    0.000 
#    0.000    0.000    0.000    0.000    0.000    0.000 
#
# Total GULP energy -145025.816472 kJ/mol
# GULP energy per Si atom -5577.916018 kJ/mol
# Density = 2.080858 g / cm^3
# Si number density = 20.856047 Si / 1000 Ang^3
#
#
#
# Elastic Constant Matrix: (Units=GPa)
#
#
# Indices 1 2 3 4 5 6 
#
# 1 40.9027 -5.7661 9.1491 0.0000 16.1183 0.0000
# 2 -5.7661 71.7135 17.0740 0.0000 9.6789 0.0000
# 3 9.1491 17.0740 82.8803 0.0000 13.8839 0.0000
# 4 0.0000 0.0000 0.0000 -0.9506 0.0000 -21.2241
# 5 16.1183 9.6789 13.8839 0.0000 20.3630 0.0000
# 6 0.0000 0.0000 0.0000 -21.2241 0.0000 -55.8556
#
#
#
# Elastic Compliance Matrix: (Units=1/GPa)
#
#
# Indices 1 2 3 4 5 6 
#
# 1 0.039282 0.007881 -0.000140 0.000000 -0.034745 0.000000
# 2 0.007881 0.016821 -0.002202 0.000000 -0.012732 0.000000
# 3 -0.000140 -0.002202 0.013932 0.000000 -0.008342 0.000000
# 4 0.000000 0.000000 0.000000 0.140564 0.000000 -0.053412
# 5 -0.034745 -0.012732 -0.008342 0.000000 0.088350 0.000000
# 6 0.000000 0.000000 0.000000 -0.053412 0.000000 0.002392
#
#
# Mechanical properties :
#
#
# Convention : Reuss Voigt Hill
#
# Bulk Modulus (GPa) = 12.32845 26.26783 19.29814
# Shear Modulus (GPa) = 15.75794 4.38067 10.06930
#
# Velocity S-wave (km/s) = 2.75172 1.45086 2.19966
# Velocity P-wave (km/s) = 4.00250 3.92795 3.96540
#
# Compressibility (1/GPa) = 0.08111318
#
# Stress axis : x y z
#
# Youngs Moduli (GPa) = 25.45692 59.45030 71.77664
#
# Poissons Ratio (x) = -0.46853 0.01002
# Poissons Ratio (y) = -0.20063 0.15808
# Poissons Ratio (z) = 0.00355 0.13093
#
# Static dielectric constant tensor:
#      x y z
#    x 1.756890 0.000000 0.039520 
#    y 0.000000 1.745860 0.000000 
#    z 0.039520 0.000000 1.770930 
# 
# From -- ./inp_files/21262.got.cif
#   From: 2010.05.17/outbox.cif.g08.bks.cpg/sg12_11_cif.got.tgz:21262.got - 2010.06.03 13:09:07.
