data_PCOD9206076
_publ_section_title
;
Structure prediction by ZEFSAII (Michael W. Deem and Ramdas Pophale) SiO2 
 PCOD9206076
Probable space group: C 2/M
;
_chemical_formula_sum "Si O2"
_cell_formula_units_Z 48
_cell_length_a 26.657448
_cell_length_b 10.463097
_cell_length_c 13.043502
_cell_angle_alpha 90.000000
_cell_angle_beta 134.368288
_cell_angle_gamma 90.000000
_cell_volume 2600.721921
_symmetry_space_group_name_H-M "C 2/M"
_symmetry_group_IT_number 12
_symmetry_cell_setting 'monoclinic'
loop_
_space_group_symop_operation_xyz
x,y,z
-x,y,-z
-x,-y,-z
x,-y,z
1/2+x,1/2+y,z
1/2-x,1/2+y,-z
1/2-x,1/2-y,-z
1/2+x,1/2-y,z
loop_
_atom_site_type_symbol
_atom_site_label
_atom_site_fract_x
_atom_site_fract_y
_atom_site_fract_z
Si Si1 0.690104 0.351085 0.639270
Si Si2 0.923926 0.154454 0.356690
Si Si3 0.971591 0.644525 0.842908
Si Si4 0.190503 0.138751 0.197989
Si Si5 0.333229 0.279305 0.618471
Si Si6 0.062430 0.852167 0.857910
O O1 0.709485 0.500000 0.682869
O O2 0.636406 0.306976 0.650594
O O3 0.756253 0.256337 0.735265
O O4 0.655012 0.339912 0.476330
O O5 0.914573 0.184743 0.224015
O O6 0.000000 0.202820 0.500000
O O7 0.925205 0.000000 0.365910
O O8 0.990562 0.500000 0.839419
O O9 0.887747 0.663857 0.712667
O O10 0.006695 0.753111 0.823394
O O11 0.000000 0.662156 0.000000
O O12 0.157062 0.141037 0.263875
O O13 0.226051 0.000000 0.235577
O O14 0.129280 0.150673 0.027886
O O15 0.250000 0.250000 0.500000
O O16 0.036069 0.000000 0.817534
#
# Coordination Sequence:
#
# PCOD9206076 Si02
#       6
#     8   8   8   8   8   8
#     4  10  21  36  59  85 112 154 202 241 284 345
#     4   9  18  35  57  81 110 148 195 241 285 343
#     4  11  23  39  61  90 121 152 191 244 298 349
#     4  10  21  36  55  84 118 152 190 242 300 348
#     4  10  21  37  57  84 118 155 189 236 289 351
#     4  10  21  38  60  85 117 154 193 239 291 350
#
# _framework density 18.456413000000001
#
# number of rings (size 3 to 8) (size 9 to 14) (size 15 to 20)
#    0.000    2.000    1.667    1.500    0.000    9.667 
#    0.000    0.833    0.000    2.000    0.000    0.000 
#    0.000    0.000    0.000    0.000    0.000    0.000 
#
# Total GULP energy -133745.037784 kJ/mol
# GULP energy per Si atom -5572.709908 kJ/mol
# Density = 1.841440 g / cm^3
# Si number density = 18.456413 Si / 1000 Ang^3
#
#
#
# Elastic Constant Matrix: (Units=GPa)
#
#
# Indices 1 2 3 4 5 6 
#
# 1 111.0982 54.2547 45.5001 0.0000 -21.2187 0.0000
# 2 54.2547 103.7253 30.2622 0.0000 1.8714 0.0000
# 3 45.5001 30.2622 102.9585 0.0000 -18.6319 0.0000
# 4 0.0000 0.0000 0.0000 14.2959 0.0000 0.5874
# 5 -21.2187 1.8714 -18.6319 0.0000 31.0055 0.0000
# 6 0.0000 0.0000 0.0000 0.5874 0.0000 22.9225
#
#
#
# Elastic Compliance Matrix: (Units=1/GPa)
#
#
# Indices 1 2 3 4 5 6 
#
# 1 0.015692 -0.007490 -0.003038 0.000000 0.009365 0.000000
# 2 -0.007490 0.014342 -0.002232 0.000000 -0.007333 0.000000
# 3 -0.003038 -0.002232 0.012746 0.000000 0.005715 0.000000
# 4 0.000000 0.000000 0.000000 0.070024 0.000000 -0.001794
# 5 0.009365 -0.007333 0.005715 0.000000 0.042538 0.000000
# 6 0.000000 0.000000 0.000000 -0.001794 0.000000 0.043671
#
#
# Mechanical properties :
#
#
# Convention : Reuss Voigt Hill
#
# Bulk Modulus (GPa) = 57.94506 64.20179 61.07342
# Shear Modulus (GPa) = 21.71195 26.16245 23.93720
#
# Velocity S-wave (km/s) = 3.43358 3.76909 3.60524
# Velocity P-wave (km/s) = 6.86899 7.33502 7.10583
#
# Compressibility (1/GPa) = 0.01725773
#
# Stress axis : x y z
#
# Youngs Moduli (GPa) = 63.72691 69.72323 78.45781
#
# Poissons Ratio (x) = 0.52225 0.23838
# Poissons Ratio (y) = 0.47734 0.17516
# Poissons Ratio (z) = 0.19362 0.15566
#
# Static dielectric constant tensor:
#      x y z
#    x 1.653120 0.000000 0.004970 
#    y 0.000000 1.648090 0.000000 
#    z 0.004970 0.000000 1.649850 
# 
# From -- ./inp_files/174867.got.cif
#   From: 2010.05.17/outbox.cif.g08.bks.cpg/sg12_88_cif.got.tgz:174867.got - 2010.06.03 13:09:07.
