data_PCOD9206258
_publ_section_title
;
Structure prediction by ZEFSAII (Michael W. Deem and Ramdas Pophale) SiO2 
 PCOD9206258
Probable space group: C 2/M
;
_chemical_formula_sum "Si O2"
_cell_formula_units_Z 48
_cell_length_a 28.472775
_cell_length_b 7.438150
_cell_length_c 15.178254
_cell_angle_alpha 90.000000
_cell_angle_beta 140.225377
_cell_angle_gamma 90.000000
_cell_volume 2056.553339
_symmetry_space_group_name_H-M "C 2/M"
_symmetry_group_IT_number 12
_symmetry_cell_setting 'monoclinic'
loop_
_space_group_symop_operation_xyz
x,y,z
-x,y,-z
-x,-y,-z
x,-y,z
1/2+x,1/2+y,z
1/2-x,1/2+y,-z
1/2-x,1/2-y,-z
1/2+x,1/2-y,z
loop_
_atom_site_type_symbol
_atom_site_label
_atom_site_fract_x
_atom_site_fract_y
_atom_site_fract_z
Si Si1 0.224447 0.802538 0.060469
Si Si2 0.505594 0.281832 0.649446
Si Si3 0.618635 0.717805 0.668931
Si Si4 0.866730 0.779553 0.912790
Si Si5 0.522799 0.719318 0.192718
Si Si6 0.177481 0.784937 0.338874
O O1 0.301269 0.798650 0.223633
O O2 0.167558 0.711108 0.044739
O O3 0.192944 0.000000 0.001249
O O4 0.250000 0.750000 0.000000
O O5 0.507251 0.500000 0.652155
O O6 0.436707 0.231422 0.488806
O O7 0.578826 0.225967 0.702770
O O8 0.494847 0.221554 0.733172
O O9 0.625503 0.500000 0.679169
O O10 0.823197 0.719809 0.763251
O O11 0.862790 0.000000 0.909333
O O12 0.952528 0.731502 0.032526
O O13 0.524945 0.500000 0.196636
O O14 0.602230 0.781911 0.275343
O O15 0.250000 0.750000 0.500000
O O16 0.170877 0.000000 0.325017
#
# Coordination Sequence:
#
# PCOD9206258 Si02
#       6
#     8   8   8   8   8   8
#     4  11  22  35  53  77 108 144 180 222 272 322
#     4   8  15  28  50  79 106 139 179 221 266 310
#     4   9  17  31  51  76 109 142 178 222 266 316
#     4   9  19  35  55  80 110 143 181 225 270 313
#     4   9  16  30  55  80 103 137 186 225 256 311
#     4  10  21  36  57  84 110 139 177 225 274 321
#
# _framework density 23.340024
#
# number of rings (size 3 to 8) (size 9 to 14) (size 15 to 20)
#    0.000    2.667    0.000    3.000    2.333    4.667 
#    0.000    2.500    0.000    7.000    0.000    0.000 
#    0.000    0.000    0.000    0.000    0.000    0.000 
#
# Total GULP energy -134013.360151 kJ/mol
# GULP energy per Si atom -5583.890006 kJ/mol
# Density = 2.328690 g / cm^3
# Si number density = 23.340024 Si / 1000 Ang^3
#
#
#
# Elastic Constant Matrix: (Units=GPa)
#
#
# Indices 1 2 3 4 5 6 
#
# 1 144.7976 6.8798 80.9187 0.0000 -3.8038 0.0000
# 2 6.8798 66.9924 -2.0408 0.0000 -5.6313 0.0000
# 3 80.9187 -2.0408 141.0668 0.0000 1.7914 0.0000
# 4 0.0000 0.0000 0.0000 19.0846 0.0000 2.6997
# 5 -3.8038 -5.6313 1.7914 0.0000 42.5468 0.0000
# 6 0.0000 0.0000 0.0000 2.6997 0.0000 0.6398
#
#
#
# Elastic Compliance Matrix: (Units=1/GPa)
#
#
# Indices 1 2 3 4 5 6 
#
# 1 0.010309 -0.001154 -0.005943 0.000000 0.001019 0.000000
# 2 -0.001154 0.015229 0.000858 0.000000 0.001876 0.000000
# 3 -0.005943 0.000858 0.010521 0.000000 -0.000861 0.000000
# 4 0.000000 0.000000 0.000000 0.129983 0.000000 -0.548457
# 5 0.001019 0.001876 -0.000861 0.000000 0.023879 0.000000
# 6 0.000000 0.000000 0.000000 -0.548457 0.000000 3.877144
#
#
# Mechanical properties :
#
#
# Convention : Reuss Voigt Hill
#
# Bulk Modulus (GPa) = 42.40450 58.26359 50.33404
# Shear Modulus (GPa) = 1.22327 30.26085 15.74206
#
# Velocity S-wave (km/s) = 0.72474 3.60463 2.59987
# Velocity P-wave (km/s) = 4.34832 6.50704 5.53397
#
# Compressibility (1/GPa) = 0.02358241
#
# Stress axis : x y z
#
# Youngs Moduli (GPa) = 97.00222 65.66222 95.04553
#
# Poissons Ratio (x) = 0.07578 0.56487
# Poissons Ratio (y) = 0.11195 -0.08160
# Poissons Ratio (z) = 0.57649 -0.05637
#
# Static dielectric constant tensor:
#      x y z
#    x 1.871620 0.000000 -0.020140 
#    y 0.000000 1.979510 0.000000 
#    z -0.020140 0.000000 1.858050 
# 
# From -- ./inp_files/244854.got.cif
#   From: 2010.05.17/outbox.cif.g08.bks.cpg/sg12_123_cif.got.tgz:244854.got - 2010.06.03 13:09:07.
