data_PCOD9206037
_publ_section_title
;
Structure prediction by ZEFSAII (Michael W. Deem and Ramdas Pophale) SiO2 
 PCOD9206037
Probable space group: C 2/M
;
_chemical_formula_sum "Si O2"
_cell_formula_units_Z 48
_cell_length_a 10.661138
_cell_length_b 9.376500
_cell_length_c 23.117572
_cell_angle_alpha 90.000000
_cell_angle_beta 84.965891
_cell_angle_gamma 90.000000
_cell_volume 2302.014585
_symmetry_space_group_name_H-M "C 2/M"
_symmetry_group_IT_number 12
_symmetry_cell_setting 'monoclinic'
loop_
_space_group_symop_operation_xyz
x,y,z
-x,y,-z
-x,-y,-z
x,-y,z
1/2+x,1/2+y,z
1/2-x,1/2+y,-z
1/2-x,1/2-y,-z
1/2+x,1/2-y,z
loop_
_atom_site_type_symbol
_atom_site_label
_atom_site_fract_x
_atom_site_fract_y
_atom_site_fract_z
Si Si1 0.034390 0.330428 0.676487
Si Si2 0.516714 0.670922 0.931385
Si Si3 0.196536 0.155935 0.589359
Si Si4 0.737928 0.330815 0.125175
Si Si5 0.704833 0.333071 0.263630
Si Si6 0.886119 0.840480 0.535417
O O1 0.023292 0.500000 0.664719
O O2 0.907631 0.267465 0.709276
O O3 0.076674 0.237282 0.619301
O O4 0.158084 0.309680 0.712603
O O5 0.531086 0.500000 0.923937
O O6 0.389769 0.714085 0.902602
O O7 0.640079 0.747690 0.902015
O O8 0.500000 0.701769 0.000000
O O9 0.193764 0.136433 0.520134
O O10 0.313125 0.262843 0.588828
O O11 0.211530 0.000000 0.615468
O O12 0.755544 0.500000 0.113710
O O13 0.719997 0.311047 0.194407
O O14 0.671167 0.500000 0.275395
O O15 0.000000 0.758007 0.500000
O O16 0.926593 0.000000 0.553236
#
# Coordination Sequence:
#
# PCOD9206037 Si02
#       6
#     8   8   8   8   8   8
#     4  11  24  40  61  87 117 152 196 245 294 348
#     4  10  21  36  57  89 124 156 194 242 293 346
#     4  10  21  36  55  82 112 145 185 234 288 345
#     4  10  21  38  60  85 117 157 200 243 290 347
#     4  10  23  42  61  85 117 155 199 246 293 344
#     4   9  19  36  57  79 108 145 183 226 285 347
#
# _framework density 20.851300999999999
#
# number of rings (size 3 to 8) (size 9 to 14) (size 15 to 20)
#    0.000    2.000    0.000    2.500    2.333    4.000 
#    0.000    0.000    0.000    0.000    0.000    0.000 
#    0.000    0.000    0.000    0.000    0.000    0.000 
#
# Total GULP energy -133881.101238 kJ/mol
# GULP energy per Si atom -5578.379218 kJ/mol
# Density = 2.080384 g / cm^3
# Si number density = 20.851301 Si / 1000 Ang^3
#
#
#
# Elastic Constant Matrix: (Units=GPa)
#
#
# Indices 1 2 3 4 5 6 
#
# 1 137.5313 60.7092 56.1487 0.0000 -19.2144 0.0000
# 2 60.7092 111.1060 57.5802 0.0000 -27.9986 0.0000
# 3 56.1487 57.5802 87.7766 0.0000 -9.6862 0.0000
# 4 0.0000 0.0000 0.0000 -58.0656 0.0000 -38.6534
# 5 -19.2144 -27.9986 -9.6862 0.0000 46.0217 0.0000
# 6 0.0000 0.0000 0.0000 -38.6534 0.0000 28.0567
#
#
#
# Elastic Compliance Matrix: (Units=1/GPa)
#
#
# Indices 1 2 3 4 5 6 
#
# 1 0.010762 -0.003012 -0.004725 0.000000 0.001666 0.000000
# 2 -0.003012 0.016738 -0.008260 0.000000 0.007187 0.000000
# 3 -0.004725 -0.008260 0.019514 0.000000 -0.002891 0.000000
# 4 0.000000 0.000000 0.000000 -0.008983 0.000000 -0.012376
# 5 0.001666 0.007187 -0.002891 0.000000 0.026189 0.000000
# 6 0.000000 0.000000 0.000000 -0.012376 0.000000 0.018592
#
#
# Mechanical properties :
#
#
# Convention : Reuss Voigt Hill
#
# Bulk Modulus (GPa) = 66.57305 76.14334 71.35820
# Shear Modulus (GPa) = 41.73179 14.00096 27.86637
#
# Velocity S-wave (km/s) = 4.47855 2.59408 3.65969
# Velocity P-wave (km/s) = 7.66421 6.75048 7.22181
#
# Compressibility (1/GPa) = 0.01502109
#
# Stress axis : x y z
#
# Youngs Moduli (GPa) = 92.91578 59.74363 51.24450
#
# Poissons Ratio (x) = 0.17996 0.24211
# Poissons Ratio (y) = 0.27988 0.42328
# Poissons Ratio (z) = 0.43899 0.49349
#
# Static dielectric constant tensor:
#      x y z
#    x 1.820780 0.000000 0.081640 
#    y 0.000000 1.824540 0.000000 
#    z 0.081640 0.000000 1.736120 
# 
# From -- ./inp_files/334781.got.cif
#   From: 2010.05.17/outbox.cif.g08.bks.cpg/sg12_168_cif.got.tgz:334781.got - 2010.06.03 13:09:07.
