data_PCOD9206980
_publ_section_title
;
Structure prediction by ZEFSAII (Michael W. Deem and Ramdas Pophale) SiO2 
 PCOD9206980
Probable space group: C 2/M
;
_chemical_formula_sum "Si O2"
_cell_formula_units_Z 56
_cell_length_a 17.421811
_cell_length_b 22.254334
_cell_length_c 14.193253
_cell_angle_alpha 90.000000
_cell_angle_beta 149.464711
_cell_angle_gamma 90.000000
_cell_volume 2795.841198
_symmetry_space_group_name_H-M "C 2/M"
_symmetry_group_IT_number 12
_symmetry_cell_setting 'monoclinic'
loop_
_space_group_symop_operation_xyz
x,y,z
-x,y,-z
-x,-y,-z
x,-y,z
1/2+x,1/2+y,z
1/2-x,1/2+y,-z
1/2-x,1/2-y,-z
1/2+x,1/2-y,z
loop_
_atom_site_type_symbol
_atom_site_label
_atom_site_fract_x
_atom_site_fract_y
_atom_site_fract_z
Si Si1 0.674669 0.565911 0.475860
Si Si2 0.357199 0.289939 0.988752
Si Si3 0.192583 0.330621 0.981907
Si Si4 0.025994 0.819427 0.415916
Si Si5 0.846450 0.700735 0.395319
Si Si6 0.983462 0.569119 0.092782
Si Si7 0.899303 0.112024 0.803297
O O1 0.623809 0.500000 0.457384
O O2 0.606698 0.622642 0.458620
O O3 0.628065 0.571038 0.316734
O O4 0.853577 0.569436 0.684532
O O5 0.398243 0.228643 0.084386
O O6 0.280907 0.273223 0.809717
O O7 0.227414 0.327561 0.907788
O O8 0.499103 0.332150 0.124460
O O9 0.360299 0.318518 0.197453
O O10 0.123326 0.388101 0.958600
O O11 0.111849 0.755995 0.491897
O O12 0.000000 0.825518 0.500000
O O13 0.763913 0.640670 0.343833
O O14 0.000000 0.688022 0.500000
O O15 0.927893 0.500000 0.031898
O O16 0.000000 0.588349 0.000000
O O17 0.000000 0.088923 0.000000
#
# Coordination Sequence:
#
# PCOD9206980 Si02
#       7
#     8   8   8   8   8   8   8
#     4  11  25  43  63  89 123 166 217 256 301 366
#     4  10  21  37  55  95 122 158 199 249 314 377
#     4  11  21  36  60  83 128 157 203 254 302 369
#     4  11  21  38  60  94 124 160 200 250 313 370
#     4  10  21  37  60  92 126 152 196 254 306 378
#     4  10  24  42  60  87 122 169 217 257 304 364
#     4  10  23  41  65  94 125 163 206 252 323 366
#
# _framework density 20.02975
#
# number of rings (size 3 to 8) (size 9 to 14) (size 15 to 20)
#    0.000    1.571    4.286    0.857    4.000    2.286 
#    0.000    0.000    0.000    0.429    0.000    0.000 
#    0.000    0.000    0.000    0.000    0.000    0.000 
#
# Total GULP energy -156110.730343 kJ/mol
# GULP energy per Si atom -5575.383227 kJ/mol
# Density = 1.998416 g / cm^3
# Si number density = 20.029750 Si / 1000 Ang^3
#
#
#
# Elastic Constant Matrix: (Units=GPa)
#
#
# Indices 1 2 3 4 5 6 
#
# 1 46.9728 25.5849 8.6473 0.0000 -3.9477 0.0000
# 2 25.5849 68.5246 29.0992 0.0000 5.8887 0.0000
# 3 8.6473 29.0992 96.8196 0.0000 -16.4622 0.0000
# 4 0.0000 0.0000 0.0000 19.2357 0.0000 -1.0694
# 5 -3.9477 5.8887 -16.4622 0.0000 26.9433 0.0000
# 6 0.0000 0.0000 0.0000 -1.0694 0.0000 19.3459
#
#
#
# Elastic Compliance Matrix: (Units=1/GPa)
#
#
# Indices 1 2 3 4 5 6 
#
# 1 0.028271 -0.012406 0.002644 0.000000 0.008469 0.000000
# 2 -0.012406 0.023654 -0.008023 0.000000 -0.011889 0.000000
# 3 0.002644 -0.008023 0.014359 0.000000 0.010914 0.000000
# 4 0.000000 0.000000 0.000000 0.052147 0.000000 0.002883
# 5 0.008469 -0.011889 0.010914 0.000000 0.047623 0.000000
# 6 0.000000 0.000000 0.000000 0.002883 0.000000 0.051850
#
#
# Mechanical properties :
#
#
# Convention : Reuss Voigt Hill
#
# Bulk Modulus (GPa) = 32.55813 37.66442 35.11127
# Shear Modulus (GPa) = 18.96007 23.03736 20.99872
#
# Velocity S-wave (km/s) = 3.08002 3.39508 3.24138
# Velocity P-wave (km/s) = 5.37948 5.84925 5.61928
#
# Compressibility (1/GPa) = 0.03071430
#
# Stress axis : x y z
#
# Youngs Moduli (GPa) = 35.37169 42.27650 69.64108
#
# Poissons Ratio (x) = 0.52448 -0.18410
# Poissons Ratio (y) = 0.43882 0.55871
# Poissons Ratio (z) = -0.09351 0.33917
#
# Static dielectric constant tensor:
#      x y z
#    x 1.815460 0.000000 -0.057880 
#    y 0.000000 1.705860 0.000000 
#    z -0.057880 0.000000 1.738500 
# 
# From -- ./inp_files/77623.got.cif
#   From: 2010.05.17/outbox.cif.g08.bks.cpg/sg12_39_cif.got.tgz:77623.got - 2010.06.03 13:09:07.
