data_PCOD9206680
_publ_section_title
;
Structure prediction by ZEFSAII (Michael W. Deem and Ramdas Pophale) SiO2 
 PCOD9206680
Probable space group: C 2/M
;
_chemical_formula_sum "Si O2"
_cell_formula_units_Z 56
_cell_length_a 15.830293
_cell_length_b 15.196408
_cell_length_c 11.662925
_cell_angle_alpha 90.000000
_cell_angle_beta 94.464356
_cell_angle_gamma 90.000000
_cell_volume 2797.162565
_symmetry_space_group_name_H-M "C 2/M"
_symmetry_group_IT_number 12
_symmetry_cell_setting 'monoclinic'
loop_
_space_group_symop_operation_xyz
x,y,z
-x,y,-z
-x,-y,-z
x,-y,z
1/2+x,1/2+y,z
1/2-x,1/2+y,-z
1/2-x,1/2-y,-z
1/2+x,1/2-y,z
loop_
_atom_site_type_symbol
_atom_site_label
_atom_site_fract_x
_atom_site_fract_y
_atom_site_fract_z
Si Si1 0.812302 0.402118 0.568266
Si Si2 0.277770 0.397520 0.797178
Si Si3 0.906294 0.304556 0.200897
Si Si4 0.415029 0.102599 0.815205
Si Si5 0.416467 0.765239 0.454923
Si Si6 0.653432 0.742968 0.032582
Si Si7 0.640483 0.596620 0.445883
O O1 0.836816 0.500000 0.528089
O O2 0.857648 0.388921 0.694514
O O3 0.839772 0.325441 0.486688
O O4 0.710901 0.400826 0.554589
O O5 0.277178 0.500000 0.830605
O O6 0.182335 0.358772 0.800104
O O7 0.341806 0.339499 0.881224
O O8 0.310671 0.392609 0.669620
O O9 0.913894 0.251517 0.319910
O O10 0.988582 0.366897 0.199005
O O11 0.901755 0.242419 0.088881
O O12 0.375913 0.169701 0.903123
O O13 0.413340 0.000000 0.850494
O O14 0.500000 0.818605 0.500000
O O15 0.416872 0.679274 0.533847
O O16 0.750000 0.750000 0.000000
O O17 0.600177 0.500000 0.440630
#
# Coordination Sequence:
#
# PCOD9206680 Si02
#       7
#     8   8   8   8   8   8   8
#     4  10  21  36  60  94 124 155 198 246 303 367
#     4  10  21  40  65  88 118 162 210 253 297 352
#     4  11  23  38  61  92 127 159 196 247 311 371
#     4  11  23  40  64  93 128 159 193 249 311 366
#     4  12  23  37  62  91 128 165 193 248 310 360
#     4  10  24  40  59  87 119 160 207 247 288 357
#     4  10  22  39  62  88 120 164 210 250 292 357
#
# _framework density 20.020287
#
# number of rings (size 3 to 8) (size 9 to 14) (size 15 to 20)
#    0.000    1.429    2.857    2.143    4.000    4.571 
#    0.000    0.714    0.000    1.714    0.000    0.000 
#    0.000    0.000    0.000    0.000    0.000    0.000 
#
# Total GULP energy -156212.775519 kJ/mol
# GULP energy per Si atom -5579.027697 kJ/mol
# Density = 1.997472 g / cm^3
# Si number density = 20.020287 Si / 1000 Ang^3
#
#
#
# Elastic Constant Matrix: (Units=GPa)
#
#
# Indices 1 2 3 4 5 6 
#
# 1 39.9666 15.5260 17.0350 0.0000 -9.1292 0.0000
# 2 15.5260 85.0751 44.1846 0.0000 -16.0902 0.0000
# 3 17.0350 44.1846 104.7853 0.0000 6.4178 0.0000
# 4 0.0000 0.0000 0.0000 -14.3905 0.0000 28.5761
# 5 -9.1292 -16.0902 6.4178 0.0000 31.5419 0.0000
# 6 0.0000 0.0000 0.0000 28.5761 0.0000 0.4478
#
#
#
# Elastic Compliance Matrix: (Units=1/GPa)
#
#
# Indices 1 2 3 4 5 6 
#
# 1 0.029597 -0.001184 -0.004861 0.000000 0.008951 0.000000
# 2 -0.001184 0.018196 -0.008129 0.000000 0.010593 0.000000
# 3 -0.004861 -0.008129 0.014279 0.000000 -0.008459 0.000000
# 4 0.000000 0.000000 0.000000 -0.000544 0.000000 0.034720
# 5 0.008951 0.010593 -0.008459 0.000000 0.041420 0.000000
# 6 0.000000 0.000000 0.000000 0.034720 0.000000 0.017485
#
#
# Mechanical properties :
#
#
# Convention : Reuss Voigt Hill
#
# Bulk Modulus (GPa) = 29.65144 42.59092 36.12118
# Shear Modulus (GPa) = 31.24586 13.72527 22.48556
#
# Velocity S-wave (km/s) = 3.95487 2.62118 3.35496
# Velocity P-wave (km/s) = 5.97474 5.52094 5.75232
#
# Compressibility (1/GPa) = 0.03372517
#
# Stress axis : x y z
#
# Youngs Moduli (GPa) = 33.78691 54.95797 70.03150
#
# Poissons Ratio (x) = 0.06507 0.34040
# Poissons Ratio (y) = 0.04001 0.56928
# Poissons Ratio (z) = 0.16422 0.44675
#
# Static dielectric constant tensor:
#      x y z
#    x 1.713700 0.000000 0.019270 
#    y 0.000000 1.715030 0.000000 
#    z 0.019270 0.000000 1.717730 
# 
# From -- ./inp_files/143710.got.cif
#   From: 2010.05.17/outbox.cif.g08.bks.cpg/sg12_72_cif.got.tgz:143710.got - 2010.06.03 13:09:07.
