data_PCOD9206908
_publ_section_title
;
Structure prediction by ZEFSAII (Michael W. Deem and Ramdas Pophale) SiO2 
 PCOD9206908
Probable space group: C 2/M
;
_chemical_formula_sum "Si O2"
_cell_formula_units_Z 56
_cell_length_a 8.217299
_cell_length_b 19.291086
_cell_length_c 17.584719
_cell_angle_alpha 90.000000
_cell_angle_beta 79.349312
_cell_angle_gamma 90.000000
_cell_volume 2739.517474
_symmetry_space_group_name_H-M "C 2/M"
_symmetry_group_IT_number 12
_symmetry_cell_setting 'monoclinic'
loop_
_space_group_symop_operation_xyz
x,y,z
-x,y,-z
-x,-y,-z
x,-y,z
1/2+x,1/2+y,z
1/2-x,1/2+y,-z
1/2-x,1/2-y,-z
1/2+x,1/2-y,z
loop_
_atom_site_type_symbol
_atom_site_label
_atom_site_fract_x
_atom_site_fract_y
_atom_site_fract_z
Si Si1 0.866783 0.689339 0.330985
Si Si2 0.869527 0.146224 0.874668
Si Si3 0.680461 0.172833 0.022827
Si Si4 0.609632 0.420020 0.285808
Si Si5 0.135000 0.079801 0.555393
Si Si6 0.964924 0.717451 0.159914
Si Si7 0.372592 0.800841 0.570013
O O1 0.752996 0.628396 0.307969
O O2 0.956862 0.723303 0.250707
O O3 0.749935 0.745180 0.382530
O O4 0.011493 0.667089 0.374883
O O5 0.919762 0.096625 0.800960
O O6 0.706585 0.184833 0.853754
O O7 0.006807 0.205368 0.874116
O O8 0.804956 0.123800 0.964203
O O9 0.620277 0.171866 0.115488
O O10 0.500000 0.165816 0.000000
O O11 0.750000 0.250000 0.000000
O O12 0.658231 0.500000 0.288697
O O13 0.453385 0.409151 0.355055
O O14 0.273405 0.138215 0.537147
O O15 0.000000 0.087225 0.500000
O O16 0.195294 0.000000 0.546720
O O17 0.500000 0.766103 0.500000
#
# Coordination Sequence:
#
# PCOD9206908 Si02
#       7
#     8   8   8   8   8   8   8
#     4  11  22  35  54  79 110 142 179 227 274 323
#     4   9  16  28  48  74 103 131 169 217 269 324
#     4   8  14  24  42  69 100 130 162 208 261 318
#     4  10  21  37  55  75 106 149 190 230 277 328
#     4  10  22  41  61  81 110 147 185 223 267 324
#     4   9  16  28  47  72 103 133 167 213 267 322
#     4  12  24  37  57  84 113 143 180 226 276 328
#
# _framework density 20.441554
#
# number of rings (size 3 to 8) (size 9 to 14) (size 15 to 20)
#    0.000    2.143    0.000    4.714    0.000    2.000 
#    0.000    0.000    0.000   10.714    0.000    0.000 
#    0.000   53.714    0.000    0.000    0.000    0.429 
#
# Total GULP energy -156090.032886 kJ/mol
# GULP energy per Si atom -5574.644032 kJ/mol
# Density = 2.039503 g / cm^3
# Si number density = 20.441554 Si / 1000 Ang^3
#
#
#
# Elastic Constant Matrix: (Units=GPa)
#
#
# Indices 1 2 3 4 5 6 
#
# 1 51.0937 24.4206 23.4405 0.0000 -4.4837 0.0000
# 2 24.4206 66.3559 21.9077 0.0000 -9.0109 0.0000
# 3 23.4405 21.9077 135.4558 0.0000 -29.8827 0.0000
# 4 0.0000 0.0000 0.0000 23.6422 0.0000 4.1269
# 5 -4.4837 -9.0109 -29.8827 0.0000 23.5590 0.0000
# 6 0.0000 0.0000 0.0000 4.1269 0.0000 20.4239
#
#
#
# Elastic Compliance Matrix: (Units=1/GPa)
#
#
# Indices 1 2 3 4 5 6 
#
# 1 0.024995 -0.008414 -0.003645 0.000000 -0.003085 0.000000
# 2 -0.008414 0.019018 -0.000511 0.000000 0.005024 0.000000
# 3 -0.003645 -0.000511 0.010969 0.000000 0.013024 0.000000
# 4 0.000000 0.000000 0.000000 0.043844 0.000000 -0.008859
# 5 -0.003085 0.005024 0.013024 0.000000 0.060301 0.000000
# 6 0.000000 0.000000 0.000000 -0.008859 0.000000 0.050752
#
#
# Mechanical properties :
#
#
# Convention : Reuss Voigt Hill
#
# Bulk Modulus (GPa) = 33.51114 43.60478 38.55796
# Shear Modulus (GPa) = 20.41083 25.73413 23.07248
#
# Velocity S-wave (km/s) = 3.16333 3.55196 3.36326
# Velocity P-wave (km/s) = 5.45632 6.18059 5.82971
#
# Compressibility (1/GPa) = 0.02984082
#
# Stress axis : x y z
#
# Youngs Moduli (GPa) = 40.00784 52.58177 91.16418
#
# Poissons Ratio (x) = 0.44244 0.33230
# Poissons Ratio (y) = 0.33664 0.04662
# Poissons Ratio (z) = 0.14583 0.02689
#
# Static dielectric constant tensor:
#      x y z
#    x 1.736660 0.000000 0.000920 
#    y 0.000000 1.699350 0.000000 
#    z 0.000920 0.000000 1.875560 
# 
# From -- ./inp_files/256990.got.cif
#   From: 2010.05.17/outbox.cif.g08.bks.cpg/sg12_129_cif.got.tgz:256990.got - 2010.06.03 13:09:07.
