data_PCOD9206343
_publ_section_title
;
Structure prediction by ZEFSAII (Michael W. Deem and Ramdas Pophale) SiO2 
 PCOD9206343
Probable space group: C 2/M
;
_chemical_formula_sum "Si O2"
_cell_formula_units_Z 40
_cell_length_a 24.060074
_cell_length_b 12.392565
_cell_length_c 6.295453
_cell_angle_alpha 90.000000
_cell_angle_beta 84.862284
_cell_angle_gamma 90.000000
_cell_volume 1869.548711
_symmetry_space_group_name_H-M "C 2/M"
_symmetry_group_IT_number 12
_symmetry_cell_setting 'monoclinic'
loop_
_space_group_symop_operation_xyz
x,y,z
-x,y,-z
-x,-y,-z
x,-y,z
1/2+x,1/2+y,z
1/2-x,1/2+y,-z
1/2-x,1/2-y,-z
1/2+x,1/2-y,z
loop_
_atom_site_type_symbol
_atom_site_label
_atom_site_fract_x
_atom_site_fract_y
_atom_site_fract_z
Si Si1 0.837703 0.616615 0.376421
Si Si2 0.761167 0.123610 0.921931
Si Si3 0.451899 0.618634 0.346546
Si Si4 0.632014 0.705966 0.308579
Si Si5 0.438353 0.187440 0.035667
O O1 0.844843 0.500000 0.477497
O O2 0.781134 0.618406 0.261498
O O3 0.836611 0.706354 0.557198
O O4 0.889580 0.631766 0.193205
O O5 0.826142 0.135488 0.844081
O O6 0.753751 0.000000 0.026725
O O7 0.750000 0.250000 0.000000
O O8 0.500000 0.640439 0.500000
O O9 0.458578 0.500000 0.255459
O O10 0.397554 0.630818 0.509498
O O11 0.450843 0.705250 0.164860
O O12 0.588973 0.773860 0.176414
O O13 0.500000 0.132988 0.000000
#
# Coordination Sequence:
#
# PCOD9206343 Si02
#       5
#     8   8   8   8   8
#     4  10  24  43  65  93 127 168 222 274 329 388
#     4  11  23  43  68 100 132 171 221 274 333 398
#     4  10  21  36  57  88 124 165 210 258 318 387
#     4  11  22  41  64  90 128 168 217 264 331 386
#     4  11  22  39  62  92 130 166 215 267 326 390
#
# _framework density 21.395537999999998
#
# number of rings (size 3 to 8) (size 9 to 14) (size 15 to 20)
#    0.000    1.400    4.000    1.200    0.000    4.000 
#    0.000    2.000    0.000    0.000    0.000    0.000 
#    0.000    0.000    0.000    0.000    0.000    0.000 
#
# Total GULP energy -111367.165477 kJ/mol
# GULP energy per Si atom -5568.358274 kJ/mol
# Density = 2.134684 g / cm^3
# Si number density = 21.395538 Si / 1000 Ang^3
#
#
#
# Elastic Constant Matrix: (Units=GPa)
#
#
# Indices 1 2 3 4 5 6 
#
# 1 73.0193 -2.5556 -0.6971 0.0000 5.8795 0.0000
# 2 -2.5556 145.6938 1.1574 0.0000 2.5217 0.0000
# 3 -0.6971 1.1574 51.9667 0.0000 12.4337 0.0000
# 4 0.0000 0.0000 0.0000 -173.8410 0.0000 -9.6892
# 5 5.8795 2.5217 12.4337 0.0000 40.5783 0.0000
# 6 0.0000 0.0000 0.0000 -9.6892 0.0000 -8.5139
#
#
#
# Elastic Compliance Matrix: (Units=1/GPa)
#
#
# Indices 1 2 3 4 5 6 
#
# 1 0.013893 0.000277 0.000719 0.000000 -0.002250 0.000000
# 2 0.000277 0.006877 -0.000041 0.000000 -0.000455 0.000000
# 3 0.000719 -0.000041 0.020803 0.000000 -0.006476 0.000000
# 4 0.000000 0.000000 0.000000 -0.006142 0.000000 0.006990
# 5 -0.002250 -0.000455 -0.006476 0.000000 0.026982 0.000000
# 6 0.000000 0.000000 0.000000 0.006990 0.000000 -0.125410
#
#
# Mechanical properties :
#
#
# Convention : Reuss Voigt Hill
#
# Bulk Modulus (GPa) = 22.99770 29.60992 26.30381
# Shear Modulus (GPa) = -99.18154 -10.17032 -54.67593
#
# Velocity S-wave (km/s) = -6.81592 -2.18261 -5.06066
# Velocity P-wave (km/s) = 7.15334 2.74183 4.67186
#
# Compressibility (1/GPa) = 0.04348261
#
# Stress axis : x y z
#
# Youngs Moduli (GPa) = 71.97994 145.41722 48.06975
#
# Poissons Ratio (x) = -0.04027 -0.03454
# Poissons Ratio (y) = -0.01993 0.00195
# Poissons Ratio (z) = -0.05173 0.00590
#
# Static dielectric constant tensor:
#      x y z
#    x 1.817530 0.000000 -0.055860 
#    y 0.000000 1.850820 0.000000 
#    z -0.055860 0.000000 1.745150 
# 
# From -- ./inp_files/27401.got.cif
#   From: 2010.05.17/outbox.cif.g08.bks.cpg/sg12_14_cif.got.tgz:27401.got - 2010.06.03 13:09:07.
