data_PCOD9206437
_publ_section_title
;
Structure prediction by ZEFSAII (Michael W. Deem and Ramdas Pophale) SiO2 
 PCOD9206437
Probable space group: C 2/M
;
_chemical_formula_sum "Si O2"
_cell_formula_units_Z 40
_cell_length_a 7.947917
_cell_length_b 11.925577
_cell_length_c 16.741920
_cell_angle_alpha 90.000000
_cell_angle_beta 57.508989
_cell_angle_gamma 90.000000
_cell_volume 1338.475967
_symmetry_space_group_name_H-M "C 2/M"
_symmetry_group_IT_number 12
_symmetry_cell_setting 'monoclinic'
loop_
_space_group_symop_operation_xyz
x,y,z
-x,y,-z
-x,-y,-z
x,-y,z
1/2+x,1/2+y,z
1/2-x,1/2+y,-z
1/2-x,1/2-y,-z
1/2+x,1/2-y,z
loop_
_atom_site_type_symbol
_atom_site_label
_atom_site_fract_x
_atom_site_fract_y
_atom_site_fract_z
Si Si1 0.307608 0.330593 0.267024
Si Si2 0.232913 0.367648 0.463550
Si Si3 0.730121 0.375074 0.103857
Si Si4 0.351611 0.125064 0.342564
Si Si5 0.768030 0.877416 0.077801
O O1 0.351751 0.356879 0.349698
O O2 0.487517 0.379751 0.170877
O O3 0.310291 0.196051 0.274363
O O4 0.086897 0.372225 0.303167
O O5 0.263150 0.500000 0.474997
O O6 0.000000 0.359165 0.500000
O O7 0.254419 0.321785 0.550754
O O8 0.789332 0.500000 0.119835
O O9 0.749213 0.243411 0.126037
O O10 0.818881 0.367757 0.990662
O O11 0.282927 0.000000 0.347062
O O12 0.697772 0.000000 0.126888
O O13 0.000000 0.887548 0.000000
#
# Coordination Sequence:
#
# PCOD9206437 Si02
#       5
#     8   8   8   8   8
#     4  11  22  37  63  93 124 162 210 260 307 368
#     4   9  18  35  59  87 122 167 211 254 308 365
#     4  10  21  36  58  88 117 151 197 250 307 364
#     4  10  22  40  62  89 127 171 212 257 310 367
#     4   9  20  39  62  83 112 154 194 240 305 374
#
# _framework density 29.884737000000001
#
# number of rings (size 3 to 8) (size 9 to 14) (size 15 to 20)
#    0.000    2.200    0.000    2.400    2.800    2.800 
#    0.000    6.000    0.000   15.600    0.000    0.000 
#    0.000    0.000    0.000    0.000    0.000    0.000 
#
# Total GULP energy -111764.949856 kJ/mol
# GULP energy per Si atom -5588.247493 kJ/mol
# Density = 2.981672 g / cm^3
# Si number density = 29.884737 Si / 1000 Ang^3
#
#
#
# Elastic Constant Matrix: (Units=GPa)
#
#
# Indices 1 2 3 4 5 6 
#
# 1 81.1058 52.0722 27.6382 0.0000 -3.3927 0.0000
# 2 52.0722 214.6002 61.7972 0.0000 6.8494 0.0000
# 3 27.6382 61.7972 152.3275 0.0000 25.8984 0.0000
# 4 0.0000 0.0000 0.0000 42.3867 0.0000 -7.6600
# 5 -3.3927 6.8494 25.8984 0.0000 54.3538 0.0000
# 6 0.0000 0.0000 0.0000 -7.6600 0.0000 56.9693
#
#
#
# Elastic Compliance Matrix: (Units=1/GPa)
#
#
# Indices 1 2 3 4 5 6 
#
# 1 0.015103 -0.003213 -0.001813 0.000000 0.002211 0.000000
# 2 -0.003213 0.005967 -0.001824 0.000000 -0.000084 0.000000
# 3 -0.001813 -0.001824 0.008285 0.000000 -0.003831 0.000000
# 4 0.000000 0.000000 0.000000 0.024180 0.000000 0.003251
# 5 0.002211 -0.000084 -0.003831 0.000000 0.020372 0.000000
# 6 0.000000 0.000000 0.000000 0.003251 0.000000 0.017990
#
#
# Mechanical properties :
#
#
# Convention : Reuss Voigt Hill
#
# Bulk Modulus (GPa) = 63.87371 81.22762 72.55067
# Shear Modulus (GPa) = 45.12036 51.17702 48.14869
#
# Velocity S-wave (km/s) = 3.88985 4.14270 4.01826
# Velocity P-wave (km/s) = 6.44936 7.07969 6.77186
#
# Compressibility (1/GPa) = 0.01565589
#
# Stress axis : x y z
#
# Youngs Moduli (GPa) = 66.21306 167.57913 120.70266
#
# Poissons Ratio (x) = 0.53848 0.21879
# Poissons Ratio (y) = 0.21276 0.22012
# Poissons Ratio (z) = 0.12002 0.30560
#
# Static dielectric constant tensor:
#      x y z
#    x 2.343300 0.000000 0.107360 
#    y 0.000000 2.530750 0.000000 
#    z 0.107360 0.000000 2.292360 
# 
# From -- ./inp_files/335042.got.cif
#   From: 2010.05.17/outbox.cif.g08.bks.cpg/sg12_168_cif.got.tgz:335042.got - 2010.06.03 13:09:07.
