data_PCOD9206872
_publ_section_title
;
Structure prediction by ZEFSAII (Michael W. Deem and Ramdas Pophale) SiO2 
 PCOD9206872
Probable space group: C 2/M
;
_chemical_formula_sum "Si O2"
_cell_formula_units_Z 64
_cell_length_a 11.870270
_cell_length_b 14.778105
_cell_length_c 19.407046
_cell_angle_alpha 90.000000
_cell_angle_beta 99.600578
_cell_angle_gamma 90.000000
_cell_volume 3356.705260
_symmetry_space_group_name_H-M "C 2/M"
_symmetry_group_IT_number 12
_symmetry_cell_setting 'monoclinic'
loop_
_space_group_symop_operation_xyz
x,y,z
-x,y,-z
-x,-y,-z
x,-y,z
1/2+x,1/2+y,z
1/2-x,1/2+y,-z
1/2-x,1/2-y,-z
1/2+x,1/2-y,z
loop_
_atom_site_type_symbol
_atom_site_label
_atom_site_fract_x
_atom_site_fract_y
_atom_site_fract_z
Si Si1 0.758188 0.394454 0.538708
Si Si2 0.072738 0.752811 0.152294
Si Si3 0.091105 0.898357 0.881722
Si Si4 0.437363 0.096017 0.067373
Si Si5 0.267466 0.103176 0.786892
Si Si6 0.916603 0.102167 0.350293
Si Si7 0.416633 0.726601 0.558140
Si Si8 0.807320 0.835576 0.970135
O O1 0.787621 0.500000 0.526723
O O2 0.672593 0.395763 0.595040
O O3 0.685343 0.343645 0.471649
O O4 0.862290 0.325518 0.565156
O O5 0.150427 0.690036 0.208609
O O6 0.141699 0.800371 0.096492
O O7 0.993328 0.833887 0.169162
O O8 0.983155 0.680937 0.112809
O O9 0.215549 0.894213 0.858929
O O10 0.048526 0.000000 0.872665
O O11 0.105678 0.872365 0.963333
O O12 0.300859 0.099167 0.049715
O O13 0.472912 0.000000 0.102226
O O14 0.500000 0.101484 0.000000
O O15 0.161680 0.113828 0.724467
O O16 0.312007 0.000000 0.779375
O O17 0.009275 0.179623 0.374357
O O18 0.967243 0.000000 0.354363
O O19 0.500000 0.732857 0.500000
O O20 0.750000 0.750000 0.000000
#
# Coordination Sequence:
#
# PCOD9206872 Si02
#       8
#     8   8   8   8   8   8   8   8
#     4   9  17  30  50  79 109 137 171 211 249 291
#     4  12  21  35  53  72  96 125 160 202 251 302
#     4  11  23  37  53  73  99 129 163 205 255 310
#     4  11  20  31  49  71  92 117 147 188 239 292
#     4  10  21  37  54  74  99 131 170 211 251 297
#     4   9  18  33  53  74 100 136 175 210 247 292
#     4   9  17  30  51  78 109 140 171 208 250 293
#     4  12  20  34  51  72  98 122 152 199 251 306
#
# _framework density 19.066314999999999
#
# number of rings (size 3 to 8) (size 9 to 14) (size 15 to 20)
#    0.000    1.625    3.750    1.500    0.000    6.250 
#    0.000    0.000    0.000    0.750    0.000    0.000 
#    0.000    0.000    0.000    0.000    0.000    0.000 
#
# Total GULP energy -178320.116555 kJ/mol
# GULP energy per Si atom -5572.503642 kJ/mol
# Density = 1.902292 g / cm^3
# Si number density = 19.066315 Si / 1000 Ang^3
#
#
#
# Elastic Constant Matrix: (Units=GPa)
#
#
# Indices 1 2 3 4 5 6 
#
# 1 51.4616 42.4737 7.2858 0.0000 19.5579 0.0000
# 2 42.4737 174.9926 26.6587 0.0000 27.4150 0.0000
# 3 7.2858 26.6587 47.3214 0.0000 21.2791 0.0000
# 4 0.0000 0.0000 0.0000 17.2780 0.0000 0.7023
# 5 19.5579 27.4150 21.2791 0.0000 24.0327 0.0000
# 6 0.0000 0.0000 0.0000 0.7023 0.0000 30.3872
#
#
#
# Elastic Compliance Matrix: (Units=1/GPa)
#
#
# Indices 1 2 3 4 5 6 
#
# 1 0.034556 -0.005057 0.012595 0.000000 -0.033504 0.000000
# 2 -0.005057 0.007708 -0.002427 0.000000 -0.002529 0.000000
# 3 0.012595 -0.002427 0.039751 0.000000 -0.042678 0.000000
# 4 0.000000 0.000000 0.000000 0.057931 0.000000 -0.001339
# 5 -0.033504 -0.002529 -0.042678 0.000000 0.109548 0.000000
# 6 0.000000 0.000000 0.000000 -0.001339 0.000000 0.032940
#
#
# Mechanical properties :
#
#
# Convention : Reuss Voigt Hill
#
# Bulk Modulus (GPa) = 10.84171 47.40132 29.12151
# Shear Modulus (GPa) = 16.50398 27.49676 22.00037
#
# Velocity S-wave (km/s) = 2.94532 3.80170 3.40058
# Velocity P-wave (km/s) = 4.15514 6.64725 5.54306
#
# Compressibility (1/GPa) = 0.09223640
#
# Stress axis : x y z
#
# Youngs Moduli (GPa) = 28.93863 129.73943 25.15661
#
# Poissons Ratio (x) = 0.65610 -0.31683
# Poissons Ratio (y) = 0.14634 0.06104
# Poissons Ratio (z) = -0.36447 0.31482
#
# Static dielectric constant tensor:
#      x y z
#    x 1.721390 0.000000 0.025510 
#    y 0.000000 1.724190 0.000000 
#    z 0.025510 0.000000 1.683260 
# 
# From -- ./inp_files/305468.got.cif
#   From: 2010.05.17/outbox.cif.g08.bks.cpg/sg12_153_cif.got.tgz:305468.got - 2010.06.03 13:09:07.
