data_PCOD9206690
_publ_section_title
;
Structure prediction by ZEFSAII (Michael W. Deem and Ramdas Pophale) SiO2 
 PCOD9206690
Probable space group: C 2/M
;
_chemical_formula_sum "Si O2"
_cell_formula_units_Z 40
_cell_length_a 12.714758
_cell_length_b 22.802362
_cell_length_c 15.916723
_cell_angle_alpha 90.000000
_cell_angle_beta 24.386277
_cell_angle_gamma 90.000000
_cell_volume 1905.338155
_symmetry_space_group_name_H-M "C 2/M"
_symmetry_group_IT_number 12
_symmetry_cell_setting 'monoclinic'
loop_
_space_group_symop_operation_xyz
x,y,z
-x,y,-z
-x,-y,-z
x,-y,z
1/2+x,1/2+y,z
1/2-x,1/2+y,-z
1/2-x,1/2-y,-z
1/2+x,1/2-y,z
loop_
_atom_site_type_symbol
_atom_site_label
_atom_site_fract_x
_atom_site_fract_y
_atom_site_fract_z
Si Si1 0.963254 0.569531 0.822539
Si Si2 0.868542 0.774973 0.328198
Si Si3 0.874754 0.063945 0.201448
Si Si4 0.948194 0.682653 0.939015
Si Si5 0.438647 0.111437 0.428894
O O1 0.022561 0.500000 0.792906
O O2 0.003074 0.615868 0.868767
O O3 0.098374 0.596516 0.641472
O O4 0.664366 0.573406 0.015967
O O5 0.750000 0.750000 0.500000
O O6 0.682137 0.829049 0.449423
O O7 0.892629 0.727239 0.236554
O O8 0.152413 0.800656 0.136930
O O9 0.734014 0.107499 0.240108
O O10 0.713426 0.065149 0.404438
O O11 0.845654 0.000000 0.183767
O O12 0.000000 0.690160 0.000000
#
# Coordination Sequence:
#
# PCOD9206690 Si02
#       5
#     8   8   8   8   8
#     4  11  22  41  66  96 138 179 219 270 325 392
#     4  11  24  47  67  96 129 171 223 279 332 387
#     4  10  21  36  60  99 138 170 209 265 331 399
#     4  11  26  47  67  94 132 175 226 275 327 395
#     4  11  20  37  64  94 132 171 216 267 332 390
#
# _framework density 20.993648
#
# number of rings (size 3 to 8) (size 9 to 14) (size 15 to 20)
#    0.000    1.200    4.000    3.000    0.000    6.000 
#    0.000    0.000    0.000    1.200    0.000    0.000 
#    0.000    0.000    0.000    0.000    0.000    0.000 
#
# Total GULP energy -111600.773808 kJ/mol
# GULP energy per Si atom -5580.038690 kJ/mol
# Density = 2.094587 g / cm^3
# Si number density = 20.993648 Si / 1000 Ang^3
#
#
#
# Elastic Constant Matrix: (Units=GPa)
#
#
# Indices 1 2 3 4 5 6 
#
# 1 101.2622 67.7598 28.6755 -0.0192 33.7102 -0.0139
# 2 67.7598 171.5322 51.5323 -0.0119 12.5893 -0.0324
# 3 28.6755 51.5323 97.9861 -0.0632 29.1261 -0.0713
# 4 -0.0192 -0.0119 -0.0632 19.9128 0.0191 -12.1956
# 5 33.7102 12.5893 29.1261 0.0191 41.6979 0.0292
# 6 -0.0139 -0.0324 -0.0713 -12.1956 0.0292 14.0662
#
#
#
# Elastic Compliance Matrix: (Units=1/GPa)
#
#
# Indices 1 2 3 4 5 6 
#
# 1 0.018912 -0.007181 0.002704 0.000140 -0.015010 0.000168
# 2 -0.007181 0.009662 -0.004844 -0.000077 0.006272 -0.000089
# 3 0.002704 -0.004844 0.015368 0.000248 -0.011459 0.000308
# 4 0.000140 -0.000077 0.000248 0.107083 -0.000377 0.092844
# 5 -0.015010 0.006272 -0.011459 -0.000377 0.042227 -0.000473
# 6 0.000168 -0.000089 0.000308 0.092844 -0.000473 0.151592
#
#
# Mechanical properties :
#
#
# Convention : Reuss Voigt Hill
#
# Bulk Modulus (GPa) = 39.52742 74.07952 56.80347
# Shear Modulus (GPa) = 13.44378 29.98958 21.71668
#
# Velocity S-wave (km/s) = 2.53331 3.78366 3.21976
# Velocity P-wave (km/s) = 5.23698 7.37912 6.39833
#
# Compressibility (1/GPa) = 0.02529889
#
# Stress axis : x y z
#
# Youngs Moduli (GPa) = 52.87670 103.50283 65.06946
#
# Poissons Ratio (x) = 0.74330 -0.17596
# Poissons Ratio (y) = 0.37973 0.31520
# Poissons Ratio (z) = -0.14299 0.50138
#
# Static dielectric constant tensor:
#      x y z
#    x 1.807110 -0.000040 0.034630 
#    y -0.000040 2.024600 0.000010 
#    z 0.034630 0.000010 1.799000 
# 
# From -- ./inp_files/208532.got.cif
#   From: 2010.05.17/outbox.cif.g08.bks.cpg/sg12_105_cif.got.tgz:208532.got - 2010.06.03 13:09:07.
