data_PCOD9206414
_publ_section_title
;
Structure prediction by ZEFSAII (Michael W. Deem and Ramdas Pophale) SiO2 
 PCOD9206414
Probable space group: C 2/M
;
_chemical_formula_sum "Si O2"
_cell_formula_units_Z 48
_cell_length_a 26.563161
_cell_length_b 9.446965
_cell_length_c 13.535983
_cell_angle_alpha 90.000000
_cell_angle_beta 47.912338
_cell_angle_gamma 90.000000
_cell_volume 2520.786764
_symmetry_space_group_name_H-M "C 2/M"
_symmetry_group_IT_number 12
_symmetry_cell_setting 'monoclinic'
loop_
_space_group_symop_operation_xyz
x,y,z
-x,y,-z
-x,-y,-z
x,-y,z
1/2+x,1/2+y,z
1/2-x,1/2+y,-z
1/2-x,1/2-y,-z
1/2+x,1/2-y,z
loop_
_atom_site_type_symbol
_atom_site_label
_atom_site_fract_x
_atom_site_fract_y
_atom_site_fract_z
Si Si1 0.526937 0.169775 0.576750
Si Si2 0.193590 0.156144 0.120487
Si Si3 0.713895 0.833404 0.636825
Si Si4 0.578485 0.832638 0.931124
Si Si5 0.934744 0.160911 0.851512
Si Si6 0.161458 0.167321 0.381763
O O1 0.500000 0.206339 0.500000
O O2 0.482530 0.242816 0.720227
O O3 0.601491 0.233296 0.497753
O O4 0.525640 0.000000 0.586381
O O5 0.132650 0.148917 0.124625
O O6 0.169108 0.209277 0.257897
O O7 0.221735 0.000000 0.102489
O O8 0.250000 0.250000 0.000000
O O9 0.750000 0.750000 0.500000
O O10 0.637965 0.791867 0.774104
O O11 0.767087 0.817090 0.657092
O O12 0.710603 0.000000 0.615006
O O13 0.590249 0.000000 0.937673
O O14 0.500000 0.819547 0.000000
O O15 0.582604 0.737113 0.023156
O O16 0.961495 0.000000 0.831392
O O17 0.141899 0.000000 0.413600
#
# Coordination Sequence:
#
# PCOD9206414 Si02
#       6
#     8   8   8   8   8   8
#     4  11  23  38  60  92 125 163 207 253 307 369
#     4  10  21  36  58  86 119 157 198 247 306 370
#     4  10  23  42  65  92 125 166 208 259 314 369
#     4  10  23  44  67  92 126 166 210 260 314 370
#     4  11  23  39  62  91 125 162 202 254 312 371
#     4  10  21  39  60  85 122 164 203 249 309 371
#
# _framework density 19.041675000000001
#
# number of rings (size 3 to 8) (size 9 to 14) (size 15 to 20)
#    0.000    1.667    1.667    2.000    2.333    5.667 
#    0.000    0.000    0.000    0.000    0.000    0.000 
#    0.000    0.000    0.000    0.000    0.000    0.000 
#
# Total GULP energy -133870.327356 kJ/mol
# GULP energy per Si atom -5577.930306 kJ/mol
# Density = 1.899834 g / cm^3
# Si number density = 19.041675 Si / 1000 Ang^3
#
#
#
# Elastic Constant Matrix: (Units=GPa)
#
#
# Indices 1 2 3 4 5 6 
#
# 1 62.2655 27.4427 42.2739 0.0000 3.2760 0.0000
# 2 27.4427 67.9815 80.4460 0.0000 0.9748 0.0000
# 3 42.2739 80.4460 167.5950 0.0000 -3.4741 0.0000
# 4 0.0000 0.0000 0.0000 38.2219 0.0000 0.6022
# 5 3.2760 0.9748 -3.4741 0.0000 35.9563 0.0000
# 6 0.0000 0.0000 0.0000 0.6022 0.0000 26.7809
#
#
#
# Elastic Compliance Matrix: (Units=1/GPa)
#
#
# Indices 1 2 3 4 5 6 
#
# 1 0.020196 -0.004739 -0.002861 0.000000 -0.001988 0.000000
# 2 -0.004739 0.035391 -0.015835 0.000000 -0.002058 0.000000
# 3 -0.002861 -0.015835 0.014332 0.000000 0.002075 0.000000
# 4 0.000000 0.000000 0.000000 0.026172 0.000000 -0.000589
# 5 -0.001988 -0.002058 0.002075 0.000000 0.028249 0.000000
# 6 0.000000 0.000000 0.000000 -0.000589 0.000000 0.037353
#
#
# Mechanical properties :
#
#
# Convention : Reuss Voigt Hill
#
# Bulk Modulus (GPa) = 43.38490 66.46302 54.92396
# Shear Modulus (GPa) = 23.12192 30.03712 26.57952
#
# Velocity S-wave (km/s) = 3.48843 3.97601 3.74017
# Velocity P-wave (km/s) = 6.24973 7.48719 6.89627
#
# Compressibility (1/GPa) = 0.02304950
#
# Stress axis : x y z
#
# Youngs Moduli (GPa) = 49.51564 28.25602 69.77323
#
# Poissons Ratio (x) = 0.13390 0.19960
# Poissons Ratio (y) = 0.23465 1.10485
# Poissons Ratio (z) = 0.14165 0.44743
#
# Static dielectric constant tensor:
#      x y z
#    x 1.624300 0.000000 -0.042670 
#    y 0.000000 1.665290 0.000000 
#    z -0.042670 0.000000 1.661500 
# 
# From -- ./inp_files/244686.got.cif
#   From: 2010.05.17/outbox.cif.g08.bks.cpg/sg12_123_cif.got.tgz:244686.got - 2010.06.03 13:09:07.
