data_PCOD9206297
_publ_section_title
;
Structure prediction by ZEFSAII (Michael W. Deem and Ramdas Pophale) SiO2 
 PCOD9206297
Probable space group: C 2/M
;
_chemical_formula_sum "Si O2"
_cell_formula_units_Z 56
_cell_length_a 20.717484
_cell_length_b 9.310065
_cell_length_c 29.045942
_cell_angle_alpha 90.000000
_cell_angle_beta 31.981155
_cell_angle_gamma 90.000000
_cell_volume 2967.264216
_symmetry_space_group_name_H-M "C 2/M"
_symmetry_group_IT_number 12
_symmetry_cell_setting 'monoclinic'
loop_
_space_group_symop_operation_xyz
x,y,z
-x,y,-z
-x,-y,-z
x,-y,z
1/2+x,1/2+y,z
1/2-x,1/2+y,-z
1/2-x,1/2-y,-z
1/2+x,1/2-y,z
loop_
_atom_site_type_symbol
_atom_site_label
_atom_site_fract_x
_atom_site_fract_y
_atom_site_fract_z
Si Si1 0.086098 0.171933 0.403911
Si Si2 0.833087 0.167434 0.235675
Si Si3 0.405636 0.166771 0.451089
Si Si4 0.007323 0.171983 0.049983
Si Si5 0.498318 0.338571 0.223252
Si Si6 0.334062 0.164779 0.387692
Si Si7 0.226432 0.333105 0.966999
O O1 0.220909 0.239512 0.322375
O O2 0.000000 0.208497 0.500000
O O3 0.017302 0.240188 0.401815
O O4 0.093259 0.000000 0.396931
O O5 0.887309 0.209329 0.152946
O O6 0.945546 0.176419 0.203524
O O7 0.794640 0.000000 0.257048
O O8 0.385138 0.176142 0.408680
O O9 0.282990 0.233881 0.546494
O O10 0.420418 0.000000 0.454790
O O11 0.024877 0.000000 0.045624
O O12 0.120539 0.256697 0.002763
O O13 0.000000 0.200719 0.000000
O O14 0.462380 0.500000 0.260702
O O15 0.435841 0.218764 0.291601
O O16 0.643164 0.328542 0.137076
O O17 0.297805 0.000000 0.401392
O O18 0.196071 0.500000 0.994073
O O19 0.250000 0.250000 0.000000
#
# Coordination Sequence:
#
# PCOD9206297 Si02
#       7
#     8   8   8   8   8   8   8
#     4  11  24  39  57  85 117 151 197 246 293 349
#     4  10  21  39  60  85 119 157 198 242 298 363
#     4  10  21  38  58  80 113 155 193 235 293 352
#     4  10  22  42  65  90 125 166 206 253 310 370
#     4  10  21  37  59  87 119 153 194 242 295 356
#     4  10  21  36  57  86 115 147 193 243 290 347
#     4  11  22  39  63  90 121 156 200 250 302 360
#
# _framework density 18.872603000000002
#
# number of rings (size 3 to 8) (size 9 to 14) (size 15 to 20)
#    0.000    1.714    1.429    2.571    0.000    8.857 
#    0.000    4.286    0.000    0.000    0.000    0.000 
#    0.000    0.000    0.000    0.000    0.000    0.000 
#
# Total GULP energy -156371.765927 kJ/mol
# GULP energy per Si atom -5584.705926 kJ/mol
# Density = 1.882965 g / cm^3
# Si number density = 18.872603 Si / 1000 Ang^3
#
#
#
# Elastic Constant Matrix: (Units=GPa)
#
#
# Indices 1 2 3 4 5 6 
#
# 1 66.6386 52.3047 37.7407 0.0001 -8.2688 -0.0001
# 2 52.3047 75.5840 51.0069 0.0002 4.6987 -0.0002
# 3 37.7407 51.0069 97.1619 0.0002 2.8258 -0.0001
# 4 0.0001 0.0002 0.0002 31.4701 0.0000 -3.3703
# 5 -8.2688 4.6987 2.8258 0.0000 28.3385 0.0001
# 6 -0.0001 -0.0002 -0.0001 -3.3703 0.0001 31.1194
#
#
#
# Elastic Compliance Matrix: (Units=1/GPa)
#
#
# Indices 1 2 3 4 5 6 
#
# 1 0.039022 -0.027032 -0.001432 0.000000 0.016011 0.000000
# 2 -0.027032 0.039370 -0.009777 0.000000 -0.013441 0.000000
# 3 -0.001432 -0.009777 0.015992 0.000000 -0.000391 0.000000
# 4 0.000000 0.000000 0.000000 0.032149 0.000000 0.003482
# 5 0.016011 -0.013441 -0.000391 0.000000 0.042227 0.000000
# 6 0.000000 0.000000 0.000000 0.003482 0.000000 0.032511
#
#
# Mechanical properties :
#
#
# Convention : Reuss Voigt Hill
#
# Bulk Modulus (GPa) = 55.86003 57.94324 56.90163
# Shear Modulus (GPa) = 17.62293 24.74108 21.18201
#
# Velocity S-wave (km/s) = 3.05910 3.62464 3.35381
# Velocity P-wave (km/s) = 6.49155 6.94883 6.72408
#
# Compressibility (1/GPa) = 0.01790189
#
# Stress axis : x y z
#
# Youngs Moduli (GPa) = 25.62686 25.39982 62.53021
#
# Poissons Ratio (x) = 0.68662 0.08953
# Poissons Ratio (y) = 0.69275 0.61136
# Poissons Ratio (z) = 0.03669 0.24834
#
# Static dielectric constant tensor:
#      x y z
#    x 1.650230 0.000000 0.011140 
#    y 0.000000 1.640260 0.000000 
#    z 0.011140 0.000000 1.654400 
# 
# From -- ./inp_files/380579.got.cif
#   From: 2010.05.17/outbox.cif.g08.bks.cpg/sg12_191_cif.got.tgz:380579.got - 2010.06.03 13:09:07.
