data_PCOD9206015
_publ_section_title
;
Structure prediction by ZEFSAII (Michael W. Deem and Ramdas Pophale) SiO2 
 PCOD9206015
Probable space group: C 2/M
;
_chemical_formula_sum "Si O2"
_cell_formula_units_Z 56
_cell_length_a 5.242379
_cell_length_b 18.495269
_cell_length_c 29.667305
_cell_angle_alpha 90.000000
_cell_angle_beta 88.276911
_cell_angle_gamma 90.000000
_cell_volume 2875.217757
_symmetry_space_group_name_H-M "C 2/M"
_symmetry_group_IT_number 12
_symmetry_cell_setting 'monoclinic'
loop_
_space_group_symop_operation_xyz
x,y,z
-x,y,-z
-x,-y,-z
x,-y,z
1/2+x,1/2+y,z
1/2-x,1/2+y,-z
1/2-x,1/2-y,-z
1/2+x,1/2-y,z
loop_
_atom_site_type_symbol
_atom_site_label
_atom_site_fract_x
_atom_site_fract_y
_atom_site_fract_z
Si Si1 0.468542 0.079976 0.412127
Si Si2 0.521518 0.916430 0.870031
Si Si3 0.508456 0.799191 0.947961
Si Si4 0.031757 0.915384 0.808642
Si Si5 0.200130 0.722076 0.550719
Si Si6 0.550918 0.698987 0.727087
Si Si7 0.022501 0.917217 0.647932
O O1 0.397161 0.141142 0.447718
O O2 0.747555 0.089303 0.389335
O O3 0.253637 0.086941 0.374384
O O4 0.448940 0.000000 0.431653
O O5 0.515098 0.863312 0.912214
O O6 0.276104 0.905424 0.839522
O O7 0.775295 0.905022 0.839035
O O8 0.520446 0.000000 0.884977
O O9 0.259101 0.750188 0.941507
O O10 0.500000 0.824958 0.000000
O O11 0.040527 0.856163 0.769339
O O12 0.034160 0.000000 0.792746
O O13 0.250000 0.750000 0.500000
O O14 0.470244 0.732309 0.573341
O O15 0.303729 0.751218 0.727405
O O16 0.551249 0.645659 0.684088
O O17 0.045286 0.000000 0.666453
#
# Coordination Sequence:
#
# PCOD9206015 Si02
#       7
#     8   8   8   8   8   8   8
#     4  10  21  38  61  85 111 149 194 230 270 332
#     4  10  21  37  59  83 107 146 194 234 279 334
#     4  10  21  36  55  81 113 147 183 230 290 345
#     4  10  22  40  58  79 113 152 187 228 281 339
#     4  10  21  37  56  83 115 148 182 224 281 328
#     4  12  25  38  57  88 117 146 188 234 279 330
#     4  10  22  40  60  83 114 152 188 230 282 330
#
# _framework density 19.476787000000002
#
# number of rings (size 3 to 8) (size 9 to 14) (size 15 to 20)
#    0.000    1.714    0.000    3.857    0.000    7.143 
#    0.000    8.571    0.000    5.143    0.000    0.000 
#    0.000    0.000    0.000    0.000    0.000    0.000 
#
# Total GULP energy -156386.828083 kJ/mol
# GULP energy per Si atom -5585.243860 kJ/mol
# Density = 1.943246 g / cm^3
# Si number density = 19.476787 Si / 1000 Ang^3
#
#
#
# Elastic Constant Matrix: (Units=GPa)
#
#
# Indices 1 2 3 4 5 6 
#
# 1 145.5906 39.7634 17.3028 0.0000 -1.6515 0.0000
# 2 39.7634 154.7313 76.9940 0.0000 -7.6296 0.0000
# 3 17.3028 76.9940 66.3658 0.0000 -1.4962 0.0000
# 4 0.0000 0.0000 0.0000 -9.1728 0.0000 6.7751
# 5 -1.6515 -7.6296 -1.4962 0.0000 20.6032 0.0000
# 6 0.0000 0.0000 0.0000 6.7751 0.0000 -23.1941
#
#
#
# Elastic Compliance Matrix: (Units=1/GPa)
#
#
# Indices 1 2 3 4 5 6 
#
# 1 0.007400 -0.002245 0.000671 0.000000 -0.000189 0.000000
# 2 -0.002245 0.016375 -0.018309 0.000000 0.004554 0.000000
# 3 0.000671 -0.018309 0.036042 0.000000 -0.004109 0.000000
# 4 0.000000 0.000000 0.000000 -0.139009 0.000000 -0.040605
# 5 -0.000189 0.004554 -0.004109 0.000000 0.049909 0.000000
# 6 0.000000 0.000000 0.000000 -0.040605 0.000000 -0.054975
#
#
# Mechanical properties :
#
#
# Convention : Reuss Voigt Hill
#
# Bulk Modulus (GPa) = 49.87558 70.53423 60.20490
# Shear Modulus (GPa) = -132.24773 13.15577 -59.54598
#
# Velocity S-wave (km/s) = -8.24910 2.60178 -5.53527
# Velocity P-wave (km/s) = 8.06640 6.73192 3.14229
#
# Compressibility (1/GPa) = 0.02004989
#
# Stress axis : x y z
#
# Youngs Moduli (GPa) = 135.13914 61.06882 27.74526
#
# Poissons Ratio (x) = 0.13708 -0.01861
# Poissons Ratio (y) = 0.30334 0.50800
# Poissons Ratio (z) = -0.09062 1.11814
#
# Static dielectric constant tensor:
#      x y z
#    x 1.690480 0.000000 0.006400 
#    y 0.000000 1.686710 0.000000 
#    z 0.006400 0.000000 1.640420 
# 
# From -- ./inp_files/371479.got.cif
#   From: 2010.05.17/outbox.cif.g08.bks.cpg/sg12_186_cif.got.tgz:371479.got - 2010.06.03 13:09:07.
