data_PCOD9206121
_publ_section_title
;
Structure prediction by ZEFSAII (Michael W. Deem and Ramdas Pophale) SiO2 
 PCOD9206121
Probable space group: C 2/M
;
_chemical_formula_sum "Si O2"
_cell_formula_units_Z 64
_cell_length_a 19.420889
_cell_length_b 8.777065
_cell_length_c 31.898362
_cell_angle_alpha 90.000000
_cell_angle_beta 40.553020
_cell_angle_gamma 90.000000
_cell_volume 3535.096919
_symmetry_space_group_name_H-M "C 2/M"
_symmetry_group_IT_number 12
_symmetry_cell_setting 'monoclinic'
loop_
_space_group_symop_operation_xyz
x,y,z
-x,y,-z
-x,-y,-z
x,-y,z
1/2+x,1/2+y,z
1/2-x,1/2+y,-z
1/2-x,1/2-y,-z
1/2+x,1/2-y,z
loop_
_atom_site_type_symbol
_atom_site_label
_atom_site_fract_x
_atom_site_fract_y
_atom_site_fract_z
Si Si1 0.878594 0.816730 0.555772
Si Si2 0.081326 0.182443 0.070318
Si Si3 0.738898 0.317491 0.072053
Si Si4 0.190961 0.318090 0.185020
Si Si5 0.957943 0.182652 0.297366
Si Si6 0.728744 0.681603 0.555054
Si Si7 0.694211 0.182943 0.702446
Si Si8 0.652378 0.183083 0.817876
O O1 0.817372 0.742033 0.545693
O O2 0.808724 0.780724 0.629258
O O3 0.000000 0.766926 0.500000
O O4 0.876825 0.000000 0.551647
O O5 0.137601 0.216137 0.089050
O O6 0.966385 0.256323 0.120544
O O7 0.074597 0.000000 0.069115
O O8 0.160052 0.249648 0.998919
O O9 0.748469 0.500000 0.070809
O O10 0.725589 0.245283 0.123656
O O11 0.194385 0.500000 0.183275
O O12 0.268321 0.253510 0.184941
O O13 0.071542 0.260195 0.247559
O O14 0.883229 0.223674 0.371488
O O15 0.893969 0.237194 0.285718
O O16 0.970155 0.000000 0.290196
O O17 0.732240 0.500000 0.551215
O O18 0.750000 0.750000 0.500000
O O19 0.685339 0.225201 0.755085
O O20 0.678798 0.000000 0.706230
O O21 0.654360 0.000000 0.820438
#
# Coordination Sequence:
#
# PCOD9206121 Si02
#       8
#     8   8   8   8   8   8   8   8
#     4   9  18  34  56  82 112 146 184 228 279 332
#     4  10  21  38  61  88 115 145 186 231 275 328
#     4  10  21  39  63  88 115 148 185 226 274 329
#     4  12  25  39  57  83 115 149 187 231 279 329
#     4  10  21  38  59  82 110 146 188 231 277 331
#     4  10  21  36  56  82 112 147 186 230 278 330
#     4   9  19  36  58  82 109 145 188 231 275 329
#     4  11  23  38  56  81 115 151 188 230 280 334
#
# _framework density 18.104171000000001
#
# number of rings (size 3 to 8) (size 9 to 14) (size 15 to 20)
#    0.000    1.875    0.000    3.750    0.000    7.750 
#    0.000    5.000    0.000    0.000    0.000    0.000 
#    0.000    0.000    0.000    0.000    0.000    0.000 
#
# Total GULP energy -178777.702092 kJ/mol
# GULP energy per Si atom -5586.803190 kJ/mol
# Density = 1.806297 g / cm^3
# Si number density = 18.104171 Si / 1000 Ang^3
#
#
#
# Elastic Constant Matrix: (Units=GPa)
#
#
# Indices 1 2 3 4 5 6 
#
# 1 150.3325 73.3208 132.0458 0.0005 2.4999 0.0011
# 2 73.3208 77.0571 72.4610 0.0016 2.8696 0.0035
# 3 132.0458 72.4610 161.4119 -0.0003 1.2951 0.0001
# 4 0.0005 0.0016 -0.0003 26.1142 0.0000 0.5907
# 5 2.4999 2.8696 1.2951 0.0000 31.1579 -0.0001
# 6 0.0011 0.0035 0.0001 0.5907 -0.0001 31.4653
#
#
#
# Elastic Compliance Matrix: (Units=1/GPa)
#
#
# Indices 1 2 3 4 5 6 
#
# 1 0.026410 -0.008297 -0.017875 0.000000 -0.000612 0.000000
# 2 -0.008297 0.025150 -0.004491 -0.000001 -0.001464 -0.000002
# 3 -0.017875 -0.004491 0.022827 0.000001 0.000899 0.000001
# 4 0.000000 -0.000001 0.000001 0.038310 0.000000 -0.000719
# 5 -0.000612 -0.001464 0.000899 0.000000 0.032241 0.000000
# 6 0.000000 -0.000002 0.000001 -0.000719 0.000000 0.031795
#
#
# Mechanical properties :
#
#
# Convention : Reuss Voigt Hill
#
# Bulk Modulus (GPa) = 76.56838 104.93965 90.75402
# Shear Modulus (GPa) = 20.62603 25.14573 22.88588
#
# Velocity S-wave (km/s) = 3.37901 3.73090 3.55931
# Velocity P-wave (km/s) = 7.59004 8.75498 8.19324
#
# Compressibility (1/GPa) = 0.01306022
#
# Stress axis : x y z
#
# Youngs Moduli (GPa) = 37.86473 39.76174 43.80738
#
# Poissons Ratio (x) = 0.32992 0.78307
# Poissons Ratio (y) = 0.31418 0.19672
# Poissons Ratio (z) = 0.67684 0.17856
#
# Static dielectric constant tensor:
#      x y z
#    x 1.581030 0.000000 0.003350 
#    y 0.000000 1.602640 0.000000 
#    z 0.003350 0.000000 1.616220 
# 
# From -- ./inp_files/378022.got.cif
#   From: 2010.05.17/outbox.cif.g08.bks.cpg/sg12_190_cif.got.tgz:378022.got - 2010.06.03 13:09:07.
