data_PCOD9206149
_publ_section_title
;
Structure prediction by ZEFSAII (Michael W. Deem and Ramdas Pophale) SiO2 
 PCOD9206149
Probable space group: C 2/M
;
_chemical_formula_sum "Si O2"
_cell_formula_units_Z 64
_cell_length_a 29.127265
_cell_length_b 9.229249
_cell_length_c 17.016075
_cell_angle_alpha 90.000000
_cell_angle_beta 133.874071
_cell_angle_gamma 90.000000
_cell_volume 3297.458218
_symmetry_space_group_name_H-M "C 2/M"
_symmetry_group_IT_number 12
_symmetry_cell_setting 'monoclinic'
loop_
_space_group_symop_operation_xyz
x,y,z
-x,y,-z
-x,-y,-z
x,-y,z
1/2+x,1/2+y,z
1/2-x,1/2+y,-z
1/2-x,1/2-y,-z
1/2+x,1/2-y,z
loop_
_atom_site_type_symbol
_atom_site_label
_atom_site_fract_x
_atom_site_fract_y
_atom_site_fract_z
Si Si1 0.989301 0.172065 0.177541
Si Si2 0.705833 0.163584 0.007308
Si Si3 0.424214 0.332569 0.396388
Si Si4 0.383399 0.172015 0.664109
Si Si5 0.642384 0.672171 0.069555
Si Si6 0.196087 0.671419 0.279033
Si Si7 0.154730 0.173574 0.541910
Si Si8 0.927427 0.336975 0.242284
O O1 0.972412 0.233057 0.244268
O O2 0.052319 0.255593 0.226444
O O3 0.999589 0.000000 0.192978
O O4 0.928262 0.200448 0.049349
O O5 0.692906 0.249750 0.071972
O O6 0.729325 0.000000 0.049875
O O7 0.750000 0.250000 0.000000
O O8 0.637552 0.154637 0.883943
O O9 0.500000 0.328080 0.500000
O O10 0.406669 0.500000 0.357518
O O11 0.386450 0.288770 0.429980
O O12 0.411706 0.230971 0.307532
O O13 0.327007 0.198119 0.659569
O O14 0.368496 0.243999 0.562932
O O15 0.392091 0.000000 0.666011
O O16 0.651973 0.500000 0.079506
O O17 0.653909 0.737075 0.168766
O O18 0.187211 0.500000 0.252240
O O19 0.270584 0.705333 0.357046
O O20 0.148027 0.000000 0.521577
O O21 0.953995 0.500000 0.280757
#
# Coordination Sequence:
#
# PCOD9206149 Si02
#       8
#     8   8   8   8   8   8   8   8
#     4  10  21  39  62  87 119 157 199 246 299 360
#     4  10  21  36  56  83 117 155 194 237 287 348
#     4  10  21  36  56  84 117 155 196 238 289 350
#     4  11  23  39  62  89 117 153 200 252 307 357
#     4  10  22  39  60  88 119 156 201 248 298 354
#     4  10  23  41  60  87 122 160 199 246 304 361
#     4  10  22  40  61  86 119 160 203 244 297 360
#     4  10  21  36  56  85 117 150 191 239 290 343
#
# _framework density 19.408888999999999
#
# number of rings (size 3 to 8) (size 9 to 14) (size 15 to 20)
#    0.000    1.875    0.000    3.000    1.750    6.750 
#    0.000    2.500    0.000    0.000    0.000    0.000 
#    0.000    0.000    0.000    0.000    0.000    0.000 
#
# Total GULP energy -178778.678026 kJ/mol
# GULP energy per Si atom -5586.833688 kJ/mol
# Density = 1.936471 g / cm^3
# Si number density = 19.408889 Si / 1000 Ang^3
#
#
#
# Elastic Constant Matrix: (Units=GPa)
#
#
# Indices 1 2 3 4 5 6 
#
# 1 113.7255 39.6983 37.8993 0.0000 6.9229 0.0000
# 2 39.6983 72.3174 48.1923 0.0000 -2.3608 0.0000
# 3 37.8993 48.1923 63.4030 0.0000 -11.2244 0.0000
# 4 0.0000 0.0000 0.0000 32.4387 0.0000 -3.7807
# 5 6.9229 -2.3608 -11.2244 0.0000 27.2704 0.0000
# 6 0.0000 0.0000 0.0000 -3.7807 0.0000 30.0464
#
#
#
# Elastic Compliance Matrix: (Units=1/GPa)
#
#
# Indices 1 2 3 4 5 6 
#
# 1 0.012188 -0.002697 -0.006282 0.000000 -0.005913 0.000000
# 2 -0.002697 0.029853 -0.022111 0.000000 -0.005832 0.000000
# 3 -0.006282 -0.022111 0.039129 0.000000 0.015786 0.000000
# 4 0.000000 0.000000 0.000000 0.031286 0.000000 0.003937
# 5 -0.005913 -0.005832 0.015786 0.000000 0.044164 0.000000
# 6 0.000000 0.000000 0.000000 0.003937 0.000000 0.033777
#
#
# Mechanical properties :
#
#
# Convention : Reuss Voigt Hill
#
# Bulk Modulus (GPa) = 52.66378 55.66952 54.16665
# Shear Modulus (GPa) = 19.31186 26.19481 22.75334
#
# Velocity S-wave (km/s) = 3.15779 3.67772 3.42762
# Velocity P-wave (km/s) = 6.36304 6.83951 6.60557
#
# Compressibility (1/GPa) = 0.01898838
#
# Stress axis : x y z
#
# Youngs Moduli (GPa) = 82.04686 33.49727 25.55666
#
# Poissons Ratio (x) = 0.09035 0.16055
# Poissons Ratio (y) = 0.22130 0.56509
# Poissons Ratio (z) = 0.51544 0.74067
#
# Static dielectric constant tensor:
#      x y z
#    x 1.667390 0.000000 0.016510 
#    y 0.000000 1.664490 0.000000 
#    z 0.016510 0.000000 1.685150 
# 
# From -- ./inp_files/295852.got.cif
#   From: 2010.05.17/outbox.cif.g08.bks.cpg/sg12_148_cif.got.tgz:295852.got - 2010.06.03 13:09:07.
