data_PCOD9206462
_publ_section_title
;
Structure prediction by ZEFSAII (Michael W. Deem and Ramdas Pophale) SiO2 
 PCOD9206462
Probable space group: C 2/M
;
_chemical_formula_sum "Si O2"
_cell_formula_units_Z 32
_cell_length_a 25.818710
_cell_length_b 10.414870
_cell_length_c 10.748519
_cell_angle_alpha 90.000000
_cell_angle_beta 147.795236
_cell_angle_gamma 90.000000
_cell_volume 1540.354722
_symmetry_space_group_name_H-M "C 2/M"
_symmetry_group_IT_number 12
_symmetry_cell_setting 'monoclinic'
loop_
_space_group_symop_operation_xyz
x,y,z
-x,y,-z
-x,-y,-z
x,-y,z
1/2+x,1/2+y,z
1/2-x,1/2+y,-z
1/2-x,1/2-y,-z
1/2+x,1/2-y,z
loop_
_atom_site_type_symbol
_atom_site_label
_atom_site_fract_x
_atom_site_fract_y
_atom_site_fract_z
Si Si1 0.177139 0.759569 0.164173
Si Si2 0.133662 0.142505 0.345323
Si Si3 0.973558 0.349996 0.707005
Si Si4 0.705424 0.142507 0.822052
O O1 0.143270 0.835326 0.217900
O O2 0.258723 0.660072 0.378124
O O3 0.231274 0.849119 0.175558
O O4 0.084837 0.689913 0.916404
O O5 0.070667 0.255712 0.278343
O O6 0.096163 0.000000 0.296949
O O7 0.966232 0.500000 0.728108
O O8 0.904958 0.332536 0.446960
O O9 0.711695 0.000000 0.889527
O O10 0.750000 0.250000 0.000000
#
# Coordination Sequence:
#
# PCOD9206462 Si02
#       4
#     8   8   8   8
#     4  10  21  37  60  85 116 153 190 230 281 337
#     4  10  21  36  58  89 121 150 185 231 281 336
#     4  10  22  39  60  86 116 151 190 231 281 343
#     4  10  23  42  60  82 113 149 193 242 286 333
#
# _framework density 20.774436999999999
#
# number of rings (size 3 to 8) (size 9 to 14) (size 15 to 20)
#    0.000    2.000    0.000    2.250    0.000   17.000 
#    0.000    3.750    0.000    0.000    0.000    0.000 
#    0.000    0.000    0.000    0.000    0.000    0.000 
#
# Total GULP energy -89394.444884 kJ/mol
# GULP energy per Si atom -5587.152805 kJ/mol
# Density = 2.072715 g / cm^3
# Si number density = 20.774437 Si / 1000 Ang^3
#
#
#
# Elastic Constant Matrix: (Units=GPa)
#
#
# Indices 1 2 3 4 5 6 
#
# 1 6.4429 1.8812 24.6972 0.0000 2.4960 0.0000
# 2 1.8812 121.3835 63.2896 0.0000 -2.0837 0.0000
# 3 24.6972 63.2896 162.2035 0.0000 22.0066 0.0000
# 4 0.0000 0.0000 0.0000 8.0004 0.0000 -0.2297
# 5 2.4960 -2.0837 22.0066 0.0000 30.5868 0.0000
# 6 0.0000 0.0000 0.0000 -0.2297 0.0000 23.8438
#
#
#
# Elastic Compliance Matrix: (Units=1/GPa)
#
#
# Indices 1 2 3 4 5 6 
#
# 1 0.512902 0.044803 -0.100081 0.000000 0.033203 0.000000
# 2 0.044803 0.014717 -0.013524 0.000000 0.007077 0.000000
# 3 -0.100081 -0.013524 0.028477 0.000000 -0.013243 0.000000
# 4 0.000000 0.000000 0.000000 0.125028 0.000000 0.001204
# 5 0.033203 0.007077 -0.013243 0.000000 0.039995 0.000000
# 6 0.000000 0.000000 0.000000 0.001204 0.000000 0.041951
#
#
# Mechanical properties :
#
#
# Convention : Reuss Voigt Hill
#
# Bulk Modulus (GPa) = 2.38953 52.19621 27.29287
# Shear Modulus (GPa) = 4.80690 25.83032 15.31861
#
# Velocity S-wave (km/s) = 1.52279 3.52997 2.71842
# Velocity P-wave (km/s) = 2.06023 6.46483 4.79784
#
# Compressibility (1/GPa) = 0.41849214
#
# Stress axis : x y z
#
# Youngs Moduli (GPa) = 1.94969 67.94833 35.11573
#
# Poissons Ratio (x) = -3.04431 3.51443
# Poissons Ratio (y) = -0.08735 0.47492
# Poissons Ratio (z) = 0.19513 0.91896
#
# Static dielectric constant tensor:
#      x y z
#    x 1.732870 0.000000 0.004750 
#    y 0.000000 1.713100 0.000000 
#    z 0.004750 0.000000 1.762060 
# 
# From -- ./inp_files/94027.got.cif
#   From: 2010.05.17/outbox.cif.g08.bks.cpg/sg12_48_cif.got.tgz:94027.got - 2010.06.03 13:09:07.
