data_PCOD9206576
_publ_section_title
;
Structure prediction by ZEFSAII (Michael W. Deem and Ramdas Pophale) SiO2 
 PCOD9206576
Probable space group: C 2/M
;
_chemical_formula_sum "Si O2"
_cell_formula_units_Z 64
_cell_length_a 25.497971
_cell_length_b 14.807858
_cell_length_c 18.719062
_cell_angle_alpha 90.000000
_cell_angle_beta 25.347457
_cell_angle_gamma 90.000000
_cell_volume 3025.755423
_symmetry_space_group_name_H-M "C 2/M"
_symmetry_group_IT_number 12
_symmetry_cell_setting 'monoclinic'
loop_
_space_group_symop_operation_xyz
x,y,z
-x,y,-z
-x,-y,-z
x,-y,z
1/2+x,1/2+y,z
1/2-x,1/2+y,-z
1/2-x,1/2-y,-z
1/2+x,1/2-y,z
loop_
_atom_site_type_symbol
_atom_site_label
_atom_site_fract_x
_atom_site_fract_y
_atom_site_fract_z
Si Si1 0.115534 0.701543 0.410882
Si Si2 0.159682 0.790992 0.957199
Si Si3 0.054033 0.898803 0.513862
Si Si4 0.654781 0.602111 0.107584
Si Si5 0.273246 0.105497 0.607942
Si Si6 0.925630 0.750837 0.157236
Si Si7 0.844518 0.598233 0.991221
Si Si8 0.133855 0.601013 0.663471
O O1 0.230951 0.666754 0.222569
O O2 0.129429 0.805287 0.421672
O O3 0.112951 0.639198 0.484301
O O4 0.000000 0.698212 0.500000
O O5 0.148037 0.829192 0.051038
O O6 0.196972 0.685428 0.915127
O O7 0.028233 0.794924 0.081799
O O8 0.000000 0.902493 0.500000
O O9 0.945613 0.885220 0.705974
O O10 0.107294 0.000000 0.462274
O O11 0.638172 0.500000 0.100359
O O12 0.786090 0.607400 0.985070
O O13 0.161893 0.171470 0.764048
O O14 0.294061 0.119531 0.497893
O O15 0.250375 0.000000 0.648188
O O16 0.853986 0.676144 0.291062
O O17 0.000000 0.707447 0.000000
O O18 0.801944 0.500000 0.071183
O O19 0.990853 0.600211 0.815818
O O20 0.164669 0.500000 0.651163
#
# Coordination Sequence:
#
# PCOD9206576 Si02
#       8
#     8   8   8   8   8   8   8   8
#     4  11  24  39  62  95 130 166 203 252 310 367
#     4  11  23  38  61  92 123 164 211 252 301 362
#     4   9  19  37  60  89 128 167 204 248 304 366
#     4  10  21  36  59  91 126 167 210 249 296 360
#     4  11  25  45  66  88 122 168 211 251 309 367
#     4  11  23  45  67  90 121 160 212 259 308 364
#     4   9  18  33  58  90 125 161 197 244 306 365
#     4   9  21  40  66  96 123 159 201 255 318 375
#
# _framework density 21.151741000000001
#
# number of rings (size 3 to 8) (size 9 to 14) (size 15 to 20)
#    0.000    1.875    1.250    2.250    5.250    3.250 
#    0.000    0.625    0.000    0.000    0.000    0.000 
#    0.000    0.000    0.000    0.000    0.000    0.000 
#
# Total GULP energy -178546.182444 kJ/mol
# GULP energy per Si atom -5579.568201 kJ/mol
# Density = 2.110360 g / cm^3
# Si number density = 21.151741 Si / 1000 Ang^3
#
#
#
# Elastic Constant Matrix: (Units=GPa)
#
#
# Indices 1 2 3 4 5 6 
#
# 1 79.7021 47.4347 14.2390 0.0000 3.4036 0.0000
# 2 47.4347 95.2149 32.6394 0.0000 12.2307 0.0000
# 3 14.2390 32.6394 43.6052 0.0000 17.4997 0.0000
# 4 0.0000 0.0000 0.0000 15.7072 0.0000 -5.1369
# 5 3.4036 12.2307 17.4997 0.0000 25.3157 0.0000
# 6 0.0000 0.0000 0.0000 -5.1369 0.0000 15.5251
#
#
#
# Elastic Compliance Matrix: (Units=1/GPa)
#
#
# Indices 1 2 3 4 5 6 
#
# 1 0.017935 -0.009296 0.000369 0.000000 0.001825 0.000000
# 2 -0.009296 0.018954 -0.011042 0.000000 -0.000275 0.000000
# 3 0.000369 -0.011042 0.040073 0.000000 -0.022416 0.000000
# 4 0.000000 0.000000 0.000000 0.071391 0.000000 0.023622
# 5 0.001825 -0.000275 -0.022416 0.000000 0.054884 0.000000
# 6 0.000000 0.000000 0.000000 0.023622 0.000000 0.072228
#
#
# Mechanical properties :
#
#
# Convention : Reuss Voigt Hill
#
# Bulk Modulus (GPa) = 27.00791 45.23870 36.12330
# Shear Modulus (GPa) = 15.25581 19.59021 17.42301
#
# Velocity S-wave (km/s) = 2.68853 3.04661 2.87316
# Velocity P-wave (km/s) = 4.73645 5.81463 5.30301
#
# Compressibility (1/GPa) = 0.03702619
#
# Stress axis : x y z
#
# Youngs Moduli (GPa) = 55.75557 52.75892 24.95417
#
# Poissons Ratio (x) = 0.49046 -0.00922
# Poissons Ratio (y) = 0.51831 0.27554
# Poissons Ratio (z) = -0.02060 0.58255
#
# Static dielectric constant tensor:
#      x y z
#    x 1.753320 0.000000 -0.002210 
#    y 0.000000 1.780600 0.000000 
#    z -0.002210 0.000000 1.787760 
# 
# From -- ./inp_files/290114.got.cif
#   From: 2010.05.17/outbox.cif.g08.bks.cpg/sg12_146_cif.got.tgz:290114.got - 2010.06.03 13:09:07.
