data_PCOD9206645
_publ_section_title
;
Structure prediction by ZEFSAII (Michael W. Deem and Ramdas Pophale) SiO2 
 PCOD9206645
Probable space group: C 2/M
;
_chemical_formula_sum "Si O2"
_cell_formula_units_Z 56
_cell_length_a 16.482542
_cell_length_b 15.544461
_cell_length_c 13.732459
_cell_angle_alpha 90.000000
_cell_angle_beta 56.087905
_cell_angle_gamma 90.000000
_cell_volume 2919.920793
_symmetry_space_group_name_H-M "C 2/M"
_symmetry_group_IT_number 12
_symmetry_cell_setting 'monoclinic'
loop_
_space_group_symop_operation_xyz
x,y,z
-x,y,-z
-x,-y,-z
x,-y,z
1/2+x,1/2+y,z
1/2-x,1/2+y,-z
1/2-x,1/2-y,-z
1/2+x,1/2-y,z
loop_
_atom_site_type_symbol
_atom_site_label
_atom_site_fract_x
_atom_site_fract_y
_atom_site_fract_z
Si Si1 0.240282 0.902756 0.182857
Si Si2 0.165065 0.404637 0.470481
Si Si3 0.446383 0.265276 0.442761
Si Si4 0.056838 0.831868 0.194353
Si Si5 0.633616 0.401410 0.785810
Si Si6 0.109711 0.250229 0.957827
Si Si7 0.710542 0.595598 0.434112
O O1 0.137847 0.887763 0.195887
O O2 0.315273 0.828211 0.103077
O O3 0.225843 0.895190 0.309084
O O4 0.275073 0.000000 0.139319
O O5 0.127508 0.500000 0.472469
O O6 0.093475 0.326855 0.498950
O O7 0.267649 0.393761 0.344232
O O8 0.191628 0.400780 0.567433
O O9 0.500000 0.305120 0.500000
O O10 0.514719 0.266097 0.303117
O O11 0.356165 0.327895 0.483333
O O12 0.963608 0.883055 0.213049
O O13 0.105015 0.783984 0.070895
O O14 0.628707 0.500000 0.825854
O O15 0.635717 0.329853 0.869111
O O16 0.000000 0.277363 0.000000
O O17 0.667437 0.500000 0.481739
#
# Coordination Sequence:
#
# PCOD9206645 Si02
#       7
#     8   8   8   8   8   8   8
#     4  11  23  40  62  87 121 157 193 244 297 349
#     4  10  22  39  61  88 119 157 199 240 286 351
#     4  12  23  37  62  88 122 157 186 242 301 349
#     4  11  23  38  60  88 121 153 196 245 297 345
#     4  10  21  39  64  89 116 154 200 247 290 339
#     4  10  24  41  61  87 117 156 203 244 284 351
#     4  10  21  36  60  91 118 149 194 240 292 354
#
# _framework density 19.178602000000001
#
# number of rings (size 3 to 8) (size 9 to 14) (size 15 to 20)
#    0.000    1.429    2.857    2.143    4.000    4.571 
#    0.000    0.714    0.000    0.000    0.000    0.000 
#    0.000    0.000    0.000    0.000    0.000    0.000 
#
# Total GULP energy -156322.029602 kJ/mol
# GULP energy per Si atom -5582.929629 kJ/mol
# Density = 1.913495 g / cm^3
# Si number density = 19.178602 Si / 1000 Ang^3
#
#
#
# Elastic Constant Matrix: (Units=GPa)
#
#
# Indices 1 2 3 4 5 6 
#
# 1 44.2932 24.3256 26.0463 0.0000 -1.8921 0.0000
# 2 24.3256 118.3300 51.4054 0.0000 -21.5518 0.0000
# 3 26.0463 51.4054 84.6608 0.0000 11.3186 0.0000
# 4 0.0000 0.0000 0.0000 -36.7695 0.0000 38.5159
# 5 -1.8921 -21.5518 11.3186 0.0000 17.8473 0.0000
# 6 0.0000 0.0000 0.0000 38.5159 0.0000 -7.1359
#
#
#
# Elastic Compliance Matrix: (Units=1/GPa)
#
#
# Indices 1 2 3 4 5 6 
#
# 1 0.028992 0.000648 -0.010739 0.000000 0.010667 0.000000
# 2 0.000648 0.026573 -0.022545 0.000000 0.046455 0.000000
# 3 -0.010739 -0.022545 0.035617 0.000000 -0.050951 0.000000
# 4 0.000000 0.000000 0.000000 0.005844 0.000000 0.031542
# 5 0.010667 0.046455 -0.050951 0.000000 0.145571 0.000000
# 6 0.000000 0.000000 0.000000 0.031542 0.000000 0.030112
#
#
# Mechanical properties :
#
#
# Convention : Reuss Voigt Hill
#
# Bulk Modulus (GPa) = 38.59604 50.09319 44.34461
# Shear Modulus (GPa) = 14.42520 4.48882 9.45701
#
# Velocity S-wave (km/s) = 2.74551 1.53154 2.22300
# Velocity P-wave (km/s) = 5.49715 5.41327 5.45537
#
# Compressibility (1/GPa) = 0.02590940
#
# Stress axis : x y z
#
# Youngs Moduli (GPa) = 34.49277 37.63274 28.07687
#
# Poissons Ratio (x) = -0.02439 0.30152
# Poissons Ratio (y) = -0.02236 0.63299
# Poissons Ratio (z) = 0.37042 0.84842
#
# Static dielectric constant tensor:
#      x y z
#    x 1.657280 0.000000 0.006790 
#    y 0.000000 1.665980 0.000000 
#    z 0.006790 0.000000 1.657930 
# 
# From -- ./inp_files/225189.got.cif
#   From: 2010.05.17/outbox.cif.g08.bks.cpg/sg12_113_cif.got.tgz:225189.got - 2010.06.03 13:09:07.
