data_PCOD9206299
_publ_section_title
;
Structure prediction by ZEFSAII (Michael W. Deem and Ramdas Pophale) SiO2 
 PCOD9206299
Probable space group: C 2/M
;
_chemical_formula_sum "Si O2"
_cell_formula_units_Z 48
_cell_length_a 11.528416
_cell_length_b 28.340668
_cell_length_c 8.677512
_cell_angle_alpha 90.000000
_cell_angle_beta 139.218286
_cell_angle_gamma 90.000000
_cell_volume 1851.855697
_symmetry_space_group_name_H-M "C 2/M"
_symmetry_group_IT_number 12
_symmetry_cell_setting 'monoclinic'
loop_
_space_group_symop_operation_xyz
x,y,z
-x,y,-z
-x,-y,-z
x,-y,z
1/2+x,1/2+y,z
1/2-x,1/2+y,-z
1/2-x,1/2-y,-z
1/2+x,1/2-y,z
loop_
_atom_site_type_symbol
_atom_site_label
_atom_site_fract_x
_atom_site_fract_y
_atom_site_fract_z
Si Si1 0.316776 0.813157 0.525959
Si Si2 0.757063 0.267156 0.761026
Si Si3 0.604523 0.682712 0.888396
Si Si4 0.733231 0.080936 0.901642
Si Si5 0.794392 0.443909 0.787544
Si Si6 0.169211 0.582571 0.504403
O O1 0.357197 0.767184 0.466158
O O2 0.366420 0.798157 0.747942
O O3 0.389463 0.862412 0.544091
O O4 0.105450 0.822654 0.309428
O O5 0.660488 0.303764 0.773106
O O6 0.845375 0.227543 0.956579
O O7 0.710002 0.636145 0.043243
O O8 0.774659 0.067264 0.763835
O O9 0.529044 0.061334 0.702936
O O10 0.796440 0.066805 0.138914
O O11 0.795344 0.500000 0.771436
O O12 0.731010 0.424192 0.557775
O O13 0.000000 0.426106 0.000000
#
# Coordination Sequence:
#
# PCOD9206299 Si02
#       6
#     8   8   8   8   8   8
#     4  11  22  38  57  80 112 155 196 237 291 340
#     4  10  23  35  51  81 111 147 199 242 274 335
#     4  11  22  38  57  80 112 155 196 237 291 340
#     4  10  21  36  57  86 116 147 189 240 289 341
#     4   9  19  37  60  86 116 148 184 231 291 354
#     4  10  21  36  57  86 116 147 189 240 289 341
#
# _framework density 25.919944999999998
#
# number of rings (size 3 to 8) (size 9 to 14) (size 15 to 20)
#    0.000    1.833    1.667    2.000    0.000    8.667 
#    0.000    3.333    0.000    2.000    0.000    2.333 
#    0.000    0.000    0.000    0.000    0.000    0.000 
#
# Total GULP energy -133967.981588 kJ/mol
# GULP energy per Si atom -5581.999233 kJ/mol
# Density = 2.586095 g / cm^3
# Si number density = 25.919945 Si / 1000 Ang^3
#
#
#
# Elastic Constant Matrix: (Units=GPa)
#
#
# Indices 1 2 3 4 5 6 
#
# 1 98.4293 13.4894 79.7768 0.0000 -41.5417 0.0000
# 2 13.4894 62.5034 16.6849 0.0000 -11.0288 0.0000
# 3 79.7768 16.6849 134.5137 0.0000 -52.3244 0.0000
# 4 0.0000 0.0000 0.0000 3.7542 0.0000 -6.1898
# 5 -41.5417 -11.0288 -52.3244 0.0000 76.5268 0.0000
# 6 0.0000 0.0000 0.0000 -6.1898 0.0000 15.1965
#
#
#
# Elastic Compliance Matrix: (Units=1/GPa)
#
#
# Indices 1 2 3 4 5 6 
#
# 1 0.020398 -0.000932 -0.010527 0.000000 0.003741 0.000000
# 2 -0.000932 0.016691 -0.001061 0.000000 0.001174 0.000000
# 3 -0.010527 -0.001061 0.015703 0.000000 0.004870 0.000000
# 4 0.000000 0.000000 0.000000 0.811069 0.000000 0.330363
# 5 0.003741 0.001174 0.004870 0.000000 0.018597 0.000000
# 6 0.000000 0.000000 0.000000 0.330363 0.000000 0.200367
#
#
# Mechanical properties :
#
#
# Convention : Reuss Voigt Hill
#
# Bulk Modulus (GPa) = 36.03264 57.26095 46.64679
# Shear Modulus (GPa) = 4.47581 31.46185 17.96883
#
# Velocity S-wave (km/s) = 1.31550 3.48776 2.63581
# Velocity P-wave (km/s) = 4.02977 6.19344 5.22483
#
# Compressibility (1/GPa) = 0.02775262
#
# Stress axis : x y z
#
# Youngs Moduli (GPa) = 49.02395 59.91379 63.68111
#
# Poissons Ratio (x) = 0.05585 0.67036
# Poissons Ratio (y) = 0.04570 0.06755
# Poissons Ratio (z) = 0.51607 0.06355
#
# Static dielectric constant tensor:
#      x y z
#    x 2.120240 0.000000 0.013660 
#    y 0.000000 1.972670 0.000000 
#    z 0.013660 0.000000 2.170430 
# 
# From -- ./inp_files/68385.got.cif
#   From: 2010.05.17/outbox.cif.g08.bks.cpg/sg12_35_cif.got.tgz:68385.got - 2010.06.03 13:09:07.
