data_PCOD9206796
_publ_section_title
;
Structure prediction by ZEFSAII (Michael W. Deem and Ramdas Pophale) SiO2 
 PCOD9206796
Probable space group: C 2/M
;
_chemical_formula_sum "Si O2"
_cell_formula_units_Z 48
_cell_length_a 29.041523
_cell_length_b 14.276165
_cell_length_c 9.369606
_cell_angle_alpha 90.000000
_cell_angle_beta 38.836832
_cell_angle_gamma 90.000000
_cell_volume 2436.084291
_symmetry_space_group_name_H-M "C 2/M"
_symmetry_group_IT_number 12
_symmetry_cell_setting 'monoclinic'
loop_
_space_group_symop_operation_xyz
x,y,z
-x,y,-z
-x,-y,-z
x,-y,z
1/2+x,1/2+y,z
1/2-x,1/2+y,-z
1/2-x,1/2-y,-z
1/2+x,1/2-y,z
loop_
_atom_site_type_symbol
_atom_site_label
_atom_site_fract_x
_atom_site_fract_y
_atom_site_fract_z
Si Si1 0.129069 0.216320 0.895370
Si Si2 0.514390 0.607306 0.793875
Si Si3 0.466840 0.891005 0.923207
Si Si4 0.928903 0.393960 0.571550
Si Si5 0.670439 0.388060 0.504952
Si Si6 0.792960 0.711990 0.033637
O O1 0.163722 0.167834 0.671145
O O2 0.181717 0.214971 0.905002
O O3 0.102591 0.322948 0.927250
O O4 0.051595 0.165051 0.114013
O O5 0.509071 0.500000 0.759288
O O6 0.598805 0.638103 0.582345
O O7 0.500000 0.610295 0.000000
O O8 0.535245 0.858824 0.660839
O O9 0.449563 0.000000 0.928638
O O10 0.500000 0.887029 0.000000
O O11 0.901453 0.500000 0.615612
O O12 0.000000 0.397122 0.500000
O O13 0.866422 0.334418 0.795215
O O14 0.666351 0.500000 0.542288
O O15 0.741660 0.360184 0.244081
O O16 0.750000 0.750000 0.000000
#
# Coordination Sequence:
#
# PCOD9206796 Si02
#       6
#     8   8   8   8   8   8
#     4  11  21  39  66  93 123 167 218 260 309 370
#     4   8  16  34  64  92 114 151 205 262 309 355
#     4  10  21  36  64 100 123 151 209 271 318 367
#     4  10  21  42  65  85 119 169 212 254 315 380
#     4  10  22  43  67  94 128 167 211 262 320 378
#     4  12  27  39  59  92 135 173 208 254 322 381
#
# _framework density 19.703752999999999
#
# number of rings (size 3 to 8) (size 9 to 14) (size 15 to 20)
#    0.000    1.833    1.667    4.000    4.667    0.667 
#    0.000    3.333    0.000    2.000    0.000    0.000 
#    0.000    0.000    0.000    0.000    0.000    0.000 
#
# Total GULP energy -133910.910101 kJ/mol
# GULP energy per Si atom -5579.621254 kJ/mol
# Density = 1.965891 g / cm^3
# Si number density = 19.703753 Si / 1000 Ang^3
#
#
#
# Elastic Constant Matrix: (Units=GPa)
#
#
# Indices 1 2 3 4 5 6 
#
# 1 107.4079 40.6267 32.9876 0.0000 1.9131 0.0000
# 2 40.6267 84.8574 38.8903 0.0000 2.5197 0.0000
# 3 32.9876 38.8903 131.4194 0.0000 4.7090 0.0000
# 4 0.0000 0.0000 0.0000 76.9851 0.0000 -81.9085
# 5 1.9131 2.5197 4.7090 0.0000 23.4691 0.0000
# 6 0.0000 0.0000 0.0000 -81.9085 0.0000 134.5591
#
#
#
# Elastic Compliance Matrix: (Units=1/GPa)
#
#
# Indices 1 2 3 4 5 6 
#
# 1 0.011609 -0.004883 -0.001464 0.000000 -0.000128 0.000000
# 2 -0.004883 0.015698 -0.003398 0.000000 -0.000605 0.000000
# 3 -0.001464 -0.003398 0.009030 0.000000 -0.001328 0.000000
# 4 0.000000 0.000000 0.000000 0.036865 0.000000 0.022440
# 5 -0.000128 -0.000605 -0.001328 0.000000 0.042951 0.000000
# 6 0.000000 0.000000 0.000000 0.022440 0.000000 0.021092
#
#
# Mechanical properties :
#
#
# Convention : Reuss Voigt Hill
#
# Bulk Modulus (GPa) = 59.36167 60.96600 60.16384
# Shear Modulus (GPa) = 30.79745 61.08131 45.93938
#
# Velocity S-wave (km/s) = 3.95780 5.57379 4.83380
# Velocity P-wave (km/s) = 7.14689 8.51066 7.85842
#
# Compressibility (1/GPa) = 0.01684589
#
# Stress axis : x y z
#
# Youngs Moduli (GPa) = 86.13703 63.70392 110.74321
#
# Poissons Ratio (x) = 0.31108 0.16217
# Poissons Ratio (y) = 0.42063 0.37629
# Poissons Ratio (z) = 0.12614 0.21646
#
# Static dielectric constant tensor:
#      x y z
#    x 1.795840 0.000000 0.055170 
#    y 0.000000 1.722550 0.000000 
#    z 0.055170 0.000000 1.734530 
# 
# From -- ./inp_files/111498.got.cif
#   From: 2010.05.17/outbox.cif.g08.bks.cpg/sg12_56_cif.got.tgz:111498.got - 2010.06.03 13:09:07.
