data_PCOD9206134
_publ_section_title
;
Structure prediction by ZEFSAII (Michael W. Deem and Ramdas Pophale) SiO2 
 PCOD9206134
Probable space group: C 2/M
;
_chemical_formula_sum "Si O2"
_cell_formula_units_Z 40
_cell_length_a 10.089696
_cell_length_b 7.512020
_cell_length_c 22.087343
_cell_angle_alpha 90.000000
_cell_angle_beta 98.614845
_cell_angle_gamma 90.000000
_cell_volume 1655.200310
_symmetry_space_group_name_H-M "C 2/M"
_symmetry_group_IT_number 12
_symmetry_cell_setting 'monoclinic'
loop_
_space_group_symop_operation_xyz
x,y,z
-x,y,-z
-x,-y,-z
x,-y,z
1/2+x,1/2+y,z
1/2-x,1/2+y,-z
1/2-x,1/2-y,-z
1/2+x,1/2-y,z
loop_
_atom_site_type_symbol
_atom_site_label
_atom_site_fract_x
_atom_site_fract_y
_atom_site_fract_z
Si Si1 0.600231 0.206109 0.137237
Si Si2 0.327563 0.712280 0.067152
Si Si3 0.634046 0.787207 0.539560
Si Si4 0.255494 0.783490 0.324536
Si Si5 0.980058 0.292420 0.252088
O O1 0.476837 0.212866 0.081778
O O2 0.733210 0.282475 0.115437
O O3 0.539059 0.288593 0.194257
O O4 0.631293 0.000000 0.152609
O O5 0.339373 0.500000 0.073550
O O6 0.250000 0.750000 0.000000
O O7 0.500000 0.713870 0.500000
O O8 0.750000 0.750000 0.500000
O O9 0.676337 0.721222 0.608657
O O10 0.617306 0.000000 0.545285
O O11 0.103214 0.721312 0.307386
O O12 0.346279 0.720035 0.274176
O O13 0.254566 0.000000 0.324034
O O14 0.952414 0.500000 0.237839
#
# Coordination Sequence:
#
# PCOD9206134 Si02
#       5
#     8   8   8   8   8
#     4  10  22  39  58  83 113 144 183 228 273 326
#     4  11  23  38  58  84 113 147 186 227 273 325
#     4  10  21  37  56  80 111 145 183 227 273 324
#     4  10  21  36  56  83 111 142 183 227 272 326
#     4  10  21  38  59  82 111 146 181 224 277 327
#
# _framework density 24.166259
#
# number of rings (size 3 to 8) (size 9 to 14) (size 15 to 20)
#    0.000    1.800    0.000    3.600    0.000    8.400 
#    0.000    0.000    0.000    0.000    0.000    0.000 
#    0.000    0.000    0.000    0.000    0.000    0.000 
#
# Total GULP energy -111893.859744 kJ/mol
# GULP energy per Si atom -5594.692987 kJ/mol
# Density = 2.411126 g / cm^3
# Si number density = 24.166259 Si / 1000 Ang^3
#
#
#
# Elastic Constant Matrix: (Units=GPa)
#
#
# Indices 1 2 3 4 5 6 
#
# 1 108.4597 -9.0904 -11.2704 0.0000 -1.4152 0.0000
# 2 -9.0904 76.6653 -0.8462 0.0000 -6.0728 0.0000
# 3 -11.2704 -0.8462 77.1958 0.0000 1.0764 0.0000
# 4 0.0000 0.0000 0.0000 18.4189 0.0000 5.7916
# 5 -1.4152 -6.0728 1.0764 0.0000 47.8401 0.0000
# 6 0.0000 0.0000 0.0000 5.7916 0.0000 18.2814
#
#
#
# Elastic Compliance Matrix: (Units=1/GPa)
#
#
# Indices 1 2 3 4 5 6 
#
# 1 0.009468 0.001169 0.001390 0.000000 0.000397 0.000000
# 2 0.001169 0.013322 0.000293 0.000000 0.001719 0.000000
# 3 0.001390 0.000293 0.013163 0.000000 -0.000218 0.000000
# 4 0.000000 0.000000 0.000000 0.060299 0.000000 -0.019103
# 5 0.000397 0.001719 -0.000218 0.000000 0.021138 0.000000
# 6 0.000000 0.000000 0.000000 -0.019103 0.000000 0.060752
#
#
# Mechanical properties :
#
#
# Convention : Reuss Voigt Hill
#
# Bulk Modulus (GPa) = 24.00614 24.43408 24.22011
# Shear Modulus (GPa) = 26.83505 35.80993 31.32249
#
# Velocity S-wave (km/s) = 3.33593 3.85361 3.60408
# Velocity P-wave (km/s) = 4.97928 5.47112 5.23099
#
# Compressibility (1/GPa) = 0.04165601
#
# Stress axis : x y z
#
# Youngs Moduli (GPa) = 105.62340 75.06504 75.96943
#
# Poissons Ratio (x) = -0.08778 -0.10556
# Poissons Ratio (y) = -0.12352 -0.02224
# Poissons Ratio (z) = -0.14677 -0.02198
#
# Static dielectric constant tensor:
#      x y z
#    x 1.871160 0.000000 -0.005430 
#    y 0.000000 1.915150 0.000000 
#    z -0.005430 0.000000 1.949270 
# 
# From -- ./inp_files/303422.got.cif
#   From: 2010.05.17/outbox.cif.g08.bks.cpg/sg12_152_cif.got.tgz:303422.got - 2010.06.03 13:09:07.
