data_PCOD9206463
_publ_section_title
;
Structure prediction by ZEFSAII (Michael W. Deem and Ramdas Pophale) SiO2 
 PCOD9206463
Probable space group: C 2/M
;
_chemical_formula_sum "Si O2"
_cell_formula_units_Z 56
_cell_length_a 24.290559
_cell_length_b 8.549612
_cell_length_c 15.888915
_cell_angle_alpha 90.000000
_cell_angle_beta 119.651705
_cell_angle_gamma 90.000000
_cell_volume 2867.624861
_symmetry_space_group_name_H-M "C 2/M"
_symmetry_group_IT_number 12
_symmetry_cell_setting 'monoclinic'
loop_
_space_group_symop_operation_xyz
x,y,z
-x,y,-z
-x,-y,-z
x,-y,z
1/2+x,1/2+y,z
1/2-x,1/2+y,-z
1/2-x,1/2-y,-z
1/2+x,1/2-y,z
loop_
_atom_site_type_symbol
_atom_site_label
_atom_site_fract_x
_atom_site_fract_y
_atom_site_fract_z
Si Si1 0.209410 0.314863 0.891253
Si Si2 0.187019 0.315103 0.147991
Si Si3 0.336342 0.311868 0.506690
Si Si4 0.520611 0.309172 0.423216
Si Si5 0.948121 0.689040 0.030087
Si Si6 0.067358 0.187562 0.797819
Si Si7 0.709935 0.315440 0.341501
O O1 0.203270 0.500000 0.894642
O O2 0.251384 0.270472 0.842132
O O3 0.139638 0.241960 0.839644
O O4 0.250000 0.250000 0.000000
O O5 0.194631 0.500000 0.139509
O O6 0.181834 0.278420 0.242430
O O7 0.122572 0.263415 0.052870
O O8 0.329698 0.500000 0.491042
O O9 0.407043 0.264199 0.537954
O O10 0.322510 0.276368 0.593994
O O11 0.283290 0.229182 0.410567
O O12 0.500000 0.255884 0.500000
O O13 0.518507 0.500000 0.421474
O O14 0.475272 0.257398 0.312985
O O15 0.949525 0.500000 0.033406
O O16 0.957972 0.751109 0.131670
O O17 0.000000 0.740148 0.000000
O O18 0.066001 0.000000 0.798844
O O19 0.702953 0.500000 0.321005
#
# Coordination Sequence:
#
# PCOD9206463 Si02
#       7
#     8   8   8   8   8   8   8
#     4  12  24  41  63  89 123 157 198 249 299 357
#     4  11  23  39  62  89 120 161 203 245 306 370
#     4   9  19  38  61  84 118 160 203 249 303 363
#     4   9  20  38  60  88 119 158 204 247 295 361
#     4  10  23  42  62  88 124 165 207 251 306 368
#     4  11  23  39  64  94 122 162 207 251 308 364
#     4  10  21  36  58  89 121 153 200 256 306 357
#
# _framework density 19.528358000000001
#
# number of rings (size 3 to 8) (size 9 to 14) (size 15 to 20)
#    0.000    1.714    1.429    2.571    4.000    1.429 
#    0.000    1.429    0.000    2.143    0.000    0.000 
#    0.000    0.000    0.000    0.000    0.000    0.000 
#
# Total GULP energy -156471.746016 kJ/mol
# GULP energy per Si atom -5588.276643 kJ/mol
# Density = 1.948391 g / cm^3
# Si number density = 19.528358 Si / 1000 Ang^3
#
#
#
# Elastic Constant Matrix: (Units=GPa)
#
#
# Indices 1 2 3 4 5 6 
#
# 1 138.0103 18.3660 60.9658 0.0000 3.7098 0.0000
# 2 18.3660 22.6311 16.2541 0.0000 -4.5391 0.0000
# 3 60.9658 16.2541 126.8113 0.0000 -7.1939 0.0000
# 4 0.0000 0.0000 0.0000 26.6009 0.0000 -3.0857
# 5 3.7098 -4.5391 -7.1939 0.0000 20.9344 0.0000
# 6 0.0000 0.0000 0.0000 -3.0857 0.0000 24.4870
#
#
#
# Elastic Compliance Matrix: (Units=1/GPa)
#
#
# Indices 1 2 3 4 5 6 
#
# 1 0.010082 -0.005983 -0.004340 0.000000 -0.004575 0.000000
# 2 -0.005983 0.053775 -0.003360 0.000000 0.011565 0.000000
# 3 -0.004340 -0.003360 0.010612 0.000000 0.003687 0.000000
# 4 0.000000 0.000000 0.000000 0.038150 0.000000 0.004807
# 5 -0.004575 0.011565 0.003687 0.000000 0.052354 0.000000
# 6 0.000000 0.000000 0.000000 0.004807 0.000000 0.041444
#
#
# Mechanical properties :
#
#
# Convention : Reuss Voigt Hill
#
# Bulk Modulus (GPa) = 21.22977 53.18048 37.20512
# Shear Modulus (GPa) = 20.04138 27.19558 23.61848
#
# Velocity S-wave (km/s) = 3.20702 3.73583 3.48148
# Velocity P-wave (km/s) = 4.96066 6.77496 5.93752
#
# Compressibility (1/GPa) = 0.04710366
#
# Stress axis : x y z
#
# Youngs Moduli (GPa) = 99.18611 18.59594 94.23296
#
# Poissons Ratio (x) = 0.11125 0.40895
# Poissons Ratio (y) = 0.59340 0.31665
# Poissons Ratio (z) = 0.43044 0.06249
#
# Static dielectric constant tensor:
#      x y z
#    x 1.686720 0.000000 -0.017440 
#    y 0.000000 1.671280 0.000000 
#    z -0.017440 0.000000 1.666040 
# 
# From -- ./inp_files/238911.got.cif
#   From: 2010.05.17/outbox.cif.g08.bks.cpg/sg12_120_cif.got.tgz:238911.got - 2010.06.03 13:09:07.
