data_PCOD9206417
_publ_section_title
;
Structure prediction by ZEFSAII (Michael W. Deem and Ramdas Pophale) SiO2 
 PCOD9206417
Probable space group: C 2/M
;
_chemical_formula_sum "Si O2"
_cell_formula_units_Z 44
_cell_length_a 13.526578
_cell_length_b 23.825403
_cell_length_c 8.891401
_cell_angle_alpha 90.000000
_cell_angle_beta 126.339120
_cell_angle_gamma 90.000000
_cell_volume 2308.217959
_symmetry_space_group_name_H-M "C 2/M"
_symmetry_group_IT_number 12
_symmetry_cell_setting 'monoclinic'
loop_
_space_group_symop_operation_xyz
x,y,z
-x,y,-z
-x,-y,-z
x,-y,z
1/2+x,1/2+y,z
1/2-x,1/2+y,-z
1/2-x,1/2-y,-z
1/2+x,1/2-y,z
loop_
_atom_site_type_symbol
_atom_site_label
_atom_site_fract_x
_atom_site_fract_y
_atom_site_fract_z
Si Si1 0.322279 0.061982 0.199831
Si Si2 0.500000 0.147832 0.500000
Si Si3 0.132140 0.849211 0.045641
Si Si4 0.645154 0.936565 0.124814
Si Si5 0.199051 0.734019 0.616020
Si Si6 0.632348 0.645100 0.682199
O O1 0.428326 0.106272 0.327548
O O2 0.201515 0.093012 0.151006
O O3 0.341260 0.000000 0.281543
O O4 0.320364 0.057347 0.019159
O O5 0.591845 0.188706 0.497226
O O6 0.208085 0.797255 0.185319
O O7 0.128808 0.850415 0.861102
O O8 0.000000 0.847436 0.000000
O O9 0.751385 0.892706 0.270671
O O10 0.652473 0.000000 0.199889
O O11 0.500000 0.919340 0.000000
O O12 0.250000 0.750000 0.500000
O O13 0.151657 0.791561 0.643876
O O14 0.500000 0.624591 0.500000
#
# Coordination Sequence:
#
# PCOD9206417 Si02
#       6
#     8   4   8   8   8   8
#     4   9  19  37  60  84 116 153 195 249 303 359
#     4  10  21  36  58  86 121 148 202 246 296 360
#     4  10  22  39  59  86 121 161 202 248 306 366
#     4   9  20  38  60  87 118 156 202 250 306 370
#     4  11  23  38  59  86 123 161 202 253 304 363
#     4  11  22  39  62  88 124 160 206 253 309 364
#
# _framework density 19.062324
#
# number of rings (size 3 to 8) (size 9 to 14) (size 15 to 20)
#    0.000    2.000    0.909    1.909    2.545    1.455 
#    0.000    0.000    0.000    0.000    0.000    0.000 
#    0.000    0.000    0.000    0.000    0.000    0.000 
#
# Total GULP energy -122546.261742 kJ/mol
# GULP energy per Si atom -5570.284625 kJ/mol
# Density = 1.901894 g / cm^3
# Si number density = 19.062324 Si / 1000 Ang^3
#
#
#
# Elastic Constant Matrix: (Units=GPa)
#
#
# Indices 1 2 3 4 5 6 
#
# 1 89.3553 46.7007 29.9853 0.0000 23.2237 0.0000
# 2 46.7007 145.2778 43.7756 0.0000 25.0599 0.0000
# 3 29.9853 43.7756 62.5473 0.0000 10.4471 0.0000
# 4 0.0000 0.0000 0.0000 16.0767 0.0000 3.4531
# 5 23.2237 25.0599 10.4471 0.0000 37.4700 0.0000
# 6 0.0000 0.0000 0.0000 3.4531 0.0000 23.4822
#
#
#
# Elastic Compliance Matrix: (Units=1/GPa)
#
#
# Indices 1 2 3 4 5 6 
#
# 1 0.015856 -0.002497 -0.004711 0.000000 -0.006844 0.000000
# 2 -0.002497 0.009843 -0.005088 0.000000 -0.003617 0.000000
# 3 -0.004711 -0.005088 0.021765 0.000000 0.000254 0.000000
# 4 0.000000 0.000000 0.000000 0.064231 0.000000 -0.009445
# 5 -0.006844 -0.003617 0.000254 0.000000 0.033278 0.000000
# 6 0.000000 0.000000 0.000000 -0.009445 0.000000 0.043974
#
#
# Mechanical properties :
#
#
# Convention : Reuss Voigt Hill
#
# Bulk Modulus (GPa) = 43.72023 59.78930 51.75476
# Shear Modulus (GPa) = 22.60794 27.18703 24.89749
#
# Velocity S-wave (km/s) = 3.44757 3.78063 3.61793
# Velocity P-wave (km/s) = 6.23160 7.10569 6.68295
#
# Compressibility (1/GPa) = 0.02287271
#
# Stress axis : x y z
#
# Youngs Moduli (GPa) = 63.06830 101.59511 45.94633
#
# Poissons Ratio (x) = 0.25368 0.21643
# Poissons Ratio (y) = 0.15748 0.23376
# Poissons Ratio (z) = 0.29709 0.51689
#
# Static dielectric constant tensor:
#      x y z
#    x 1.662740 0.000000 0.040400 
#    y 0.000000 1.680100 0.000000 
#    z 0.040400 0.000000 1.735700 
# 
# From -- ./inp_files/51543.got.cif
#   From: 2010.05.17/outbox.cif.g08.bks.cpg/sg12_26_cif.got.tgz:51543.got - 2010.06.03 13:09:07.
