data_PCOD9206978
_publ_section_title
;
Structure prediction by ZEFSAII (Michael W. Deem and Ramdas Pophale) SiO2 
 PCOD9206978
Probable space group: C 2/M
;
_chemical_formula_sum "Si O2"
_cell_formula_units_Z 42
_cell_length_a 14.242864
_cell_length_b 20.911286
_cell_length_c 14.516272
_cell_angle_alpha 90.000000
_cell_angle_beta 151.390465
_cell_angle_gamma 90.000000
_cell_volume 2070.244983
_symmetry_space_group_name_H-M "C 2/M"
_symmetry_group_IT_number 12
_symmetry_cell_setting 'monoclinic'
loop_
_space_group_symop_operation_xyz
x,y,z
-x,y,-z
-x,-y,-z
x,-y,z
1/2+x,1/2+y,z
1/2-x,1/2+y,-z
1/2-x,1/2-y,-z
1/2+x,1/2-y,z
loop_
_atom_site_type_symbol
_atom_site_label
_atom_site_fract_x
_atom_site_fract_y
_atom_site_fract_z
Si Si1 0.120636 0.169063 0.383200
Si Si2 0.259123 0.747131 0.144104
Si Si3 0.269642 0.073004 0.389641
Si Si4 0.795849 0.393043 0.208886
Si Si5 0.000000 0.000000 0.000000
Si Si6 0.188986 0.728573 0.293570
O O1 0.121433 0.100124 0.336874
O O2 0.229015 0.212414 0.398409
O O3 0.237271 0.170509 0.579750
O O4 0.917317 0.204571 0.227680
O O5 0.277811 0.823746 0.147715
O O6 0.283415 0.734548 0.274516
O O7 0.041906 0.728011 0.925933
O O8 0.488683 0.077221 0.620407
O O9 0.279065 0.114832 0.305487
O O10 0.230934 0.000000 0.321303
O O11 0.622367 0.443284 0.046218
#
# Coordination Sequence:
#
# PCOD9206978 Si02
#       6
#     8   8   8   8   2   8
#     4  11  22  37  59  87 117 164 201 247 312 351
#     4  11  22  37  61  87 122 157 200 254 305 364
#     4  11  22  40  55  81 122 164 200 245 296 369
#     4  11  21  36  57  84 121 159 200 240 306 374
#     4  12  20  34  56  88 120 170 196 232 308 390
#     4  10  21  37  55  89 120 151 195 254 300 361
#
# _framework density 20.287454
#
# number of rings (size 3 to 8) (size 9 to 14) (size 15 to 20)
#    0.000    1.143    3.810    5.143    2.667    0.000 
#    0.000    0.000    0.000    2.286    0.000    2.667 
#    0.000    0.000    0.000    0.000    0.000    0.000 
#
# Total GULP energy -117042.684595 kJ/mol
# GULP energy per Si atom -5573.461171 kJ/mol
# Density = 2.024128 g / cm^3
# Si number density = 20.287454 Si / 1000 Ang^3
#
#
#
# Elastic Constant Matrix: (Units=GPa)
#
#
# Indices 1 2 3 4 5 6 
#
# 1 101.6210 44.1984 13.0028 0.0000 -6.8165 0.0000
# 2 44.1984 85.2344 22.5258 0.0000 9.9391 0.0000
# 3 13.0028 22.5258 77.2750 0.0001 -0.0503 0.0000
# 4 0.0000 0.0000 0.0001 25.1540 0.0000 -3.1053
# 5 -6.8165 9.9391 -0.0503 0.0000 40.4186 0.0000
# 6 0.0000 0.0000 0.0000 -3.1053 0.0000 37.7609
#
#
#
# Elastic Compliance Matrix: (Units=1/GPa)
#
#
# Indices 1 2 3 4 5 6 
#
# 1 0.013325 -0.007358 -0.000095 0.000000 0.004056 0.000000
# 2 -0.007358 0.017183 -0.003774 0.000000 -0.005471 0.000000
# 3 -0.000095 -0.003774 0.014058 0.000000 0.000930 0.000000
# 4 0.000000 0.000000 0.000000 0.040163 0.000000 0.003303
# 5 0.004056 -0.005471 0.000930 0.000000 0.026772 0.000000
# 6 0.000000 0.000000 0.000000 0.003303 0.000000 0.026754
#
#
# Mechanical properties :
#
#
# Convention : Reuss Voigt Hill
#
# Bulk Modulus (GPa) = 45.22430 47.06495 46.14462
# Shear Modulus (GPa) = 29.74812 32.96027 31.35419
#
# Velocity S-wave (km/s) = 3.83342 4.03508 3.93555
# Velocity P-wave (km/s) = 6.47562 6.70512 6.59137
#
# Compressibility (1/GPa) = 0.02211201
#
# Stress axis : x y z
#
# Youngs Moduli (GPa) = 75.04848 58.19682 71.13592
#
# Poissons Ratio (x) = 0.42818 0.00674
# Poissons Ratio (y) = 0.55217 0.26850
# Poissons Ratio (z) = 0.00711 0.21966
#
# Static dielectric constant tensor:
#      x y z
#    x 1.721170 0.000000 0.014950 
#    y 0.000000 1.746770 0.000000 
#    z 0.014950 0.000000 1.726170 
# 
# From -- ./inp_files/62672.got.cif
#   From: 2010.05.17/outbox.cif.g08.bks.cpg/sg12_32_cif.got.tgz:62672.got - 2010.06.03 13:09:07.
