data_PCOD9206070
_publ_section_title
;
Structure prediction by ZEFSAII (Michael W. Deem and Ramdas Pophale) SiO2 
 PCOD9206070
Probable space group: C 2/M
;
_chemical_formula_sum "Si O2"
_cell_formula_units_Z 64
_cell_length_a 21.394681
_cell_length_b 11.743445
_cell_length_c 25.811419
_cell_angle_alpha 90.000000
_cell_angle_beta 26.402699
_cell_angle_gamma 90.000000
_cell_volume 2883.754234
_symmetry_space_group_name_H-M "C 2/M"
_symmetry_group_IT_number 12
_symmetry_cell_setting 'monoclinic'
loop_
_space_group_symop_operation_xyz
x,y,z
-x,y,-z
-x,-y,-z
x,-y,z
1/2+x,1/2+y,z
1/2-x,1/2+y,-z
1/2-x,1/2-y,-z
1/2+x,1/2-y,z
loop_
_atom_site_type_symbol
_atom_site_label
_atom_site_fract_x
_atom_site_fract_y
_atom_site_fract_z
Si Si1 0.672548 0.376447 0.329714
Si Si2 0.349077 0.867628 0.410176
Si Si3 0.694823 0.876926 0.055193
Si Si4 0.156839 0.686278 0.197073
Si Si5 0.761182 0.873582 0.400140
Si Si6 0.072483 0.371990 0.374325
Si Si7 0.350613 0.127792 0.092740
Si Si8 0.868767 0.660535 0.280308
O O1 0.592774 0.500000 0.388428
O O2 0.605381 0.249006 0.377970
O O3 0.760203 0.379432 0.211897
O O4 0.777200 0.378831 0.300570
O O5 0.491428 0.794544 0.309151
O O6 0.242828 0.842226 0.535762
O O7 0.300476 0.871305 0.386806
O O8 0.394512 0.000000 0.387808
O O9 0.702641 0.880566 0.112067
O O10 0.529734 0.875739 0.161603
O O11 0.753797 0.000000 0.991999
O O12 0.750000 0.750000 0.000000
O O13 0.150229 0.635187 0.260294
O O14 0.258825 0.794766 0.123499
O O15 0.596173 0.868719 0.508006
O O16 0.854408 0.795895 0.294647
O O17 0.813455 0.000000 0.357103
O O18 0.105885 0.500000 0.371465
O O19 0.375839 0.000000 0.053373
O O20 0.500000 0.177309 0.000000
#
# Coordination Sequence:
#
# PCOD9206070 Si02
#       8
#     8   8   8   8   8   8   8   8
#     4  10  21  36  55  83 119 153 196 240 288 349
#     4   9  17  34  58  82 111 150 191 232 288 348
#     4  11  25  42  62  86 117 156 198 242 298 356
#     4   9  17  34  61  84 110 145 195 242 288 344
#     4   9  19  35  59  88 116 150 195 242 286 345
#     4   9  18  37  63  86 115 156 195 236 293 346
#     4   9  19  34  56  82 109 148 197 247 295 347
#     4  11  21  36  58  84 117 155 194 240 292 350
#
# _framework density 22.193292
#
# number of rings (size 3 to 8) (size 9 to 14) (size 15 to 20)
#    0.000    2.375    0.000    4.125    1.750    2.000 
#    0.000    5.625    0.000   12.750    0.000    0.000 
#    0.000    0.000    0.000    0.000    0.000    0.000 
#
# Total GULP energy -178207.524367 kJ/mol
# GULP energy per Si atom -5568.985136 kJ/mol
# Density = 2.214278 g / cm^3
# Si number density = 22.193292 Si / 1000 Ang^3
#
#
#
# Elastic Constant Matrix: (Units=GPa)
#
#
# Indices 1 2 3 4 5 6 
#
# 1 89.6432 49.8754 -2.2703 0.0001 -3.9167 0.0008
# 2 49.8754 184.2842 31.6814 0.0007 -8.8686 0.0015
# 3 -2.2703 31.6814 34.8639 0.0020 0.7715 0.0027
# 4 0.0001 0.0007 0.0020 20.5547 -0.0009 -3.4624
# 5 -3.9167 -8.8686 0.7715 -0.0009 22.4214 -0.0005
# 6 0.0008 0.0015 0.0027 -3.4624 -0.0005 6.7398
#
#
#
# Elastic Compliance Matrix: (Units=1/GPa)
#
#
# Indices 1 2 3 4 5 6 
#
# 1 0.013865 -0.004605 0.005078 -0.000001 0.000426 -0.000003
# 2 -0.004605 0.008134 -0.007751 0.000001 0.002680 0.000003
# 3 0.005078 -0.007751 0.036133 -0.000006 -0.003422 -0.000017
# 4 -0.000001 0.000001 -0.000006 0.053260 0.000003 0.027361
# 5 0.000426 0.002680 -0.003422 0.000003 0.045852 0.000006
# 6 -0.000003 0.000003 -0.000017 0.027361 0.000006 0.162429
#
#
# Mechanical properties :
#
#
# Convention : Reuss Voigt Hill
#
# Bulk Modulus (GPa) = 22.94846 51.92934 37.43890
# Shear Modulus (GPa) = 14.33680 25.24351 19.79015
#
# Velocity S-wave (km/s) = 2.54440 3.37625 2.98940
# Velocity P-wave (km/s) = 4.35829 6.21677 5.36856
#
# Compressibility (1/GPa) = 0.04357590
#
# Stress axis : x y z
#
# Youngs Moduli (GPa) = 72.12624 122.93907 27.67588
#
# Poissons Ratio (x) = 0.56612 -0.14054
# Poissons Ratio (y) = 0.33213 0.21451
# Poissons Ratio (z) = -0.36625 0.95287
#
# Static dielectric constant tensor:
#      x y z
#    x 1.845500 0.000000 0.013260 
#    y 0.000000 1.975480 0.000000 
#    z 0.013260 0.000000 1.815960 
# 
# From -- ./inp_files/366019.got.cif
#   From: 2010.05.17/outbox.cif.g08.bks.cpg/sg12_184_cif.got.tgz:366019.got - 2010.06.03 13:09:07.
