data_PCOD9206455
_publ_section_title
;
Structure prediction by ZEFSAII (Michael W. Deem and Ramdas Pophale) SiO2 
 PCOD9206455
Probable space group: C 2/M
;
_chemical_formula_sum "Si O2"
_cell_formula_units_Z 56
_cell_length_a 32.247548
_cell_length_b 8.298622
_cell_length_c 14.305043
_cell_angle_alpha 90.000000
_cell_angle_beta 132.874593
_cell_angle_gamma 90.000000
_cell_volume 2805.458118
_symmetry_space_group_name_H-M "C 2/M"
_symmetry_group_IT_number 12
_symmetry_cell_setting 'monoclinic'
loop_
_space_group_symop_operation_xyz
x,y,z
-x,y,-z
-x,-y,-z
x,-y,z
1/2+x,1/2+y,z
1/2-x,1/2+y,-z
1/2-x,1/2-y,-z
1/2+x,1/2-y,z
loop_
_atom_site_type_symbol
_atom_site_label
_atom_site_fract_x
_atom_site_fract_y
_atom_site_fract_z
Si Si1 0.558449 0.696921 0.544333
Si Si2 0.084056 0.193712 0.373694
Si Si3 0.314576 0.309765 0.596700
Si Si4 0.985675 0.306526 0.085672
Si Si5 0.828509 0.805489 0.179614
Si Si6 0.639654 0.189821 0.137243
Si Si7 0.214978 0.191132 0.089835
O O1 0.500000 0.752973 0.500000
O O2 0.556523 0.500000 0.538545
O O3 0.570525 0.753137 0.457300
O O4 0.610444 0.742341 0.690192
O O5 0.142680 0.256371 0.417614
O O6 0.031640 0.232370 0.225239
O O7 0.089134 0.000000 0.386967
O O8 0.311218 0.500000 0.577988
O O9 0.250000 0.250000 0.500000
O O10 0.344522 0.273347 0.741456
O O11 0.988931 0.500000 0.101719
O O12 0.920426 0.254315 0.997756
O O13 0.000000 0.268113 0.000000
O O14 0.780100 0.732345 0.170883
O O15 0.823456 0.000000 0.175954
O O16 0.816296 0.757290 0.054109
O O17 0.688490 0.220949 0.137370
O O18 0.634046 0.000000 0.148426
O O19 0.207726 0.000000 0.090876
#
# Coordination Sequence:
#
# PCOD9206455 Si02
#       7
#     8   8   8   8   8   8   8
#     4   9  19  36  59  86 115 153 196 236 288 352
#     4  10  22  38  61  89 117 153 198 246 292 348
#     4  11  24  40  59  90 124 158 200 245 296 355
#     4  10  21  39  60  83 114 152 193 237 294 351
#     4   9  19  37  60  84 116 155 194 239 294 356
#     4  11  23  39  61  86 116 157 198 243 297 356
#     4  10  21  36  58  89 117 149 195 247 298 350
#
# _framework density 19.961089000000001
#
# number of rings (size 3 to 8) (size 9 to 14) (size 15 to 20)
#    0.000    2.000    1.429    1.286    4.000    2.571 
#    0.000    0.714    0.000    0.857    0.000    0.000 
#    0.000    0.000    0.000    0.000    0.000    0.000 
#
# Total GULP energy -156368.843157 kJ/mol
# GULP energy per Si atom -5584.601541 kJ/mol
# Density = 1.991566 g / cm^3
# Si number density = 19.961089 Si / 1000 Ang^3
#
#
#
# Elastic Constant Matrix: (Units=GPa)
#
#
# Indices 1 2 3 4 5 6 
#
# 1 146.1513 10.1317 67.2115 0.0000 7.9910 0.0000
# 2 10.1317 12.2934 6.9515 0.0000 4.2289 0.0000
# 3 67.2115 6.9515 99.2694 0.0000 29.6515 0.0000
# 4 0.0000 0.0000 0.0000 21.1809 0.0000 8.8455
# 5 7.9910 4.2289 29.6515 0.0000 26.8002 0.0000
# 6 0.0000 0.0000 0.0000 8.8455 0.0000 12.1755
#
#
#
# Elastic Compliance Matrix: (Units=1/GPa)
#
#
# Indices 1 2 3 4 5 6 
#
# 1 0.011311 -0.006733 -0.009703 0.000000 0.008425 0.000000
# 2 -0.006733 0.090600 0.002815 0.000000 -0.015403 0.000000
# 3 -0.009703 0.002815 0.023471 0.000000 -0.023519 0.000000
# 4 0.000000 0.000000 0.000000 0.067775 0.000000 -0.049238
# 5 0.008425 -0.015403 -0.023519 0.000000 0.063253 0.000000
# 6 0.000000 0.000000 0.000000 -0.049238 0.000000 0.117903
#
#
# Mechanical properties :
#
#
# Convention : Reuss Voigt Hill
#
# Bulk Modulus (GPa) = 10.18955 47.36706 28.77831
# Shear Modulus (GPa) = 11.51363 23.59263 17.55313
#
# Velocity S-wave (km/s) = 2.40428 3.44165 2.96863
# Velocity P-wave (km/s) = 3.58095 6.29083 5.11848
#
# Compressibility (1/GPa) = 0.09813975
#
# Stress axis : x y z
#
# Youngs Moduli (GPa) = 88.41311 11.03753 42.60540
#
# Poissons Ratio (x) = 0.07432 0.41340
# Poissons Ratio (y) = 0.59530 -0.11995
# Poissons Ratio (z) = 0.85788 -0.03107
#
# Static dielectric constant tensor:
#      x y z
#    x 1.708310 0.000000 0.014250 
#    y 0.000000 1.692740 0.000000 
#    z 0.014250 0.000000 1.677810 
# 
# From -- ./inp_files/249264.got.cif
#   From: 2010.05.17/outbox.cif.g08.bks.cpg/sg12_125_cif.got.tgz:249264.got - 2010.06.03 13:09:07.
