data_PCOD9206205
_publ_section_title
;
Structure prediction by ZEFSAII (Michael W. Deem and Ramdas Pophale) SiO2 
 PCOD9206205
Probable space group: C 2/M
;
_chemical_formula_sum "Si O2"
_cell_formula_units_Z 34
_cell_length_a 8.277174
_cell_length_b 26.624748
_cell_length_c 11.060564
_cell_angle_alpha 90.000000
_cell_angle_beta 135.464827
_cell_angle_gamma 90.000000
_cell_volume 1709.534220
_symmetry_space_group_name_H-M "C 2/M"
_symmetry_group_IT_number 12
_symmetry_cell_setting 'monoclinic'
loop_
_space_group_symop_operation_xyz
x,y,z
-x,y,-z
-x,-y,-z
x,-y,z
1/2+x,1/2+y,z
1/2-x,1/2+y,-z
1/2-x,1/2-y,-z
1/2+x,1/2-y,z
loop_
_atom_site_type_symbol
_atom_site_label
_atom_site_fract_x
_atom_site_fract_y
_atom_site_fract_z
Si Si1 0.500000 0.000000 0.500000
Si Si2 0.683821 0.814214 0.814732
Si Si3 0.737676 0.637738 0.884295
Si Si4 0.269043 0.722329 0.312510
Si Si5 0.853402 0.082218 0.800133
O O1 0.332000 0.956650 0.347438
O O2 0.806957 0.768553 0.811976
O O3 0.424314 0.795133 0.697124
O O4 0.723930 0.865417 0.762954
O O5 0.758799 0.829467 0.990509
O O6 0.677869 0.674851 0.744047
O O7 0.549667 0.595020 0.805637
O O8 0.000000 0.619645 0.000000
O O9 0.500000 0.738775 0.500000
O O10 0.000000 0.067732 0.000000
#
# Coordination Sequence:
#
# PCOD9206205 Si02
#       5
#     2   8   8   8   8
#     4  12  26  40  74  88 118 146 210 264 328 354
#     4  10  21  36  56  86 126 168 200 237 295 361
#     4   9  20  39  60  85 126 169 197 237 296 363
#     4  11  21  31  56  92 132 161 200 241 285 358
#     4  10  23  43  66  91 120 157 205 255 307 368
#
# _framework density 19.888459000000001
#
# number of rings (size 3 to 8) (size 9 to 14) (size 15 to 20)
#    0.000    1.882    0.000    3.176    4.941    6.588 
#    0.000    0.588    0.000   16.941    0.000    0.000 
#    0.000    0.000    0.000    0.000    0.000    0.000 
#
# Total GULP energy -94641.626822 kJ/mol
# GULP energy per Si atom -5567.154519 kJ/mol
# Density = 1.984319 g / cm^3
# Si number density = 19.888459 Si / 1000 Ang^3
#
#
#
# Elastic Constant Matrix: (Units=GPa)
#
#
# Indices 1 2 3 4 5 6 
#
# 1 114.8786 66.5317 43.8886 0.0000 14.0384 0.0000
# 2 66.5317 102.2363 67.0411 0.0000 8.3056 0.0000
# 3 43.8886 67.0411 119.3001 0.0000 20.4427 0.0000
# 4 0.0000 0.0000 0.0000 28.5854 0.0000 3.6407
# 5 14.0384 8.3056 20.4427 0.0000 20.7065 0.0000
# 6 0.0000 0.0000 0.0000 3.6407 0.0000 -3.1533
#
#
#
# Elastic Compliance Matrix: (Units=1/GPa)
#
#
# Indices 1 2 3 4 5 6 
#
# 1 0.014867 -0.010010 0.001438 0.000000 -0.007484 0.000000
# 2 -0.010010 0.022371 -0.010248 0.000000 0.007931 0.000000
# 3 0.001438 -0.010248 0.015737 0.000000 -0.012401 0.000000
# 4 0.000000 0.000000 0.000000 0.030498 0.000000 0.035212
# 5 -0.007484 0.007931 -0.012401 0.000000 0.062430 0.000000
# 6 0.000000 0.000000 0.000000 0.035212 0.000000 -0.276474
#
#
# Mechanical properties :
#
#
# Convention : Reuss Voigt Hill
#
# Bulk Modulus (GPa) = 65.20693 76.81530 71.01112
# Shear Modulus (GPa) = -56.93632 19.82463 -18.55585
#
# Velocity S-wave (km/s) = -5.35630 3.16062 -3.05781
# Velocity P-wave (km/s) = 2.32289 7.21293 4.82859
#
# Compressibility (1/GPa) = 0.01533579
#
# Stress axis : x y z
#
# Youngs Moduli (GPa) = 67.26121 44.69979 63.54459
#
# Poissons Ratio (x) = 0.44746 -0.09140
# Poissons Ratio (y) = 0.67331 0.65121
# Poissons Ratio (z) = -0.09675 0.45809
#
# Static dielectric constant tensor:
#      x y z
#    x 1.747810 0.000000 0.015910 
#    y 0.000000 1.669870 0.000000 
#    z 0.015910 0.000000 1.720410 
# 
# From -- ./inp_files/38002.got.cif
#   From: 2010.05.17/outbox.cif.g08.bks.cpg/sg12_20_cif.got.tgz:38002.got - 2010.06.03 13:09:07.
