data_PCOD9206991
_publ_section_title
;
Structure prediction by ZEFSAII (Michael W. Deem and Ramdas Pophale) SiO2 
 PCOD9206991
Probable space group: C 2/M
;
_chemical_formula_sum "Si O2"
_cell_formula_units_Z 40
_cell_length_a 14.416399
_cell_length_b 9.013418
_cell_length_c 28.755760
_cell_angle_alpha 90.000000
_cell_angle_beta 148.474540
_cell_angle_gamma 90.000000
_cell_volume 1953.759133
_symmetry_space_group_name_H-M "C 2/M"
_symmetry_group_IT_number 12
_symmetry_cell_setting 'monoclinic'
loop_
_space_group_symop_operation_xyz
x,y,z
-x,y,-z
-x,-y,-z
x,-y,z
1/2+x,1/2+y,z
1/2-x,1/2+y,-z
1/2-x,1/2-y,-z
1/2+x,1/2-y,z
loop_
_atom_site_type_symbol
_atom_site_label
_atom_site_fract_x
_atom_site_fract_y
_atom_site_fract_z
Si Si1 0.480048 0.176799 0.636172
Si Si2 0.085822 0.171589 0.869257
Si Si3 0.163189 0.676533 0.810277
Si Si4 0.000322 0.329359 0.074376
Si Si5 0.934812 0.822516 0.522676
O O1 0.591661 0.221055 0.728959
O O2 0.274523 0.209429 0.560766
O O3 0.526458 0.252701 0.607190
O O4 0.497219 0.000000 0.637815
O O5 0.061838 0.240360 0.808273
O O6 0.999819 0.269461 0.872955
O O7 0.028290 0.000000 0.847708
O O8 0.297564 0.176149 0.970414
O O9 0.145167 0.500000 0.808071
O O10 0.367541 0.726367 0.897882
O O11 0.059975 0.500000 0.096539
O O12 0.000000 0.769817 0.500000
O O13 0.959026 0.000000 0.534566
#
# Coordination Sequence:
#
# PCOD9206991 Si02
#       5
#     8   8   8   8   8
#     4   9  20  36  52  78 110 136 171 216 261 314
#     4  10  21  37  56  79 107 141 183 227 272 322
#     4  11  22  35  53  79 113 147 179 221 269 318
#     4  10  21  37  56  78 106 142 185 229 270 317
#     4   9  18  35  58  79 102 136 174 213 261 315
#
# _framework density 20.473351000000001
#
# number of rings (size 3 to 8) (size 9 to 14) (size 15 to 20)
#    0.000    2.200    0.000    2.400    0.000    8.400 
#    0.000    2.000    0.000    0.000    0.000    0.000 
#    0.000    0.000    0.000    0.000    0.000    0.000 
#
# Total GULP energy -111720.648796 kJ/mol
# GULP energy per Si atom -5586.032440 kJ/mol
# Density = 2.042675 g / cm^3
# Si number density = 20.473351 Si / 1000 Ang^3
#
#
#
# Elastic Constant Matrix: (Units=GPa)
#
#
# Indices 1 2 3 4 5 6 
#
# 1 117.3879 22.4710 22.1571 0.0000 -39.6920 0.0000
# 2 22.4710 44.2134 24.8249 0.0000 -17.4135 0.0000
# 3 22.1571 24.8249 48.2683 0.0000 -26.5386 0.0000
# 4 0.0000 0.0000 0.0000 23.6004 0.0000 -8.8844
# 5 -39.6920 -17.4135 -26.5386 0.0000 28.2776 0.0000
# 6 0.0000 0.0000 0.0000 -8.8844 0.0000 31.7143
#
#
#
# Elastic Compliance Matrix: (Units=1/GPa)
#
#
# Indices 1 2 3 4 5 6 
#
# 1 0.019411 -0.002240 0.013355 0.000000 0.038401 0.000000
# 2 -0.002240 0.033142 -0.013480 0.000000 0.004614 0.000000
# 3 0.013355 -0.013480 0.056328 0.000000 0.063307 0.000000
# 4 0.000000 0.000000 0.000000 0.047368 0.000000 0.013269
# 5 0.038401 0.004614 0.063307 0.000000 0.151520 0.000000
# 6 0.000000 0.000000 0.000000 0.013269 0.000000 0.035249
#
#
# Mechanical properties :
#
#
# Convention : Reuss Voigt Hill
#
# Bulk Modulus (GPa) = 9.60158 38.75286 24.17722
# Shear Modulus (GPa) = 13.07310 26.07957 19.57634
#
# Velocity S-wave (km/s) = 2.52968 3.57295 3.09558
# Velocity P-wave (km/s) = 3.63763 5.99923 4.96101
#
# Compressibility (1/GPa) = 0.10414951
#
# Stress axis : x y z
#
# Youngs Moduli (GPa) = 51.51701 30.17312 17.75327
#
# Poissons Ratio (x) = 0.06758 -0.23709
# Poissons Ratio (y) = 0.11538 0.23932
# Poissons Ratio (z) = -0.68799 0.40675
#
# Static dielectric constant tensor:
#      x y z
#    x 1.731320 0.000000 0.007190 
#    y 0.000000 1.683040 0.000000 
#    z 0.007190 0.000000 1.764070 
# 
# From -- ./inp_files/211204.got.cif
#   From: 2010.05.17/outbox.cif.g08.bks.cpg/sg12_106_cif.got.tgz:211204.got - 2010.06.03 13:09:07.
