data_PCOD9206060
_publ_section_title
;
Structure prediction by ZEFSAII (Michael W. Deem and Ramdas Pophale) SiO2 
 PCOD9206060
Probable space group: C 2/M
;
_chemical_formula_sum "Si O2"
_cell_formula_units_Z 58
_cell_length_a 25.811877
_cell_length_b 9.778675
_cell_length_c 22.410420
_cell_angle_alpha 90.000000
_cell_angle_beta 153.036975
_cell_angle_gamma 90.000000
_cell_volume 2564.754902
_symmetry_space_group_name_H-M "C 2/M"
_symmetry_group_IT_number 12
_symmetry_cell_setting 'monoclinic'
loop_
_space_group_symop_operation_xyz
x,y,z
-x,y,-z
-x,-y,-z
x,-y,z
1/2+x,1/2+y,z
1/2-x,1/2+y,-z
1/2-x,1/2-y,-z
1/2+x,1/2-y,z
loop_
_atom_site_type_symbol
_atom_site_label
_atom_site_fract_x
_atom_site_fract_y
_atom_site_fract_z
Si Si1 0.500000 0.500000 0.500000
Si Si2 0.438786 0.157532 0.045082
Si Si3 0.385359 0.659061 0.702768
Si Si4 0.670586 0.650899 0.480352
Si Si5 0.125713 0.771052 0.563477
Si Si6 0.691118 0.346175 0.175098
Si Si7 0.100000 0.647176 0.705001
Si Si8 0.724205 0.657075 0.916325
O O1 0.594324 0.380600 0.581574
O O2 0.395194 0.238124 0.941995
O O3 0.334293 0.156376 0.985432
O O4 0.470921 0.000000 0.066118
O O5 0.537032 0.246249 0.176826
O O6 0.389267 0.500000 0.724414
O O7 0.416887 0.667822 0.664354
O O8 0.259048 0.723778 0.571766
O O9 0.725300 0.500000 0.525973
O O10 0.622559 0.652156 0.497230
O O11 0.247837 0.704766 0.702232
O O12 0.022561 0.664043 0.451517
O O13 0.644800 0.500000 0.132741
O O14 0.798953 0.352480 0.239918
O O15 0.104794 0.500000 0.741623
O O16 0.126382 0.769894 0.776972
O O17 0.697104 0.500000 0.903919
O O18 0.750000 0.750000 0.000000
#
# Coordination Sequence:
#
# PCOD9206060 Si02
#       8
#     2   8   8   8   8   8   8   8
#     4  12  24  36  62  96 138 168 206 264 310 392
#     4  10  22  39  63  87 119 165 211 262 325 379
#     4  10  22  43  66  92 123 163 213 267 321 375
#     4  10  23  41  65  93 125 164 209 264 318 376
#     4  12  23  37  63  94 132 167 211 258 318 383
#     4  10  21  38  59  87 124 166 208 255 313 378
#     4  10  21  36  55  82 122 163 206 251 306 372
#     4  10  22  36  54  83 120 161 207 256 310 377
#
# _framework density 22.614245
#
# number of rings (size 3 to 8) (size 9 to 14) (size 15 to 20)
#    0.000    1.655    2.069    1.655    3.862    4.414 
#    0.000    0.690    0.000    3.310    0.000    0.000 
#    0.000    0.000    0.000    0.000    0.000    0.000 
#
# Total GULP energy -161752.799991 kJ/mol
# GULP energy per Si atom -5577.682758 kJ/mol
# Density = 2.256277 g / cm^3
# Si number density = 22.614245 Si / 1000 Ang^3
#
#
#
# Elastic Constant Matrix: (Units=GPa)
#
#
# Indices 1 2 3 4 5 6 
#
# 1 29.4364 18.4606 4.9524 0.0000 -8.1862 0.0000
# 2 18.4606 209.0044 75.0355 0.0000 -4.7790 0.0000
# 3 4.9524 75.0355 132.2470 0.0000 -12.3257 0.0000
# 4 0.0000 0.0000 0.0000 29.3734 0.0000 1.1832
# 5 -8.1862 -4.7790 -12.3257 0.0000 18.8034 0.0000
# 6 0.0000 0.0000 0.0000 1.1832 0.0000 14.8702
#
#
#
# Elastic Compliance Matrix: (Units=1/GPa)
#
#
# Indices 1 2 3 4 5 6 
#
# 1 0.041307 -0.004132 0.002530 0.000000 0.018592 0.000000
# 2 -0.004132 0.006432 -0.003738 0.000000 -0.002615 0.000000
# 3 0.002530 -0.003738 0.010227 0.000000 0.006855 0.000000
# 4 0.000000 0.000000 0.000000 0.034154 0.000000 -0.002718
# 5 0.018592 -0.002615 0.006855 0.000000 0.065105 0.000000
# 6 0.000000 0.000000 0.000000 -0.002718 0.000000 0.067465
#
#
# Mechanical properties :
#
#
# Convention : Reuss Voigt Hill
#
# Bulk Modulus (GPa) = 21.14776 63.06499 42.10638
# Shear Modulus (GPa) = 19.90989 30.75870 25.33429
#
# Velocity S-wave (km/s) = 2.97040 3.69202 3.35069
# Velocity P-wave (km/s) = 4.59741 6.79135 5.79908
#
# Compressibility (1/GPa) = 0.04728633
#
# Stress axis : x y z
#
# Youngs Moduli (GPa) = 24.20876 155.47589 97.78171
#
# Poissons Ratio (x) = 0.64240 -0.24741
# Poissons Ratio (y) = 0.10003 0.36554
# Poissons Ratio (z) = -0.06125 0.58122
#
# Static dielectric constant tensor:
#      x y z
#    x 1.920290 0.000000 -0.012490 
#    y 0.000000 1.789910 0.000000 
#    z -0.012490 0.000000 1.825390 
# 
# From -- ./inp_files/353083.got.cif
#   From: 2010.05.17/outbox.cif.g08.bks.cpg/sg12_177_cif.got.tgz:353083.got - 2010.06.03 13:09:07.
