data_PCOD9206315
_publ_section_title
;
Structure prediction by ZEFSAII (Michael W. Deem and Ramdas Pophale) SiO2 
 PCOD9206315
Probable space group: C 2/M
;
_chemical_formula_sum "Si O2"
_cell_formula_units_Z 56
_cell_length_a 17.607895
_cell_length_b 14.662360
_cell_length_c 11.329040
_cell_angle_alpha 90.000000
_cell_angle_beta 88.960113
_cell_angle_gamma 90.000000
_cell_volume 2924.373875
_symmetry_space_group_name_H-M "C 2/M"
_symmetry_group_IT_number 12
_symmetry_cell_setting 'monoclinic'
loop_
_space_group_symop_operation_xyz
x,y,z
-x,y,-z
-x,-y,-z
x,-y,z
1/2+x,1/2+y,z
1/2-x,1/2+y,-z
1/2-x,1/2-y,-z
1/2+x,1/2-y,z
loop_
_atom_site_type_symbol
_atom_site_label
_atom_site_fract_x
_atom_site_fract_y
_atom_site_fract_z
Si Si1 0.483433 0.243077 0.360348
Si Si2 0.378616 0.607770 0.279948
Si Si3 0.712228 0.599656 0.169134
Si Si4 0.260690 0.105392 0.559549
Si Si5 0.346818 0.104354 0.321352
Si Si6 0.263283 0.340668 0.077643
Si Si7 0.355045 0.211384 0.744311
O O1 0.500000 0.251422 0.500000
O O2 0.455138 0.337962 0.304312
O O3 0.413856 0.173700 0.342862
O O4 0.556916 0.206149 0.289124
O O5 0.388133 0.500000 0.256035
O O6 0.325853 0.617715 0.398476
O O7 0.328191 0.653234 0.176550
O O8 0.691132 0.500000 0.219375
O O9 0.800016 0.617602 0.203045
O O10 0.664762 0.684464 0.220083
O O11 0.710745 0.594719 0.028181
O O12 0.282367 0.115737 0.423537
O O13 0.310293 0.177343 0.630309
O O14 0.280608 0.000000 0.592750
O O15 0.374590 0.000000 0.327137
O O16 0.183953 0.349986 0.151374
O O17 0.250000 0.250000 0.000000
#
# Coordination Sequence:
#
# PCOD9206315 Si02
#       7
#     8   8   8   8   8   8   8
#     4  12  24  36  55  85 125 161 187 231 295 360
#     4  10  22  38  58  84 118 157 198 240 286 344
#     4  10  21  38  63  87 111 148 195 244 286 336
#     4   9  18  35  59  83 108 149 197 246 292 336
#     4  10  21  37  58  84 115 149 195 247 296 346
#     4   9  18  39  64  84 107 144 198 249 284 330
#     4  10  21  36  57  87 117 150 192 238 288 347
#
# _framework density 19.149398999999999
#
# number of rings (size 3 to 8) (size 9 to 14) (size 15 to 20)
#    0.000    2.000    1.429    3.000    2.000    3.429 
#    0.000    6.429    0.000    6.000    0.000    0.000 
#    0.000    0.000    0.000    0.000    0.000    0.000 
#
# Total GULP energy -156007.558573 kJ/mol
# GULP energy per Si atom -5571.698520 kJ/mol
# Density = 1.910581 g / cm^3
# Si number density = 19.149399 Si / 1000 Ang^3
#
#
#
# Elastic Constant Matrix: (Units=GPa)
#
#
# Indices 1 2 3 4 5 6 
#
# 1 38.2213 -15.4186 19.9019 0.0000 -1.0906 0.0000
# 2 -15.4186 48.6508 2.6623 0.0000 2.1166 0.0000
# 3 19.9019 2.6623 71.7032 0.0000 1.0275 0.0000
# 4 0.0000 0.0000 0.0000 21.0344 0.0000 5.6254
# 5 -1.0906 2.1166 1.0275 0.0000 19.4517 0.0000
# 6 0.0000 0.0000 0.0000 5.6254 0.0000 11.5243
#
#
#
# Elastic Compliance Matrix: (Units=1/GPa)
#
#
# Indices 1 2 3 4 5 6 
#
# 1 0.036635 0.012136 -0.010638 0.000000 0.001295 0.000000
# 2 0.012136 0.024712 -0.004261 0.000000 -0.001783 0.000000
# 3 -0.010638 -0.004261 0.017072 0.000000 -0.001035 0.000000
# 4 0.000000 0.000000 0.000000 0.054679 0.000000 -0.026691
# 5 0.001295 -0.001783 -0.001035 0.000000 0.051731 0.000000
# 6 0.000000 0.000000 0.000000 -0.026691 0.000000 0.099802
#
#
# Mechanical properties :
#
#
# Convention : Reuss Voigt Hill
#
# Bulk Modulus (GPa) = 13.71827 19.20736 16.46281
# Shear Modulus (GPa) = 15.90062 20.49739 18.19901
#
# Velocity S-wave (km/s) = 2.88470 3.27524 3.08615
# Velocity P-wave (km/s) = 4.27489 4.93507 4.61680
#
# Compressibility (1/GPa) = 0.07289548
#
# Stress axis : x y z
#
# Youngs Moduli (GPa) = 27.29606 40.46660 58.57550
#
# Poissons Ratio (x) = -0.49112 0.62311
# Poissons Ratio (y) = -0.33128 0.24956
# Poissons Ratio (z) = 0.29037 0.17241
#
# Static dielectric constant tensor:
#      x y z
#    x 1.626550 0.000000 -0.010610 
#    y 0.000000 1.747740 0.000000 
#    z -0.010610 0.000000 1.690470 
# 
# From -- ./inp_files/143719.got.cif
#   From: 2010.05.17/outbox.cif.g08.bks.cpg/sg12_72_cif.got.tgz:143719.got - 2010.06.03 13:09:07.
