data_PCOD9206649
_publ_section_title
;
Structure prediction by ZEFSAII (Michael W. Deem and Ramdas Pophale) SiO2 
 PCOD9206649
Probable space group: C 2/M
;
_chemical_formula_sum "Si O2"
_cell_formula_units_Z 60
_cell_length_a 18.494080
_cell_length_b 22.077199
_cell_length_c 8.306166
_cell_angle_alpha 90.000000
_cell_angle_beta 114.896549
_cell_angle_gamma 90.000000
_cell_volume 3076.222990
_symmetry_space_group_name_H-M "C 2/M"
_symmetry_group_IT_number 12
_symmetry_cell_setting 'monoclinic'
loop_
_space_group_symop_operation_xyz
x,y,z
-x,y,-z
-x,-y,-z
x,-y,z
1/2+x,1/2+y,z
1/2-x,1/2+y,-z
1/2-x,1/2-y,-z
1/2+x,1/2-y,z
loop_
_atom_site_type_symbol
_atom_site_label
_atom_site_fract_x
_atom_site_fract_y
_atom_site_fract_z
Si Si1 0.500000 0.173790 0.000000
Si Si2 0.453000 0.236649 0.628064
Si Si3 0.888286 0.566971 0.814582
Si Si4 0.246775 0.571043 0.827016
Si Si5 0.588496 0.112227 0.505666
Si Si6 0.079630 0.130660 0.470767
Si Si7 0.584210 0.571158 0.145604
Si Si8 0.783908 0.068508 0.233813
O O1 0.503189 0.214390 0.165951
O O2 0.572870 0.125171 0.062784
O O3 0.500000 0.240119 0.500000
O O4 0.394984 0.180366 0.542001
O O5 0.417923 0.303544 0.610997
O O6 0.907126 0.500000 0.902267
O O7 0.915630 0.570812 0.656058
O O8 0.793162 0.572177 0.726217
O O9 0.245491 0.500000 0.781854
O O10 0.162846 0.596039 0.686416
O O11 0.330922 0.596542 0.837505
O O12 0.252975 0.576565 0.024293
O O13 0.500000 0.110553 0.500000
O O14 0.082229 0.080973 0.333783
O O15 0.152536 0.117945 0.656925
O O16 0.000000 0.125433 0.500000
O O17 0.584578 0.500000 0.101835
O O18 0.500000 0.596911 0.000000
O O19 0.817949 0.000000 0.276228
#
# Coordination Sequence:
#
# PCOD9206649 Si02
#       8
#     4   8   8   8   8   8   8   8
#     4  10  21  40  62  88 119 164 204 248 304 360
#     4   9  22  40  61  85 121 160 210 255 296 356
#     4  10  21  36  60  91 123 155 198 246 303 365
#     4  10  21  37  58  88 124 157 197 247 303 371
#     4  10  21  38  59  86 125 165 202 247 302 361
#     4  11  22  39  62  84 117 155 205 251 306 360
#     4  10  21  37  60  88 117 151 195 249 310 369
#     4  10  22  38  58  89 125 156 194 250 310 369
#
# _framework density 19.504439999999999
#
# number of rings (size 3 to 8) (size 9 to 14) (size 15 to 20)
#    0.000    2.000    0.000    2.600    6.533    5.333 
#    0.000    6.667    0.000    0.400    0.000    0.000 
#    0.000    0.000    0.000    0.000    0.000    0.000 
#
# Total GULP energy -167118.993615 kJ/mol
# GULP energy per Si atom -5570.633121 kJ/mol
# Density = 1.946005 g / cm^3
# Si number density = 19.504440 Si / 1000 Ang^3
#
#
#
# Elastic Constant Matrix: (Units=GPa)
#
#
# Indices 1 2 3 4 5 6 
#
# 1 104.0584 22.2801 35.2106 0.0000 11.8340 0.0000
# 2 22.2801 52.4564 33.4297 0.0000 15.2145 0.0000
# 3 35.2106 33.4297 104.5715 0.0000 16.4985 0.0000
# 4 0.0000 0.0000 0.0000 28.8530 0.0000 -10.7711
# 5 11.8340 15.2145 16.4985 0.0000 35.5858 0.0000
# 6 0.0000 0.0000 0.0000 -10.7711 0.0000 -12.8499
#
#
#
# Elastic Compliance Matrix: (Units=1/GPa)
#
#
# Indices 1 2 3 4 5 6 
#
# 1 0.011254 -0.002650 -0.002730 0.000000 -0.001344 0.000000
# 2 -0.002650 0.026415 -0.006376 0.000000 -0.007456 0.000000
# 3 -0.002730 -0.006376 0.012890 0.000000 -0.002342 0.000000
# 4 0.000000 0.000000 0.000000 0.026398 0.000000 -0.022127
# 5 -0.001344 -0.007456 -0.002342 0.000000 0.032822 0.000000
# 6 0.000000 0.000000 0.000000 -0.022127 0.000000 -0.059274
#
#
# Mechanical properties :
#
#
# Convention : Reuss Voigt Hill
#
# Bulk Modulus (GPa) = 36.97332 49.21413 43.09373
# Shear Modulus (GPa) = 60.21738 21.66217 40.93977
#
# Velocity S-wave (km/s) = 5.56244 3.33622 4.58645
# Velocity P-wave (km/s) = 7.76220 6.33463 7.08447
#
# Compressibility (1/GPa) = 0.02704653
#
# Stress axis : x y z
#
# Youngs Moduli (GPa) = 88.85671 37.85751 77.58071
#
# Poissons Ratio (x) = 0.10034 0.21180
# Poissons Ratio (y) = 0.23551 0.49462
# Poissons Ratio (z) = 0.24259 0.24136
#
# Static dielectric constant tensor:
#      x y z
#    x 1.708260 0.000000 0.009900 
#    y 0.000000 1.716520 0.000000 
#    z 0.009900 0.000000 1.688640 
# 
# From -- ./inp_files/78043.got.cif
#   From: 2010.05.17/outbox.cif.g08.bks.cpg/sg12_40_cif.got.tgz:78043.got - 2010.06.03 13:09:07.
