data_PCOD9206674
_publ_section_title
;
Structure prediction by ZEFSAII (Michael W. Deem and Ramdas Pophale) SiO2 
 PCOD9206674
Probable space group: C 2/M
;
_chemical_formula_sum "Si O2"
_cell_formula_units_Z 48
_cell_length_a 18.284825
_cell_length_b 19.384393
_cell_length_c 12.305218
_cell_angle_alpha 90.000000
_cell_angle_beta 33.474475
_cell_angle_gamma 90.000000
_cell_volume 2405.632993
_symmetry_space_group_name_H-M "C 2/M"
_symmetry_group_IT_number 12
_symmetry_cell_setting 'monoclinic'
loop_
_space_group_symop_operation_xyz
x,y,z
-x,y,-z
-x,-y,-z
x,-y,z
1/2+x,1/2+y,z
1/2-x,1/2+y,-z
1/2-x,1/2-y,-z
1/2+x,1/2-y,z
loop_
_atom_site_type_symbol
_atom_site_label
_atom_site_fract_x
_atom_site_fract_y
_atom_site_fract_z
Si Si1 0.857397 0.172556 0.906393
Si Si2 0.559468 0.202891 0.309353
Si Si3 0.842721 0.919993 0.714998
Si Si4 0.141765 0.583540 0.776097
Si Si5 0.877850 0.416983 0.452001
Si Si6 0.371578 0.423084 0.084450
O O1 0.957905 0.233449 0.751351
O O2 0.821083 0.129141 0.844031
O O3 0.717598 0.199882 0.124407
O O4 0.907216 0.123356 0.938542
O O5 0.500000 0.218746 0.500000
O O6 0.498071 0.131379 0.342481
O O7 0.759395 0.896284 0.712749
O O8 0.000000 0.919177 0.500000
O O9 0.804253 0.000000 0.785960
O O10 0.140473 0.500000 0.779285
O O11 0.155330 0.601483 0.632193
O O12 0.000000 0.607266 0.000000
O O13 0.905769 0.500000 0.422120
O O14 0.754599 0.402534 0.685464
O O15 0.340963 0.500000 0.081151
O O16 0.500000 0.425581 0.000000
#
# Coordination Sequence:
#
# PCOD9206674 Si02
#       6
#     8   8   8   8   8   8
#     4  11  23  40  63  87 127 166 204 257 312 378
#     4  11  23  42  61  90 124 163 212 255 316 378
#     4  10  21  36  60  93 124 162 209 254 311 377
#     4   9  18  34  57  89 125 155 196 256 315 366
#     4  10  21  39  66  95 124 159 207 266 316 369
#     4  10  22  40  65  95 126 161 205 258 314 369
#
# _framework density 19.953168999999999
#
# number of rings (size 3 to 8) (size 9 to 14) (size 15 to 20)
#    0.000    1.833    1.667    2.000    2.333    3.000 
#    0.000    5.000    0.000    0.000    0.000    0.000 
#    0.000    0.000    0.000    0.000    0.000    0.000 
#
# Total GULP energy -133934.444069 kJ/mol
# GULP energy per Si atom -5580.601836 kJ/mol
# Density = 1.990775 g / cm^3
# Si number density = 19.953169 Si / 1000 Ang^3
#
#
#
# Elastic Constant Matrix: (Units=GPa)
#
#
# Indices 1 2 3 4 5 6 
#
# 1 88.8944 37.0108 33.8408 -0.0002 11.3759 0.0000
# 2 37.0108 71.5660 45.3616 -0.0001 16.9097 0.0001
# 3 33.8408 45.3616 89.8660 -0.0001 16.4727 0.0001
# 4 -0.0002 -0.0001 -0.0001 19.7648 0.0002 17.4653
# 5 11.3759 16.9097 16.4727 0.0002 34.0609 0.0000
# 6 0.0000 0.0001 0.0001 17.4653 0.0000 21.8730
#
#
#
# Elastic Compliance Matrix: (Units=1/GPa)
#
#
# Indices 1 2 3 4 5 6 
#
# 1 0.014728 -0.005885 -0.002424 0.000000 -0.000825 0.000000
# 2 -0.005885 0.023955 -0.008840 0.000000 -0.005652 0.000000
# 3 -0.002424 -0.008840 0.017062 0.000000 -0.003054 0.000000
# 4 0.000000 0.000000 0.000000 0.171854 -0.000001 -0.137223
# 5 -0.000825 -0.005652 -0.003054 -0.000001 0.033917 0.000001
# 6 0.000000 0.000000 0.000000 -0.137223 0.000001 0.155289
#
#
# Mechanical properties :
#
#
# Convention : Reuss Voigt Hill
#
# Bulk Modulus (GPa) = 46.62600 53.63920 50.13260
# Shear Modulus (GPa) = 10.91101 24.08062 17.49582
#
# Velocity S-wave (km/s) = 2.34098 3.47775 2.96437
# Velocity P-wave (km/s) = 5.54305 6.56257 6.07423
#
# Compressibility (1/GPa) = 0.02144726
#
# Stress axis : x y z
#
# Youngs Moduli (GPa) = 67.89782 41.74496 58.60893
#
# Poissons Ratio (x) = 0.24568 0.14208
# Poissons Ratio (y) = 0.39959 0.51808
# Poissons Ratio (z) = 0.16460 0.36901
#
# Static dielectric constant tensor:
#      x y z
#    x 1.689450 0.000000 -0.004370 
#    y 0.000000 1.771090 0.000000 
#    z -0.004370 0.000000 1.706320 
# 
# From -- ./inp_files/159112.got.cif
#   From: 2010.05.17/outbox.cif.g08.bks.cpg/sg12_80_cif.got.tgz:159112.got - 2010.06.03 13:09:07.
