data_PCOD9206298
_publ_section_title
;
Structure prediction by ZEFSAII (Michael W. Deem and Ramdas Pophale) SiO2 
 PCOD9206298
Probable space group: C 2/M
;
_chemical_formula_sum "Si O2"
_cell_formula_units_Z 48
_cell_length_a 25.094692
_cell_length_b 11.064603
_cell_length_c 12.603537
_cell_angle_alpha 90.000000
_cell_angle_beta 44.451675
_cell_angle_gamma 90.000000
_cell_volume 2450.749290
_symmetry_space_group_name_H-M "C 2/M"
_symmetry_group_IT_number 12
_symmetry_cell_setting 'monoclinic'
loop_
_space_group_symop_operation_xyz
x,y,z
-x,y,-z
-x,-y,-z
x,-y,z
1/2+x,1/2+y,z
1/2-x,1/2+y,-z
1/2-x,1/2-y,-z
1/2+x,1/2-y,z
loop_
_atom_site_type_symbol
_atom_site_label
_atom_site_fract_x
_atom_site_fract_y
_atom_site_fract_z
Si Si1 0.915241 0.636453 0.448732
Si Si2 0.643456 0.755349 0.069503
Si Si3 0.694537 0.136795 0.597586
Si Si4 0.424644 0.142192 0.045754
Si Si5 0.012556 0.132247 0.355447
Si Si6 0.800750 0.634906 0.805668
O O1 0.948445 0.500000 0.413798
O O2 0.866288 0.636832 0.411397
O O3 0.971894 0.748666 0.368551
O O4 0.858591 0.658223 0.627983
O O5 0.599485 0.648308 0.193906
O O6 0.655144 0.853196 0.145707
O O7 0.595999 0.794600 0.034696
O O8 0.728082 0.721070 0.911777
O O9 0.750000 0.250000 0.500000
O O10 0.646895 0.152337 0.773287
O O11 0.729452 0.000000 0.548838
O O12 0.437855 0.000000 0.004977
O O13 0.500000 0.187723 0.000000
O O14 0.000000 0.136614 0.500000
O O15 0.984149 0.000000 0.359919
O O16 0.771197 0.500000 0.833330
#
# Coordination Sequence:
#
# PCOD9206298 Si02
#       6
#     8   8   8   8   8   8
#     4  10  21  39  61  87 118 155 199 245 289 348
#     4  11  21  37  59  84 118 157 191 242 298 358
#     4  10  21  38  61  88 120 158 200 246 294 346
#     4  10  21  38  60  86 117 156 204 250 292 346
#     4  11  23  39  58  87 122 154 189 239 301 360
#     4  10  21  36  57  86 115 150 195 242 293 349
#
# _framework density 19.585846
#
# number of rings (size 3 to 8) (size 9 to 14) (size 15 to 20)
#    0.000    1.667    1.667    3.000    0.000    3.667 
#    0.000    1.667    0.000    3.500    0.000    0.000 
#    0.000    0.000    0.000    0.000    0.000    0.000 
#
# Total GULP energy -133900.918101 kJ/mol
# GULP energy per Si atom -5579.204921 kJ/mol
# Density = 1.954127 g / cm^3
# Si number density = 19.585846 Si / 1000 Ang^3
#
#
#
# Elastic Constant Matrix: (Units=GPa)
#
#
# Indices 1 2 3 4 5 6 
#
# 1 86.7274 26.2258 28.6478 0.0000 13.0493 0.0000
# 2 26.2258 117.5168 42.6227 0.0000 -11.1498 0.0000
# 3 28.6478 42.6227 83.8139 0.0000 14.5420 0.0000
# 4 0.0000 0.0000 0.0000 -59.4582 0.0000 11.6915
# 5 13.0493 -11.1498 14.5420 0.0000 27.0906 0.0000
# 6 0.0000 0.0000 0.0000 11.6915 0.0000 21.2659
#
#
#
# Elastic Compliance Matrix: (Units=1/GPa)
#
#
# Indices 1 2 3 4 5 6 
#
# 1 0.014199 -0.003080 -0.002073 0.000000 -0.006995 0.000000
# 2 -0.003080 0.012887 -0.007364 0.000000 0.010741 0.000000
# 3 -0.002073 -0.007364 0.018456 0.000000 -0.011940 0.000000
# 4 0.000000 0.000000 0.000000 -0.015178 0.000000 0.008344
# 5 -0.006995 0.010741 -0.011940 0.000000 0.051112 0.000000
# 6 0.000000 0.000000 0.000000 0.008344 0.000000 0.042436
#
#
# Mechanical properties :
#
#
# Convention : Reuss Voigt Hill
#
# Bulk Modulus (GPa) = 48.76441 53.67228 51.21834
# Shear Modulus (GPa) = 32.09572 10.48376 21.28974
#
# Velocity S-wave (km/s) = 4.05250 2.31611 3.30054
# Velocity P-wave (km/s) = 6.84462 5.88350 6.38218
#
# Compressibility (1/GPa) = 0.02050676
#
# Stress axis : x y z
#
# Youngs Moduli (GPa) = 70.42691 77.59826 54.18196
#
# Poissons Ratio (x) = 0.23904 0.11233
# Poissons Ratio (y) = 0.21695 0.39900
# Poissons Ratio (z) = 0.14601 0.57145
#
# Static dielectric constant tensor:
#      x y z
#    x 1.718690 0.000000 0.146490 
#    y 0.000000 1.703240 0.000000 
#    z 0.146490 0.000000 2.446460 
# 
# From -- ./inp_files/165466.got.cif
#   From: 2010.05.17/outbox.cif.g08.bks.cpg/sg12_83_cif.got.tgz:165466.got - 2010.06.03 13:09:07.
