data_PCOD9206620
_publ_section_title
;
Structure prediction by ZEFSAII (Michael W. Deem and Ramdas Pophale) SiO2 
 PCOD9206620
Probable space group: C 2/M
;
_chemical_formula_sum "Si O2"
_cell_formula_units_Z 56
_cell_length_a 12.410288
_cell_length_b 29.181409
_cell_length_c 9.507088
_cell_angle_alpha 90.000000
_cell_angle_beta 51.400844
_cell_angle_gamma 90.000000
_cell_volume 2690.798009
_symmetry_space_group_name_H-M "C 2/M"
_symmetry_group_IT_number 12
_symmetry_cell_setting 'monoclinic'
loop_
_space_group_symop_operation_xyz
x,y,z
-x,y,-z
-x,-y,-z
x,-y,z
1/2+x,1/2+y,z
1/2-x,1/2+y,-z
1/2-x,1/2-y,-z
1/2+x,1/2-y,z
loop_
_atom_site_type_symbol
_atom_site_label
_atom_site_fract_x
_atom_site_fract_y
_atom_site_fract_z
Si Si1 0.335815 0.859280 0.630998
Si Si2 0.801044 0.417587 0.419303
Si Si3 0.393462 0.051379 0.759151
Si Si4 0.866026 0.264272 0.707565
Si Si5 0.268544 0.095805 0.112561
Si Si6 0.502699 0.450526 0.667273
Si Si7 0.367024 0.802579 0.012295
O O1 0.500000 0.852366 0.500000
O O2 0.292828 0.869391 0.506970
O O3 0.320953 0.906599 0.732791
O O4 0.283660 0.810312 0.725289
O O5 0.799656 0.411565 0.252441
O O6 0.661023 0.443030 0.576096
O O7 0.941521 0.440015 0.363795
O O8 0.366178 0.000000 0.728980
O O9 0.343475 0.057550 0.959361
O O10 0.760425 0.222396 0.807100
O O11 0.000000 0.255491 0.500000
O O12 0.904219 0.277285 0.836729
O O13 0.324132 0.144940 0.020514
O O14 0.106717 0.088876 0.210516
O O15 0.500000 0.452527 0.500000
O O16 0.455034 0.500000 0.761119
O O17 0.500000 0.802718 0.000000
#
# Coordination Sequence:
#
# PCOD9206620 Si02
#       7
#     8   8   8   8   8   8   8
#     4   9  20  39  59  88 122 161 200 252 309 366
#     4  10  21  36  60  87 120 163 208 254 302 366
#     4  11  21  35  59  89 123 160 204 254 306 363
#     4  10  23  45  67  93 131 168 202 261 322 374
#     4  11  22  38  59  88 122 159 202 259 309 363
#     4   9  19  36  55  82 122 161 203 254 306 361
#     4  11  24  43  68  98 126 163 211 263 311 381
#
# _framework density 20.811669999999999
#
# number of rings (size 3 to 8) (size 9 to 14) (size 15 to 20)
#    0.000    1.857    1.429    2.143    4.000    7.714 
#    5.143    0.714    0.000    1.714    0.000    0.000 
#    0.000    0.000    0.000    0.000    0.000    0.000 
#
# Total GULP energy -156131.223124 kJ/mol
# GULP energy per Si atom -5576.115112 kJ/mol
# Density = 2.076430 g / cm^3
# Si number density = 20.811670 Si / 1000 Ang^3
#
#
#
# Elastic Constant Matrix: (Units=GPa)
#
#
# Indices 1 2 3 4 5 6 
#
# 1 43.6643 5.0108 33.4585 0.0000 -19.4965 0.0000
# 2 5.0108 66.2477 22.2624 0.0000 -12.1313 0.0000
# 3 33.4585 22.2624 95.9907 0.0000 -3.7453 0.0000
# 4 0.0000 0.0000 0.0000 101.0205 0.0000 -27.1783
# 5 -19.4965 -12.1313 -3.7453 0.0000 22.8713 0.0000
# 6 0.0000 0.0000 0.0000 -27.1783 0.0000 8.5920
#
#
#
# Elastic Compliance Matrix: (Units=1/GPa)
#
#
# Indices 1 2 3 4 5 6 
#
# 1 0.066904 0.014181 -0.024245 0.000000 0.060584 0.000000
# 2 0.014181 0.021023 -0.008969 0.000000 0.021771 0.000000
# 3 -0.024245 -0.008969 0.020085 0.000000 -0.022136 0.000000
# 4 0.000000 0.000000 0.000000 0.066449 0.000000 0.210193
# 5 0.060584 0.021771 -0.022136 0.000000 0.103290 0.000000
# 6 0.000000 0.000000 0.000000 0.210193 0.000000 0.781278
#
#
# Mechanical properties :
#
#
# Convention : Reuss Voigt Hill
#
# Bulk Modulus (GPa) = 14.29679 36.37400 25.33539
# Shear Modulus (GPa) = 4.46265 36.17481 20.31873
#
# Velocity S-wave (km/s) = 1.46593 4.17369 3.12799
# Velocity P-wave (km/s) = 3.12247 6.38294 5.02453
#
# Compressibility (1/GPa) = 0.06994578
#
# Stress axis : x y z
#
# Youngs Moduli (GPa) = 14.94678 47.56674 49.78823
#
# Poissons Ratio (x) = -0.67456 1.20713
# Poissons Ratio (y) = -0.21196 0.44657
# Poissons Ratio (z) = 0.36239 0.42664
#
# Static dielectric constant tensor:
#      x y z
#    x 1.737970 0.000000 0.002620 
#    y 0.000000 1.787780 0.000000 
#    z 0.002620 0.000000 1.804550 
# 
# From -- ./inp_files/54573.got.cif
#   From: 2010.05.17/outbox.cif.g08.bks.cpg/sg12_28_cif.got.tgz:54573.got - 2010.06.03 13:09:07.
