data_PCOD9206022
_publ_section_title
;
Structure prediction by ZEFSAII (Michael W. Deem and Ramdas Pophale) SiO2 
 PCOD9206022
Probable space group: C 2/M
;
_chemical_formula_sum "Si O2"
_cell_formula_units_Z 64
_cell_length_a 18.749634
_cell_length_b 9.336418
_cell_length_c 17.962741
_cell_angle_alpha 90.000000
_cell_angle_beta 90.588700
_cell_angle_gamma 90.000000
_cell_volume 3144.291234
_symmetry_space_group_name_H-M "C 2/M"
_symmetry_group_IT_number 12
_symmetry_cell_setting 'monoclinic'
loop_
_space_group_symop_operation_xyz
x,y,z
-x,y,-z
-x,-y,-z
x,-y,z
1/2+x,1/2+y,z
1/2-x,1/2+y,-z
1/2-x,1/2-y,-z
1/2+x,1/2-y,z
loop_
_atom_site_type_symbol
_atom_site_label
_atom_site_fract_x
_atom_site_fract_y
_atom_site_fract_z
Si Si1 0.535749 0.332334 0.222998
Si Si2 0.330795 0.835202 0.835535
Si Si3 0.727024 0.169477 0.748148
Si Si4 0.217505 0.332161 0.388563
Si Si5 0.822202 0.662828 0.007091
Si Si6 0.346396 0.168787 0.464712
Si Si7 0.552508 0.334891 0.930603
Si Si8 0.070307 0.667755 0.677094
O O1 0.551102 0.500000 0.234088
O O2 0.607032 0.244488 0.207892
O O3 0.488390 0.317931 0.147355
O O4 0.490359 0.266338 0.289623
O O5 0.256413 0.753313 0.819804
O O6 0.323487 0.000000 0.812352
O O7 0.351134 0.833461 0.922565
O O8 0.777177 0.232019 0.682833
O O9 0.645687 0.197076 0.720969
O O10 0.735432 0.000000 0.756537
O O11 0.222152 0.500000 0.369158
O O12 0.287667 0.280862 0.434711
O O13 0.152413 0.313377 0.446194
O O14 0.807650 0.500000 0.028434
O O15 0.880516 0.732067 0.060773
O O16 0.750000 0.750000 0.000000
O O17 0.413109 0.188156 0.410565
O O18 0.323647 0.000000 0.452194
O O19 0.576907 0.500000 0.936865
O O20 0.500000 0.309108 0.000000
O O21 0.053327 0.500000 0.689056
#
# Coordination Sequence:
#
# PCOD9206022 Si02
#       8
#     8   8   8   8   8   8   8   8
#     4  11  23  38  59  83 110 146 186 228 276 328
#     4  11  24  41  59  81 110 146 187 228 273 331
#     4  10  21  36  55  81 114 149 185 227 279 332
#     4   9  15  26  48  77 108 143 183 227 273 324
#     4  11  25  41  61  87 114 144 182 228 277 328
#     4   8  15  28  47  74 109 146 183 224 274 325
#     4  10  21  40  62  83 110 145 184 227 274 327
#     4   9  19  35  54  81 114 147 184 226 273 325
#
# _framework density 20.354348999999999
#
# number of rings (size 3 to 8) (size 9 to 14) (size 15 to 20)
#    0.000    2.125    1.250    2.625    1.750    5.750 
#    0.000    0.000    0.000    0.750    0.000    5.250 
#    0.000    0.000    0.000    0.000    0.000    0.000 
#
# Total GULP energy -178593.278654 kJ/mol
# GULP energy per Si atom -5581.039958 kJ/mol
# Density = 2.030802 g / cm^3
# Si number density = 20.354349 Si / 1000 Ang^3
#
#
#
# Elastic Constant Matrix: (Units=GPa)
#
#
# Indices 1 2 3 4 5 6 
#
# 1 51.6985 55.2362 -0.3595 0.0000 -14.7341 0.0000
# 2 55.2362 99.7089 4.8307 0.0000 -10.5516 0.0000
# 3 -0.3595 4.8307 32.4371 0.0000 -16.4316 0.0000
# 4 0.0000 0.0000 0.0000 29.9648 0.0000 -1.6302
# 5 -14.7341 -10.5516 -16.4316 0.0000 30.1659 0.0000
# 6 0.0000 0.0000 0.0000 -1.6302 0.0000 27.1530
#
#
#
# Elastic Compliance Matrix: (Units=1/GPa)
#
#
# Indices 1 2 3 4 5 6 
#
# 1 0.063629 -0.032984 0.021429 0.000000 0.031214 0.000000
# 2 -0.032984 0.027517 -0.010702 0.000000 -0.012315 0.000000
# 3 0.021429 -0.010702 0.049810 0.000000 0.033856 0.000000
# 4 0.000000 0.000000 0.000000 0.033482 0.000000 0.002010
# 5 0.031214 -0.012315 0.033856 0.000000 0.062530 0.000000
# 6 0.000000 0.000000 0.000000 0.002010 0.000000 0.036949
#
#
# Mechanical properties :
#
#
# Convention : Reuss Voigt Hill
#
# Bulk Modulus (GPa) = 10.36876 33.69548 22.03212
# Shear Modulus (GPa) = 14.26219 25.73254 19.99736
#
# Velocity S-wave (km/s) = 2.64994 3.55946 3.13782
# Velocity P-wave (km/s) = 3.80369 5.78648 4.89650
#
# Compressibility (1/GPa) = 0.09644358
#
# Stress axis : x y z
#
# Youngs Moduli (GPa) = 15.71613 36.34161 20.07612
#
# Poissons Ratio (x) = 1.19868 -0.43022
# Poissons Ratio (y) = 0.51838 0.21485
# Poissons Ratio (z) = -0.33679 0.38892
#
# Static dielectric constant tensor:
#      x y z
#    x 1.701130 0.000000 -0.010520 
#    y 0.000000 1.684340 0.000000 
#    z -0.010520 0.000000 1.797830 
# 
# From -- ./inp_files/281347.got.cif
#   From: 2010.05.17/outbox.cif.g08.bks.cpg/sg12_141_cif.got.tgz:281347.got - 2010.06.03 13:09:07.
