data_PCOD9206719
_publ_section_title
;
Structure prediction by ZEFSAII (Michael W. Deem and Ramdas Pophale) SiO2 
 PCOD9206719
Probable space group: C 2/M
;
_chemical_formula_sum "Si O2"
_cell_formula_units_Z 56
_cell_length_a 18.723919
_cell_length_b 18.377354
_cell_length_c 9.414581
_cell_angle_alpha 90.000000
_cell_angle_beta 57.506881
_cell_angle_gamma 90.000000
_cell_volume 2732.392888
_symmetry_space_group_name_H-M "C 2/M"
_symmetry_group_IT_number 12
_symmetry_cell_setting 'monoclinic'
loop_
_space_group_symop_operation_xyz
x,y,z
-x,y,-z
-x,-y,-z
x,-y,z
1/2+x,1/2+y,z
1/2-x,1/2+y,-z
1/2-x,1/2-y,-z
1/2+x,1/2-y,z
loop_
_atom_site_type_symbol
_atom_site_label
_atom_site_fract_x
_atom_site_fract_y
_atom_site_fract_z
Si Si1 0.379076 0.234023 0.920760
Si Si2 0.416305 0.417245 0.654806
Si Si3 0.428786 0.617995 0.967099
Si Si4 0.204021 0.270424 0.275743
Si Si5 0.740403 0.582070 0.680899
Si Si6 0.236093 0.870147 0.370952
Si Si7 0.405579 0.084101 0.036509
O O1 0.438907 0.295211 0.925221
O O2 0.368088 0.244744 0.763972
O O3 0.290165 0.254320 0.093588
O O4 0.399671 0.150132 0.930297
O O5 0.500000 0.380021 0.500000
O O6 0.417146 0.500000 0.602886
O O7 0.425784 0.414536 0.813231
O O8 0.326385 0.391163 0.691533
O O9 0.500000 0.593370 0.000000
O O10 0.341514 0.596459 0.135375
O O11 0.198266 0.352485 0.337746
O O12 0.215973 0.215763 0.393901
O O13 0.771867 0.500000 0.667450
O O14 0.715813 0.593920 0.542641
O O15 0.331153 0.893716 0.227040
O O16 0.389709 0.000000 0.006685
O O17 0.500000 0.086050 0.000000
#
# Coordination Sequence:
#
# PCOD9206719 Si02
#       7
#     8   8   8   8   8   8   8
#     4   9  18  36  58  86 117 153 201 255 303 358
#     4  11  23  38  60  91 126 162 203 247 297 365
#     4  11  22  38  59  86 125 163 198 247 303 367
#     4   9  19  36  59  86 117 154 204 252 299 361
#     4  11  23  36  58  91 123 158 199 248 309 363
#     4  11  21  41  63  86 123 166 207 250 304 365
#     4  10  21  36  61  91 119 158 209 259 309 360
#
# _framework density 20.494857
#
# number of rings (size 3 to 8) (size 9 to 14) (size 15 to 20)
#    0.000    1.714    1.429    3.429    2.000    2.857 
#    0.000    1.429    0.000    0.000    0.000    3.000 
#    0.000    0.000    0.000    0.000    0.000    0.000 
#
# Total GULP energy -156024.414321 kJ/mol
# GULP energy per Si atom -5572.300511 kJ/mol
# Density = 2.044821 g / cm^3
# Si number density = 20.494857 Si / 1000 Ang^3
#
#
#
# Elastic Constant Matrix: (Units=GPa)
#
#
# Indices 1 2 3 4 5 6 
#
# 1 82.0766 16.8760 32.2199 0.0000 10.9283 0.0000
# 2 16.8760 157.8148 6.3576 0.0000 7.8228 0.0000
# 3 32.2199 6.3576 71.5696 0.0000 5.9970 0.0000
# 4 0.0000 0.0000 0.0000 20.7976 0.0000 -0.3607
# 5 10.9283 7.8228 5.9970 0.0000 25.5732 0.0000
# 6 0.0000 0.0000 0.0000 -0.3607 0.0000 3.4796
#
#
#
# Elastic Compliance Matrix: (Units=1/GPa)
#
#
# Indices 1 2 3 4 5 6 
#
# 1 0.015625 -0.001171 -0.006529 0.000000 -0.004788 0.000000
# 2 -0.001171 0.006534 0.000074 0.000000 -0.001516 0.000000
# 3 -0.006529 0.000074 0.017007 0.000000 -0.001221 0.000000
# 4 0.000000 0.000000 0.000000 0.048169 0.000000 0.004993
# 5 -0.004788 -0.001516 -0.001221 0.000000 0.041899 0.000000
# 6 0.000000 0.000000 0.000000 0.004993 0.000000 0.287903
#
#
# Mechanical properties :
#
#
# Convention : Reuss Voigt Hill
#
# Bulk Modulus (GPa) = 41.81592 46.92978 44.37285
# Shear Modulus (GPa) = 11.35432 27.03726 19.19579
#
# Velocity S-wave (km/s) = 2.35629 3.63605 3.06374
# Velocity P-wave (km/s) = 5.27733 6.36992 5.84919
#
# Compressibility (1/GPa) = 0.02391434
#
# Stress axis : x y z
#
# Youngs Moduli (GPa) = 64.00028 153.04835 58.79772
#
# Poissons Ratio (x) = 0.17914 0.38389
# Poissons Ratio (y) = 0.07491 -0.00432
# Poissons Ratio (z) = 0.41786 -0.01126
#
# Static dielectric constant tensor:
#      x y z
#    x 1.775460 0.000000 -0.020530 
#    y 0.000000 1.812300 0.000000 
#    z -0.020530 0.000000 1.712580 
# 
# From -- ./inp_files/75908.got.cif
#   From: 2010.05.17/outbox.cif.g08.bks.cpg/sg12_38_cif.got.tgz:75908.got - 2010.06.03 13:09:07.
