data_PCOD9206082
_publ_section_title
;
Structure prediction by ZEFSAII (Michael W. Deem and Ramdas Pophale) SiO2 
 PCOD9206082
Probable space group: C 2/M
;
_chemical_formula_sum "Si O2"
_cell_formula_units_Z 56
_cell_length_a 23.431524
_cell_length_b 19.166356
_cell_length_c 11.289236
_cell_angle_alpha 90.000000
_cell_angle_beta 145.349327
_cell_angle_gamma 90.000000
_cell_volume 2882.635534
_symmetry_space_group_name_H-M "C 2/M"
_symmetry_group_IT_number 12
_symmetry_cell_setting 'monoclinic'
loop_
_space_group_symop_operation_xyz
x,y,z
-x,y,-z
-x,-y,-z
x,-y,z
1/2+x,1/2+y,z
1/2-x,1/2+y,-z
1/2-x,1/2-y,-z
1/2+x,1/2-y,z
loop_
_atom_site_type_symbol
_atom_site_label
_atom_site_fract_x
_atom_site_fract_y
_atom_site_fract_z
Si Si1 0.275468 0.617189 0.259843
Si Si2 0.119858 0.580986 0.187691
Si Si3 0.299017 0.269397 0.900112
Si Si4 0.698963 0.805993 0.500944
Si Si5 0.472857 0.577931 0.738013
Si Si6 0.496464 0.269037 0.858661
Si Si7 0.602606 0.629704 0.746861
O O1 0.171680 0.595981 0.147539
O O2 0.269529 0.700422 0.221933
O O3 0.361422 0.593255 0.497938
O O4 0.322240 0.590695 0.215123
O O5 0.136972 0.500000 0.241199
O O6 0.175729 0.627894 0.380656
O O7 0.000000 0.593093 0.000000
O O8 0.260411 0.317870 0.725797
O O9 0.406040 0.242614 0.039168
O O10 0.329054 0.312004 0.068814
O O11 0.750000 0.750000 0.500000
O O12 0.597004 0.767091 0.361691
O O13 0.477806 0.500000 0.797619
O O14 0.494120 0.647077 0.850153
O O15 0.551736 0.584234 0.763835
O O16 0.500000 0.247459 0.000000
O O17 0.500000 0.654667 0.500000
#
# Coordination Sequence:
#
# PCOD9206082 Si02
#       7
#     8   8   8   8   8   8   8
#     4  11  19  37  59  84 114 152 203 246 291 352
#     4  11  24  40  60  89 121 161 205 248 301 362
#     4  11  21  35  60  87 119 156 200 248 307 350
#     4  12  20  36  60  88 122 160 200 247 302 365
#     4  10  21  36  55  85 120 157 198 241 294 360
#     4  11  20  34  55  84 120 160 196 244 299 353
#     4   9  22  38  58  86 122 155 198 251 300 361
#
# _framework density 19.426666999999998
#
# number of rings (size 3 to 8) (size 9 to 14) (size 15 to 20)
#    0.000    1.286    4.286    2.143    0.000    3.429 
#    0.000    2.857    0.000    0.000    0.000    2.000 
#    0.000    0.000    0.000    0.000    0.000    0.000 
#
# Total GULP energy -155886.973028 kJ/mol
# GULP energy per Si atom -5567.391894 kJ/mol
# Density = 1.938245 g / cm^3
# Si number density = 19.426667 Si / 1000 Ang^3
#
#
#
# Elastic Constant Matrix: (Units=GPa)
#
#
# Indices 1 2 3 4 5 6 
#
# 1 110.9953 13.3669 35.1020 0.0000 12.3118 0.0000
# 2 13.3669 131.0607 31.0719 0.0000 -6.5733 0.0000
# 3 35.1020 31.0719 86.3842 0.0000 -1.0503 0.0000
# 4 0.0000 0.0000 0.0000 22.1575 0.0000 6.1978
# 5 12.3118 -6.5733 -1.0503 0.0000 32.7124 0.0000
# 6 0.0000 0.0000 0.0000 6.1978 0.0000 17.3488
#
#
#
# Elastic Compliance Matrix: (Units=1/GPa)
#
#
# Indices 1 2 3 4 5 6 
#
# 1 0.010907 -0.000290 -0.004380 0.000000 -0.004304 0.000000
# 2 -0.000290 0.008432 -0.002894 0.000000 0.001710 0.000000
# 3 -0.004380 -0.002894 0.014416 0.000000 0.001530 0.000000
# 4 0.000000 0.000000 0.000000 0.050142 0.000000 -0.017913
# 5 -0.004304 0.001710 0.001530 0.000000 0.032582 0.000000
# 6 0.000000 0.000000 0.000000 -0.017913 0.000000 0.064040
#
#
# Mechanical properties :
#
#
# Convention : Reuss Voigt Hill
#
# Bulk Modulus (GPa) = 53.68876 54.16910 53.92893
# Shear Modulus (GPa) = 24.77023 31.03705 27.90364
#
# Velocity S-wave (km/s) = 3.57468 4.00140 3.79404
# Velocity P-wave (km/s) = 6.68838 7.02088 6.85664
#
# Compressibility (1/GPa) = 0.01862587
#
# Stress axis : x y z
#
# Youngs Moduli (GPa) = 91.68544 118.60205 69.36904
#
# Poissons Ratio (x) = 0.03437 0.30384
# Poissons Ratio (y) = 0.02657 0.20077
# Poissons Ratio (z) = 0.40159 0.34326
#
# Static dielectric constant tensor:
#      x y z
#    x 1.733910 0.000000 0.032150 
#    y 0.000000 1.761740 0.000000 
#    z 0.032150 0.000000 1.698380 
# 
# From -- ./inp_files/177953.got.cif
#   From: 2010.05.17/outbox.cif.g08.bks.cpg/sg12_89_cif.got.tgz:177953.got - 2010.06.03 13:09:07.
