data_PCOD9206266
_publ_section_title
;
Structure prediction by ZEFSAII (Michael W. Deem and Ramdas Pophale) SiO2 
 PCOD9206266
Probable space group: C 2/M
;
_chemical_formula_sum "Si O2"
_cell_formula_units_Z 50
_cell_length_a 30.165339
_cell_length_b 7.429875
_cell_length_c 30.404186
_cell_angle_alpha 90.000000
_cell_angle_beta 160.394915
_cell_angle_gamma 90.000000
_cell_volume 2286.447083
_symmetry_space_group_name_H-M "C 2/M"
_symmetry_group_IT_number 12
_symmetry_cell_setting 'monoclinic'
loop_
_space_group_symop_operation_xyz
x,y,z
-x,y,-z
-x,-y,-z
x,-y,z
1/2+x,1/2+y,z
1/2-x,1/2+y,-z
1/2-x,1/2-y,-z
1/2+x,1/2-y,z
loop_
_atom_site_type_symbol
_atom_site_label
_atom_site_fract_x
_atom_site_fract_y
_atom_site_fract_z
Si Si1 0.838123 0.780925 0.643114
Si Si2 0.371146 0.719301 0.774070
Si Si3 0.907640 0.290941 0.452262
Si Si4 0.455442 0.291767 0.664908
Si Si5 0.408354 0.283031 0.293511
Si Si6 0.124507 0.207920 0.067034
Si Si7 0.000000 0.500000 0.000000
O O1 0.872192 0.724226 0.724151
O O2 0.691328 0.718107 0.493220
O O3 0.936219 0.716995 0.696074
O O4 0.835457 0.000000 0.639397
O O5 0.368542 0.500000 0.771677
O O6 0.237012 0.784269 0.671967
O O7 0.504241 0.772703 0.923357
O O8 0.884986 0.500000 0.418527
O O9 0.989546 0.283453 0.574141
O O10 0.000000 0.212311 0.500000
O O11 0.493479 0.500000 0.706009
O O12 0.550932 0.214885 0.716844
O O13 0.416595 0.500000 0.301078
O O14 0.262690 0.227298 0.171616
O O15 0.111500 0.341563 0.095276
O O16 0.106921 0.000000 0.062709
#
# Coordination Sequence:
#
# PCOD9206266 Si02
#       7
#     8   8   8   8   8   8   2
#     4   9  16  32  57  85 118 158 205 251 307 373
#     4   9  19  37  59  87 119 160 206 259 309 370
#     4  10  21  36  57  84 114 151 201 256 313 367
#     4   9  18  31  54  87 123 158 197 253 311 366
#     4  11  22  39  56  89 126 161 204 257 310 371
#     4  11  25  44  67  90 125 166 212 258 310 370
#     4  12  26  48  64  96 120 172 214 258 308 386
#
# _framework density 21.867989999999999
#
# number of rings (size 3 to 8) (size 9 to 14) (size 15 to 20)
#    0.000    2.080    2.400    0.720    2.240    0.960 
#    2.880    0.800    0.000    0.000    0.000    0.000 
#    0.000    0.000    0.000    0.000    0.000    0.000 
#
# Total GULP energy -139410.457470 kJ/mol
# GULP energy per Si atom -5576.418299 kJ/mol
# Density = 2.181822 g / cm^3
# Si number density = 21.867990 Si / 1000 Ang^3
#
#
#
# Elastic Constant Matrix: (Units=GPa)
#
#
# Indices 1 2 3 4 5 6 
#
# 1 160.0067 8.0518 49.1151 -0.0014 23.0789 -0.0005
# 2 8.0518 94.7891 -12.1153 -0.0006 5.5740 0.0016
# 3 49.1151 -12.1153 104.1519 -0.0027 14.1085 0.0004
# 4 -0.0014 -0.0006 -0.0027 -18.0671 0.0001 -29.9930
# 5 23.0789 5.5740 14.1085 0.0001 42.7993 0.0009
# 6 -0.0005 0.0016 0.0004 -29.9930 0.0009 -38.6499
#
#
#
# Elastic Compliance Matrix: (Units=1/GPa)
#
#
# Indices 1 2 3 4 5 6 
#
# 1 0.007754 -0.000915 -0.003363 -0.000001 -0.002954 0.000001
# 2 -0.000915 0.010965 0.001919 0.000005 -0.001567 -0.000003
# 3 -0.003363 0.001919 0.011722 0.000007 -0.002301 -0.000005
# 4 -0.000001 0.000005 0.000007 0.192012 0.000001 -0.149005
# 5 -0.002954 -0.001567 -0.002301 0.000001 0.025920 0.000000
# 6 0.000001 -0.000003 -0.000005 -0.149005 0.000000 0.089757
#
#
# Mechanical properties :
#
#
# Convention : Reuss Voigt Hill
#
# Bulk Modulus (GPa) = 38.87419 49.89456 44.38438
# Shear Modulus (GPa) = 14.22789 18.14285 16.18537
#
# Velocity S-wave (km/s) = 2.55350 2.88350 2.72350
# Velocity P-wave (km/s) = 5.14871 5.82682 5.49823
#
# Compressibility (1/GPa) = 0.02572401
#
# Stress axis : x y z
#
# Youngs Moduli (GPa) = 128.96481 91.19997 85.30886
#
# Poissons Ratio (x) = 0.08343 0.28689
# Poissons Ratio (y) = 0.11798 -0.16372
# Poissons Ratio (z) = 0.43370 -0.17503
#
# Static dielectric constant tensor:
#      x y z
#    x 1.863720 0.000010 -0.016420 
#    y 0.000010 0.779410 0.000010 
#    z -0.016420 0.000010 1.755980 
# 
# From -- ./inp_files/384809.got.cif
#   From: 2010.05.17/outbox.cif.g08.bks.cpg/sg12_193_cif.got.tgz:384809.got - 2010.06.03 13:09:07.
