data_PCOD9206032
_publ_section_title
;
Structure prediction by ZEFSAII (Michael W. Deem and Ramdas Pophale) SiO2 
 PCOD9206032
Probable space group: C 2/M
;
_chemical_formula_sum "Si O2"
_cell_formula_units_Z 44
_cell_length_a 28.072529
_cell_length_b 18.749856
_cell_length_c 5.212584
_cell_angle_alpha 90.000000
_cell_angle_beta 56.517550
_cell_angle_gamma 90.000000
_cell_volume 2288.374773
_symmetry_space_group_name_H-M "C 2/M"
_symmetry_group_IT_number 12
_symmetry_cell_setting 'monoclinic'
loop_
_space_group_symop_operation_xyz
x,y,z
-x,y,-z
-x,-y,-z
x,-y,z
1/2+x,1/2+y,z
1/2-x,1/2+y,-z
1/2-x,1/2-y,-z
1/2+x,1/2-y,z
loop_
_atom_site_type_symbol
_atom_site_label
_atom_site_fract_x
_atom_site_fract_y
_atom_site_fract_z
Si Si1 0.134473 0.730287 0.281248
Si Si2 0.960024 0.000000 0.371508
Si Si3 0.263735 0.079753 0.416935
Si Si4 0.658568 0.921015 0.314946
Si Si5 0.829789 0.200309 0.330893
Si Si6 0.935711 0.849319 0.291775
O O1 0.177003 0.757224 0.381374
O O2 0.080834 0.783231 0.476825
O O3 0.120487 0.648287 0.375893
O O4 0.162423 0.745370 0.925042
O O5 0.926586 0.074430 0.454612
O O6 0.000000 0.000000 0.500000
O O7 0.000000 0.000000 0.000000
O O8 0.293540 0.082966 0.050487
O O9 0.218529 0.142721 0.575638
O O10 0.237637 0.000000 0.520242
O O11 0.310908 0.085147 0.500529
O O12 0.631887 0.000000 0.376617
O O13 0.889787 0.159084 0.200196
O O14 0.000000 0.844625 0.000000
#
# Coordination Sequence:
#
# PCOD9206032 Si02
#       6
#     8   4   8   8   8   8
#     4  10  22  36  56  85 106 148 189 230 274 327
#     4  10  22  36  58  78 108 152 186 218 268 328
#     4  10  21  36  55  81 118 149 181 224 277 327
#     4  10  21  38  58  80 112 149 181 228 282 336
#     4  10  22  34  55  84 108 147 186 227 267 331
#     4   9  23  39  57  80 116 148 187 228 277 320
#
# _framework density 19.227620000000002
#
# number of rings (size 3 to 8) (size 9 to 14) (size 15 to 20)
#    1.091    1.091    0.000    2.182    6.364    4.364 
#    1.636    0.000    0.000    0.545    0.000    1.273 
#    0.000    0.000    0.000    0.000    0.000    0.000 
#
# Total GULP energy -122610.606496 kJ/mol
# GULP energy per Si atom -5573.209386 kJ/mol
# Density = 1.918386 g / cm^3
# Si number density = 19.227620 Si / 1000 Ang^3
#
#
#
# Elastic Constant Matrix: (Units=GPa)
#
#
# Indices 1 2 3 4 5 6 
#
# 1 47.2499 30.2090 19.2160 0.0000 19.3961 0.0000
# 2 30.2090 161.8506 4.4252 0.0000 -7.2331 0.0000
# 3 19.2160 4.4252 40.3430 0.0000 17.3132 0.0000
# 4 0.0000 0.0000 0.0000 24.5630 0.0000 6.5007
# 5 19.3961 -7.2331 17.3132 0.0000 33.7133 0.0000
# 6 0.0000 0.0000 0.0000 6.5007 0.0000 16.0590
#
#
#
# Elastic Compliance Matrix: (Units=1/GPa)
#
#
# Indices 1 2 3 4 5 6 
#
# 1 0.037169 -0.007513 -0.008993 0.000000 -0.018378 0.000000
# 2 -0.007513 0.007840 0.000182 0.000000 0.005911 0.000000
# 3 -0.008993 0.000182 0.034394 0.000000 -0.012450 0.000000
# 4 0.000000 0.000000 0.000000 0.045597 0.000000 -0.018458
# 5 -0.018378 0.005911 -0.012450 0.000000 0.047897 0.000000
# 6 0.000000 0.000000 0.000000 -0.018458 0.000000 0.069742
#
#
# Mechanical properties :
#
#
# Convention : Reuss Voigt Hill
#
# Bulk Modulus (GPa) = 21.38853 39.68265 30.53559
# Shear Modulus (GPa) = 17.18973 27.90661 22.54817
#
# Velocity S-wave (km/s) = 2.99325 3.81383 3.42818
# Velocity P-wave (km/s) = 4.80563 6.33063 5.62010
#
# Compressibility (1/GPa) = 0.04675402
#
# Stress axis : x y z
#
# Youngs Moduli (GPa) = 26.90425 127.55125 29.07487
#
# Poissons Ratio (x) = 0.95828 0.26148
# Poissons Ratio (y) = 0.20213 -0.00529
# Poissons Ratio (z) = 0.24196 -0.02319
#
# Static dielectric constant tensor:
#      x y z
#    x 1.652040 0.000000 0.014900 
#    y 0.000000 1.729810 0.000000 
#    z 0.014900 0.000000 1.660540 
# 
# From -- ./inp_files/28687.got.cif
#   From: 2010.05.17/outbox.cif.g08.bks.cpg/sg12_15_cif.got.tgz:28687.got - 2010.06.03 13:09:07.
