data_PCOD9206798
_publ_section_title
;
Structure prediction by ZEFSAII (Michael W. Deem and Ramdas Pophale) SiO2 
 PCOD9206798
Probable space group: C 2/M
;
_chemical_formula_sum "Si O2"
_cell_formula_units_Z 44
_cell_length_a 28.205694
_cell_length_b 10.070429
_cell_length_c 22.858340
_cell_angle_alpha 90.000000
_cell_angle_beta 18.790184
_cell_angle_gamma 90.000000
_cell_volume 2091.341263
_symmetry_space_group_name_H-M "C 2/M"
_symmetry_group_IT_number 12
_symmetry_cell_setting 'monoclinic'
loop_
_space_group_symop_operation_xyz
x,y,z
-x,y,-z
-x,-y,-z
x,-y,z
1/2+x,1/2+y,z
1/2-x,1/2+y,-z
1/2-x,1/2-y,-z
1/2+x,1/2-y,z
loop_
_atom_site_type_symbol
_atom_site_label
_atom_site_fract_x
_atom_site_fract_y
_atom_site_fract_z
Si Si1 0.312652 0.000000 0.769798
Si Si2 0.584095 0.500000 0.134288
Si Si3 0.824108 0.787949 0.143337
Si Si4 0.938223 0.220703 0.372640
Si Si5 0.337922 0.652059 0.263862
Si Si6 0.911824 0.500000 0.778768
Si Si7 0.269045 0.500000 0.772764
Si Si8 0.005168 0.000000 0.391530
O O1 0.303032 0.869489 0.741652
O O2 0.426478 0.000000 0.690184
O O3 0.157428 0.000000 0.985888
O O4 0.490690 0.630097 0.257706
O O5 0.735253 0.500000 0.996704
O O6 0.804737 0.815082 0.234649
O O7 0.818428 0.634503 0.134336
O O8 0.987340 0.834921 0.935568
O O9 0.764952 0.251575 0.578332
O O10 0.019718 0.362553 0.279129
O O11 0.982114 0.129015 0.377455
O O12 0.295842 0.500000 0.325003
O O13 0.387579 0.500000 0.581477
O O14 0.342866 0.500000 0.750473
#
# Coordination Sequence:
#
# PCOD9206798 Si02
#       8
#     4   4   8   8   8   4   4   4
#     4  10  21  39  59  82 117 164 192 242 292 359
#     4   9  24  38  61  84 119 159 196 254 300 339
#     4  11  21  39  60  86 126 155 201 237 299 360
#     4  11  20  40  60  90 118 154 207 244 295 356
#     4  11  21  37  65  90 116 161 197 255 288 348
#     4  10  21  36  64  85 110 159 208 241 302 345
#     4  11  22  35  55  91 122 161 188 235 311 346
#     4  10  22  36  54  87 133 149 186 251 291 356
#
# _framework density 21.039131000000001
#
# number of rings (size 3 to 8) (size 9 to 14) (size 15 to 20)
#    0.545    0.909    4.545    2.182    0.000    2.909 
#    0.000    1.818    0.000    0.000    0.000    0.000 
#    0.000    0.000    0.000    0.000    0.000    0.000 
#
# Total GULP energy -122821.601136 kJ/mol
# GULP energy per Si atom -5582.800052 kJ/mol
# Density = 2.099124 g / cm^3
# Si number density = 21.039131 Si / 1000 Ang^3
#
#
#
# Elastic Constant Matrix: (Units=GPa)
#
#
# Indices 1 2 3 4 5 6 
#
# 1 20.7697 5.4162 -19.2552 -0.0002 1.2086 0.0000
# 2 5.4162 148.1201 6.8790 0.0001 -4.5819 0.0001
# 3 -19.2552 6.8790 63.0685 0.0001 4.4840 -0.0001
# 4 -0.0002 0.0001 0.0001 94.7264 -0.0003 -11.4336
# 5 1.2086 -4.5819 4.4840 -0.0003 13.0152 0.0001
# 6 0.0000 0.0001 -0.0001 -11.4336 0.0001 23.7145
#
#
#
# Elastic Compliance Matrix: (Units=1/GPa)
#
#
# Indices 1 2 3 4 5 6 
#
# 1 0.072123 -0.004241 0.023644 0.000000 -0.016336 0.000000
# 2 -0.004241 0.007130 -0.002336 0.000000 0.003708 0.000000
# 3 0.023644 -0.002336 0.024135 0.000000 -0.011333 0.000000
# 4 0.000000 0.000000 0.000000 0.011209 0.000000 0.005404
# 5 -0.016336 0.003708 -0.011333 0.000000 0.083560 0.000000
# 6 0.000000 0.000000 0.000000 0.005404 0.000000 0.044774
#
#
# Mechanical properties :
#
#
# Convention : Reuss Voigt Hill
#
# Bulk Modulus (GPa) = 7.27160 24.22650 15.74905
# Shear Modulus (GPa) = 19.63581 42.21910 30.92745
#
# Velocity S-wave (km/s) = 3.05831 4.48447 3.83821
# Velocity P-wave (km/s) = 3.99183 6.19306 5.21002
#
# Compressibility (1/GPa) = 0.13752123
#
# Stress axis : x y z
#
# Youngs Moduli (GPa) = 13.86518 140.26128 41.43393
#
# Poissons Ratio (x) = 0.59480 -0.97965
# Poissons Ratio (y) = 0.05880 0.09679
# Poissons Ratio (z) = -0.32782 0.32765
#
# Static dielectric constant tensor:
#      x y z
#    x 1.748850 0.000000 0.005540 
#    y 0.000000 1.698280 0.000000 
#    z 0.005540 0.000000 1.765780 
# 
# From -- ./inp_files/353248.got.cif
#   From: 2010.05.17/outbox.cif.g08.bks.cpg/sg12_177_cif.got.tgz:353248.got - 2010.06.03 13:09:07.
