data_PCOD9206027
_publ_section_title
;
Structure prediction by ZEFSAII (Michael W. Deem and Ramdas Pophale) SiO2 
 PCOD9206027
Probable space group: C 2/M
;
_chemical_formula_sum "Si O2"
_cell_formula_units_Z 32
_cell_length_a 5.296915
_cell_length_b 18.788996
_cell_length_c 14.667470
_cell_angle_alpha 90.000000
_cell_angle_beta 72.033804
_cell_angle_gamma 90.000000
_cell_volume 1388.581205
_symmetry_space_group_name_H-M "C 2/M"
_symmetry_group_IT_number 12
_symmetry_cell_setting 'monoclinic'
loop_
_space_group_symop_operation_xyz
x,y,z
-x,y,-z
-x,-y,-z
x,-y,z
1/2+x,1/2+y,z
1/2-x,1/2+y,-z
1/2-x,1/2-y,-z
1/2+x,1/2-y,z
loop_
_atom_site_type_symbol
_atom_site_label
_atom_site_fract_x
_atom_site_fract_y
_atom_site_fract_z
Si Si1 0.125009 0.216450 0.387329
Si Si2 0.012980 0.413091 0.892465
Si Si3 0.902489 0.914522 0.208168
Si Si4 0.436691 0.918262 0.400952
O O1 0.395023 0.260977 0.344347
O O2 0.216257 0.135482 0.388971
O O3 0.000000 0.236706 0.500000
O O4 0.005008 0.500000 0.888287
O O5 0.296319 0.387935 0.821261
O O6 0.765119 0.387493 0.860166
O O7 0.000000 0.394138 0.000000
O O8 0.706445 0.906352 0.315093
O O9 0.930817 0.000000 0.193336
O O10 0.500000 0.906243 0.500000
O O11 0.351758 0.000000 0.397356
#
# Coordination Sequence:
#
# PCOD9206027 Si02
#       4
#     8   8   8   8
#     4  10  21  38  57  76 103 144 191 233 269 309
#     4   9  16  28  46  67  96 134 171 213 269 321
#     4   9  18  30  45  70 102 134 172 216 261 315
#     4  10  21  36  55  81 115 152 185 220 268 326
#
# _framework density 23.045103999999998
#
# number of rings (size 3 to 8) (size 9 to 14) (size 15 to 20)
#    0.000    2.500    0.000    3.000    0.000    7.500 
#    0.000    8.750    0.000    0.750    0.000    0.000 
#    0.000   20.000    0.000    0.000    0.000    0.000 
#
# Total GULP energy -89459.785090 kJ/mol
# GULP energy per Si atom -5591.236568 kJ/mol
# Density = 2.299265 g / cm^3
# Si number density = 23.045104 Si / 1000 Ang^3
#
#
#
# Elastic Constant Matrix: (Units=GPa)
#
#
# Indices 1 2 3 4 5 6 
#
# 1 132.2613 49.1780 7.7551 0.0000 -12.2797 0.0000
# 2 49.1780 116.5567 2.3396 0.0000 -1.8843 0.0000
# 3 7.7551 2.3396 58.7590 0.0000 6.6475 0.0000
# 4 0.0000 0.0000 0.0000 0.6684 0.0000 -7.7944
# 5 -12.2797 -1.8843 6.6475 0.0000 31.3044 0.0000
# 6 0.0000 0.0000 0.0000 -7.7944 0.0000 27.9427
#
#
#
# Elastic Compliance Matrix: (Units=1/GPa)
#
#
# Indices 1 2 3 4 5 6 
#
# 1 0.009451 -0.003896 -0.001522 0.000000 0.003796 0.000000
# 2 -0.003896 0.010203 0.000216 0.000000 -0.000960 0.000000
# 3 -0.001522 0.000216 0.017702 0.000000 -0.004343 0.000000
# 4 0.000000 0.000000 0.000000 -0.664105 0.000000 -0.185247
# 5 0.003796 -0.000960 -0.004343 0.000000 0.034298 0.000000
# 6 0.000000 0.000000 0.000000 -0.185247 0.000000 -0.015886
#
#
# Mechanical properties :
#
#
# Convention : Reuss Voigt Hill
#
# Bulk Modulus (GPa) = 37.09917 47.34692 42.22304
# Shear Modulus (GPa) = -8.48969 28.53671 10.02351
#
# Velocity S-wave (km/s) = -1.92144 3.52276 2.08781
# Velocity P-wave (km/s) = 3.34826 6.09397 4.91667
#
# Compressibility (1/GPa) = 0.02695478
#
# Stress axis : x y z
#
# Youngs Moduli (GPa) = 105.80952 98.00729 56.49010
#
# Poissons Ratio (x) = 0.38180 0.08596
# Poissons Ratio (y) = 0.41220 -0.01223
# Poissons Ratio (z) = 0.16101 -0.02122
#
# Static dielectric constant tensor:
#      x y z
#    x 1.890160 0.000000 0.017100 
#    y 0.000000 1.889710 0.000000 
#    z 0.017100 0.000000 1.869940 
# 
# From -- ./inp_files/191161.got.cif
#   From: 2010.05.17/outbox.cif.g08.bks.cpg/sg12_96_cif.got.tgz:191161.got - 2010.06.03 13:09:07.
