data_PCOD9206098
_publ_section_title
;
Structure prediction by ZEFSAII (Michael W. Deem and Ramdas Pophale) SiO2 
 PCOD9206098
Probable space group: C 2/M
;
_chemical_formula_sum "Si O2"
_cell_formula_units_Z 56
_cell_length_a 29.729920
_cell_length_b 7.809915
_cell_length_c 15.759871
_cell_angle_alpha 90.000000
_cell_angle_beta 132.359877
_cell_angle_gamma 90.000000
_cell_volume 2703.923827
_symmetry_space_group_name_H-M "C 2/M"
_symmetry_group_IT_number 12
_symmetry_cell_setting 'monoclinic'
loop_
_space_group_symop_operation_xyz
x,y,z
-x,y,-z
-x,-y,-z
x,-y,z
1/2+x,1/2+y,z
1/2-x,1/2+y,-z
1/2-x,1/2-y,-z
1/2+x,1/2-y,z
loop_
_atom_site_type_symbol
_atom_site_label
_atom_site_fract_x
_atom_site_fract_y
_atom_site_fract_z
Si Si1 0.695074 0.294271 0.993578
Si Si2 0.597620 0.209114 0.112847
Si Si3 0.494764 0.209067 0.856441
Si Si4 0.591074 0.300478 0.739222
Si Si5 0.725685 0.198865 0.222510
Si Si6 0.360911 0.800145 0.378708
Si Si7 0.035310 0.699246 0.368557
O O1 0.692700 0.500000 0.999959
O O2 0.707587 0.214088 0.100509
O O3 0.750000 0.250000 0.000000
O O4 0.633288 0.233602 0.869297
O O5 0.559100 0.256511 0.146869
O O6 0.666910 0.270019 0.197063
O O7 0.599408 0.000000 0.112779
O O8 0.557837 0.265326 0.980638
O O9 0.481309 0.272852 0.744956
O O10 0.497340 0.000000 0.857814
O O11 0.579434 0.500000 0.739596
O O12 0.627680 0.283330 0.698220
O O13 0.525933 0.211340 0.654042
O O14 0.791033 0.284006 0.317012
O O15 0.733357 0.000000 0.254196
O O16 0.407965 0.726628 0.507564
O O17 0.375321 0.000000 0.384768
O O18 0.050258 0.500000 0.372524
#
# Coordination Sequence:
#
# PCOD9206098 Si02
#       7
#     8   8   8   8   8   8   8
#     4  11  22  35  53  78 108 141 175 215 264 320
#     4   8  15  28  53  84 108 133 168 217 272 322
#     4   8  14  30  54  81 108 132 169 220 269 318
#     4  11  23  37  55  79 106 139 178 222 272 321
#     4  11  21  34  54  81 110 142 180 222 270 316
#     4  11  23  37  52  73 106 147 186 222 264 319
#     4  10  21  36  56  79 104 140 184 226 266 314
#
# _framework density 20.710640999999999
#
# number of rings (size 3 to 8) (size 9 to 14) (size 15 to 20)
#    0.000    2.000    1.429    3.857    0.000    5.714 
#    0.000    0.714    0.000    1.714    0.000    7.000 
#    0.000    0.000    0.000    0.000    0.000    0.000 
#
# Total GULP energy -156386.157516 kJ/mol
# GULP energy per Si atom -5585.219911 kJ/mol
# Density = 2.066350 g / cm^3
# Si number density = 20.710641 Si / 1000 Ang^3
#
#
#
# Elastic Constant Matrix: (Units=GPa)
#
#
# Indices 1 2 3 4 5 6 
#
# 1 90.5150 -10.6490 34.2168 0.0000 26.5034 0.0000
# 2 -10.6490 29.9992 5.8142 0.0000 -2.3475 0.0000
# 3 34.2168 5.8142 97.7146 0.0000 30.6071 0.0000
# 4 0.0000 0.0000 0.0000 13.8633 0.0000 6.4856
# 5 26.5034 -2.3475 30.6071 0.0000 29.8242 0.0000
# 6 0.0000 0.0000 0.0000 6.4856 0.0000 12.5656
#
#
#
# Elastic Compliance Matrix: (Units=1/GPa)
#
#
# Indices 1 2 3 4 5 6 
#
# 1 0.015840 0.005189 -0.002320 0.000000 -0.011287 0.000000
# 2 0.005189 0.036429 -0.005067 0.000000 0.003456 0.000000
# 3 -0.002320 -0.005067 0.015956 0.000000 -0.014712 0.000000
# 4 0.000000 0.000000 0.000000 0.095096 0.000000 -0.049083
# 5 -0.011287 0.003456 -0.014712 0.000000 0.058930 0.000000
# 6 0.000000 0.000000 0.000000 -0.049083 0.000000 0.104916
#
#
# Mechanical properties :
#
#
# Convention : Reuss Voigt Hill
#
# Bulk Modulus (GPa) = 15.66685 30.77700 23.22192
# Shear Modulus (GPa) = 14.17072 23.84040 19.00556
#
# Velocity S-wave (km/s) = 2.61861 3.39649 3.03260
# Velocity P-wave (km/s) = 4.08948 5.50221 4.84758
#
# Compressibility (1/GPa) = 0.06382905
#
# Stress axis : x y z
#
# Youngs Moduli (GPa) = 63.12960 27.45077 62.67210
#
# Poissons Ratio (x) = -0.14245 0.14541
# Poissons Ratio (y) = -0.32760 0.31758
# Poissons Ratio (z) = 0.14647 0.13910
#
# Static dielectric constant tensor:
#      x y z
#    x 1.727860 0.000000 0.010700 
#    y 0.000000 1.763270 0.000000 
#    z 0.010700 0.000000 1.748710 
# 
# From -- ./inp_files/237857.got.cif
#   From: 2010.05.17/outbox.cif.g08.bks.cpg/sg12_119_cif.got.tgz:237857.got - 2010.06.03 13:09:07.
