data_PCOD9206432
_publ_section_title
;
Structure prediction by ZEFSAII (Michael W. Deem and Ramdas Pophale) SiO2 
 PCOD9206432
Probable space group: C 2/M
;
_chemical_formula_sum "Si O2"
_cell_formula_units_Z 48
_cell_length_a 17.567446
_cell_length_b 12.933637
_cell_length_c 10.544003
_cell_angle_alpha 90.000000
_cell_angle_beta 60.934082
_cell_angle_gamma 90.000000
_cell_volume 2094.000294
_symmetry_space_group_name_H-M "C 2/M"
_symmetry_group_IT_number 12
_symmetry_cell_setting 'monoclinic'
loop_
_space_group_symop_operation_xyz
x,y,z
-x,y,-z
-x,-y,-z
x,-y,z
1/2+x,1/2+y,z
1/2-x,1/2+y,-z
1/2-x,1/2-y,-z
1/2+x,1/2-y,z
loop_
_atom_site_type_symbol
_atom_site_label
_atom_site_fract_x
_atom_site_fract_y
_atom_site_fract_z
Si Si1 0.977413 0.218793 0.305124
Si Si2 0.624611 0.776827 0.362699
Si Si3 0.803637 0.226283 0.082529
Si Si4 0.643948 0.000000 0.345699
Si Si5 0.729668 0.000000 0.555582
Si Si6 0.673786 0.500000 0.911797
Si Si7 0.090330 0.000000 0.704595
Si Si8 0.395638 0.119919 0.183688
O O1 0.907552 0.236351 0.476114
O O2 0.961435 0.105644 0.263655
O O3 0.958525 0.308227 0.217266
O O4 0.071383 0.220485 0.295493
O O5 0.727788 0.781681 0.252754
O O6 0.592926 0.894986 0.374651
O O7 0.848604 0.114925 0.023410
O O8 0.867412 0.315599 0.082440
O O9 0.750000 0.250000 0.000000
O O10 0.720758 0.000000 0.179339
O O11 0.686998 0.000000 0.450822
O O12 0.691184 0.901940 0.661700
O O13 0.832586 0.000000 0.461710
O O14 0.637642 0.500000 0.799955
O O15 0.424674 0.000000 0.139420
#
# Coordination Sequence:
#
# PCOD9206432 Si02
#       8
#     8   8   8   4   4   4   4   8
#     4  11  22  36  59  86 124 147 181 231 298 350
#     4  10  22  36  57  89 118 153 182 233 290 341
#     4  11  23  41  61  81 114 151 200 238 273 330
#     4   9  16  32  56  87 114 142 187 234 288 332
#     4   9  18  30  59  88 112 142 190 240 282 331
#     4   9  20  35  60  83 106 148 195 241 272 324
#     4  11  20  35  54  85 120 151 187 232 277 348
#     4  10  21  36  58  88 111 147 190 238 285 335
#
# _framework density 22.922633999999999
#
# number of rings (size 3 to 8) (size 9 to 14) (size 15 to 20)
#    0.500    1.333    3.333    1.000    2.333    3.333 
#    1.500    0.833    0.000    2.000    0.000    0.000 
#    0.000    0.000    0.000    0.000    0.000    0.000 
#
# Total GULP energy -133942.572243 kJ/mol
# GULP energy per Si atom -5580.940510 kJ/mol
# Density = 2.287046 g / cm^3
# Si number density = 22.922634 Si / 1000 Ang^3
#
#
#
# Elastic Constant Matrix: (Units=GPa)
#
#
# Indices 1 2 3 4 5 6 
#
# 1 62.8270 39.7671 29.7521 0.0000 7.1181 0.0000
# 2 39.7671 171.2641 29.4537 0.0000 12.9596 0.0000
# 3 29.7521 29.4537 75.5660 0.0000 -5.4229 0.0000
# 4 0.0000 0.0000 0.0000 -199.2921 0.0000 148.0571
# 5 7.1181 12.9596 -5.4229 0.0000 46.1037 0.0000
# 6 0.0000 0.0000 0.0000 148.0571 0.0000 -53.6924
#
#
#
# Elastic Compliance Matrix: (Units=1/GPa)
#
#
# Indices 1 2 3 4 5 6 
#
# 1 0.022141 -0.003593 -0.007554 0.000000 -0.003297 0.000000
# 2 -0.003593 0.007042 -0.001445 0.000000 -0.001595 0.000000
# 3 -0.007554 -0.001445 0.017027 0.000000 0.003575 0.000000
# 4 0.000000 0.000000 0.000000 0.004785 0.000000 0.013195
# 5 -0.003297 -0.001595 0.003575 0.000000 0.023068 0.000000
# 6 0.000000 0.000000 0.000000 0.013195 0.000000 0.017762
#
#
# Mechanical properties :
#
#
# Convention : Reuss Voigt Hill
#
# Bulk Modulus (GPa) = 47.55485 56.40032 51.97758
# Shear Modulus (GPa) = 40.31663 -27.33055 6.49304
#
# Velocity S-wave (km/s) = 4.19837 -3.45671 1.68486
# Velocity P-wave (km/s) = 6.65527 2.95403 5.14873
#
# Compressibility (1/GPa) = 0.02102835
#
# Stress axis : x y z
#
# Youngs Moduli (GPa) = 45.16412 141.99914 58.72897
#
# Poissons Ratio (x) = 0.51014 0.44363
# Poissons Ratio (y) = 0.16226 0.08486
# Poissons Ratio (z) = 0.34117 0.20517
#
# Static dielectric constant tensor:
#      x y z
#    x 1.833820 0.000000 -0.054360 
#    y 0.000000 1.922770 0.000000 
#    z -0.054360 0.000000 1.892980 
# 
# From -- ./inp_files/154267.got.cif
#   From: 2010.05.17/outbox.cif.g08.bks.cpg/sg12_78_cif.got.tgz:154267.got - 2010.06.03 13:09:07.
