data_PCOD9206634
_publ_section_title
;
Structure prediction by ZEFSAII (Michael W. Deem and Ramdas Pophale) SiO2 
 PCOD9206634
Probable space group: C 2/M
;
_chemical_formula_sum "Si O2"
_cell_formula_units_Z 64
_cell_length_a 30.478412
_cell_length_b 13.442535
_cell_length_c 14.497822
_cell_angle_alpha 90.000000
_cell_angle_beta 145.059315
_cell_angle_gamma 90.000000
_cell_volume 3401.925297
_symmetry_space_group_name_H-M "C 2/M"
_symmetry_group_IT_number 12
_symmetry_cell_setting 'monoclinic'
loop_
_space_group_symop_operation_xyz
x,y,z
-x,y,-z
-x,-y,-z
x,-y,z
1/2+x,1/2+y,z
1/2-x,1/2+y,-z
1/2-x,1/2-y,-z
1/2+x,1/2-y,z
loop_
_atom_site_type_symbol
_atom_site_label
_atom_site_fract_x
_atom_site_fract_y
_atom_site_fract_z
Si Si1 0.969961 0.231328 0.180730
Si Si2 0.313303 0.619853 0.871426
Si Si3 0.727071 0.776953 0.356065
Si Si4 0.068394 0.385975 0.044076
Si Si5 0.127474 0.881092 0.486726
Si Si6 0.062786 0.703850 0.675133
Si Si7 0.636288 0.616579 0.720166
Si Si8 0.272928 0.881356 0.089710
O O1 0.960615 0.291568 0.259810
O O2 0.050741 0.174207 0.320234
O O3 0.899368 0.154229 0.046644
O O4 0.960108 0.312325 0.084358
O O5 0.309549 0.500000 0.852576
O O6 0.287983 0.681373 0.736870
O O7 0.260806 0.650612 0.869081
O O8 0.750000 0.750000 0.500000
O O9 0.648612 0.841070 0.219096
O O10 0.797339 0.838596 0.433334
O O11 0.081105 0.500000 0.034916
O O12 0.000000 0.386859 0.000000
O O13 0.135599 0.862047 0.610571
O O14 0.121294 0.000000 0.462686
O O15 0.074349 0.818519 0.665850
O O16 0.143494 0.654894 0.791883
O O17 0.000000 0.657673 0.500000
O O18 0.622993 0.500000 0.710569
O O19 0.715643 0.643994 0.907376
O O20 0.274083 0.000000 0.096854
#
# Coordination Sequence:
#
# PCOD9206634 Si02
#       8
#     8   8   8   8   8   8   8   8
#     4  11  23  38  63  92 124 160 205 256 304 361
#     4  10  22  40  63  89 121 163 204 247 304 367
#     4  11  24  42  67  94 124 154 201 256 314 369
#     4  10  23  45  68  90 119 161 207 251 306 370
#     4  11  23  39  62  95 128 159 203 255 309 363
#     4  12  23  36  58  86 127 165 202 246 300 349
#     4  10  21  36  60  89 121 162 205 244 294 359
#     4  10  22  39  59  85 122 166 207 244 292 360
#
# _framework density 18.812877
#
# number of rings (size 3 to 8) (size 9 to 14) (size 15 to 20)
#    0.000    1.375    2.500    2.625    3.500    2.500 
#    0.000    0.625    0.000    4.125    0.000    0.000 
#    0.000    0.000    0.000    0.000    0.000    0.000 
#
# Total GULP energy -178723.103400 kJ/mol
# GULP energy per Si atom -5585.096981 kJ/mol
# Density = 1.877006 g / cm^3
# Si number density = 18.812877 Si / 1000 Ang^3
#
#
#
# Elastic Constant Matrix: (Units=GPa)
#
#
# Indices 1 2 3 4 5 6 
#
# 1 81.9994 36.2189 53.7904 0.0000 2.4569 0.0000
# 2 36.2189 81.4775 54.0400 0.0000 -2.8791 0.0000
# 3 53.7904 54.0400 152.2390 0.0000 5.1700 0.0000
# 4 0.0000 0.0000 0.0000 17.9136 0.0000 -2.1864
# 5 2.4569 -2.8791 5.1700 0.0000 37.1046 0.0000
# 6 0.0000 0.0000 0.0000 -2.1864 0.0000 26.0202
#
#
#
# Elastic Compliance Matrix: (Units=1/GPa)
#
#
# Indices 1 2 3 4 5 6 
#
# 1 0.017187 -0.004793 -0.004340 0.000000 -0.000905 0.000000
# 2 -0.004793 0.017546 -0.004614 0.000000 0.002322 0.000000
# 3 -0.004340 -0.004614 0.009789 0.000000 -0.001434 0.000000
# 4 0.000000 0.000000 0.000000 0.056402 0.000000 0.004739
# 5 -0.000905 0.002322 -0.001434 0.000000 0.027391 0.000000
# 6 0.000000 0.000000 0.000000 0.004739 0.000000 0.038830
#
#
# Mechanical properties :
#
#
# Convention : Reuss Voigt Hill
#
# Bulk Modulus (GPa) = 58.73002 67.09049 62.91026
# Shear Modulus (GPa) = 24.96085 27.65213 26.30649
#
# Velocity S-wave (km/s) = 3.64647 3.83802 3.74347
# Velocity P-wave (km/s) = 7.00106 7.44177 7.22478
#
# Compressibility (1/GPa) = 0.01702707
#
# Stress axis : x y z
#
# Youngs Moduli (GPa) = 58.18455 56.99316 102.15990
#
# Poissons Ratio (x) = 0.27318 0.44341
# Poissons Ratio (y) = 0.27889 0.47132
# Poissons Ratio (z) = 0.25254 0.26294
#
# Static dielectric constant tensor:
#      x y z
#    x 1.616750 0.000000 -0.035960 
#    y 0.000000 1.661840 0.000000 
#    z -0.035960 0.000000 1.587380 
# 
# From -- ./inp_files/183827.got.cif
#   From: 2010.05.17/outbox.cif.g08.bks.cpg/sg12_92_cif.got.tgz:183827.got - 2010.06.03 13:09:07.
