data_PCOD9206895
_publ_section_title
;
Structure prediction by ZEFSAII (Michael W. Deem and Ramdas Pophale) SiO2 
 PCOD9206895
Probable space group: C 2/M
;
_chemical_formula_sum "Si O2"
_cell_formula_units_Z 48
_cell_length_a 34.393297
_cell_length_b 9.225252
_cell_length_c 10.342605
_cell_angle_alpha 90.000000
_cell_angle_beta 115.455647
_cell_angle_gamma 90.000000
_cell_volume 2962.991668
_symmetry_space_group_name_H-M "C 2/M"
_symmetry_group_IT_number 12
_symmetry_cell_setting 'monoclinic'
loop_
_space_group_symop_operation_xyz
x,y,z
-x,y,-z
-x,-y,-z
x,-y,z
1/2+x,1/2+y,z
1/2-x,1/2+y,-z
1/2-x,1/2-y,-z
1/2+x,1/2-y,z
loop_
_atom_site_type_symbol
_atom_site_label
_atom_site_fract_x
_atom_site_fract_y
_atom_site_fract_z
Si Si1 0.019303 0.326119 0.387239
Si Si2 0.614404 0.172341 0.446060
Si Si3 0.699566 0.328113 0.567506
Si Si4 0.112175 0.671198 0.133442
Si Si5 0.206645 0.672815 0.301014
Si Si6 0.970728 0.827258 0.083861
O O1 0.016970 0.500000 0.362137
O O2 0.992636 0.246401 0.238321
O O3 0.000000 0.294644 0.500000
O O4 0.069579 0.284765 0.447621
O O5 0.656843 0.251754 0.558969
O O6 0.609913 0.201045 0.285055
O O7 0.620433 0.000000 0.468473
O O8 0.693141 0.500000 0.556266
O O9 0.746825 0.298160 0.695882
O O10 0.704001 0.266463 0.427903
O O11 0.103286 0.500000 0.103203
O O12 0.161771 0.699974 0.164015
O O13 0.076523 0.763829 0.010430
O O14 0.206070 0.500000 0.334604
O O15 0.969320 0.000000 0.096803
O O16 0.000000 0.793180 0.000000
#
# Coordination Sequence:
#
# PCOD9206895 Si02
#       6
#     8   8   8   8   8   8
#     4  10  21  37  55  72  93 128 171 207 241 287
#     4   9  17  29  45  67  94 123 158 199 240 283
#     4   9  15  23  39  62  91 124 156 189 234 288
#     4   9  16  28  47  67  92 127 162 197 236 279
#     4   8  15  26  38  60  92 124 156 193 234 277
#     4  11  22  33  48  73 102 129 160 199 246 295
#
# _framework density 16.199842
#
# number of rings (size 3 to 8) (size 9 to 14) (size 15 to 20)
#    0.000    2.667    1.667    2.000    0.000    5.000 
#    0.000    0.000    0.000    0.000    0.000    1.167 
#    0.000    0.000    0.000    0.000    0.000    0.000 
#
# Total GULP energy -133626.962808 kJ/mol
# GULP energy per Si atom -5567.790117 kJ/mol
# Density = 1.616297 g / cm^3
# Si number density = 16.199842 Si / 1000 Ang^3
#
#
#
# Elastic Constant Matrix: (Units=GPa)
#
#
# Indices 1 2 3 4 5 6 
#
# 1 153.8998 57.2330 70.0905 0.0000 40.1116 0.0000
# 2 57.2330 39.6706 44.2330 0.0000 13.4738 0.0000
# 3 70.0905 44.2330 65.7720 0.0000 17.1854 0.0000
# 4 0.0000 0.0000 0.0000 17.1846 0.0000 9.0825
# 5 40.1116 13.4738 17.1854 0.0000 26.8033 0.0000
# 6 0.0000 0.0000 0.0000 9.0825 0.0000 25.1057
#
#
#
# Elastic Compliance Matrix: (Units=1/GPa)
#
#
# Indices 1 2 3 4 5 6 
#
# 1 0.019615 -0.016530 -0.005150 0.000000 -0.017742 0.000000
# 2 -0.016530 0.116405 -0.062277 0.000000 0.006151 0.000000
# 3 -0.005150 -0.062277 0.062922 0.000000 -0.001330 0.000000
# 4 0.000000 0.000000 0.000000 0.071949 0.000000 -0.026029
# 5 -0.017742 0.006151 -0.001330 0.000000 0.061621 0.000000
# 6 0.000000 0.000000 0.000000 -0.026029 0.000000 0.049248
#
#
# Mechanical properties :
#
#
# Convention : Reuss Voigt Hill
#
# Bulk Modulus (GPa) = 32.22834 66.93949 49.58392
# Shear Modulus (GPa) = 8.92833 19.67111 14.29972
#
# Velocity S-wave (km/s) = 2.35018 3.48843 2.97426
# Velocity P-wave (km/s) = 5.22512 7.59186 6.51683
#
# Compressibility (1/GPa) = 0.03102859
#
# Stress axis : x y z
#
# Youngs Moduli (GPa) = 50.98238 8.59073 15.89262
#
# Poissons Ratio (x) = 0.14200 0.08185
# Poissons Ratio (y) = 0.84272 0.98974
# Poissons Ratio (z) = 0.26257 0.53500
#
# Static dielectric constant tensor:
#      x y z
#    x 1.587930 0.000000 0.030290 
#    y 0.000000 1.538310 0.000000 
#    z 0.030290 0.000000 1.513420 
# 
# From -- ./inp_files/185496.got.cif
#   From: 2010.05.17/outbox.cif.g08.bks.cpg/sg12_93_cif.got.tgz:185496.got - 2010.06.03 13:09:07.
