data_PCOD9206213
_publ_section_title
;
Structure prediction by ZEFSAII (Michael W. Deem and Ramdas Pophale) SiO2 
 PCOD9206213
Probable space group: C 2/M
;
_chemical_formula_sum "Si O2"
_cell_formula_units_Z 32
_cell_length_a 5.297911
_cell_length_b 26.460180
_cell_length_c 8.999282
_cell_angle_alpha 90.000000
_cell_angle_beta 94.158462
_cell_angle_gamma 90.000000
_cell_volume 1258.231181
_symmetry_space_group_name_H-M "C 2/M"
_symmetry_group_IT_number 12
_symmetry_cell_setting 'monoclinic'
loop_
_space_group_symop_operation_xyz
x,y,z
-x,y,-z
-x,-y,-z
x,-y,z
1/2+x,1/2+y,z
1/2-x,1/2+y,-z
1/2-x,1/2-y,-z
1/2+x,1/2-y,z
loop_
_atom_site_type_symbol
_atom_site_label
_atom_site_fract_x
_atom_site_fract_y
_atom_site_fract_z
Si Si1 0.261987 0.670666 0.083949
Si Si2 0.746653 0.806640 0.431351
Si Si3 0.707048 0.441149 0.821229
Si Si4 0.313025 0.056987 0.364457
O O1 0.252395 0.689221 0.254495
O O2 0.278258 0.609255 0.079630
O O3 0.500000 0.690108 0.000000
O O4 0.000000 0.686269 0.000000
O O5 0.500000 0.827263 0.500000
O O6 0.750000 0.750000 0.500000
O O7 0.000000 0.832587 0.500000
O O8 0.662417 0.500000 0.869801
O O9 0.466579 0.427483 0.703114
O O10 0.987763 0.442539 0.762509
O O11 0.500000 0.077113 0.500000
O O12 0.260915 0.000000 0.413840
#
# Coordination Sequence:
#
# PCOD9206213 Si02
#       4
#     8   8   8   8
#     4  12  26  44  68 104 144 181 229 286 340 404
#     4  10  23  48  76 104 136 177 225 280 353 423
#     4  10  21  36  56  87 132 185 231 273 326 390
#     4   9  17  31  52  82 121 172 234 287 329 378
#
# _framework density 25.432527
#
# number of rings (size 3 to 8) (size 9 to 14) (size 15 to 20)
#    0.000    1.750    0.000    3.750    0.000    7.000 
#    0.000   15.000    0.000    0.000    0.000    0.000 
#    0.000    0.000    0.000    0.000    0.000    0.000 
#
# Total GULP energy -89242.363382 kJ/mol
# GULP energy per Si atom -5577.647711 kJ/mol
# Density = 2.537464 g / cm^3
# Si number density = 25.432527 Si / 1000 Ang^3
#
#
#
# Elastic Constant Matrix: (Units=GPa)
#
#
# Indices 1 2 3 4 5 6 
#
# 1 248.6791 25.2965 92.8328 0.0000 11.2210 0.0000
# 2 25.2965 133.9976 39.0651 0.0000 -11.2490 0.0000
# 3 92.8328 39.0651 184.1515 0.0000 -7.6584 0.0000
# 4 0.0000 0.0000 0.0000 -0.7328 0.0000 -59.5962
# 5 11.2210 -11.2490 -7.6584 0.0000 58.6760 0.0000
# 6 0.0000 0.0000 0.0000 -59.5962 0.0000 -147.2038
#
#
#
# Elastic Compliance Matrix: (Units=1/GPa)
#
#
# Indices 1 2 3 4 5 6 
#
# 1 0.005064 -0.000330 -0.002540 0.000000 -0.001363 0.000000
# 2 -0.000330 0.008078 -0.001488 0.000000 0.001418 0.000000
# 3 -0.002540 -0.001488 0.007073 0.000000 0.001124 0.000000
# 4 0.000000 0.000000 0.000000 0.042744 0.000000 -0.017305
# 5 -0.001363 0.001418 0.001124 0.000000 0.017722 0.000000
# 6 0.000000 0.000000 0.000000 -0.017305 0.000000 0.000213
#
#
# Mechanical properties :
#
#
# Convention : Reuss Voigt Hill
#
# Bulk Modulus (GPa) = 86.96161 97.91301 92.43731
# Shear Modulus (GPa) = 53.50824 9.45679 31.48252
#
# Velocity S-wave (km/s) = 4.59184 1.93040 3.52217
# Velocity P-wave (km/s) = 7.89814 6.59934 7.27777
#
# Compressibility (1/GPa) = 0.01149933
#
# Stress axis : x y z
#
# Youngs Moduli (GPa) = 197.45605 123.79258 141.38191
#
# Poissons Ratio (x) = 0.04087 0.35907
# Poissons Ratio (y) = 0.06518 0.21041
# Poissons Ratio (z) = 0.50148 0.18424
#
# Static dielectric constant tensor:
#      x y z
#    x 1.944980 0.000000 0.055310 
#    y 0.000000 2.838310 0.000000 
#    z 0.055310 0.000000 1.967610 
# 
# From -- ./inp_files/34579.got.cif
#   From: 2010.05.17/outbox.cif.g08.bks.cpg/sg12_18_cif.got.tgz:34579.got - 2010.06.03 13:09:07.
