data_PCOD9206365
_publ_section_title
;
Structure prediction by ZEFSAII (Michael W. Deem and Ramdas Pophale) SiO2 
 PCOD9206365
Probable space group: C 2/M
;
_chemical_formula_sum "Si O2"
_cell_formula_units_Z 32
_cell_length_a 10.187299
_cell_length_b 25.632135
_cell_length_c 5.134714
_cell_angle_alpha 90.000000
_cell_angle_beta 87.162505
_cell_angle_gamma 90.000000
_cell_volume 1339.144070
_symmetry_space_group_name_H-M "C 2/M"
_symmetry_group_IT_number 12
_symmetry_cell_setting 'monoclinic'
loop_
_space_group_symop_operation_xyz
x,y,z
-x,y,-z
-x,-y,-z
x,-y,z
1/2+x,1/2+y,z
1/2-x,1/2+y,-z
1/2-x,1/2-y,-z
1/2+x,1/2-y,z
loop_
_atom_site_type_symbol
_atom_site_label
_atom_site_fract_x
_atom_site_fract_y
_atom_site_fract_z
Si Si1 0.719865 0.443786 0.917861
Si Si2 0.212115 0.165515 0.086441
Si Si3 0.356669 0.911404 0.393633
Si Si4 0.630424 0.233459 0.325820
O O1 0.655107 0.500000 0.966577
O O2 0.770494 0.439933 0.619604
O O3 0.651292 0.388200 0.981687
O O4 0.839714 0.439623 0.116403
O O5 0.290910 0.144180 0.331385
O O6 0.320579 0.188867 0.877005
O O7 0.116388 0.212550 0.163472
O O8 0.500000 0.907541 0.500000
O O9 0.500000 0.222588 0.500000
O O10 0.750000 0.250000 0.500000
#
# Coordination Sequence:
#
# PCOD9206365 Si02
#       4
#     8   8   8   8
#     4  10  21  36  58  92 136 181 229 280 343 415
#     4   9  24  40  61 100 132 179 231 284 346 411
#     4  10  21  36  57  92 137 179 227 280 341 412
#     4  11  24  45  71  98 138 181 235 290 350 413
#
# _framework density 23.895859999999999
#
# number of rings (size 3 to 8) (size 9 to 14) (size 15 to 20)
#    1.500    0.500    0.000    3.000    0.000   13.000 
#    0.000    0.000    0.000    0.750    0.000    3.500 
#    0.000    0.000    0.000    0.000    0.000    0.000 
#
# Total GULP energy -89253.101042 kJ/mol
# GULP energy per Si atom -5578.318815 kJ/mol
# Density = 2.384147 g / cm^3
# Si number density = 23.895860 Si / 1000 Ang^3
#
#
#
# Elastic Constant Matrix: (Units=GPa)
#
#
# Indices 1 2 3 4 5 6 
#
# 1 92.5601 24.0546 36.7445 0.0000 3.4257 0.0000
# 2 24.0546 211.4719 34.3642 0.0000 -4.7134 0.0000
# 3 36.7445 34.3642 134.6611 0.0000 12.3671 0.0000
# 4 0.0000 0.0000 0.0000 16.9379 0.0000 -4.7714
# 5 3.4257 -4.7134 12.3671 0.0000 18.8641 0.0000
# 6 0.0000 0.0000 0.0000 -4.7714 0.0000 -2.4194
#
#
#
# Elastic Compliance Matrix: (Units=1/GPa)
#
#
# Indices 1 2 3 4 5 6 
#
# 1 0.012278 -0.000906 -0.003079 0.000000 -0.000438 0.000000
# 2 -0.000906 0.005087 -0.001258 0.000000 0.002261 0.000000
# 3 -0.003079 -0.001258 0.009114 0.000000 -0.005730 0.000000
# 4 0.000000 0.000000 0.000000 0.037954 0.000000 -0.074850
# 5 -0.000438 0.002261 -0.005730 0.000000 0.057411 0.000000
# 6 0.000000 0.000000 0.000000 -0.074850 0.000000 -0.265707
#
#
# Mechanical properties :
#
#
# Convention : Reuss Voigt Hill
#
# Bulk Modulus (GPa) = 62.53360 69.89107 66.21234
# Shear Modulus (GPa) = -39.04844 29.57850 -4.73497
#
# Velocity S-wave (km/s) = -4.04680 3.52207 -1.40919
# Velocity P-wave (km/s) = 2.09538 6.77138 5.01210
#
# Compressibility (1/GPa) = 0.01599140
#
# Stress axis : x y z
#
# Youngs Moduli (GPa) = 81.44882 196.59097 109.72705
#
# Poissons Ratio (x) = 0.17811 0.33782
# Poissons Ratio (y) = 0.07379 0.13809
# Poissons Ratio (z) = 0.25076 0.24740
#
# Static dielectric constant tensor:
#      x y z
#    x 1.860590 0.000000 0.021920 
#    y 0.000000 2.009430 0.000000 
#    z 0.021920 0.000000 1.939860 
# 
# From -- ./inp_files/6823.got.cif
#   From: 2010.05.17/outbox.cif.g08.bks.cpg/sg12_4_cif.got.tgz:6823.got - 2010.06.03 13:09:07.
