data_PCOD9206891
_publ_section_title
;
Structure prediction by ZEFSAII (Michael W. Deem and Ramdas Pophale) SiO2 
 PCOD9206891
Probable space group: C 2/M
;
_chemical_formula_sum "Si O2"
_cell_formula_units_Z 56
_cell_length_a 14.519671
_cell_length_b 13.827923
_cell_length_c 21.372361
_cell_angle_alpha 90.000000
_cell_angle_beta 40.451612
_cell_angle_gamma 90.000000
_cell_volume 2784.074421
_symmetry_space_group_name_H-M "C 2/M"
_symmetry_group_IT_number 12
_symmetry_cell_setting 'monoclinic'
loop_
_space_group_symop_operation_xyz
x,y,z
-x,y,-z
-x,-y,-z
x,-y,z
1/2+x,1/2+y,z
1/2-x,1/2+y,-z
1/2-x,1/2-y,-z
1/2+x,1/2-y,z
loop_
_atom_site_type_symbol
_atom_site_label
_atom_site_fract_x
_atom_site_fract_y
_atom_site_fract_z
Si Si1 0.446132 0.384474 0.241211
Si Si2 0.582849 0.263438 0.282629
Si Si3 0.347699 0.888613 0.578209
Si Si4 0.464345 0.388312 0.446254
Si Si5 0.341252 0.110920 0.434080
Si Si6 0.162152 0.764925 0.938620
Si Si7 0.776326 0.886875 0.977514
O O1 0.439235 0.500000 0.256986
O O2 0.506694 0.329316 0.269494
O O3 0.285051 0.349605 0.314702
O O4 0.559687 0.369830 0.128077
O O5 0.574345 0.326041 0.349772
O O6 0.481395 0.171357 0.346293
O O7 0.736429 0.243104 0.174245
O O8 0.500000 0.838545 0.500000
O O9 0.311333 0.891129 0.523820
O O10 0.368455 0.000000 0.590479
O O11 0.500000 0.389898 0.500000
O O12 0.463145 0.500000 0.423694
O O13 0.304087 0.348793 0.520173
O O14 0.360558 0.000000 0.403173
O O15 0.183133 0.672810 0.975082
O O16 0.227394 0.848402 0.949825
O O17 0.000000 0.777292 0.000000
O O18 0.744790 0.000000 0.989554
#
# Coordination Sequence:
#
# PCOD9206891 Si02
#       7
#     8   8   8   8   8   8   8
#     4   9  17  33  58  82 110 153 200 242 291 357
#     4  11  21  37  60  84 115 162 201 239 303 358
#     4   9  17  29  48  77 112 146 185 234 281 339
#     4  10  21  39  60  88 122 156 198 243 291 356
#     4  10  21  37  54  81 121 155 195 244 288 348
#     4  10  23  42  61  92 127 158 209 265 307 369
#     4   9  20  41  66  89 119 161 205 257 317 367
#
# _framework density 20.114404
#
# number of rings (size 3 to 8) (size 9 to 14) (size 15 to 20)
#    0.000    2.286    1.429    0.857    0.000    3.429 
#    7.714    1.429    0.000    0.000    0.000    0.000 
#    0.000    0.000    0.000    0.000    0.000    0.000 
#
# Total GULP energy -156234.247489 kJ/mol
# GULP energy per Si atom -5579.794553 kJ/mol
# Density = 2.006862 g / cm^3
# Si number density = 20.114404 Si / 1000 Ang^3
#
#
#
# Elastic Constant Matrix: (Units=GPa)
#
#
# Indices 1 2 3 4 5 6 
#
# 1 56.8696 -1.3909 13.3262 0.0000 -3.7430 0.0000
# 2 -1.3909 64.0031 16.6504 0.0000 9.7410 0.0000
# 3 13.3262 16.6504 91.5414 -0.0001 1.2240 0.0000
# 4 0.0000 0.0000 -0.0001 20.5673 0.0000 -0.9435
# 5 -3.7430 9.7410 1.2240 0.0000 28.5324 0.0000
# 6 0.0000 0.0000 0.0000 -0.9435 0.0000 15.2817
#
#
#
# Elastic Compliance Matrix: (Units=1/GPa)
#
#
# Indices 1 2 3 4 5 6 
#
# 1 0.018422 0.000799 -0.002857 0.000000 0.002267 0.000000
# 2 0.000799 0.017336 -0.003194 0.000000 -0.005677 0.000000
# 3 -0.002857 -0.003194 0.011918 0.000000 0.000204 0.000000
# 4 0.000000 0.000000 0.000000 0.048759 0.000000 0.003010
# 5 0.002267 -0.005677 0.000204 0.000000 0.037275 0.000000
# 6 0.000000 0.000000 0.000000 0.003010 0.000000 0.065624
#
#
# Mechanical properties :
#
#
# Convention : Reuss Voigt Hill
#
# Bulk Modulus (GPa) = 26.90183 29.95397 28.42790
# Shear Modulus (GPa) = 22.49924 25.13150 23.81537
#
# Velocity S-wave (km/s) = 3.34812 3.53856 3.44466
# Velocity P-wave (km/s) = 5.32447 5.62311 5.47583
#
# Compressibility (1/GPa) = 0.03717219
#
# Stress axis : x y z
#
# Youngs Moduli (GPa) = 54.28178 57.68196 83.90553
#
# Poissons Ratio (x) = -0.04607 0.23976
# Poissons Ratio (y) = -0.04336 0.26797
# Poissons Ratio (z) = 0.15511 0.18422
#
# Static dielectric constant tensor:
#      x y z
#    x 1.721830 0.000000 -0.018210 
#    y 0.000000 1.754750 0.000000 
#    z -0.018210 0.000000 1.718970 
# 
# From -- ./inp_files/310746.got.cif
#   From: 2010.05.17/outbox.cif.g08.bks.cpg/sg12_156_cif.got.tgz:310746.got - 2010.06.03 13:09:07.
