data_PCOD9206896
_publ_section_title
;
Structure prediction by ZEFSAII (Michael W. Deem and Ramdas Pophale) SiO2 
 PCOD9206896
Probable space group: C 2/M
;
_chemical_formula_sum "Si O2"
_cell_formula_units_Z 48
_cell_length_a 8.486025
_cell_length_b 13.493555
_cell_length_c 18.639897
_cell_angle_alpha 90.000000
_cell_angle_beta 88.441298
_cell_angle_gamma 90.000000
_cell_volume 2133.602304
_symmetry_space_group_name_H-M "C 2/M"
_symmetry_group_IT_number 12
_symmetry_cell_setting 'monoclinic'
loop_
_space_group_symop_operation_xyz
x,y,z
-x,y,-z
-x,-y,-z
x,-y,z
1/2+x,1/2+y,z
1/2-x,1/2+y,-z
1/2-x,1/2-y,-z
1/2+x,1/2-y,z
loop_
_atom_site_type_symbol
_atom_site_label
_atom_site_fract_x
_atom_site_fract_y
_atom_site_fract_z
Si Si1 0.173694 0.380172 0.969205
Si Si2 0.827032 0.116139 0.110075
Si Si3 0.104377 0.701021 0.650712
Si Si4 0.133325 0.186449 0.450408
Si Si5 0.669802 0.614688 0.170737
Si Si6 0.671614 0.196675 0.255244
O O1 0.197339 0.500000 0.962288
O O2 0.198136 0.347390 0.886888
O O3 0.287750 0.343925 0.031521
O O4 0.000000 0.362080 0.000000
O O5 0.727417 0.152135 0.179648
O O6 0.009778 0.125022 0.126905
O O7 0.789945 0.000000 0.105624
O O8 0.240312 0.640551 0.607179
O O9 0.191375 0.795990 0.686765
O O10 0.976275 0.740818 0.595500
O O11 0.991958 0.653572 0.712884
O O12 0.250000 0.250000 0.500000
O O13 0.000000 0.131073 0.500000
O O14 0.691645 0.500000 0.190151
O O15 0.651312 0.686659 0.237602
#
# Coordination Sequence:
#
# PCOD9206896 Si02
#       6
#     8   8   8   8   8   8
#     4   9  19  34  53  76  98 130 186 244 272 308
#     4  10  21  37  55  73 102 144 185 224 275 326
#     4   9  18  29  48  77 116 140 171 219 260 305
#     4   8  14  28  50  77 110 144 175 213 252 299
#     4  10  21  37  55  73 102 144 186 223 274 328
#     4  11  20  34  50  79 114 143 169 224 272 321
#
# _framework density 22.497163
#
# number of rings (size 3 to 8) (size 9 to 14) (size 15 to 20)
#    0.000    2.500    1.667    0.500    2.333    2.667 
#    0.000    0.000    0.000    0.000    0.000    0.000 
#    0.000  336.000    0.000    0.000    0.000    0.000 
#
# Total GULP energy -133742.000115 kJ/mol
# GULP energy per Si atom -5572.583338 kJ/mol
# Density = 2.244596 g / cm^3
# Si number density = 22.497163 Si / 1000 Ang^3
#
#
#
# Elastic Constant Matrix: (Units=GPa)
#
#
# Indices 1 2 3 4 5 6 
#
# 1 89.9488 10.4033 42.9535 0.0000 -32.4945 0.0000
# 2 10.4033 37.4388 15.9243 0.0000 2.1839 0.0000
# 3 42.9535 15.9243 101.8930 0.0000 -17.9259 0.0000
# 4 0.0000 0.0000 0.0000 -1.3286 0.0000 1.1692
# 5 -32.4945 2.1839 -17.9259 0.0000 62.1665 0.0000
# 6 0.0000 0.0000 0.0000 1.1692 0.0000 11.8143
#
#
#
# Elastic Compliance Matrix: (Units=1/GPa)
#
#
# Indices 1 2 3 4 5 6 
#
# 1 0.016576 -0.002783 -0.005279 0.000000 0.007240 0.000000
# 2 -0.002783 0.029428 -0.004070 0.000000 -0.003662 0.000000
# 3 -0.005279 -0.004070 0.012868 0.000000 0.001094 0.000000
# 4 0.000000 0.000000 0.000000 -0.692383 0.000000 0.068519
# 5 0.007240 -0.003662 0.001094 0.000000 0.020314 0.000000
# 6 0.000000 0.000000 0.000000 0.068519 0.000000 0.077863
#
#
# Mechanical properties :
#
#
# Convention : Reuss Voigt Hill
#
# Bulk Modulus (GPa) = 28.89515 40.87142 34.88328
# Shear Modulus (GPa) = -10.00933 25.19707 7.59387
#
# Velocity S-wave (km/s) = -2.11159 3.35029 1.83924
# Velocity P-wave (km/s) = 2.63186 5.75957 4.47769
#
# Compressibility (1/GPa) = 0.03460789
#
# Stress axis : x y z
#
# Youngs Moduli (GPa) = 60.32995 33.98075 77.71086
#
# Poissons Ratio (x) = 0.09456 0.41023
# Poissons Ratio (y) = 0.16789 0.31631
# Poissons Ratio (z) = 0.31848 0.13831
#
# Static dielectric constant tensor:
#      x y z
#    x 1.884360 0.000000 -0.013090 
#    y 0.000000 1.856540 0.000000 
#    z -0.013090 0.000000 1.910150 
# 
# From -- ./inp_files/255749.got.cif
#   From: 2010.05.17/outbox.cif.g08.bks.cpg/sg12_128_cif.got.tgz:255749.got - 2010.06.03 13:09:07.
