data_PCOD9206513
_publ_section_title
;
Structure prediction by ZEFSAII (Michael W. Deem and Ramdas Pophale) SiO2 
 PCOD9206513
Probable space group: C 2/M
;
_chemical_formula_sum "Si O2"
_cell_formula_units_Z 64
_cell_length_a 18.403706
_cell_length_b 22.000781
_cell_length_c 11.765760
_cell_angle_alpha 90.000000
_cell_angle_beta 47.367150
_cell_angle_gamma 90.000000
_cell_volume 3504.849480
_symmetry_space_group_name_H-M "C 2/M"
_symmetry_group_IT_number 12
_symmetry_cell_setting 'monoclinic'
loop_
_space_group_symop_operation_xyz
x,y,z
-x,y,-z
-x,-y,-z
x,-y,z
1/2+x,1/2+y,z
1/2-x,1/2+y,-z
1/2-x,1/2-y,-z
1/2+x,1/2-y,z
loop_
_atom_site_type_symbol
_atom_site_label
_atom_site_fract_x
_atom_site_fract_y
_atom_site_fract_z
Si Si1 0.862713 0.071434 0.715133
Si Si2 0.373555 0.212186 0.785146
Si Si3 0.907667 0.072543 0.181682
Si Si4 0.753961 0.838180 0.267142
Si Si5 0.391574 0.769548 0.161766
Si Si6 0.570268 0.378969 0.585686
Si Si7 0.764496 0.676625 0.122124
Si Si8 0.402605 0.763850 0.421002
O O1 0.867026 0.084422 0.574993
O O2 0.770971 0.108682 0.861240
O O3 0.959027 0.103571 0.666785
O O4 0.864593 0.000000 0.735429
O O5 0.313093 0.164138 0.773642
O O6 0.328070 0.276991 0.792734
O O7 0.490752 0.211579 0.651762
O O8 0.342162 0.200846 0.947735
O O9 0.804074 0.098458 0.243928
O O10 0.918656 0.101518 0.295342
O O11 0.906240 0.000000 0.193617
O O12 0.000000 0.088054 0.000000
O O13 0.848503 0.793505 0.157535
O O14 0.684413 0.804192 0.433038
O O15 0.314979 0.817568 0.191022
O O16 0.393639 0.767193 0.294754
O O17 0.500000 0.780751 0.000000
O O18 0.595826 0.307581 0.548410
#
# Coordination Sequence:
#
# PCOD9206513 Si02
#       8
#     8   8   8   8   8   8   8   8
#     4  11  23  38  60  87 121 162 199 243 291 356
#     4  10  21  37  58  87 118 155 193 249 300 351
#     4  11  25  42  60  84 121 163 203 248 295 353
#     4  11  24  35  59  89 119 155 200 239 299 361
#     4  11  21  36  56  87 120 153 191 244 306 354
#     4  11  22  38  59  89 122 157 194 240 302 362
#     4  10  21  36  59  85 117 157 199 242 297 353
#     4  12  22  37  61  91 124 155 190 249 305 356
#
# _framework density 18.260413
#
# number of rings (size 3 to 8) (size 9 to 14) (size 15 to 20)
#    0.000    1.125    3.750    4.125    5.250    0.000 
#    0.000    0.000    0.000    2.625    0.000    0.000 
#    0.000    0.000    0.000    0.000    0.000    0.000 
#
# Total GULP energy -178636.815103 kJ/mol
# GULP energy per Si atom -5582.400472 kJ/mol
# Density = 1.821885 g / cm^3
# Si number density = 18.260413 Si / 1000 Ang^3
#
#
#
# Elastic Constant Matrix: (Units=GPa)
#
#
# Indices 1 2 3 4 5 6 
#
# 1 98.0575 28.5878 34.2213 0.0000 1.8579 0.0000
# 2 28.5878 67.4213 42.2125 0.0000 -12.5316 0.0000
# 3 34.2213 42.2125 64.0208 0.0000 -5.0035 0.0000
# 4 0.0000 0.0000 0.0000 18.1809 0.0000 -4.6811
# 5 1.8579 -12.5316 -5.0035 0.0000 33.5945 0.0000
# 6 0.0000 0.0000 0.0000 -4.6811 0.0000 18.6281
#
#
#
# Elastic Compliance Matrix: (Units=1/GPa)
#
#
# Indices 1 2 3 4 5 6 
#
# 1 0.012868 -0.002532 -0.005401 0.000000 -0.002460 0.000000
# 2 -0.002532 0.027510 -0.016161 0.000000 0.007995 0.000000
# 3 -0.005401 -0.016161 0.029053 0.000000 -0.001402 0.000000
# 4 0.000000 0.000000 0.000000 0.058808 0.000000 0.014778
# 5 -0.002460 0.007995 -0.001402 0.000000 0.032676 0.000000
# 6 0.000000 0.000000 0.000000 0.014778 0.000000 0.057396
#
#
# Mechanical properties :
#
#
# Convention : Reuss Voigt Hill
#
# Bulk Modulus (GPa) = 47.07337 48.83808 47.95572
# Shear Modulus (GPa) = 18.27627 22.37924 20.32776
#
# Velocity S-wave (km/s) = 3.16708 3.50460 3.34011
# Velocity P-wave (km/s) = 6.26169 6.57112 6.41827
#
# Compressibility (1/GPa) = 0.02124343
#
# Stress axis : x y z
#
# Youngs Moduli (GPa) = 77.71322 36.35073 34.41984
#
# Poissons Ratio (x) = 0.09203 0.18591
# Poissons Ratio (y) = 0.19675 0.55624
# Poissons Ratio (z) = 0.41975 0.58745
#
# Static dielectric constant tensor:
#      x y z
#    x 1.647140 0.000000 0.023530 
#    y 0.000000 1.618640 0.000000 
#    z 0.023530 0.000000 1.665250 
# 
# From -- ./inp_files/159534.got.cif
#   From: 2010.05.17/outbox.cif.g08.bks.cpg/sg12_80_cif.got.tgz:159534.got - 2010.06.03 13:09:07.
