data_PCOD9206566
_publ_section_title
;
Structure prediction by ZEFSAII (Michael W. Deem and Ramdas Pophale) SiO2 
 PCOD9206566
Probable space group: C 2/M
;
_chemical_formula_sum "Si O2"
_cell_formula_units_Z 42
_cell_length_a 28.641805
_cell_length_b 10.043990
_cell_length_c 7.791210
_cell_angle_alpha 90.000000
_cell_angle_beta 118.923244
_cell_angle_gamma 90.000000
_cell_volume 1961.791337
_symmetry_space_group_name_H-M "C 2/M"
_symmetry_group_IT_number 12
_symmetry_cell_setting 'monoclinic'
loop_
_space_group_symop_operation_xyz
x,y,z
-x,y,-z
-x,-y,-z
x,-y,z
1/2+x,1/2+y,z
1/2-x,1/2+y,-z
1/2-x,1/2-y,-z
1/2+x,1/2-y,z
loop_
_atom_site_type_symbol
_atom_site_label
_atom_site_fract_x
_atom_site_fract_y
_atom_site_fract_z
Si Si1 0.109254 0.649851 0.876647
Si Si2 0.514463 0.706543 0.838480
Si Si3 0.672934 0.657180 0.457700
Si Si4 0.785308 0.345561 0.769749
Si Si5 0.500000 0.500000 0.500000
Si Si6 0.915602 0.352398 0.566215
O O1 0.098975 0.500000 0.921076
O O2 0.088145 0.658799 0.646049
O O3 0.075979 0.750679 0.933656
O O4 0.172921 0.669365 0.001163
O O5 0.502403 0.613044 0.656658
O O6 0.475328 0.831785 0.738703
O O7 0.500000 0.652601 0.000000
O O8 0.663491 0.500000 0.411482
O O9 0.722020 0.670382 0.681090
O O10 0.695046 0.736432 0.332075
O O11 0.621019 0.734761 0.426756
O O12 0.791034 0.500000 0.716379
O O13 0.895730 0.500000 0.578775
#
# Coordination Sequence:
#
# PCOD9206566 Si02
#       6
#     8   8   8   8   2   8
#     4  10  21  41  65  90 123 163 217 274 318 376
#     4  12  25  43  69  95 127 173 214 259 327 381
#     4  10  21  36  59  90 124 163 211 267 327 385
#     4   9  19  39  62  87 120 162 215 269 321 386
#     4  12  26  48  62  94 144 168 200 276 312 400
#     4  11  23  40  63  91 128 168 215 269 320 383
#
# _framework density 21.409005000000001
#
# number of rings (size 3 to 8) (size 9 to 14) (size 15 to 20)
#    0.000    1.524    1.905    2.571    1.333    6.095 
#    5.143    0.000    0.000    0.000    0.000    0.000 
#    0.000    0.000    0.000    0.000    0.000    0.000 
#
# Total GULP energy -116924.914409 kJ/mol
# GULP energy per Si atom -5567.853067 kJ/mol
# Density = 2.136028 g / cm^3
# Si number density = 21.409005 Si / 1000 Ang^3
#
#
#
# Elastic Constant Matrix: (Units=GPa)
#
#
# Indices 1 2 3 4 5 6 
#
# 1 36.1565 28.5053 12.7343 0.0000 6.9481 0.0000
# 2 28.5053 118.4754 18.5475 0.0000 -4.0411 0.0000
# 3 12.7343 18.5475 99.6315 0.0000 -0.7551 0.0000
# 4 0.0000 0.0000 0.0000 83.8193 0.0000 81.7528
# 5 6.9481 -4.0411 -0.7551 0.0000 41.5658 0.0000
# 6 0.0000 0.0000 0.0000 81.7528 0.0000 114.1041
#
#
#
# Elastic Compliance Matrix: (Units=1/GPa)
#
#
# Indices 1 2 3 4 5 6 
#
# 1 0.036938 -0.008633 -0.003168 0.000000 -0.007071 0.000000
# 2 -0.008633 0.010739 -0.000877 0.000000 0.002471 0.000000
# 3 -0.003168 -0.000877 0.010610 0.000000 0.000637 0.000000
# 4 0.000000 0.000000 0.000000 0.039611 0.000000 -0.028380
# 5 -0.007071 0.002471 0.000637 0.000000 0.025492 0.000000
# 6 0.000000 0.000000 0.000000 -0.028380 0.000000 0.029098
#
#
# Mechanical properties :
#
#
# Convention : Reuss Voigt Hill
#
# Bulk Modulus (GPa) = 30.36544 41.53751 35.95147
# Shear Modulus (GPa) = 26.48024 60.86292 43.67158
#
# Velocity S-wave (km/s) = 3.52074 5.33764 4.52139
# Velocity P-wave (km/s) = 5.54452 7.57834 6.63976
#
# Compressibility (1/GPa) = 0.03293218
#
# Stress axis : x y z
#
# Youngs Moduli (GPa) = 27.07251 93.11703 94.25084
#
# Poissons Ratio (x) = 0.80384 0.29856
# Poissons Ratio (y) = 0.23370 0.08267
# Poissons Ratio (z) = 0.08576 0.08168
#
# Static dielectric constant tensor:
#      x y z
#    x 1.756140 0.000000 0.031190 
#    y 0.000000 1.747880 0.000000 
#    z 0.031190 0.000000 1.800570 
# 
# From -- ./inp_files/108495.got.cif
#   From: 2010.05.17/outbox.cif.g08.bks.cpg/sg12_55_cif.got.tgz:108495.got - 2010.06.03 13:09:07.
