data_PCOD9206686
_publ_section_title
;
Structure prediction by ZEFSAII (Michael W. Deem and Ramdas Pophale) SiO2 
 PCOD9206686
Probable space group: C 2/M
;
_chemical_formula_sum "Si O2"
_cell_formula_units_Z 64
_cell_length_a 13.082351
_cell_length_b 25.660917
_cell_length_c 14.587620
_cell_angle_alpha 90.000000
_cell_angle_beta 138.928804
_cell_angle_gamma 90.000000
_cell_volume 3217.402188
_symmetry_space_group_name_H-M "C 2/M"
_symmetry_group_IT_number 12
_symmetry_cell_setting 'monoclinic'
loop_
_space_group_symop_operation_xyz
x,y,z
-x,y,-z
-x,-y,-z
x,-y,z
1/2+x,1/2+y,z
1/2-x,1/2+y,-z
1/2-x,1/2-y,-z
1/2+x,1/2-y,z
loop_
_atom_site_type_symbol
_atom_site_label
_atom_site_fract_x
_atom_site_fract_y
_atom_site_fract_z
Si Si1 0.081030 0.765204 0.652476
Si Si2 0.121094 0.939359 0.504531
Si Si3 0.977248 0.441626 0.737693
Si Si4 0.583494 0.674397 0.961452
Si Si5 0.958064 0.870002 0.258775
Si Si6 0.059618 0.713882 0.136501
Si Si7 0.051300 0.666430 0.755861
Si Si8 0.344330 0.940220 0.952597
O O1 0.046347 0.814792 0.692741
O O2 0.266264 0.765897 0.761189
O O3 0.027363 0.712570 0.667179
O O4 0.000000 0.770686 0.500000
O O5 0.300432 0.936672 0.655343
O O6 0.000000 0.920730 0.500000
O O7 0.089686 0.905126 0.394047
O O8 0.085703 0.000000 0.462588
O O9 0.989516 0.500000 0.705930
O O10 0.007973 0.391698 0.695358
O O11 0.098860 0.437869 0.903618
O O12 0.522460 0.641214 0.835140
O O13 0.546616 0.735221 0.918398
O O14 0.500000 0.660732 0.000000
O O15 0.767298 0.667998 0.095228
O O16 0.794511 0.900497 0.160765
O O17 0.043056 0.678070 0.214063
O O18 0.000000 0.690158 0.000000
O O19 0.293208 0.000000 0.898361
O O20 0.500000 0.930868 0.000000
#
# Coordination Sequence:
#
# PCOD9206686 Si02
#       8
#     8   8   8   8   8   8   8   8
#     4  12  28  41  60 100 135 166 218 266 321 390
#     4  10  22  41  62  92 137 180 211 255 326 397
#     4  10  23  40  63  93 127 170 219 263 316 380
#     4  11  22  42  66  93 123 166 221 265 322 386
#     4  12  23  38  64  95 132 167 214 266 325 385
#     4  11  23  40  66  92 127 168 216 256 313 395
#     4  12  23  43  67  92 128 175 207 275 333 375
#     4  10  21  36  60  95 130 169 215 263 317 381
#
# _framework density 19.891825999999998
#
# number of rings (size 3 to 8) (size 9 to 14) (size 15 to 20)
#    0.000    1.000    5.000    2.625    5.250    3.500 
#    0.000    0.000    0.000    3.750    0.000    0.000 
#    0.000    0.000    0.000    0.000    0.000    0.000 
#
# Total GULP energy -178925.980766 kJ/mol
# GULP energy per Si atom -5591.436899 kJ/mol
# Density = 1.984655 g / cm^3
# Si number density = 19.891826 Si / 1000 Ang^3
#
#
#
# Elastic Constant Matrix: (Units=GPa)
#
#
# Indices 1 2 3 4 5 6 
#
# 1 57.0324 43.6073 10.0823 0.0000 -20.0358 0.0000
# 2 43.6073 142.7407 32.7633 0.0000 -8.7650 0.0000
# 3 10.0823 32.7633 75.3854 0.0000 -11.3868 0.0000
# 4 0.0000 0.0000 0.0000 -2.8275 0.0000 7.6860
# 5 -20.0358 -8.7650 -11.3868 0.0000 28.6770 0.0000
# 6 0.0000 0.0000 0.0000 7.6860 0.0000 11.0827
#
#
#
# Elastic Compliance Matrix: (Units=1/GPa)
#
#
# Indices 1 2 3 4 5 6 
#
# 1 0.030770 -0.008802 0.002714 0.000000 0.019886 0.000000
# 2 -0.008802 0.010333 -0.004006 0.000000 -0.004582 0.000000
# 3 0.002714 -0.004006 0.015685 0.000000 0.006900 0.000000
# 4 0.000000 0.000000 0.000000 -0.122582 0.000000 0.085012
# 5 0.019886 -0.004582 0.006900 0.000000 0.050104 0.000000
# 6 0.000000 0.000000 0.000000 0.085012 0.000000 0.031274
#
#
# Mechanical properties :
#
#
# Convention : Reuss Voigt Hill
#
# Bulk Modulus (GPa) = 27.32201 49.78493 38.55347
# Shear Modulus (GPa) = 104.22642 19.96680 62.09661
#
# Velocity S-wave (km/s) = 7.24640 3.17167 5.59329
# Velocity P-wave (km/s) = 9.15308 6.20442 7.81901
#
# Compressibility (1/GPa) = 0.03660053
#
# Stress axis : x y z
#
# Youngs Moduli (GPa) = 32.49895 96.77902 63.75378
#
# Poissons Ratio (x) = 0.85186 -0.17302
# Poissons Ratio (y) = 0.28606 0.25538
# Poissons Ratio (z) = -0.08820 0.38766
#
# Static dielectric constant tensor:
#      x y z
#    x 1.681680 0.000000 -0.003690 
#    y 0.000000 1.738250 0.000000 
#    z -0.003690 0.000000 1.696720 
# 
# From -- ./inp_files/209433.got.cif
#   From: 2010.05.17/outbox.cif.g08.bks.cpg/sg12_105_cif.got.tgz:209433.got - 2010.06.03 13:09:07.
