data_PCOD9206931
_publ_section_title
;
Structure prediction by ZEFSAII (Michael W. Deem and Ramdas Pophale) SiO2 
 PCOD9206931
Probable space group: C 2/M
;
_chemical_formula_sum "Si O2"
_cell_formula_units_Z 64
_cell_length_a 17.188661
_cell_length_b 26.485377
_cell_length_c 12.609365
_cell_angle_alpha 90.000000
_cell_angle_beta 34.542491
_cell_angle_gamma 90.000000
_cell_volume 3254.900377
_symmetry_space_group_name_H-M "C 2/M"
_symmetry_group_IT_number 12
_symmetry_cell_setting 'monoclinic'
loop_
_space_group_symop_operation_xyz
x,y,z
-x,y,-z
-x,-y,-z
x,-y,z
1/2+x,1/2+y,z
1/2-x,1/2+y,-z
1/2-x,1/2-y,-z
1/2+x,1/2-y,z
loop_
_atom_site_type_symbol
_atom_site_label
_atom_site_fract_x
_atom_site_fract_y
_atom_site_fract_z
Si Si1 0.121129 0.362457 0.594143
Si Si2 0.557308 0.640872 0.225481
Si Si3 0.361596 0.941161 0.600399
Si Si4 0.649662 0.151568 0.986757
Si Si5 0.848308 0.765394 0.987378
Si Si6 0.143946 0.273574 0.398314
Si Si7 0.715904 0.660175 0.378062
Si Si8 0.073412 0.941204 0.028239
O O1 0.168738 0.409061 0.469414
O O2 0.119863 0.314480 0.516365
O O3 0.219213 0.351027 0.581672
O O4 0.972001 0.374014 0.811802
O O5 0.707839 0.644504 0.109113
O O6 0.438215 0.638852 0.445745
O O7 0.544609 0.693905 0.175067
O O8 0.542164 0.595527 0.159999
O O9 0.500000 0.921218 0.500000
O O10 0.235277 0.937700 0.822408
O O11 0.381877 0.000000 0.551137
O O12 0.600223 0.210464 0.035443
O O13 0.689477 0.138125 0.821877
O O14 0.755669 0.789716 0.184139
O O15 0.750000 0.750000 0.000000
O O16 0.198311 0.220053 0.379109
O O17 0.000000 0.264897 0.500000
O O18 0.037864 0.000000 0.089247
O O19 0.000000 0.926781 0.000000
#
# Coordination Sequence:
#
# PCOD9206931 Si02
#       8
#     8   8   8   8   8   8   8   8
#     4  12  22  36  57  83 112 145 186 232 281 326
#     4  11  19  35  59  79 105 147 193 223 268 337
#     4  10  21  38  60  86 112 140 178 225 281 341
#     4  10  21  37  55  77 110 150 187 227 274 327
#     4   9  18  31  51  79 107 140 179 220 264 319
#     4  11  20  34  55  81 114 149 188 225 269 331
#     4  11  23  36  53  80 113 148 187 231 276 323
#     4  10  21  37  57  85 117 143 174 228 292 337
#
# _framework density 19.662661
#
# number of rings (size 3 to 8) (size 9 to 14) (size 15 to 20)
#    0.000    1.500    0.000    8.250    0.000    0.000 
#    0.000    2.500    0.000    4.500    0.000    0.000 
#    0.000    0.000    0.000    0.000    0.000    0.000 
#
# Total GULP energy -178756.768425 kJ/mol
# GULP energy per Si atom -5586.149013 kJ/mol
# Density = 1.961791 g / cm^3
# Si number density = 19.662661 Si / 1000 Ang^3
#
#
#
# Elastic Constant Matrix: (Units=GPa)
#
#
# Indices 1 2 3 4 5 6 
#
# 1 79.7770 22.4729 5.1956 0.0002 14.9743 0.0001
# 2 22.4729 53.3017 11.1929 0.0000 21.0639 0.0000
# 3 5.1956 11.1929 90.0195 0.0002 19.1981 0.0002
# 4 0.0002 0.0000 0.0002 13.4281 -0.0001 7.4055
# 5 14.9743 21.0639 19.1981 -0.0001 34.8419 -0.0001
# 6 0.0001 0.0000 0.0002 7.4055 -0.0001 27.4183
#
#
#
# Elastic Compliance Matrix: (Units=1/GPa)
#
#
# Indices 1 2 3 4 5 6 
#
# 1 0.014536 -0.004803 0.000534 0.000000 -0.003638 0.000000
# 2 -0.004803 0.026239 -0.000048 0.000000 -0.013772 0.000000
# 3 0.000534 -0.000048 0.012608 0.000000 -0.007148 0.000000
# 4 0.000000 0.000000 0.000000 0.087505 0.000001 -0.023635
# 5 -0.003638 -0.013772 -0.007148 0.000001 0.042529 0.000000
# 6 0.000000 0.000000 0.000000 -0.023635 0.000000 0.042856
#
#
# Mechanical properties :
#
#
# Convention : Reuss Voigt Hill
#
# Bulk Modulus (GPa) = 22.34716 33.42455 27.88585
# Shear Modulus (GPa) = 20.01417 27.42013 23.71715
#
# Velocity S-wave (km/s) = 3.19388 3.73839 3.47681
# Velocity P-wave (km/s) = 4.99911 5.97243 5.50732
#
# Compressibility (1/GPa) = 0.04474842
#
# Stress axis : x y z
#
# Youngs Moduli (GPa) = 68.79471 38.11148 79.31334
#
# Poissons Ratio (x) = 0.18306 -0.04236
# Poissons Ratio (y) = 0.33044 0.00382
# Poissons Ratio (z) = -0.03674 0.00184
#
# Static dielectric constant tensor:
#      x y z
#    x 1.701570 0.000000 -0.014890 
#    y 0.000000 1.677800 0.000000 
#    z -0.014890 0.000000 1.715380 
# 
# From -- ./inp_files/149771.got.cif
#   From: 2010.05.17/outbox.cif.g08.bks.cpg/sg12_75_cif.got.tgz:149771.got - 2010.06.03 13:09:07.
