data_PCOD9206005
_publ_section_title
;
Structure prediction by ZEFSAII (Michael W. Deem and Ramdas Pophale) SiO2 
 PCOD9206005
Probable space group: C 2/M
;
_chemical_formula_sum "Si O2"
_cell_formula_units_Z 40
_cell_length_a 22.682069
_cell_length_b 7.462851
_cell_length_c 27.850503
_cell_angle_alpha 90.000000
_cell_angle_beta 22.107913
_cell_angle_gamma 90.000000
_cell_volume 1774.250613
_symmetry_space_group_name_H-M "C 2/M"
_symmetry_group_IT_number 12
_symmetry_cell_setting 'monoclinic'
loop_
_space_group_symop_operation_xyz
x,y,z
-x,y,-z
-x,-y,-z
x,-y,z
1/2+x,1/2+y,z
1/2-x,1/2+y,-z
1/2-x,1/2-y,-z
1/2+x,1/2-y,z
loop_
_atom_site_type_symbol
_atom_site_label
_atom_site_fract_x
_atom_site_fract_y
_atom_site_fract_z
Si Si1 0.447495 0.297491 0.988247
Si Si2 0.794874 0.715403 0.909846
Si Si3 0.851049 0.285164 0.376322
Si Si4 0.719580 0.715231 0.294622
Si Si5 0.399054 0.716512 0.509079
O O1 0.391675 0.500000 0.041951
O O2 0.614109 0.302706 0.836526
O O3 0.500000 0.212457 0.000000
O O4 0.325307 0.218989 0.041387
O O5 0.791592 0.500000 0.908610
O O6 0.970659 0.780413 0.764087
O O7 0.750000 0.750000 0.000000
O O8 0.863291 0.500000 0.361708
O O9 0.750000 0.250000 0.500000
O O10 0.736218 0.212051 0.422239
O O11 0.739076 0.500000 0.274729
O O12 0.578279 0.776735 0.366455
O O13 0.655438 0.750369 0.395933
O O14 0.405063 0.500000 0.499031
#
# Coordination Sequence:
#
# PCOD9206005 Si02
#       5
#     8   8   8   8   8
#     4  10  22  37  53  78 116 150 177 221 279 332
#     4  10  22  40  61  84 113 152 194 234 280 335
#     4  10  21  36  55  81 112 145 182 229 280 330
#     4   9  17  33  57  80 102 137 181 223 267 321
#     4   8  16  32  54  79 107 134 171 226 276 315
#
# _framework density 22.544729
#
# number of rings (size 3 to 8) (size 9 to 14) (size 15 to 20)
#    0.000    2.600    0.000    2.400    2.800    3.600 
#    0.000    3.000    0.000    0.000    0.000    0.000 
#    0.000    0.000    0.000    0.000    0.000    0.000 
#
# Total GULP energy -111430.872495 kJ/mol
# GULP energy per Si atom -5571.543625 kJ/mol
# Density = 2.249342 g / cm^3
# Si number density = 22.544729 Si / 1000 Ang^3
#
#
#
# Elastic Constant Matrix: (Units=GPa)
#
#
# Indices 1 2 3 4 5 6 
#
# 1 187.8061 13.2028 98.8618 0.0200 -40.3526 -0.0197
# 2 13.2028 65.7999 5.2517 0.0546 -4.9214 -0.0645
# 3 98.8618 5.2517 170.5326 0.0104 -42.1626 -0.0154
# 4 0.0200 0.0546 0.0104 -21.5043 -0.0108 63.4249
# 5 -40.3526 -4.9214 -42.1626 -0.0108 41.6844 0.0133
# 6 -0.0197 -0.0645 -0.0154 63.4249 0.0133 -64.6228
#
#
#
# Elastic Compliance Matrix: (Units=1/GPa)
#
#
# Indices 1 2 3 4 5 6 
#
# 1 0.008242 -0.001051 -0.003739 -0.000001 0.004073 -0.000001
# 2 -0.001051 0.015467 0.000444 0.000003 0.001258 -0.000012
# 3 -0.003739 0.000444 0.009515 0.000001 0.006058 0.000001
# 4 -0.000001 0.000003 0.000001 0.024543 -0.000001 0.024088
# 5 0.004073 0.001258 0.006058 -0.000001 0.034208 0.000002
# 6 -0.000001 -0.000012 0.000001 0.024088 0.000002 0.008167
#
#
# Mechanical properties :
#
#
# Convention : Reuss Voigt Hill
#
# Bulk Modulus (GPa) = 40.76122 73.19682 56.97902
# Shear Modulus (GPa) = 42.73115 11.56630 27.14873
#
# Velocity S-wave (km/s) = 4.35834 2.26749 3.47395
# Velocity P-wave (km/s) = 6.59137 6.27640 6.43581
#
# Compressibility (1/GPa) = 0.02453312
#
# Stress axis : x y z
#
# Youngs Moduli (GPa) = 121.33624 64.65356 105.09318
#
# Poissons Ratio (x) = 0.06793 0.39289
# Poissons Ratio (y) = 0.12749 -0.04664
# Poissons Ratio (z) = 0.45362 -0.02869
#
# Static dielectric constant tensor:
#      x y z
#    x 1.297730 0.000070 -0.402170 
#    y 0.000070 1.889560 0.000040 
#    z -0.402170 0.000040 1.595820 
# 
# From -- ./inp_files/83723.got.cif
#   From: 2010.05.17/outbox.cif.g08.bks.cpg/sg12_42_cif.got.tgz:83723.got - 2010.06.03 13:09:07.
