data_PCOD9206903
_publ_section_title
;
Structure prediction by ZEFSAII (Michael W. Deem and Ramdas Pophale) SiO2 
 PCOD9206903
Probable space group: C 2/M
;
_chemical_formula_sum "Si O2"
_cell_formula_units_Z 56
_cell_length_a 7.908761
_cell_length_b 18.579997
_cell_length_c 20.762079
_cell_angle_alpha 90.000000
_cell_angle_beta 67.607395
_cell_angle_gamma 90.000000
_cell_volume 2820.827762
_symmetry_space_group_name_H-M "C 2/M"
_symmetry_group_IT_number 12
_symmetry_cell_setting 'monoclinic'
loop_
_space_group_symop_operation_xyz
x,y,z
-x,y,-z
-x,-y,-z
x,-y,z
1/2+x,1/2+y,z
1/2-x,1/2+y,-z
1/2-x,1/2-y,-z
1/2+x,1/2-y,z
loop_
_atom_site_type_symbol
_atom_site_label
_atom_site_fract_x
_atom_site_fract_y
_atom_site_fract_z
Si Si1 0.568956 0.665892 0.226628
Si Si2 0.870915 0.665270 0.925182
Si Si3 0.435378 0.418601 0.361736
Si Si4 0.778713 0.165274 0.925176
Si Si5 0.977828 0.334117 0.226621
Si Si6 0.300180 0.166650 0.499997
Si Si7 0.158828 0.418602 0.638268
O O1 0.438811 0.621138 0.292500
O O2 0.585108 0.638600 0.150395
O O3 0.773704 0.661791 0.226312
O O4 0.516039 0.750006 0.233987
O O5 0.824764 0.749998 0.925224
O O6 0.074566 0.658956 0.925427
O O7 0.885868 0.638592 0.849615
O O8 0.734280 0.635523 0.000005
O O9 0.363298 0.500000 0.368334
O O10 0.332369 0.372960 0.430734
O O11 0.645502 0.422700 0.354506
O O12 0.976225 0.378876 0.292490
O O13 0.500000 0.162126 0.500000
O O14 0.250000 0.250000 0.500000
O O15 0.306190 0.127048 0.430724
O O16 0.099959 0.500000 0.631659
#
# Coordination Sequence:
#
# PCOD9206903 Si02
#       7
#     8   8   8   8   8   8   8
#     4   9  17  29  47  71  97 128 166 206 248 293
#     4   8  13  22  38  62  92 123 157 200 246 288
#     4  10  21  37  55  75 103 137 169 203 247 297
#     4   8  13  22  38  62  92 123 157 200 246 288
#     4   9  17  29  47  71  97 128 166 206 248 293
#     4  12  25  40  59  81 103 127 161 204 249 298
#     4  10  21  37  55  75 103 137 169 203 247 297
#
# _framework density 19.852329999999998
#
# number of rings (size 3 to 8) (size 9 to 14) (size 15 to 20)
#    0.000    2.571    0.000    2.571    0.000    5.714 
#    0.000    0.000    0.000    0.857    0.000    6.000 
#    0.000    0.000    0.000   48.857    0.000   24.571 
#
# Total GULP energy -156049.311719 kJ/mol
# GULP energy per Si atom -5573.189704 kJ/mol
# Density = 1.980714 g / cm^3
# Si number density = 19.852330 Si / 1000 Ang^3
#
#
#
# Elastic Constant Matrix: (Units=GPa)
#
#
# Indices 1 2 3 4 5 6 
#
# 1 23.4413 2.8354 6.6590 0.0000 -0.7992 0.0000
# 2 2.8354 106.4418 99.1233 0.0000 6.8302 0.0000
# 3 6.6590 99.1233 255.6330 0.0000 17.2626 0.0000
# 4 0.0000 0.0000 0.0000 -6.2121 0.0000 -1.4404
# 5 -0.7992 6.8302 17.2626 0.0000 3.9687 0.0000
# 6 0.0000 0.0000 0.0000 -1.4404 0.0000 14.0672
#
#
#
# Elastic Compliance Matrix: (Units=1/GPa)
#
#
# Indices 1 2 3 4 5 6 
#
# 1 0.044034 -0.000203 -0.002394 0.000000 0.019628 0.000000
# 2 -0.000203 0.014707 -0.005643 0.000000 -0.000807 0.000000
# 3 -0.002394 -0.005643 0.007843 0.000000 -0.024883 0.000000
# 4 0.000000 0.000000 0.000000 -0.157242 0.000000 -0.016101
# 5 0.019628 -0.000807 -0.024883 0.000000 0.365543 0.000000
# 6 0.000000 0.000000 0.000000 -0.016101 0.000000 0.069439
#
#
# Mechanical properties :
#
#
# Convention : Reuss Voigt Hill
#
# Bulk Modulus (GPa) = 19.95883 66.97239 43.46561
# Shear Modulus (GPa) = 13.24489 20.82466 17.03478
#
# Velocity S-wave (km/s) = 2.58577 3.24231 2.93247
# Velocity P-wave (km/s) = 4.35780 6.91558 5.77995
#
# Compressibility (1/GPa) = 0.05010313
#
# Stress axis : x y z
#
# Youngs Moduli (GPa) = 22.70997 67.99513 127.50848
#
# Poissons Ratio (x) = 0.01383 0.30521
# Poissons Ratio (y) = 0.00462 0.71952
# Poissons Ratio (z) = 0.05436 0.38369
#
# Static dielectric constant tensor:
#      x y z
#    x 1.698930 0.000000 0.006460 
#    y 0.000000 1.653900 0.000000 
#    z 0.006460 0.000000 1.790310 
# 
# From -- ./inp_files/332860.got.cif
#   From: 2010.05.17/outbox.cif.g08.bks.cpg/sg12_167_cif.got.tgz:332860.got - 2010.06.03 13:09:07.
