data_PCOD9206415
_publ_section_title
;
Structure prediction by ZEFSAII (Michael W. Deem and Ramdas Pophale) SiO2 
 PCOD9206415
Probable space group: C 2/M
;
_chemical_formula_sum "Si O2"
_cell_formula_units_Z 48
_cell_length_a 17.866572
_cell_length_b 12.936167
_cell_length_c 15.875930
_cell_angle_alpha 90.000000
_cell_angle_beta 36.388942
_cell_angle_gamma 90.000000
_cell_volume 2176.875923
_symmetry_space_group_name_H-M "C 2/M"
_symmetry_group_IT_number 12
_symmetry_cell_setting 'monoclinic'
loop_
_space_group_symop_operation_xyz
x,y,z
-x,y,-z
-x,-y,-z
x,-y,z
1/2+x,1/2+y,z
1/2-x,1/2+y,-z
1/2-x,1/2-y,-z
1/2+x,1/2-y,z
loop_
_atom_site_type_symbol
_atom_site_label
_atom_site_fract_x
_atom_site_fract_y
_atom_site_fract_z
Si Si1 0.737862 0.620468 0.596635
Si Si2 0.135774 0.621132 0.358942
Si Si3 0.343844 0.616186 0.832335
Si Si4 0.427753 0.172087 0.981231
Si Si5 0.459305 0.217015 0.298320
Si Si6 0.325283 0.612414 0.047829
O O1 0.701414 0.500000 0.625199
O O2 0.758077 0.660540 0.673517
O O3 0.635922 0.693136 0.646536
O O4 0.874699 0.639440 0.429902
O O5 0.125693 0.500000 0.392623
O O6 0.192285 0.621793 0.215413
O O7 0.000000 0.669144 0.500000
O O8 0.395490 0.500000 0.768909
O O9 0.439597 0.712710 0.742027
O O10 0.216267 0.631575 0.894715
O O11 0.306359 0.619249 0.965217
O O12 0.489240 0.158639 0.832187
O O13 0.500000 0.135740 0.000000
O O14 0.413439 0.295985 0.997116
O O15 0.379051 0.500000 0.019418
#
# Coordination Sequence:
#
# PCOD9206415 Si02
#       6
#     8   8   8   8   8   8
#     4  10  21  36  58  86 120 153 186 233 284 344
#     4   9  18  29  49  83 115 144 174 217 284 348
#     4  10  22  39  61  83 113 154 195 242 288 336
#     4  11  23  37  58  86 115 150 195 243 286 339
#     4  10  21  39  59  87 114 153 196 234 284 343
#     4   9  18  34  56  84 114 145 181 227 291 351
#
# _framework density 22.049948000000001
#
# number of rings (size 3 to 8) (size 9 to 14) (size 15 to 20)
#    0.000    2.167    0.000    3.500    4.667    2.000 
#    0.000    0.000    0.000    0.000    0.000    4.667 
#    0.000    0.000    0.000    0.000    0.000    0.000 
#
# Total GULP energy -133896.886570 kJ/mol
# GULP energy per Si atom -5579.036940 kJ/mol
# Density = 2.199976 g / cm^3
# Si number density = 22.049948 Si / 1000 Ang^3
#
#
#
# Elastic Constant Matrix: (Units=GPa)
#
#
# Indices 1 2 3 4 5 6 
#
# 1 95.1215 15.3181 -14.7409 0.0000 -17.4099 0.0000
# 2 15.3181 55.4617 -10.7022 0.0000 5.1197 0.0000
# 3 -14.7409 -10.7022 37.7231 0.0000 -6.9624 0.0000
# 4 0.0000 0.0000 0.0000 23.5413 0.0000 -2.6869
# 5 -17.4099 5.1197 -6.9624 0.0000 17.6516 0.0000
# 6 0.0000 0.0000 0.0000 -2.6869 0.0000 8.4095
#
#
#
# Elastic Compliance Matrix: (Units=1/GPa)
#
#
# Indices 1 2 3 4 5 6 
#
# 1 0.016596 -0.004805 0.009060 0.000000 0.021336 0.000000
# 2 -0.004805 0.020688 0.002167 0.000000 -0.009885 0.000000
# 3 0.009060 0.002167 0.034725 0.000000 0.022004 0.000000
# 4 0.000000 0.000000 0.000000 0.044086 0.000000 0.014086
# 5 0.021336 -0.009885 0.022004 0.000000 0.089242 0.000000
# 6 0.000000 0.000000 0.000000 0.014086 0.000000 0.123414
#
#
# Mechanical properties :
#
#
# Convention : Reuss Voigt Hill
#
# Bulk Modulus (GPa) = 11.78505 18.67293 15.22899
# Shear Modulus (GPa) = 14.52682 23.14924 18.83803
#
# Velocity S-wave (km/s) = 2.56952 3.24366 2.92607
# Velocity P-wave (km/s) = 3.76292 4.74503 4.28222
#
# Compressibility (1/GPa) = 0.08485330
#
# Stress axis : x y z
#
# Youngs Moduli (GPa) = 60.25693 48.33667 28.79751
#
# Poissons Ratio (x) = 0.23225 -0.26090
# Poissons Ratio (y) = 0.28953 -0.06241
# Poissons Ratio (z) = -0.54591 -0.10476
#
# Static dielectric constant tensor:
#      x y z
#    x 1.865940 0.000000 -0.016470 
#    y 0.000000 1.839150 0.000000 
#    z -0.016470 0.000000 1.847220 
# 
# From -- ./inp_files/225087.got.cif
#   From: 2010.05.17/outbox.cif.g08.bks.cpg/sg12_113_cif.got.tgz:225087.got - 2010.06.03 13:09:07.
