data_PCOD9206792
_publ_section_title
;
Structure prediction by ZEFSAII (Michael W. Deem and Ramdas Pophale) SiO2 
 PCOD9206792
Probable space group: C 2/M
;
_chemical_formula_sum "Si O2"
_cell_formula_units_Z 64
_cell_length_a 25.390077
_cell_length_b 14.653334
_cell_length_c 22.176428
_cell_angle_alpha 90.000000
_cell_angle_beta 21.144028
_cell_angle_gamma 90.000000
_cell_volume 2976.148491
_symmetry_space_group_name_H-M "C 2/M"
_symmetry_group_IT_number 12
_symmetry_cell_setting 'monoclinic'
loop_
_space_group_symop_operation_xyz
x,y,z
-x,y,-z
-x,-y,-z
x,-y,z
1/2+x,1/2+y,z
1/2-x,1/2+y,-z
1/2-x,1/2-y,-z
1/2+x,1/2-y,z
loop_
_atom_site_type_symbol
_atom_site_label
_atom_site_fract_x
_atom_site_fract_y
_atom_site_fract_z
Si Si1 0.227536 0.853608 0.447429
Si Si2 0.835064 0.894582 0.045846
Si Si3 0.080434 0.895877 0.276049
Si Si4 0.345144 0.799376 0.195688
Si Si5 0.366794 0.148013 0.422771
Si Si6 0.137217 0.243780 0.320068
Si Si7 0.798155 0.391042 0.939527
Si Si8 0.660917 0.401231 0.747002
O O1 0.320383 0.848462 0.286285
O O2 0.311237 0.888783 0.417298
O O3 0.189041 0.750092 0.506228
O O4 0.072403 0.897336 0.596824
O O5 0.746049 0.820286 0.178674
O O6 0.800680 0.872491 0.013159
O O7 0.788442 0.000000 0.106829
O O8 0.006794 0.890556 0.876662
O O9 0.076924 0.821281 0.332043
O O10 0.108966 0.000000 0.266277
O O11 0.209617 0.865083 0.093365
O O12 0.222046 0.818969 0.277731
O O13 0.328975 0.690003 0.224580
O O14 0.500000 0.818122 0.000000
O O15 0.541138 0.149166 0.238148
O O16 0.291550 0.097524 0.559172
O O17 0.000000 0.288461 0.500000
O O18 0.818417 0.500000 0.920580
O O19 0.657712 0.500000 0.782660
#
# Coordination Sequence:
#
# PCOD9206792 Si02
#       8
#     8   8   8   8   8   8   8   8
#     4  10  22  40  61  90 120 160 209 253 312 375
#     4  10  22  40  64  96 131 167 202 246 310 385
#     4  11  25  44  66  88 120 168 219 266 315 371
#     4  11  23  41  62  90 122 163 205 257 305 367
#     4  10  21  36  63  94 126 159 198 254 318 371
#     4  12  25  43  65  90 125 167 212 263 311 365
#     4  10  22  38  60  93 126 155 199 258 312 364
#     4  10  21  38  62  93 129 166 199 239 305 385
#
# _framework density 21.504304000000001
#
# number of rings (size 3 to 8) (size 9 to 14) (size 15 to 20)
#    0.000    1.500    2.500    1.875    3.500    6.250 
#    0.000    0.000    0.000    0.750    0.000    0.000 
#    0.000    0.000    0.000    0.000    0.000    0.000 
#
# Total GULP energy -178833.162711 kJ/mol
# GULP energy per Si atom -5588.536335 kJ/mol
# Density = 2.145536 g / cm^3
# Si number density = 21.504304 Si / 1000 Ang^3
#
#
#
# Elastic Constant Matrix: (Units=GPa)
#
#
# Indices 1 2 3 4 5 6 
#
# 1 62.9378 -1.0375 -1.1243 -0.0003 4.4192 0.0008
# 2 -1.0375 44.6463 4.4184 0.0038 8.6178 -0.0006
# 3 -1.1243 4.4184 115.9750 0.0036 20.6981 -0.0013
# 4 -0.0003 0.0038 0.0036 13.3445 -0.0013 -6.9821
# 5 4.4192 8.6178 20.6981 -0.0013 31.7802 0.0003
# 6 0.0008 -0.0006 -0.0013 -6.9821 0.0003 9.7431
#
#
#
# Elastic Compliance Matrix: (Units=1/GPa)
#
#
# Indices 1 2 3 4 5 6 
#
# 1 0.016118 0.000870 0.000640 -0.000001 -0.002894 -0.000002
# 2 0.000870 0.023690 0.000310 -0.000011 -0.006747 -0.000006
# 3 0.000640 0.000310 0.009785 -0.000004 -0.006546 -0.000002
# 4 -0.000001 -0.000011 -0.000004 0.119889 0.000010 0.085915
# 5 -0.002894 -0.006747 -0.006546 0.000010 0.037961 0.000005
# 6 -0.000002 -0.000006 -0.000002 0.085915 0.000005 0.164205
#
#
# Mechanical properties :
#
#
# Convention : Reuss Voigt Hill
#
# Bulk Modulus (GPa) = 18.78582 25.34136 22.06359
# Shear Modulus (GPa) = 12.96164 25.72706 19.34435
#
# Velocity S-wave (km/s) = 2.45775 3.46261 3.00252
# Velocity P-wave (km/s) = 4.09986 5.27220 4.72255
#
# Compressibility (1/GPa) = 0.05323163
#
# Stress axis : x y z
#
# Youngs Moduli (GPa) = 62.04378 42.21174 102.19508
#
# Poissons Ratio (x) = -0.03672 -0.06536
# Poissons Ratio (y) = -0.05396 -0.03168
# Poissons Ratio (z) = -0.03968 -0.01309
#
# Static dielectric constant tensor:
#      x y z
#    x 1.781400 0.000000 0.004380 
#    y 0.000000 1.810540 0.000000 
#    z 0.004380 0.000000 1.763740 
# 
# From -- ./inp_files/326106.got.cif
#   From: 2010.05.17/outbox.cif.g08.bks.cpg/sg12_164_cif.got.tgz:326106.got - 2010.06.03 13:09:07.
