data_PCOD9206198
_publ_section_title
;
Structure prediction by ZEFSAII (Michael W. Deem and Ramdas Pophale) SiO2 
 PCOD9206198
Probable space group: C 2/M
;
_chemical_formula_sum "Si O2"
_cell_formula_units_Z 56
_cell_length_a 13.471801
_cell_length_b 13.431927
_cell_length_c 14.959873
_cell_angle_alpha 90.000000
_cell_angle_beta 86.615422
_cell_angle_gamma 90.000000
_cell_volume 2702.300932
_symmetry_space_group_name_H-M "C 2/M"
_symmetry_group_IT_number 12
_symmetry_cell_setting 'monoclinic'
loop_
_space_group_symop_operation_xyz
x,y,z
-x,y,-z
-x,-y,-z
x,-y,z
1/2+x,1/2+y,z
1/2-x,1/2+y,-z
1/2-x,1/2-y,-z
1/2+x,1/2-y,z
loop_
_atom_site_type_symbol
_atom_site_label
_atom_site_fract_x
_atom_site_fract_y
_atom_site_fract_z
Si Si1 0.301262 0.379748 0.749279
Si Si2 0.087072 0.117694 0.428064
Si Si3 0.358081 0.386055 0.937081
Si Si4 0.273197 0.617244 0.424429
Si Si5 0.890928 0.737536 0.293006
Si Si6 0.909408 0.115878 0.125274
Si Si7 0.046289 0.615605 0.398353
O O1 0.303731 0.500000 0.752351
O O2 0.388924 0.350536 0.674741
O O3 0.313554 0.339289 0.849622
O O4 0.196458 0.341611 0.719494
O O5 0.191499 0.129349 0.475380
O O6 0.000000 0.156732 0.500000
O O7 0.064914 0.000000 0.421619
O O8 0.320906 0.500000 0.943979
O O9 0.475195 0.390158 0.908544
O O10 0.350351 0.348702 0.039222
O O11 0.284564 0.500000 0.403637
O O12 0.348807 0.682373 0.364742
O O13 0.160955 0.646075 0.406791
O O14 0.904798 0.803704 0.203626
O O15 0.982673 0.679297 0.332257
O O16 0.880446 0.000000 0.150080
O O17 0.045122 0.500000 0.370022
O O18 0.000000 0.619766 0.500000
#
# Coordination Sequence:
#
# PCOD9206198 Si02
#       7
#     8   8   8   8   8   8   8
#     4  10  21  36  56  86 119 151 197 250 299 356
#     4   9  19  35  57  85 118 154 192 244 300 345
#     4   8  17  36  61  83 114 151 188 240 309 368
#     4  10  23  40  56  83 124 162 197 242 299 360
#     4  12  24  34  61  90 116 155 206 251 293 352
#     4   9  19  37  59  87 117 151 189 242 310 368
#     4  10  23  44  62  79 120 174 211 243 293 360
#
# _framework density 20.723081000000001
#
# number of rings (size 3 to 8) (size 9 to 14) (size 15 to 20)
#    0.000    2.286    0.000    2.571    4.000    5.714 
#    0.000    0.000    0.000    0.429    0.000    4.000 
#    0.000    0.000    0.000    0.000    0.000    0.000 
#
# Total GULP energy -156198.165109 kJ/mol
# GULP energy per Si atom -5578.505897 kJ/mol
# Density = 2.067591 g / cm^3
# Si number density = 20.723081 Si / 1000 Ang^3
#
#
#
# Elastic Constant Matrix: (Units=GPa)
#
#
# Indices 1 2 3 4 5 6 
#
# 1 91.4977 38.9669 41.7146 0.0000 17.5358 0.0000
# 2 38.9669 91.7467 49.1864 0.0000 4.3038 0.0000
# 3 41.7146 49.1864 120.2472 0.0000 15.3319 0.0000
# 4 0.0000 0.0000 0.0000 389.9925 0.0000 122.4256
# 5 17.5358 4.3038 15.3319 0.0000 28.6470 0.0000
# 6 0.0000 0.0000 0.0000 122.4256 0.0000 65.3909
#
#
#
# Elastic Compliance Matrix: (Units=1/GPa)
#
#
# Indices 1 2 3 4 5 6 
#
# 1 0.015586 -0.004972 -0.002417 0.000000 -0.007500 0.000000
# 2 -0.004972 0.015576 -0.005083 0.000000 0.003424 0.000000
# 3 -0.002417 -0.005083 0.011749 0.000000 -0.004045 0.000000
# 4 0.000000 0.000000 0.000000 0.006219 0.000000 -0.011644
# 5 -0.007500 0.003424 -0.004045 0.000000 0.041150 0.000000
# 6 0.000000 0.000000 0.000000 -0.011644 0.000000 0.037093
#
#
# Mechanical properties :
#
#
# Convention : Reuss Voigt Hill
#
# Bulk Modulus (GPa) = 55.65556 62.58080 59.11818
# Shear Modulus (GPa) = 31.58438 108.38100 69.98269
#
# Velocity S-wave (km/s) = 3.90823 7.23970 5.81754
# Velocity P-wave (km/s) = 6.87610 10.00742 8.58572
#
# Compressibility (1/GPa) = 0.01796766
#
# Stress axis : x y z
#
# Youngs Moduli (GPa) = 64.15976 64.20239 85.11024
#
# Poissons Ratio (x) = 0.31923 0.20569
# Poissons Ratio (y) = 0.31902 0.43260
# Poissons Ratio (z) = 0.15506 0.32633
#
# Static dielectric constant tensor:
#      x y z
#    x 1.852880 0.000000 0.212380 
#    y 0.000000 1.768210 0.000000 
#    z 0.212380 0.000000 2.158940 
# 
# From -- ./inp_files/205029.got.cif
#   From: 2010.05.17/outbox.cif.g08.bks.cpg/sg12_103_cif.got.tgz:205029.got - 2010.06.03 13:09:07.
