data_PCOD9206529
_publ_section_title
;
Structure prediction by ZEFSAII (Michael W. Deem and Ramdas Pophale) SiO2 
 PCOD9206529
Probable space group: C 2/M
;
_chemical_formula_sum "Si O2"
_cell_formula_units_Z 64
_cell_length_a 18.019439
_cell_length_b 14.056768
_cell_length_c 15.687350
_cell_angle_alpha 90.000000
_cell_angle_beta 62.623116
_cell_angle_gamma 90.000000
_cell_volume 3528.497179
_symmetry_space_group_name_H-M "C 2/M"
_symmetry_group_IT_number 12
_symmetry_cell_setting 'monoclinic'
loop_
_space_group_symop_operation_xyz
x,y,z
-x,y,-z
-x,-y,-z
x,-y,z
1/2+x,1/2+y,z
1/2-x,1/2+y,-z
1/2-x,1/2-y,-z
1/2+x,1/2-y,z
loop_
_atom_site_type_symbol
_atom_site_label
_atom_site_fract_x
_atom_site_fract_y
_atom_site_fract_z
Si Si1 0.245039 0.890960 0.314336
Si Si2 0.580971 0.395695 0.519231
Si Si3 0.041511 0.295223 0.068564
Si Si4 0.614279 0.608703 0.096922
Si Si5 0.340133 0.268328 0.772662
Si Si6 0.931192 0.390333 0.272467
Si Si7 0.505160 0.203908 0.596891
Si Si8 0.195725 0.609337 0.069541
O O1 0.165492 0.884980 0.419619
O O2 0.231032 0.818152 0.244940
O O3 0.332468 0.872976 0.314558
O O4 0.246206 0.000000 0.281059
O O5 0.500000 0.399376 0.500000
O O6 0.584628 0.500000 0.560972
O O7 0.562452 0.298734 0.578814
O O8 0.062549 0.183742 0.068462
O O9 0.128107 0.352340 0.037320
O O10 0.982662 0.326849 0.178271
O O11 0.000000 0.315755 0.000000
O O12 0.585423 0.500000 0.108768
O O13 0.617086 0.651680 0.190403
O O14 0.710809 0.612418 0.015844
O O15 0.411473 0.229868 0.673234
O O16 0.311018 0.182838 0.848700
O O17 0.947473 0.500000 0.241404
O O18 0.961002 0.370735 0.352682
O O19 0.500000 0.176959 0.500000
O O20 0.176242 0.500000 0.103141
#
# Coordination Sequence:
#
# PCOD9206529 Si02
#       8
#     8   8   8   8   8   8   8   8
#     4  10  21  36  59  87 116 151 196 254 303 347
#     4   9  17  33  56  84 114 144 189 244 295 342
#     4  11  23  39  61  86 122 162 197 245 309 359
#     4  10  22  39  62  91 119 154 202 251 304 363
#     4  11  19  36  61  89 119 156 204 244 298 358
#     4  11  25  41  57  86 123 158 203 251 297 360
#     4  11  21  38  61  90 116 165 202 241 299 353
#     4  10  22  39  61  88 121 156 202 255 297 352
#
# _framework density 18.138034000000001
#
# number of rings (size 3 to 8) (size 9 to 14) (size 15 to 20)
#    0.000    1.625    5.000    2.250    3.500    2.500 
#    0.000    0.000    0.000    0.750    0.000    0.000 
#    0.000    0.000    0.000    0.000    0.000    0.000 
#
# Total GULP energy -178510.105519 kJ/mol
# GULP energy per Si atom -5578.440797 kJ/mol
# Density = 1.809675 g / cm^3
# Si number density = 18.138034 Si / 1000 Ang^3
#
#
#
# Elastic Constant Matrix: (Units=GPa)
#
#
# Indices 1 2 3 4 5 6 
#
# 1 94.0330 37.7460 39.8209 0.0000 4.3769 0.0000
# 2 37.7460 94.9276 18.8096 0.0000 0.4361 0.0000
# 3 39.8209 18.8096 74.1829 0.0000 7.1211 0.0000
# 4 0.0000 0.0000 0.0000 29.4702 0.0000 -11.9679
# 5 4.3769 0.4361 7.1211 0.0000 26.1920 0.0000
# 6 0.0000 0.0000 0.0000 -11.9679 0.0000 27.0309
#
#
#
# Elastic Compliance Matrix: (Units=1/GPa)
#
#
# Indices 1 2 3 4 5 6 
#
# 1 0.015591 -0.004790 -0.007097 0.000000 -0.000596 0.000000
# 2 -0.004790 0.012572 -0.000691 0.000000 0.000779 0.000000
# 3 -0.007097 -0.000691 0.017815 0.000000 -0.003646 0.000000
# 4 0.000000 0.000000 0.000000 0.041371 0.000000 0.018317
# 5 -0.000596 0.000779 -0.003646 0.000000 0.039257 0.000000
# 6 0.000000 0.000000 0.000000 0.018317 0.000000 0.045105
#
#
# Mechanical properties :
#
#
# Convention : Reuss Voigt Hill
#
# Bulk Modulus (GPa) = 48.02847 50.65517 49.34182
# Shear Modulus (GPa) = 24.53273 27.65641 26.09457
#
# Velocity S-wave (km/s) = 3.68170 3.90907 3.79709
# Velocity P-wave (km/s) = 6.67908 6.95433 6.81810
#
# Compressibility (1/GPa) = 0.02082098
#
# Stress axis : x y z
#
# Youngs Moduli (GPa) = 64.14087 79.53870 56.13191
#
# Poissons Ratio (x) = 0.38101 0.39838
# Poissons Ratio (y) = 0.30725 0.03880
# Poissons Ratio (z) = 0.45522 0.05498
#
# Static dielectric constant tensor:
#      x y z
#    x 1.599810 0.000000 -0.009120 
#    y 0.000000 1.653730 0.000000 
#    z -0.009120 0.000000 1.626420 
# 
# From -- ./inp_files/225258.got.cif
#   From: 2010.05.17/outbox.cif.g08.bks.cpg/sg12_113_cif.got.tgz:225258.got - 2010.06.03 13:09:07.
