data_PCOD9206530
_publ_section_title
;
Structure prediction by ZEFSAII (Michael W. Deem and Ramdas Pophale) SiO2 
 PCOD9206530
Probable space group: C 2/M
;
_chemical_formula_sum "Si O2"
_cell_formula_units_Z 56
_cell_length_a 18.554747
_cell_length_b 14.062848
_cell_length_c 20.614941
_cell_angle_alpha 90.000000
_cell_angle_beta 148.533937
_cell_angle_gamma 90.000000
_cell_volume 2807.860091
_symmetry_space_group_name_H-M "C 2/M"
_symmetry_group_IT_number 12
_symmetry_cell_setting 'monoclinic'
loop_
_space_group_symop_operation_xyz
x,y,z
-x,y,-z
-x,-y,-z
x,-y,z
1/2+x,1/2+y,z
1/2-x,1/2+y,-z
1/2-x,1/2-y,-z
1/2+x,1/2-y,z
loop_
_atom_site_type_symbol
_atom_site_label
_atom_site_fract_x
_atom_site_fract_y
_atom_site_fract_z
Si Si1 0.536802 0.795055 0.312443
Si Si2 0.347397 0.888258 0.912087
Si Si3 0.157864 0.386075 0.939189
Si Si4 0.787187 0.112088 0.711850
Si Si5 0.700494 0.209041 0.767497
Si Si6 0.103951 0.885666 0.978690
Si Si7 0.199919 0.889148 0.428051
O O1 0.461341 0.830664 0.190098
O O2 0.432731 0.812349 0.291815
O O3 0.676478 0.854241 0.431277
O O4 0.574533 0.683845 0.340621
O O5 0.238008 0.819833 0.794305
O O6 0.317392 0.000000 0.881691
O O7 0.500000 0.871269 0.000000
O O8 0.340959 0.864378 0.983848
O O9 0.135774 0.500000 0.915562
O O10 0.299619 0.363470 0.009614
O O11 0.694192 0.166888 0.691358
O O12 0.752974 0.124785 0.610346
O O13 0.779696 0.000000 0.720442
O O14 0.946436 0.142909 0.845659
O O15 0.826680 0.160566 0.904876
O O16 0.106549 0.000000 0.988827
O O17 0.165116 0.000000 0.410106
#
# Coordination Sequence:
#
# PCOD9206530 Si02
#       7
#     8   8   8   8   8   8   8
#     4  10  23  39  61  87 111 151 197 236 292 343
#     4  10  22  36  52  83 120 159 196 232 283 339
#     4   9  19  35  58  84 116 152 191 240 286 340
#     4  10  21  36  59  87 119 153 186 235 295 347
#     4  11  22  34  57  85 119 153 186 235 284 350
#     4   9  18  32  53  86 118 147 185 230 292 353
#     4  10  23  42  62  86 114 149 196 246 289 339
#
# _framework density 19.944013000000002
#
# number of rings (size 3 to 8) (size 9 to 14) (size 15 to 20)
#    0.000    2.143    0.000    2.143    6.000    5.143 
#    0.000    1.429    0.000    0.000    0.000    3.000 
#    0.000    0.000    0.000    0.000    0.000    0.000 
#
# Total GULP energy -156544.712440 kJ/mol
# GULP energy per Si atom -5590.882587 kJ/mol
# Density = 1.989862 g / cm^3
# Si number density = 19.944013 Si / 1000 Ang^3
#
#
#
# Elastic Constant Matrix: (Units=GPa)
#
#
# Indices 1 2 3 4 5 6 
#
# 1 70.2185 25.7754 -1.6247 0.0001 -7.1305 0.0001
# 2 25.7754 62.3407 22.1181 0.0001 -7.7650 0.0000
# 3 -1.6247 22.1181 27.3157 0.0005 -3.9559 0.0002
# 4 0.0001 0.0001 0.0005 13.2125 0.0001 -0.1792
# 5 -7.1305 -7.7650 -3.9559 0.0001 12.4744 0.0000
# 6 0.0001 0.0000 0.0002 -0.1792 0.0000 29.9305
#
#
#
# Elastic Compliance Matrix: (Units=1/GPa)
#
#
# Indices 1 2 3 4 5 6 
#
# 1 0.019318 -0.010983 0.011164 -0.000001 0.007746 0.000000
# 2 -0.010983 0.029673 -0.024018 0.000001 0.004576 0.000000
# 3 0.011164 -0.024018 0.058150 -0.000002 0.009872 0.000000
# 4 -0.000001 0.000001 -0.000002 0.075692 -0.000001 0.000453
# 5 0.007746 0.004576 0.009872 -0.000001 0.090571 0.000000
# 6 0.000000 0.000000 0.000000 0.000453 0.000000 0.033413
#
#
# Mechanical properties :
#
#
# Convention : Reuss Voigt Hill
#
# Bulk Modulus (GPa) = 16.81581 28.04585 22.43083
# Shear Modulus (GPa) = 13.35774 18.69720 16.02747
#
# Velocity S-wave (km/s) = 2.59078 3.06516 2.83790
# Velocity P-wave (km/s) = 4.17125 5.15943 4.69143
#
# Compressibility (1/GPa) = 0.05946784
#
# Stress axis : x y z
#
# Youngs Moduli (GPa) = 51.76562 33.70024 17.19683
#
# Poissons Ratio (x) = 0.37014 -0.19199
# Poissons Ratio (y) = 0.56856 0.41303
# Poissons Ratio (z) = -0.57792 0.80940
#
# Static dielectric constant tensor:
#      x y z
#    x 1.695520 0.000000 0.006820 
#    y 0.000000 1.721670 0.000000 
#    z 0.006820 0.000000 1.677080 
# 
# From -- ./inp_files/316753.got.cif
#   From: 2010.05.17/outbox.cif.g08.bks.cpg/sg12_159_cif.got.tgz:316753.got - 2010.06.03 13:09:07.
