data_PCOD9206242
_publ_section_title
;
Structure prediction by ZEFSAII (Michael W. Deem and Ramdas Pophale) SiO2 
 PCOD9206242
Probable space group: C 2/M
;
_chemical_formula_sum "Si O2"
_cell_formula_units_Z 64
_cell_length_a 9.714923
_cell_length_b 14.375675
_cell_length_c 20.018437
_cell_angle_alpha 90.000000
_cell_angle_beta 76.654343
_cell_angle_gamma 90.000000
_cell_volume 2720.247953
_symmetry_space_group_name_H-M "C 2/M"
_symmetry_group_IT_number 12
_symmetry_cell_setting 'monoclinic'
loop_
_space_group_symop_operation_xyz
x,y,z
-x,y,-z
-x,-y,-z
x,-y,z
1/2+x,1/2+y,z
1/2-x,1/2+y,-z
1/2-x,1/2-y,-z
1/2+x,1/2-y,z
loop_
_atom_site_type_symbol
_atom_site_label
_atom_site_fract_x
_atom_site_fract_y
_atom_site_fract_z
Si Si1 0.160537 0.113859 0.973134
Si Si2 0.094026 0.613957 0.792278
Si Si3 0.133699 0.612312 0.938489
Si Si4 0.831311 0.160877 0.521000
Si Si5 0.724380 0.113556 0.184598
Si Si6 0.649867 0.612724 0.330819
Si Si7 0.842839 0.885918 0.311264
Si Si8 0.129858 0.398839 0.442212
O O1 0.225002 0.143163 0.894780
O O2 0.169169 0.000000 0.971918
O O3 0.238200 0.146752 0.031149
O O4 0.000000 0.141304 0.000000
O O5 0.092764 0.500000 0.791986
O O6 0.115426 0.646644 0.865824
O O7 0.227918 0.642659 0.733704
O O8 0.938216 0.643018 0.785705
O O9 0.146965 0.500000 0.930735
O O10 0.000000 0.629619 0.000000
O O11 0.750000 0.250000 0.500000
O O12 0.800782 0.142332 0.601323
O O13 0.760192 0.089888 0.478281
O O14 0.000000 0.159275 0.500000
O O15 0.822526 0.140257 0.236172
O O16 0.725372 0.000000 0.183411
O O17 0.643296 0.500000 0.331057
O O18 0.491914 0.644994 0.326892
O O19 0.704739 0.853973 0.369367
O O20 0.840910 0.000000 0.315008
O O21 0.074126 0.500000 0.426341
O O22 0.000000 0.357335 0.500000
#
# Coordination Sequence:
#
# PCOD9206242 Si02
#       8
#     8   8   8   8   8   8   8   8
#     4   9  16  22  32  52  84 133 187 228 262 311
#     4   9  17  27  43  68  99 139 187 231 269 319
#     4   9  14  23  36  54  89 138 187 224 257 305
#     4  12  25  43  62  82 111 145 185 233 290 346
#     4   9  16  26  38  60  96 136 181 229 271 316
#     4  10  21  36  57  83 109 143 185 232 285 338
#     4   9  18  31  48  72 103 136 172 221 274 324
#     4  10  21  37  60  87 112 143 182 224 275 338
#
# _framework density 23.527266999999998
#
# number of rings (size 3 to 8) (size 9 to 14) (size 15 to 20)
#    0.000    2.375    2.500    0.750    3.500    0.500 
#    0.000    0.000    0.000    0.000    0.000    0.000 
#    0.000    0.000    0.000    5.625    0.000    5.250 
#
# Total GULP energy -178680.515984 kJ/mol
# GULP energy per Si atom -5583.766125 kJ/mol
# Density = 2.347372 g / cm^3
# Si number density = 23.527267 Si / 1000 Ang^3
#
#
#
# Elastic Constant Matrix: (Units=GPa)
#
#
# Indices 1 2 3 4 5 6 
#
# 1 123.9871 -17.0832 40.8867 0.0000 8.3895 0.0000
# 2 -17.0832 56.3275 -16.5447 0.0000 1.9152 0.0000
# 3 40.8867 -16.5447 160.3401 0.0000 5.6063 0.0000
# 4 0.0000 0.0000 0.0000 16.2188 0.0000 22.7370
# 5 8.3895 1.9152 5.6063 0.0000 38.6212 0.0000
# 6 0.0000 0.0000 0.0000 22.7370 0.0000 12.1028
#
#
#
# Elastic Compliance Matrix: (Units=1/GPa)
#
#
# Indices 1 2 3 4 5 6 
#
# 1 0.009171 0.002242 -0.002044 0.000000 -0.001807 0.000000
# 2 0.002242 0.018911 0.001437 0.000000 -0.001633 0.000000
# 3 -0.002044 0.001437 0.006928 0.000000 -0.000633 0.000000
# 4 0.000000 0.000000 0.000000 -0.037741 0.000000 0.070903
# 5 -0.001807 -0.001633 -0.000633 0.000000 0.026458 0.000000
# 6 0.000000 0.000000 0.000000 0.070903 0.000000 -0.050577
#
#
# Mechanical properties :
#
#
# Convention : Reuss Voigt Hill
#
# Bulk Modulus (GPa) = 26.12339 39.46359 32.79349
# Shear Modulus (GPa) = -288.01745 35.61495 -126.20125
#
# Velocity S-wave (km/s) = -11.07630 3.89494 -7.33191
# Velocity P-wave (km/s) = 12.34713 6.08584 7.59652
#
# Compressibility (1/GPa) = 0.03827987
#
# Stress axis : x y z
#
# Youngs Moduli (GPa) = 109.04435 52.87956 144.33504
#
# Poissons Ratio (x) = -0.11857 0.29501
# Poissons Ratio (y) = -0.24452 -0.20736
# Poissons Ratio (z) = 0.22288 -0.07597
#
# Static dielectric constant tensor:
#      x y z
#    x 1.779760 0.000000 -0.059660 
#    y 0.000000 2.062920 0.000000 
#    z -0.059660 0.000000 1.810640 
# 
# From -- ./inp_files/300793.got.cif
#   From: 2010.05.17/outbox.cif.g08.bks.cpg/sg12_151_cif.got.tgz:300793.got - 2010.06.03 13:09:07.
