data_PCOD9206761
_publ_section_title
;
Structure prediction by ZEFSAII (Michael W. Deem and Ramdas Pophale) SiO2 
 PCOD9206761
Probable space group: C 2/M
;
_chemical_formula_sum "Si O2"
_cell_formula_units_Z 36
_cell_length_a 11.735343
_cell_length_b 13.698916
_cell_length_c 9.339289
_cell_angle_alpha 90.000000
_cell_angle_beta 118.416821
_cell_angle_gamma 90.000000
_cell_volume 1320.492819
_symmetry_space_group_name_H-M "C 2/M"
_symmetry_group_IT_number 12
_symmetry_cell_setting 'monoclinic'
loop_
_space_group_symop_operation_xyz
x,y,z
-x,y,-z
-x,-y,-z
x,-y,z
1/2+x,1/2+y,z
1/2-x,1/2+y,-z
1/2-x,1/2-y,-z
1/2+x,1/2-y,z
loop_
_atom_site_type_symbol
_atom_site_label
_atom_site_fract_x
_atom_site_fract_y
_atom_site_fract_z
Si Si1 0.103239 0.655752 0.957091
Si Si2 0.285017 0.108837 0.440152
Si Si3 0.312365 0.312681 0.324059
Si Si4 0.008525 0.140743 0.799164
Si Si5 0.284352 0.500000 0.940541
O O1 0.215132 0.695373 0.130883
O O2 0.170777 0.585044 0.885315
O O3 0.025932 0.745309 0.842446
O O4 0.000000 0.605186 0.000000
O O5 0.346136 0.206798 0.410574
O O6 0.259135 0.128882 0.592266
O O7 0.139381 0.107824 0.286345
O O8 0.339083 0.000000 0.447608
O O9 0.432089 0.369353 0.324478
O O10 0.103846 0.082819 0.958336
#
# Coordination Sequence:
#
# PCOD9206761 Si02
#       5
#     8   8   8   8   4
#     4  11  22  42  62  91 129 166 207 260 311 370
#     4  11  23  42  68  93 123 168 212 253 309 373
#     4  10  23  40  62  95 130 158 206 265 308 361
#     4  11  22  42  65  94 125 164 210 264 305 368
#     4  10  21  36  62  92 119 163 207 249 310 367
#
# _framework density 27.262550000000001
#
# number of rings (size 3 to 8) (size 9 to 14) (size 15 to 20)
#    0.000    1.333    3.333    3.667    6.222    0.889 
#    8.000    1.667    0.000    5.333    0.000    0.000 
#    0.000    0.000    0.000    0.000    0.000    0.000 
#
# Total GULP energy -100378.196207 kJ/mol
# GULP energy per Si atom -5576.566456 kJ/mol
# Density = 2.720050 g / cm^3
# Si number density = 27.262550 Si / 1000 Ang^3
#
#
#
# Elastic Constant Matrix: (Units=GPa)
#
#
# Indices 1 2 3 4 5 6 
#
# 1 85.2508 2.6993 -7.3321 0.0000 -2.5809 0.0000
# 2 2.6993 174.8573 1.4811 0.0000 -4.1604 0.0000
# 3 -7.3321 1.4811 106.7573 0.0000 -22.6047 0.0000
# 4 0.0000 0.0000 0.0000 10.2870 0.0000 30.3205
# 5 -2.5809 -4.1604 -22.6047 0.0000 44.3729 0.0000
# 6 0.0000 0.0000 0.0000 30.3205 0.0000 -28.5905
#
#
#
# Elastic Compliance Matrix: (Units=1/GPa)
#
#
# Indices 1 2 3 4 5 6 
#
# 1 0.011865 -0.000163 0.001076 0.000000 0.001223 0.000000
# 2 -0.000163 0.005734 0.000024 0.000000 0.000540 0.000000
# 3 0.001076 0.000024 0.010597 0.000000 0.005463 0.000000
# 4 0.000000 0.000000 0.000000 0.023562 0.000000 0.024987
# 5 0.001223 0.000540 0.005463 0.000000 0.025441 0.000000
# 6 0.000000 0.000000 0.000000 0.024987 0.000000 -0.008478
#
#
# Mechanical properties :
#
#
# Convention : Reuss Voigt Hill
#
# Bulk Modulus (GPa) = 33.25634 40.06247 36.65941
# Shear Modulus (GPa) = 65.04338 29.88167 47.46253
#
# Velocity S-wave (km/s) = 4.88978 3.31429 4.17699
# Velocity P-wave (km/s) = 6.64116 5.41968 6.06127
#
# Compressibility (1/GPa) = 0.03006945
#
# Stress axis : x y z
#
# Youngs Moduli (GPa) = 84.28270 174.39471 94.36241
#
# Poissons Ratio (x) = 0.02846 -0.10154
# Poissons Ratio (y) = 0.01375 -0.00223
# Poissons Ratio (z) = -0.09070 -0.00412
#
# Static dielectric constant tensor:
#      x y z
#    x 2.219410 0.000000 -0.084880 
#    y 0.000000 2.076950 0.000000 
#    z -0.084880 0.000000 2.211060 
# 
# From -- ./inp_files/140037.got.cif
#   From: 2010.05.17/outbox.cif.g08.bks.cpg/sg12_71_cif.got.tgz:140037.got - 2010.06.03 13:09:07.
