data_PCOD9206049
_publ_section_title
;
Structure prediction by ZEFSAII (Michael W. Deem and Ramdas Pophale) SiO2 
 PCOD9206049
Probable space group: C 2/M
;
_chemical_formula_sum "Si O2"
_cell_formula_units_Z 40
_cell_length_a 10.093408
_cell_length_b 9.064180
_cell_length_c 22.055308
_cell_angle_alpha 90.000000
_cell_angle_beta 84.010086
_cell_angle_gamma 90.000000
_cell_volume 2006.789660
_symmetry_space_group_name_H-M "C 2/M"
_symmetry_group_IT_number 12
_symmetry_cell_setting 'monoclinic'
loop_
_space_group_symop_operation_xyz
x,y,z
-x,y,-z
-x,-y,-z
x,-y,z
1/2+x,1/2+y,z
1/2-x,1/2+y,-z
1/2-x,1/2-y,-z
1/2+x,1/2-y,z
loop_
_atom_site_type_symbol
_atom_site_label
_atom_site_fract_x
_atom_site_fract_y
_atom_site_fract_z
Si Si1 0.464015 0.824045 0.333644
Si Si2 0.561187 0.677624 0.932984
Si Si3 0.626819 0.671352 0.538339
Si Si4 0.160583 0.676798 0.132669
Si Si5 0.753480 0.676214 0.734501
O O1 0.411614 0.749571 0.397251
O O2 0.374061 0.762874 0.283203
O O3 0.618894 0.789983 0.313805
O O4 0.450507 0.000000 0.337881
O O5 0.554494 0.500000 0.930561
O O6 0.714719 0.719458 0.915959
O O7 0.470952 0.743399 0.884035
O O8 0.500000 0.726956 0.000000
O O9 0.500000 0.678391 0.500000
O O10 0.659230 0.500000 0.548415
O O11 0.750000 0.750000 0.500000
O O12 0.141555 0.500000 0.130396
O O13 0.203532 0.712903 0.199105
O O14 0.728097 0.500000 0.733137
#
# Coordination Sequence:
#
# PCOD9206049 Si02
#       5
#     8   8   8   8   8
#     4  11  23  38  59  86 114 148 189 231 280 336
#     4  10  21  36  55  82 114 148 189 236 285 338
#     4  11  24  41  62  88 117 151 190 231 279 333
#     4  10  21  37  57  82 112 148 190 234 283 338
#     4  10  22  39  58  83 115 149 188 235 283 335
#
# _framework density 19.932334999999998
#
# number of rings (size 3 to 8) (size 9 to 14) (size 15 to 20)
#    0.000    1.600    0.000    4.200    0.000    8.400 
#    0.000    0.000    0.000    0.000    0.000    0.000 
#    0.000    0.000    0.000    0.000    0.000    0.000 
#
# Total GULP energy -111863.223225 kJ/mol
# GULP energy per Si atom -5593.161161 kJ/mol
# Density = 1.988697 g / cm^3
# Si number density = 19.932335 Si / 1000 Ang^3
#
#
#
# Elastic Constant Matrix: (Units=GPa)
#
#
# Indices 1 2 3 4 5 6 
#
# 1 56.2965 21.5035 -19.9864 0.0000 -1.1154 0.0000
# 2 21.5035 35.1575 4.2393 0.0000 -4.8065 0.0000
# 3 -19.9864 4.2393 53.0382 0.0000 -7.7392 0.0000
# 4 0.0000 0.0000 0.0000 30.1544 0.0000 10.9370
# 5 -1.1154 -4.8065 -7.7392 0.0000 35.3949 0.0000
# 6 0.0000 0.0000 0.0000 10.9370 0.0000 27.1946
#
#
#
# Elastic Compliance Matrix: (Units=1/GPa)
#
#
# Indices 1 2 3 4 5 6 
#
# 1 0.029947 -0.019735 0.013025 0.000000 0.001112 0.000000
# 2 -0.019735 0.042154 -0.010393 0.000000 0.002830 0.000000
# 3 0.013025 -0.010393 0.025253 0.000000 0.004521 0.000000
# 4 0.000000 0.000000 0.000000 0.038826 0.000000 -0.015615
# 5 0.001112 0.002830 0.004521 0.000000 0.029660 0.000000
# 6 0.000000 0.000000 0.000000 -0.015615 0.000000 0.043052
#
#
# Mechanical properties :
#
#
# Convention : Reuss Voigt Hill
#
# Bulk Modulus (GPa) = 15.83613 17.33387 16.58500
# Shear Modulus (GPa) = 18.92862 27.79785 23.36323
#
# Velocity S-wave (km/s) = 3.08497 3.73850 3.42735
# Velocity P-wave (km/s) = 4.54440 5.22976 4.89908
#
# Compressibility (1/GPa) = 0.06314676
#
# Stress axis : x y z
#
# Youngs Moduli (GPa) = 33.39181 23.72231 39.59949
#
# Poissons Ratio (x) = 0.46817 -0.51577
# Poissons Ratio (y) = 0.65900 0.41157
# Poissons Ratio (z) = -0.43492 0.24655
#
# Static dielectric constant tensor:
#      x y z
#    x 1.661050 0.000000 -0.012460 
#    y 0.000000 1.662910 0.000000 
#    z -0.012460 0.000000 1.704630 
# 
# From -- ./inp_files/260981.got.cif
#   From: 2010.05.17/outbox.cif.g08.bks.cpg/sg12_131_cif.got.tgz:260981.got - 2010.06.03 13:09:07.
