data_PCOD9206779
_publ_section_title
;
Structure prediction by ZEFSAII (Michael W. Deem and Ramdas Pophale) SiO2 
 PCOD9206779
Probable space group: C 2/M
;
_chemical_formula_sum "Si O2"
_cell_formula_units_Z 56
_cell_length_a 25.573689
_cell_length_b 19.353244
_cell_length_c 8.830403
_cell_angle_alpha 90.000000
_cell_angle_beta 135.924216
_cell_angle_gamma 90.000000
_cell_volume 3040.135950
_symmetry_space_group_name_H-M "C 2/M"
_symmetry_group_IT_number 12
_symmetry_cell_setting 'monoclinic'
loop_
_space_group_symop_operation_xyz
x,y,z
-x,y,-z
-x,-y,-z
x,-y,z
1/2+x,1/2+y,z
1/2-x,1/2+y,-z
1/2-x,1/2-y,-z
1/2+x,1/2-y,z
loop_
_atom_site_type_symbol
_atom_site_label
_atom_site_fract_x
_atom_site_fract_y
_atom_site_fract_z
Si Si1 0.643009 0.737419 0.136220
Si Si2 0.815667 0.077984 0.265670
Si Si3 0.581245 0.336737 0.721461
Si Si4 0.037125 0.638923 0.925678
Si Si5 0.635499 0.923642 0.869167
Si Si6 0.597244 0.197359 0.557024
Si Si7 0.199809 0.208944 0.576918
O O1 0.712343 0.778563 0.202286
O O2 0.683015 0.703939 0.364087
O O3 0.599671 0.686810 0.931273
O O4 0.585723 0.794842 0.076700
O O5 0.854801 0.109698 0.198149
O O6 0.831722 0.138112 0.419847
O O7 0.842514 0.000000 0.352479
O O8 0.725460 0.075203 0.072123
O O9 0.500000 0.365612 0.500000
O O10 0.584730 0.264676 0.635200
O O11 0.091576 0.592627 0.934283
O O12 0.974089 0.670376 0.683788
O O13 0.000000 0.607430 0.000000
O O14 0.618680 0.864590 0.712609
O O15 0.611317 0.000000 0.765975
O O16 0.658780 0.225138 0.566295
#
# Coordination Sequence:
#
# PCOD9206779 Si02
#       7
#     8   8   8   8   8   8   8
#     4  11  20  36  58  92 114 148 199 243 299 345
#     4  10  22  40  59  85 118 159 201 241 294 352
#     4  11  20  35  62  88 116 149 191 250 296 346
#     4  12  22  36  56  86 123 148 195 244 293 354
#     4  11  23  40  59  81 119 163 200 240 290 352
#     4  11  20  35  60  89 114 150 195 242 291 346
#     4  10  21  36  63  86 117 153 196 250 291 350
#
# _framework density 18.420228000000002
#
# number of rings (size 3 to 8) (size 9 to 14) (size 15 to 20)
#    0.000    1.143    5.714    1.286    0.000    4.000 
#    0.000    0.714    0.000    7.714    0.000    0.000 
#    0.000    0.000    0.000    0.000    0.000    0.000 
#
# Total GULP energy -156052.161503 kJ/mol
# GULP energy per Si atom -5573.291482 kJ/mol
# Density = 1.837830 g / cm^3
# Si number density = 18.420228 Si / 1000 Ang^3
#
#
#
# Elastic Constant Matrix: (Units=GPa)
#
#
# Indices 1 2 3 4 5 6 
#
# 1 95.8122 36.4098 26.7338 0.0000 2.2813 0.0000
# 2 36.4098 103.8685 12.4185 0.0000 -4.0385 0.0000
# 3 26.7338 12.4185 72.0822 0.0000 -1.3193 0.0000
# 4 0.0000 0.0000 0.0000 8.6983 0.0000 -6.5795
# 5 2.2813 -4.0385 -1.3193 0.0000 26.3746 0.0000
# 6 0.0000 0.0000 0.0000 -6.5795 0.0000 0.1446
#
#
#
# Elastic Compliance Matrix: (Units=1/GPa)
#
#
# Indices 1 2 3 4 5 6 
#
# 1 0.013270 -0.004224 -0.004231 0.000000 -0.002006 0.000000
# 2 -0.004224 0.011228 -0.000330 0.000000 0.002068 0.000000
# 3 -0.004231 -0.000330 0.015519 0.000000 0.001092 0.000000
# 4 0.000000 0.000000 0.000000 -0.003441 0.000000 -0.156536
# 5 -0.002006 0.002068 0.001092 0.000000 0.038460 0.000000
# 6 0.000000 0.000000 0.000000 -0.156536 0.000000 -0.206946
#
#
# Mechanical properties :
#
#
# Convention : Reuss Voigt Hill
#
# Bulk Modulus (GPa) = 44.54708 46.98745 45.76726
# Shear Modulus (GPa) = -46.79176 20.12356 -13.33410
#
# Velocity S-wave (km/s) = -5.04555 3.30884 -2.69343
# Velocity P-wave (km/s) = 3.11562 6.33734 3.90223
#
# Compressibility (1/GPa) = 0.02244816
#
# Stress axis : x y z
#
# Youngs Moduli (GPa) = 75.35513 89.06235 64.43721
#
# Poissons Ratio (x) = 0.37620 0.27262
# Poissons Ratio (y) = 0.31830 0.02126
# Poissons Ratio (z) = 0.31881 0.02939
#
# Static dielectric constant tensor:
#      x y z
#    x 1.701620 0.000000 0.018360 
#    y 0.000000 1.623660 0.000000 
#    z 0.018360 0.000000 1.635810 
# 
# From -- ./inp_files/98170.got.cif
#   From: 2010.05.17/outbox.cif.g08.bks.cpg/sg12_50_cif.got.tgz:98170.got - 2010.06.03 13:09:07.
