data_PCOD9206812
_publ_section_title
;
Structure prediction by ZEFSAII (Michael W. Deem and Ramdas Pophale) SiO2 
 PCOD9206812
Probable space group: C 2/M
;
_chemical_formula_sum "Si O2"
_cell_formula_units_Z 52
_cell_length_a 17.374451
_cell_length_b 15.947773
_cell_length_c 13.396741
_cell_angle_alpha 90.000000
_cell_angle_beta 37.887082
_cell_angle_gamma 90.000000
_cell_volume 2279.578437
_symmetry_space_group_name_H-M "C 2/M"
_symmetry_group_IT_number 12
_symmetry_cell_setting 'monoclinic'
loop_
_space_group_symop_operation_xyz
x,y,z
-x,y,-z
-x,-y,-z
x,-y,z
1/2+x,1/2+y,z
1/2-x,1/2+y,-z
1/2-x,1/2-y,-z
1/2+x,1/2-y,z
loop_
_atom_site_type_symbol
_atom_site_label
_atom_site_fract_x
_atom_site_fract_y
_atom_site_fract_z
Si Si1 0.049496 0.902134 0.303889
Si Si2 0.959672 0.352320 0.840820
Si Si3 0.853029 0.169883 0.172976
Si Si4 0.771292 0.358504 0.219595
Si Si5 0.750984 0.403638 0.919981
Si Si6 0.364433 0.000000 0.281252
Si Si7 0.127720 0.195598 0.640575
O O1 0.136447 0.871901 0.305673
O O2 0.926250 0.850605 0.400721
O O3 0.020149 0.000000 0.347860
O O4 0.136315 0.893727 0.115284
O O5 0.865827 0.349511 0.843332
O O6 0.061223 0.425625 0.731993
O O7 0.023576 0.262368 0.782761
O O8 0.874030 0.371999 0.025253
O O9 0.793838 0.263111 0.230469
O O10 0.789367 0.118823 0.149631
O O11 0.843449 0.135121 0.295463
O O12 0.000000 0.173724 0.000000
O O13 0.804980 0.426399 0.268268
O O14 0.790122 0.500000 0.887294
O O15 0.250000 0.250000 0.500000
#
# Coordination Sequence:
#
# PCOD9206812 Si02
#       7
#     8   8   8   8   8   4   8
#     4  10  21  39  62  94 131 159 202 265 324 372
#     4  11  20  37  61  92 131 155 201 262 321 372
#     4  12  21  38  63  90 122 160 215 262 308 368
#     4  11  19  34  64  99 121 151 202 271 325 368
#     4  10  21  36  64  98 122 158 208 271 320 359
#     4  12  19  32  66 103 126 150 200 268 331 381
#     4  12  26  43  60  88 129 176 210 250 313 381
#
# _framework density 22.811235
#
# number of rings (size 3 to 8) (size 9 to 14) (size 15 to 20)
#    0.000    0.923    6.154    2.308    0.000    3.385 
#    1.385    3.077    0.000    2.769    0.000    0.000 
#    0.000    0.000    0.000    0.000    0.000    0.000 
#
# Total GULP energy -145033.407454 kJ/mol
# GULP energy per Si atom -5578.207979 kJ/mol
# Density = 2.275932 g / cm^3
# Si number density = 22.811235 Si / 1000 Ang^3
#
#
#
# Elastic Constant Matrix: (Units=GPa)
#
#
# Indices 1 2 3 4 5 6 
#
# 1 153.5117 5.8355 37.6106 0.0000 -25.6920 0.0000
# 2 5.8355 22.7821 -1.2780 0.0000 -9.6193 0.0000
# 3 37.6106 -1.2780 58.4196 0.0000 -13.1770 0.0000
# 4 0.0000 0.0000 0.0000 9.4989 0.0000 -7.4290
# 5 -25.6920 -9.6193 -13.1770 0.0000 27.9990 0.0000
# 6 0.0000 0.0000 0.0000 -7.4290 0.0000 58.7762
#
#
#
# Elastic Compliance Matrix: (Units=1/GPa)
#
#
# Indices 1 2 3 4 5 6 
#
# 1 0.008513 0.000070 -0.004153 0.000000 0.005881 0.000000
# 2 0.000070 0.053102 0.005869 0.000000 0.021070 0.000000
# 3 -0.004153 0.005869 0.021832 0.000000 0.008481 0.000000
# 4 0.000000 0.000000 0.000000 0.116824 0.000000 0.014766
# 5 0.005881 0.021070 0.008481 0.000000 0.052342 0.000000
# 6 0.000000 0.000000 0.000000 0.014766 0.000000 0.018880
#
#
# Mechanical properties :
#
#
# Convention : Reuss Voigt Hill
#
# Bulk Modulus (GPa) = 11.49164 35.44997 23.47080
# Shear Modulus (GPa) = 16.83910 32.09116 24.46513
#
# Velocity S-wave (km/s) = 2.71992 3.75482 3.27846
# Velocity P-wave (km/s) = 3.86168 5.86281 4.96413
#
# Compressibility (1/GPa) = 0.08701981
#
# Stress axis : x y z
#
# Youngs Moduli (GPa) = 117.46389 18.83175 45.80365
#
# Poissons Ratio (x) = -0.00131 0.19021
# Poissons Ratio (y) = -0.00819 -0.26883
# Poissons Ratio (z) = 0.48779 -0.11053
#
# Static dielectric constant tensor:
#      x y z
#    x 1.853030 0.000000 0.026300 
#    y 0.000000 1.788970 0.000000 
#    z 0.026300 0.000000 1.930700 
# 
# From -- ./inp_files/216727.got.cif
#   From: 2010.05.17/outbox.cif.g08.bks.cpg/sg12_109_cif.got.tgz:216727.got - 2010.06.03 13:09:07.
