data_PCOD9206276
_publ_section_title
;
Structure prediction by ZEFSAII (Michael W. Deem and Ramdas Pophale) SiO2 
 PCOD9206276
Probable space group: C 2/M
;
_chemical_formula_sum "Si O2"
_cell_formula_units_Z 56
_cell_length_a 9.759805
_cell_length_b 23.823409
_cell_length_c 16.342724
_cell_angle_alpha 90.000000
_cell_angle_beta 125.961944
_cell_angle_gamma 90.000000
_cell_volume 3075.647574
_symmetry_space_group_name_H-M "C 2/M"
_symmetry_group_IT_number 12
_symmetry_cell_setting 'monoclinic'
loop_
_space_group_symop_operation_xyz
x,y,z
-x,y,-z
-x,-y,-z
x,-y,z
1/2+x,1/2+y,z
1/2-x,1/2+y,-z
1/2-x,1/2-y,-z
1/2+x,1/2-y,z
loop_
_atom_site_type_symbol
_atom_site_label
_atom_site_fract_x
_atom_site_fract_y
_atom_site_fract_z
Si Si1 0.606985 0.068013 0.958739
Si Si2 0.058762 0.228855 0.428862
Si Si3 0.311469 0.817501 0.258736
Si Si4 0.485874 0.336658 0.250353
Si Si5 0.152036 0.433827 0.793145
Si Si6 0.524238 0.435051 0.865174
Si Si7 0.799374 0.258880 0.923869
O O1 0.564381 0.080356 0.849330
O O2 0.602487 0.000000 0.960823
O O3 0.500000 0.088232 0.000000
O O4 0.801870 0.086270 0.035115
O O5 0.250000 0.250000 0.500000
O O6 0.000000 0.218467 0.500000
O O7 0.950126 0.277582 0.347077
O O8 0.024499 0.176140 0.357688
O O9 0.381515 0.881223 0.278284
O O10 0.253687 0.795213 0.149265
O O11 0.142325 0.811134 0.253599
O O12 0.493469 0.400652 0.224423
O O13 0.312111 0.307795 0.158398
O O14 0.114751 0.500000 0.759862
O O15 0.359081 0.430638 0.864667
O O16 0.545590 0.500000 0.854294
O O17 0.750000 0.250000 0.000000
O O18 0.000000 0.268768 0.000000
#
# Coordination Sequence:
#
# PCOD9206276 Si02
#       7
#     8   8   8   8   8   8   8
#     4   9  17  29  44  69 107 151 187 219 256 302
#     4  11  22  41  64  82 105 137 182 239 288 334
#     4  10  21  36  58  84 110 144 186 228 280 329
#     4  10  21  36  57  85 108 144 189 225 280 335
#     4   9  18  33  54  77 107 146 187 221 263 326
#     4   9  18  33  53  76 107 146 188 223 261 322
#     4  11  22  35  51  78 117 155 181 225 274 323
#
# _framework density 18.207547000000002
#
# number of rings (size 3 to 8) (size 9 to 14) (size 15 to 20)
#    0.000    2.143    2.857    0.429    2.000    2.286 
#    2.571    0.000    0.000    1.714    0.000    0.000 
#    0.000    0.000    0.000    0.000    0.000    0.000 
#
# Total GULP energy -155895.709215 kJ/mol
# GULP energy per Si atom -5567.703901 kJ/mol
# Density = 1.816611 g / cm^3
# Si number density = 18.207547 Si / 1000 Ang^3
#
#
#
# Elastic Constant Matrix: (Units=GPa)
#
#
# Indices 1 2 3 4 5 6 
#
# 1 95.4013 14.7646 43.2766 0.0000 -16.2801 0.0000
# 2 14.7646 54.6834 21.3014 0.0000 -7.1440 0.0000
# 3 43.2766 21.3014 98.8702 0.0000 -15.1727 0.0000
# 4 0.0000 0.0000 0.0000 14.1675 0.0000 -4.1480
# 5 -16.2801 -7.1440 -15.1727 0.0000 36.1508 0.0000
# 6 0.0000 0.0000 0.0000 -4.1480 0.0000 18.9563
#
#
#
# Elastic Compliance Matrix: (Units=1/GPa)
#
#
# Indices 1 2 3 4 5 6 
#
# 1 0.013636 -0.001191 -0.005137 0.000000 0.003750 0.000000
# 2 -0.001191 0.020245 -0.003537 0.000000 0.001980 0.000000
# 3 -0.005137 -0.003537 0.013534 0.000000 0.002668 0.000000
# 4 0.000000 0.000000 0.000000 0.075416 0.000000 0.016503
# 5 0.003750 0.001980 0.002668 0.000000 0.030862 0.000000
# 6 0.000000 0.000000 0.000000 0.016503 0.000000 0.056364
#
#
# Mechanical properties :
#
#
# Convention : Reuss Voigt Hill
#
# Bulk Modulus (GPa) = 36.11829 45.29336 40.70582
# Shear Modulus (GPa) = 20.91920 25.16239 23.04079
#
# Velocity S-wave (km/s) = 3.39326 3.72153 3.56118
# Velocity P-wave (km/s) = 5.93569 6.58760 6.27012
#
# Compressibility (1/GPa) = 0.02768680
#
# Stress axis : x y z
#
# Youngs Moduli (GPa) = 73.33295 49.39501 73.88737
#
# Poissons Ratio (x) = 0.05883 0.37954
# Poissons Ratio (y) = 0.08734 0.26131
# Poissons Ratio (z) = 0.37670 0.17469
#
# Static dielectric constant tensor:
#      x y z
#    x 1.723890 0.000000 0.022390 
#    y 0.000000 1.664570 0.000000 
#    z 0.022390 0.000000 1.622030 
# 
# From -- ./inp_files/185123.got.cif
#   From: 2010.05.17/outbox.cif.g08.bks.cpg/sg12_93_cif.got.tgz:185123.got - 2010.06.03 13:09:07.
