data_PCOD9206651
_publ_section_title
;
Structure prediction by ZEFSAII (Michael W. Deem and Ramdas Pophale) SiO2 
 PCOD9206651
Probable space group: C 2/M
;
_chemical_formula_sum "Si O2"
_cell_formula_units_Z 64
_cell_length_a 25.892104
_cell_length_b 8.601881
_cell_length_c 15.524742
_cell_angle_alpha 90.000000
_cell_angle_beta 110.326252
_cell_angle_gamma 90.000000
_cell_volume 3242.372574
_symmetry_space_group_name_H-M "C 2/M"
_symmetry_group_IT_number 12
_symmetry_cell_setting 'monoclinic'
loop_
_space_group_symop_operation_xyz
x,y,z
-x,y,-z
-x,-y,-z
x,-y,z
1/2+x,1/2+y,z
1/2-x,1/2+y,-z
1/2-x,1/2-y,-z
1/2+x,1/2-y,z
loop_
_atom_site_type_symbol
_atom_site_label
_atom_site_fract_x
_atom_site_fract_y
_atom_site_fract_z
Si Si1 0.064399 0.685618 0.023823
Si Si2 0.613028 0.684812 0.697998
Si Si3 0.854855 0.813559 0.786554
Si Si4 0.202116 0.671056 0.522292
Si Si5 0.451714 0.814841 0.177210
Si Si6 0.061801 0.185134 0.309133
Si Si7 0.585179 0.187776 0.496750
Si Si8 0.268027 0.824012 0.261050
O O1 0.070800 0.500000 0.041715
O O2 0.103256 0.772659 0.113030
O O3 0.076156 0.721183 0.930622
O O4 0.000000 0.722480 0.000000
O O5 0.606857 0.500000 0.697084
O O6 0.584756 0.763185 0.763508
O O7 0.584064 0.746437 0.592694
O O8 0.678045 0.730193 0.737427
O O9 0.883839 0.760207 0.713476
O O10 0.793739 0.754987 0.777272
O O11 0.848852 0.000000 0.774501
O O12 0.192959 0.500000 0.480122
O O13 0.250000 0.750000 0.500000
O O14 0.143515 0.751680 0.493837
O O15 0.221222 0.659001 0.631192
O O16 0.510037 0.728662 0.219568
O O17 0.461869 0.000000 0.185219
O O18 0.048320 0.261503 0.394742
O O19 0.065431 0.000000 0.322728
O O20 0.585302 0.000000 0.504048
O O21 0.268973 0.000000 0.223768
#
# Coordination Sequence:
#
# PCOD9206651 Si02
#       8
#     8   8   8   8   8   8   8   8
#     4  10  21  39  62  89 119 151 191 236 288 353
#     4  11  23  40  61  86 115 152 200 248 288 337
#     4  10  21  36  60  91 124 155 189 240 296 347
#     4   9  17  29  48  73 107 147 190 234 279 334
#     4  11  23  41  63  85 115 156 194 237 293 353
#     4  11  22  36  57  90 123 152 193 245 292 340
#     4  10  21  37  55  79 114 158 198 236 286 345
#     4   9  19  37  56  80 115 156 194 232 286 347
#
# _framework density 19.738631999999999
#
# number of rings (size 3 to 8) (size 9 to 14) (size 15 to 20)
#    0.000    1.875    1.250    3.750    0.000    6.250 
#    0.000    3.125    0.000    0.000    0.000    0.000 
#    0.000    0.000    0.000    0.000    0.000    0.000 
#
# Total GULP energy -178411.251221 kJ/mol
# GULP energy per Si atom -5575.351601 kJ/mol
# Density = 1.969371 g / cm^3
# Si number density = 19.738632 Si / 1000 Ang^3
#
#
#
# Elastic Constant Matrix: (Units=GPa)
#
#
# Indices 1 2 3 4 5 6 
#
# 1 43.0403 1.8110 23.4466 0.0000 -4.9976 0.0000
# 2 1.8110 32.2005 8.8673 0.0000 -9.0371 0.0000
# 3 23.4466 8.8673 91.8786 0.0000 -11.1875 0.0000
# 4 0.0000 0.0000 0.0000 23.5906 0.0000 7.3773
# 5 -4.9976 -9.0371 -11.1875 0.0000 34.4213 0.0000
# 6 0.0000 0.0000 0.0000 7.3773 0.0000 19.0594
#
#
#
# Elastic Compliance Matrix: (Units=1/GPa)
#
#
# Indices 1 2 3 4 5 6 
#
# 1 0.027110 0.000891 -0.006764 0.000000 0.001972 0.000000
# 2 0.000891 0.034009 -0.002506 0.000000 0.008244 0.000000
# 3 -0.006764 -0.002506 0.013174 0.000000 0.002642 0.000000
# 4 0.000000 0.000000 0.000000 0.048227 0.000000 -0.018667
# 5 0.001972 0.008244 0.002642 0.000000 0.032361 0.000000
# 6 0.000000 0.000000 0.000000 -0.018667 0.000000 0.059693
#
#
# Mechanical properties :
#
#
# Convention : Reuss Voigt Hill
#
# Bulk Modulus (GPa) = 17.38062 26.15212 21.76637
# Shear Modulus (GPa) = 19.95924 24.28055 22.11990
#
# Velocity S-wave (km/s) = 3.18335 3.51109 3.35123
# Velocity P-wave (km/s) = 4.72611 5.45114 5.10152
#
# Compressibility (1/GPa) = 0.05753534
#
# Stress axis : x y z
#
# Youngs Moduli (GPa) = 36.88623 29.40400 75.90938
#
# Poissons Ratio (x) = -0.02621 0.51347
# Poissons Ratio (y) = -0.03288 0.19022
# Poissons Ratio (z) = 0.24951 0.07368
#
# Static dielectric constant tensor:
#      x y z
#    x 1.725370 0.000000 0.017010 
#    y 0.000000 1.708560 0.000000 
#    z 0.017010 0.000000 1.710870 
# 
# From -- ./inp_files/244228.got.cif
#   From: 2010.05.17/outbox.cif.g08.bks.cpg/sg12_123_cif.got.tgz:244228.got - 2010.06.03 13:09:07.
