data_PCOD9206114
_publ_section_title
;
Structure prediction by ZEFSAII (Michael W. Deem and Ramdas Pophale) SiO2 
 PCOD9206114
Probable space group: C 2/M
;
_chemical_formula_sum "Si O2"
_cell_formula_units_Z 56
_cell_length_a 27.308679
_cell_length_b 7.410138
_cell_length_c 17.556824
_cell_angle_alpha 90.000000
_cell_angle_beta 138.216336
_cell_angle_gamma 90.000000
_cell_volume 2367.313228
_symmetry_space_group_name_H-M "C 2/M"
_symmetry_group_IT_number 12
_symmetry_cell_setting 'monoclinic'
loop_
_space_group_symop_operation_xyz
x,y,z
-x,y,-z
-x,-y,-z
x,-y,z
1/2+x,1/2+y,z
1/2-x,1/2+y,-z
1/2-x,1/2-y,-z
1/2+x,1/2-y,z
loop_
_atom_site_type_symbol
_atom_site_label
_atom_site_fract_x
_atom_site_fract_y
_atom_site_fract_z
Si Si1 0.175285 0.709274 0.542676
Si Si2 0.890190 0.710237 0.685357
Si Si3 0.019233 0.218408 0.437559
Si Si4 0.082584 0.280952 0.115114
Si Si5 0.794333 0.216100 0.974906
Si Si6 0.952865 0.218177 0.205969
Si Si7 0.770465 0.791623 0.786985
O O1 0.195498 0.500000 0.553151
O O2 0.159734 0.788973 0.440715
O O3 0.097814 0.717054 0.497661
O O4 0.233175 0.791890 0.668843
O O5 0.870316 0.500000 0.669383
O O6 0.891165 0.786161 0.771361
O O7 0.974125 0.719588 0.752708
O O8 0.000000 0.281039 0.500000
O O9 0.961546 0.270606 0.304814
O O10 0.022447 0.000000 0.443041
O O11 0.082542 0.500000 0.115549
O O12 0.142272 0.216950 0.123925
O O13 0.000000 0.222903 0.000000
O O14 0.756168 0.287299 0.853819
O O15 0.799484 0.000000 0.971119
O O16 0.750000 0.250000 0.000000
O O17 0.877230 0.284539 0.082565
O O18 0.953455 0.000000 0.203843
O O19 0.745438 0.000000 0.758652
#
# Coordination Sequence:
#
# PCOD9206114 Si02
#       7
#     8   8   8   8   8   8   8
#     4   9  19  35  52  74 107 141 173 213 259 310
#     4   9  18  34  55  78 105 137 173 214 260 310
#     4   9  18  31  50  75 101 132 173 219 261 306
#     4  10  21  36  56  82 108 136 176 221 263 311
#     4  10  22  37  53  75 104 138 175 216 261 311
#     4   9  18  33  51  74 102 132 171 216 260 308
#     4  10  22  38  54  78 110 140 175 218 261 313
#
# _framework density 23.655508999999999
#
# number of rings (size 3 to 8) (size 9 to 14) (size 15 to 20)
#    0.000    2.571    0.000    0.857    2.000    3.429 
#    0.000    0.000    0.000    0.000    0.000    0.000 
#    0.000    0.000    0.000    0.000    0.000    0.000 
#
# Total GULP energy -156410.188864 kJ/mol
# GULP energy per Si atom -5586.078174 kJ/mol
# Density = 2.360167 g / cm^3
# Si number density = 23.655509 Si / 1000 Ang^3
#
#
#
# Elastic Constant Matrix: (Units=GPa)
#
#
# Indices 1 2 3 4 5 6 
#
# 1 85.0160 -10.0541 38.8019 0.0000 -36.6265 0.0000
# 2 -10.0541 84.8190 9.0485 0.0001 -8.6124 0.0000
# 3 38.8019 9.0485 145.5812 0.0000 -24.3298 0.0000
# 4 0.0000 0.0001 0.0000 -15.3062 0.0000 32.4605
# 5 -36.6265 -8.6124 -24.3298 0.0000 40.1975 0.0000
# 6 0.0000 0.0000 0.0000 32.4605 0.0000 -36.3607
#
#
#
# Elastic Compliance Matrix: (Units=1/GPa)
#
#
# Indices 1 2 3 4 5 6 
#
# 1 0.022003 0.004883 -0.002940 0.000000 0.019315 0.000000
# 2 0.004883 0.013152 -0.001006 0.000000 0.006658 0.000000
# 3 -0.002940 -0.001006 0.008045 0.000000 0.001975 0.000000
# 4 0.000000 0.000000 0.000000 0.073139 0.000000 0.065294
# 5 0.019315 0.006658 0.001975 0.000000 0.045098 0.000000
# 6 0.000000 0.000000 0.000000 0.065294 0.000000 0.030788
#
#
# Mechanical properties :
#
#
# Convention : Reuss Voigt Hill
#
# Bulk Modulus (GPa) = 22.18570 43.44540 32.81555
# Shear Modulus (GPa) = 24.34539 16.21412 20.27976
#
# Velocity S-wave (km/s) = 3.21154 2.62091 2.93114
# Velocity P-wave (km/s) = 4.81155 5.25020 5.03565
#
# Compressibility (1/GPa) = 0.04507407
#
# Stress axis : x y z
#
# Youngs Moduli (GPa) = 45.44798 76.03389 124.29722
#
# Poissons Ratio (x) = -0.37128 0.36544
# Poissons Ratio (y) = -0.22193 0.12507
# Poissons Ratio (z) = 0.13362 0.07651
#
# Static dielectric constant tensor:
#      x y z
#    x 1.851480 0.000000 -0.046970 
#    y 0.000000 1.884040 0.000000 
#    z -0.046970 0.000000 1.936360 
# 
# From -- ./inp_files/288202.got.cif
#   From: 2010.05.17/outbox.cif.g08.bks.cpg/sg12_145_cif.got.tgz:288202.got - 2010.06.03 13:09:07.
