data_PCOD9206419
_publ_section_title
;
Structure prediction by ZEFSAII (Michael W. Deem and Ramdas Pophale) SiO2 
 PCOD9206419
Probable space group: C 2/M
;
_chemical_formula_sum "Si O2"
_cell_formula_units_Z 52
_cell_length_a 25.274828
_cell_length_b 7.418438
_cell_length_c 12.199312
_cell_angle_alpha 90.000000
_cell_angle_beta 91.747425
_cell_angle_gamma 90.000000
_cell_volume 2286.304171
_symmetry_space_group_name_H-M "C 2/M"
_symmetry_group_IT_number 12
_symmetry_cell_setting 'monoclinic'
loop_
_space_group_symop_operation_xyz
x,y,z
-x,y,-z
-x,-y,-z
x,-y,z
1/2+x,1/2+y,z
1/2-x,1/2+y,-z
1/2-x,1/2-y,-z
1/2+x,1/2-y,z
loop_
_atom_site_type_symbol
_atom_site_label
_atom_site_fract_x
_atom_site_fract_y
_atom_site_fract_z
Si Si1 0.378161 0.209779 0.553330
Si Si2 0.840767 0.279905 0.323713
Si Si3 0.399281 0.205883 0.105998
Si Si4 0.720012 0.717739 0.304452
Si Si5 0.305278 0.714288 0.940810
Si Si6 0.012158 0.284768 0.370809
Si Si7 0.965577 0.000000 0.193981
O O1 0.372807 0.286548 0.431071
O O2 0.321755 0.225375 0.607418
O O3 0.425955 0.274487 0.631509
O O4 0.390879 0.000000 0.538060
O O5 0.840700 0.500000 0.323739
O O6 0.866584 0.224705 0.211303
O O7 0.779941 0.221504 0.328308
O O8 0.447178 0.342388 0.104046
O O9 0.415535 0.000000 0.123970
O O10 0.356046 0.210521 0.006671
O O11 0.720924 0.500000 0.303488
O O12 0.701266 0.780240 0.183730
O O13 0.312153 0.500000 0.938119
O O14 0.250000 0.750000 0.000000
O O15 0.004669 0.500000 0.346784
O O16 0.000000 0.260537 0.500000
O O17 0.980502 0.159465 0.286050
#
# Coordination Sequence:
#
# PCOD9206419 Si02
#       7
#     8   8   8   8   8   8   4
#     4  10  21  37  59  88 123 165 208 251 312 382
#     4   9  18  36  57  85 127 169 201 245 309 376
#     4  11  22  39  62  92 129 166 206 270 320 372
#     4  10  21  36  58  86 127 170 204 251 312 376
#     4  11  21  38  61  91 127 168 215 262 315 375
#     4  10  22  41  64  91 127 167 213 273 323 374
#     4  12  23  38  62  95 122 162 218 263 327 371
#
# _framework density 22.744129000000001
#
# number of rings (size 3 to 8) (size 9 to 14) (size 15 to 20)
#    0.000    1.692    2.308    2.538    1.077    3.692 
#    2.769    0.000    0.000    1.846    0.000    3.231 
#    0.000    0.000    0.000    0.000    0.000    0.000 
#
# Total GULP energy -144850.432400 kJ/mol
# GULP energy per Si atom -5571.170477 kJ/mol
# Density = 2.269236 g / cm^3
# Si number density = 22.744129 Si / 1000 Ang^3
#
#
#
# Elastic Constant Matrix: (Units=GPa)
#
#
# Indices 1 2 3 4 5 6 
#
# 1 52.7936 9.0332 6.6034 0.0000 22.2215 0.0000
# 2 9.0332 132.2995 10.6759 0.0000 22.1439 0.0000
# 3 6.6034 10.6759 69.7755 0.0000 33.4608 0.0000
# 4 0.0000 0.0000 0.0000 17.1022 0.0000 9.8604
# 5 22.2215 22.1439 33.4608 0.0000 39.3107 0.0000
# 6 0.0000 0.0000 0.0000 9.8604 0.0000 15.1778
#
#
#
# Elastic Compliance Matrix: (Units=1/GPa)
#
#
# Indices 1 2 3 4 5 6 
#
# 1 0.027575 0.001381 0.008494 0.000000 -0.023596 0.000000
# 2 0.001381 0.008529 0.002100 0.000000 -0.007372 0.000000
# 3 0.008494 0.002100 0.027165 0.000000 -0.029107 0.000000
# 4 0.000000 0.000000 0.000000 0.093490 0.000000 -0.060737
# 5 -0.023596 -0.007372 -0.029107 0.000000 0.067705 0.000000
# 6 0.000000 0.000000 0.000000 -0.060737 0.000000 0.105344
#
#
# Mechanical properties :
#
#
# Convention : Reuss Voigt Hill
#
# Bulk Modulus (GPa) = 11.46545 34.16597 22.81571
# Shear Modulus (GPa) = 14.92853 29.55521 22.24187
#
# Velocity S-wave (km/s) = 2.56475 3.60872 3.13056
# Velocity P-wave (km/s) = 3.71787 5.69371 4.80837
#
# Compressibility (1/GPa) = 0.08721854
#
# Stress axis : x y z
#
# Youngs Moduli (GPa) = 36.26524 117.24942 36.81266
#
# Poissons Ratio (x) = -0.16194 -0.31270
# Poissons Ratio (y) = -0.05009 -0.07730
# Poissons Ratio (z) = -0.30805 -0.24620
#
# Static dielectric constant tensor:
#      x y z
#    x 1.905080 0.000000 0.012740 
#    y 0.000000 1.867740 0.000000 
#    z 0.012740 0.000000 1.822860 
# 
# From -- ./inp_files/180091.got.cif
#   From: 2010.05.17/outbox.cif.g08.bks.cpg/sg12_91_cif.got.tgz:180091.got - 2010.06.03 13:09:07.
