data_PCOD9206083
_publ_section_title
;
Structure prediction by ZEFSAII (Michael W. Deem and Ramdas Pophale) SiO2 
 PCOD9206083
Probable space group: C 2/M
;
_chemical_formula_sum "Si O2"
_cell_formula_units_Z 48
_cell_length_a 18.124950
_cell_length_b 20.548217
_cell_length_c 18.056765
_cell_angle_alpha 90.000000
_cell_angle_beta 19.894244
_cell_angle_gamma 90.000000
_cell_volume 2288.409921
_symmetry_space_group_name_H-M "C 2/M"
_symmetry_group_IT_number 12
_symmetry_cell_setting 'monoclinic'
loop_
_space_group_symop_operation_xyz
x,y,z
-x,y,-z
-x,-y,-z
x,-y,z
1/2+x,1/2+y,z
1/2-x,1/2+y,-z
1/2-x,1/2-y,-z
1/2+x,1/2-y,z
loop_
_atom_site_type_symbol
_atom_site_label
_atom_site_fract_x
_atom_site_fract_y
_atom_site_fract_z
Si Si1 0.512233 0.186866 0.400694
Si Si2 0.523962 0.572287 0.565278
Si Si3 0.758668 0.425730 0.905050
Si Si4 0.204229 0.193877 0.137769
Si Si5 0.071268 0.386268 0.735280
Si Si6 0.893745 0.165197 0.304886
O O1 0.500000 0.186346 0.500000
O O2 0.605720 0.119313 0.279500
O O3 0.666579 0.243319 0.223123
O O4 0.271793 0.199451 0.594495
O O5 0.500000 0.579124 0.500000
O O6 0.444335 0.500000 0.662434
O O7 0.398699 0.630892 0.723714
O O8 0.776193 0.577191 0.350954
O O9 0.739147 0.500000 0.899278
O O10 0.885181 0.423266 0.864673
O O11 0.528418 0.391009 0.136380
O O12 0.071717 0.203079 0.185780
O O13 0.448318 0.173292 0.890025
O O14 0.234818 0.363088 0.517344
#
# Coordination Sequence:
#
# PCOD9206083 Si02
#       6
#     8   8   8   8   8   8
#     4  11  24  41  62  91 124 160 202 252 310 368
#     4  10  21  36  55  85 125 163 200 247 303 361
#     4  10  22  40  63  90 120 160 209 257 306 362
#     4  10  21  39  63  89 119 159 206 252 301 361
#     4   9  20  37  62  88 116 155 202 250 299 357
#     4   9  21  39  61  87 117 153 197 250 303 360
#
# _framework density 20.975262000000001
#
# number of rings (size 3 to 8) (size 9 to 14) (size 15 to 20)
#    0.000    2.167    0.000    1.500    0.000   19.667 
#    0.000    4.167    0.000    0.000    0.000    0.000 
#    0.000    0.000    0.000    0.000    0.000    0.000 
#
# Total GULP energy -134056.521506 kJ/mol
# GULP energy per Si atom -5585.688396 kJ/mol
# Density = 2.092752 g / cm^3
# Si number density = 20.975262 Si / 1000 Ang^3
#
#
#
# Elastic Constant Matrix: (Units=GPa)
#
#
# Indices 1 2 3 4 5 6 
#
# 1 120.4545 34.0923 23.0474 0.0132 13.4392 -0.0165
# 2 34.0923 132.9590 41.2415 -0.0306 26.3833 0.0035
# 3 23.0474 41.2415 91.3399 0.0193 5.2351 0.0025
# 4 0.0132 -0.0306 0.0193 22.0004 0.0187 5.7201
# 5 13.4392 26.3833 5.2351 0.0187 20.1985 -0.0022
# 6 -0.0165 0.0035 0.0025 5.7201 -0.0022 20.6174
#
#
#
# Elastic Compliance Matrix: (Units=1/GPa)
#
#
# Indices 1 2 3 4 5 6 
#
# 1 0.009408 -0.000998 -0.001664 -0.000004 -0.004524 0.000008
# 2 -0.000998 0.011823 -0.004303 0.000036 -0.013664 -0.000014
# 3 -0.001664 -0.004303 0.013120 -0.000020 0.003327 0.000004
# 4 -0.000004 0.000036 -0.000020 0.048988 -0.000086 -0.013591
# 5 -0.004524 -0.013664 0.003327 -0.000086 0.069504 0.000030
# 6 0.000008 -0.000014 0.000004 -0.013591 0.000030 0.052273
#
#
# Mechanical properties :
#
#
# Convention : Reuss Voigt Hill
#
# Bulk Modulus (GPa) = 48.97119 60.16841 54.56980
# Shear Modulus (GPa) = 22.13817 28.98805 25.56311
#
# Velocity S-wave (km/s) = 3.25228 3.72157 3.49481
# Velocity P-wave (km/s) = 6.12380 6.87128 6.50828
#
# Compressibility (1/GPa) = 0.02042017
#
# Stress axis : x y z
#
# Youngs Moduli (GPa) = 106.29750 84.57853 76.21819
#
# Poissons Ratio (x) = 0.08445 0.12680
# Poissons Ratio (y) = 0.10614 0.32799
# Poissons Ratio (z) = 0.17684 0.36397
#
# Static dielectric constant tensor:
#      x y z
#    x 1.742990 -0.000030 -0.025300 
#    y -0.000030 1.798230 0.000080 
#    z -0.025300 0.000080 1.760130 
# 
# From -- ./inp_files/25737.got.cif
#   From: 2010.05.17/outbox.cif.g08.bks.cpg/sg12_13_cif.got.tgz:25737.got - 2010.06.03 13:09:07.
