data_PCOD9206251
_publ_section_title
;
Structure prediction by ZEFSAII (Michael W. Deem and Ramdas Pophale) SiO2 
 PCOD9206251
Probable space group: C 2/M
;
_chemical_formula_sum "Si O2"
_cell_formula_units_Z 56
_cell_length_a 19.967864
_cell_length_b 9.418174
_cell_length_c 28.818675
_cell_angle_alpha 90.000000
_cell_angle_beta 29.706969
_cell_angle_gamma 90.000000
_cell_volume 2685.791887
_symmetry_space_group_name_H-M "C 2/M"
_symmetry_group_IT_number 12
_symmetry_cell_setting 'monoclinic'
loop_
_space_group_symop_operation_xyz
x,y,z
-x,y,-z
-x,-y,-z
x,-y,z
1/2+x,1/2+y,z
1/2-x,1/2+y,-z
1/2-x,1/2-y,-z
1/2+x,1/2-y,z
loop_
_atom_site_type_symbol
_atom_site_label
_atom_site_fract_x
_atom_site_fract_y
_atom_site_fract_z
Si Si1 0.339071 0.166013 0.100099
Si Si2 0.337646 0.665488 0.600490
Si Si3 0.890744 0.331567 0.909695
Si Si4 0.330883 0.841137 0.516013
Si Si5 0.883078 0.666732 0.807920
Si Si6 0.451019 0.340299 0.367961
Si Si7 0.665262 0.171989 0.792690
O O1 0.265508 0.265303 0.107498
O O2 0.300839 0.214789 0.175308
O O3 0.301503 0.000000 0.115591
O O4 0.500000 0.173612 0.000000
O O5 0.500000 0.674433 0.500000
O O6 0.299893 0.500000 0.615335
O O7 0.287751 0.763254 0.588825
O O8 0.273055 0.710292 0.688256
O O9 0.868987 0.500000 0.931407
O O10 0.934017 0.315811 0.829765
O O11 0.015359 0.281950 0.866638
O O12 0.750000 0.250000 0.000000
O O13 0.437181 0.744862 0.424095
O O14 0.199421 0.852386 0.562616
O O15 0.382072 0.000000 0.494185
O O16 0.883680 0.500000 0.796760
O O17 0.967047 0.754228 0.719689
O O18 0.503776 0.500000 0.343894
O O19 0.660310 0.000000 0.797082
#
# Coordination Sequence:
#
# PCOD9206251 Si02
#       7
#     8   8   8   8   8   8   8
#     4  10  21  38  61  86 116 158 204 246 292 356
#     4  10  21  36  57  83 114 158 204 240 284 354
#     4  10  21  38  61  86 116 152 194 247 300 356
#     4  10  21  37  57  84 117 149 189 244 298 342
#     4  11  23  37  58  89 121 151 190 246 307 356
#     4  10  21  37  59  84 113 153 195 237 288 356
#     4   9  19  37  59  84 116 155 200 245 291 347
#
# _framework density 20.850463000000001
#
# number of rings (size 3 to 8) (size 9 to 14) (size 15 to 20)
#    0.000    2.000    0.000    3.000    2.000    5.714 
#    0.000    2.143    0.000    0.000    0.000    0.000 
#    0.000    0.000    0.000    0.000    0.000    0.000 
#
# Total GULP energy -156441.614143 kJ/mol
# GULP energy per Si atom -5587.200505 kJ/mol
# Density = 2.080301 g / cm^3
# Si number density = 20.850463 Si / 1000 Ang^3
#
#
#
# Elastic Constant Matrix: (Units=GPa)
#
#
# Indices 1 2 3 4 5 6 
#
# 1 62.9593 23.0768 -7.8903 -0.0001 6.5381 0.0003
# 2 23.0768 88.6544 25.4680 0.0000 8.9079 0.0005
# 3 -7.8903 25.4680 70.7175 -0.0002 11.9362 0.0002
# 4 -0.0001 0.0000 -0.0002 25.4698 0.0000 -1.8365
# 5 6.5381 8.9079 11.9362 0.0000 32.7732 0.0000
# 6 0.0003 0.0005 0.0002 -1.8365 0.0000 23.1465
#
#
#
# Elastic Compliance Matrix: (Units=1/GPa)
#
#
# Indices 1 2 3 4 5 6 
#
# 1 0.019121 -0.006004 0.004970 0.000000 -0.003993 0.000000
# 2 -0.006004 0.014577 -0.005810 0.000000 -0.000648 0.000000
# 3 0.004970 -0.005810 0.017782 0.000000 -0.005888 0.000000
# 4 0.000000 0.000000 0.000000 0.039488 0.000000 0.003133
# 5 -0.003993 -0.000648 -0.005888 0.000000 0.033630 0.000000
# 6 0.000000 0.000000 0.000000 0.003133 0.000000 0.043452
#
#
# Mechanical properties :
#
#
# Convention : Reuss Voigt Hill
#
# Bulk Modulus (GPa) = 26.46128 33.73780 30.09954
# Shear Modulus (GPa) = 25.72879 28.38969 27.05924
#
# Velocity S-wave (km/s) = 3.51660 3.69397 3.60637
# Velocity P-wave (km/s) = 5.40436 5.86599 5.63990
#
# Compressibility (1/GPa) = 0.03779107
#
# Stress axis : x y z
#
# Youngs Moduli (GPa) = 52.29780 68.60251 56.23807
#
# Poissons Ratio (x) = 0.41187 -0.27948
# Poissons Ratio (y) = 0.31398 0.32675
# Poissons Ratio (z) = -0.25990 0.39859
#
# Static dielectric constant tensor:
#      x y z
#    x 1.753210 0.000000 -0.021600 
#    y 0.000000 1.717110 0.000000 
#    z -0.021600 0.000000 1.781500 
# 
# From -- ./inp_files/380652.got.cif
#   From: 2010.05.17/outbox.cif.g08.bks.cpg/sg12_191_cif.got.tgz:380652.got - 2010.06.03 13:09:07.
