data_PCOD9206184
_publ_section_title
;
Structure prediction by ZEFSAII (Michael W. Deem and Ramdas Pophale) SiO2 
 PCOD9206184
Probable space group: C 2/M
;
_chemical_formula_sum "Si O2"
_cell_formula_units_Z 48
_cell_length_a 34.328083
_cell_length_b 10.909368
_cell_length_c 24.651951
_cell_angle_alpha 90.000000
_cell_angle_beta 165.027436
_cell_angle_gamma 90.000000
_cell_volume 2385.172555
_symmetry_space_group_name_H-M "C 2/M"
_symmetry_group_IT_number 12
_symmetry_cell_setting 'monoclinic'
loop_
_space_group_symop_operation_xyz
x,y,z
-x,y,-z
-x,-y,-z
x,-y,z
1/2+x,1/2+y,z
1/2-x,1/2+y,-z
1/2-x,1/2-y,-z
1/2+x,1/2-y,z
loop_
_atom_site_type_symbol
_atom_site_label
_atom_site_fract_x
_atom_site_fract_y
_atom_site_fract_z
Si Si1 0.578122 0.731131 0.381055
Si Si2 0.412654 0.855458 0.830724
Si Si3 0.985653 0.355753 0.149176
Si Si4 0.847017 0.860294 0.328977
Si Si5 0.434963 0.860846 0.521715
Si Si6 0.263713 0.367643 0.981032
O O1 0.735011 0.661852 0.598509
O O2 0.571694 0.797786 0.314933
O O3 0.565554 0.824564 0.415194
O O4 0.430011 0.645329 0.180863
O O5 0.466332 0.804500 0.844952
O O6 0.449014 0.000000 0.877930
O O7 0.500000 0.801688 0.000000
O O8 0.018536 0.500000 0.193927
O O9 0.804297 0.342546 0.909743
O O10 0.855652 0.750637 0.383868
O O11 0.000000 0.856974 0.500000
O O12 0.836017 0.000000 0.337955
O O13 0.611778 0.862102 0.741064
O O14 0.377233 0.000000 0.436145
O O15 0.254779 0.500000 0.997958
O O16 0.250000 0.250000 0.000000
#
# Coordination Sequence:
#
# PCOD9206184 Si02
#       6
#     8   8   8   8   8   8
#     4  11  20  35  59  82 113 151 193 236 284 344
#     4  10  21  37  58  83 111 147 194 243 288 337
#     4  10  21  37  57  84 116 149 189 238 287 337
#     4  10  21  38  61  87 115 153 197 236 278 336
#     4  10  21  36  56  85 120 155 188 232 290 342
#     4   9  19  33  52  82 116 149 188 231 278 332
#
# _framework density 20.12433
#
# number of rings (size 3 to 8) (size 9 to 14) (size 15 to 20)
#    0.000    2.000    0.000    3.500    0.000    5.667 
#    0.000    5.000    0.000   11.000    0.000    0.000 
#    0.000    0.000    0.000    0.000    0.000    0.000 
#
# Total GULP energy -133774.612603 kJ/mol
# GULP energy per Si atom -5573.942192 kJ/mol
# Density = 2.007853 g / cm^3
# Si number density = 20.124330 Si / 1000 Ang^3
#
#
#
# Elastic Constant Matrix: (Units=GPa)
#
#
# Indices 1 2 3 4 5 6 
#
# 1 70.7062 16.1803 13.5038 0.0000 -14.2940 0.0001
# 2 16.1803 101.9230 -7.0760 0.0000 -28.3008 0.0000
# 3 13.5038 -7.0760 45.0313 0.0001 -12.3655 0.0001
# 4 0.0000 0.0000 0.0001 21.5572 0.0000 0.8286
# 5 -14.2940 -28.3008 -12.3655 0.0000 37.1138 0.0001
# 6 0.0001 0.0000 0.0001 0.8286 0.0001 19.9288
#
#
#
# Elastic Compliance Matrix: (Units=1/GPa)
#
#
# Indices 1 2 3 4 5 6 
#
# 1 0.016056 -0.001919 -0.004205 0.000000 0.003319 0.000000
# 2 -0.001919 0.013801 0.005978 0.000000 0.011776 0.000000
# 3 -0.004205 0.005978 0.027753 0.000000 0.012186 0.000000
# 4 0.000000 0.000000 0.000000 0.046462 0.000000 -0.001932
# 5 0.003319 0.011776 0.012186 0.000000 0.041263 0.000000
# 6 0.000000 0.000000 0.000000 -0.001932 0.000000 0.050259
#
#
# Mechanical properties :
#
#
# Convention : Reuss Voigt Hill
#
# Bulk Modulus (GPa) = 17.44647 29.20849 23.32748
# Shear Modulus (GPa) = 23.25657 28.72346 25.99001
#
# Velocity S-wave (km/s) = 3.40316 3.78206 3.59760
# Velocity P-wave (km/s) = 4.91225 5.79806 5.37344
#
# Compressibility (1/GPa) = 0.05731819
#
# Stress axis : x y z
#
# Youngs Moduli (GPa) = 62.28063 72.45878 36.03177
#
# Poissons Ratio (x) = 0.13906 0.15151
# Poissons Ratio (y) = 0.11953 -0.21539
# Poissons Ratio (z) = 0.26189 -0.43315
#
# Static dielectric constant tensor:
#      x y z
#    x 1.753000 0.000000 0.019450 
#    y 0.000000 1.706760 0.000000 
#    z 0.019450 0.000000 1.714510 
# 
# From -- ./inp_files/330069.got.cif
#   From: 2010.05.17/outbox.cif.g08.bks.cpg/sg12_166_cif.got.tgz:330069.got - 2010.06.03 13:09:07.
