data_PCOD9206322
_publ_section_title
;
Structure prediction by ZEFSAII (Michael W. Deem and Ramdas Pophale) SiO2 
 PCOD9206322
Probable space group: C 2/M
;
_chemical_formula_sum "Si O2"
_cell_formula_units_Z 52
_cell_length_a 24.194893
_cell_length_b 19.246696
_cell_length_c 5.143665
_cell_angle_alpha 90.000000
_cell_angle_beta 110.203510
_cell_angle_gamma 90.000000
_cell_volume 2247.883641
_symmetry_space_group_name_H-M "C 2/M"
_symmetry_group_IT_number 12
_symmetry_cell_setting 'monoclinic'
loop_
_space_group_symop_operation_xyz
x,y,z
-x,y,-z
-x,-y,-z
x,-y,z
1/2+x,1/2+y,z
1/2-x,1/2+y,-z
1/2-x,1/2-y,-z
1/2+x,1/2-y,z
loop_
_atom_site_type_symbol
_atom_site_label
_atom_site_fract_x
_atom_site_fract_y
_atom_site_fract_z
Si Si1 0.860132 0.421771 0.789893
Si Si2 0.931156 0.218838 0.318554
Si Si3 0.731497 0.313546 0.287062
Si Si4 0.436748 0.079523 0.437924
Si Si5 0.327969 0.190881 0.069016
Si Si6 0.542814 0.500000 0.313711
Si Si7 0.111185 0.137881 0.260088
O O1 0.837350 0.500000 0.695326
O O2 0.898672 0.393563 0.615668
O O3 0.900493 0.427677 0.113978
O O4 0.816086 0.362176 0.814042
O O5 0.897535 0.290877 0.197883
O O6 0.900265 0.194061 0.534342
O O7 0.000000 0.223274 0.500000
O O8 0.920646 0.165423 0.057858
O O9 0.750000 0.250000 0.500000
O O10 0.789065 0.341248 0.235877
O O11 0.681485 0.364023 0.319340
O O12 0.695409 0.269005 0.011141
O O13 0.500000 0.112767 0.500000
O O14 0.448882 0.000000 0.552276
O O15 0.500000 0.500000 0.500000
O O16 0.583305 0.568095 0.336128
O O17 0.500000 0.500000 0.000000
#
# Coordination Sequence:
#
# PCOD9206322 Si02
#       7
#     8   8   8   8   8   4   8
#     4  10  21  36  57  87 120 153 202 253 316 375
#     4  11  22  39  64  96 131 170 222 270 325 400
#     4  10  21  43  67  86 123 170 229 275 326 391
#     4   9  18  34  55  78 113 158 193 232 289 366
#     4  10  23  39  64  91 124 174 215 277 336 381
#     4  12  24  42  68 102 144 180 211 267 348 427
#     4  11  23  41  67  97 131 174 222 272 335 405
#
# _framework density 23.132868999999999
#
# number of rings (size 3 to 8) (size 9 to 14) (size 15 to 20)
#    0.000    1.692    1.538    3.231    2.154    2.462 
#    1.385    3.077    1.692    3.692    0.000    0.000 
#    0.000    0.000    0.000    0.000    0.000    0.000 
#
# Total GULP energy -144998.671835 kJ/mol
# GULP energy per Si atom -5576.871994 kJ/mol
# Density = 2.308022 g / cm^3
# Si number density = 23.132869 Si / 1000 Ang^3
#
#
#
# Elastic Constant Matrix: (Units=GPa)
#
#
# Indices 1 2 3 4 5 6 
#
# 1 159.5841 46.5080 45.6886 0.0000 -35.2929 0.0000
# 2 46.5080 94.1229 5.0725 0.0000 -11.4461 0.0000
# 3 45.6886 5.0725 108.6561 0.0000 -28.1839 0.0000
# 4 0.0000 0.0000 0.0000 31.7981 0.0000 -4.1826
# 5 -35.2929 -11.4461 -28.1839 0.0000 37.9927 0.0000
# 6 0.0000 0.0000 0.0000 -4.1826 0.0000 45.4169
#
#
#
# Elastic Compliance Matrix: (Units=1/GPa)
#
#
# Indices 1 2 3 4 5 6 
#
# 1 0.009290 -0.003759 -0.002212 0.000000 0.005857 0.000000
# 2 -0.003759 0.012566 0.001325 0.000000 0.001277 0.000000
# 3 -0.002212 0.001325 0.011940 0.000000 0.007202 0.000000
# 4 0.000000 0.000000 0.000000 0.031834 0.000000 0.002932
# 5 0.005857 0.001277 0.007202 0.000000 0.037489 0.000000
# 6 0.000000 0.000000 0.000000 0.002932 0.000000 0.022288
#
#
# Mechanical properties :
#
#
# Convention : Reuss Voigt Hill
#
# Bulk Modulus (GPa) = 40.80926 61.87792 51.34359
# Shear Modulus (GPa) = 34.99790 40.71448 37.85619
#
# Velocity S-wave (km/s) = 3.89383 4.19982 4.04972
# Velocity P-wave (km/s) = 6.15593 7.09401 6.64155
#
# Compressibility (1/GPa) = 0.02450424
#
# Stress axis : x y z
#
# Youngs Moduli (GPa) = 107.63898 79.58168 83.75542
#
# Poissons Ratio (x) = 0.29915 0.18525
# Poissons Ratio (y) = 0.40462 -0.11099
# Poissons Ratio (z) = 0.23807 -0.10546
#
# Static dielectric constant tensor:
#      x y z
#    x 2.004960 0.000000 0.091280 
#    y 0.000000 1.704440 0.000000 
#    z 0.091280 0.000000 1.924990 
# 
# From -- ./inp_files/21251.got.cif
#   From: 2010.05.17/outbox.cif.g08.bks.cpg/sg12_11_cif.got.tgz:21251.got - 2010.06.03 13:09:07.
