data_PCOD9206861
_publ_section_title
;
Structure prediction by ZEFSAII (Michael W. Deem and Ramdas Pophale) SiO2 
 PCOD9206861
Probable space group: C 2/M
;
_chemical_formula_sum "Si O2"
_cell_formula_units_Z 56
_cell_length_a 20.113655
_cell_length_b 9.392768
_cell_length_c 22.118646
_cell_angle_alpha 90.000000
_cell_angle_beta 126.087874
_cell_angle_gamma 90.000000
_cell_volume 3376.883383
_symmetry_space_group_name_H-M "C 2/M"
_symmetry_group_IT_number 12
_symmetry_cell_setting 'monoclinic'
loop_
_space_group_symop_operation_xyz
x,y,z
-x,y,-z
-x,-y,-z
x,-y,z
1/2+x,1/2+y,z
1/2-x,1/2+y,-z
1/2-x,1/2-y,-z
1/2+x,1/2-y,z
loop_
_atom_site_type_symbol
_atom_site_label
_atom_site_fract_x
_atom_site_fract_y
_atom_site_fract_z
Si Si1 0.662819 0.170277 0.456987
Si Si2 0.237039 0.832856 0.702484
Si Si3 0.326340 0.336062 0.849692
Si Si4 0.095248 0.166174 0.534408
Si Si5 0.507556 0.663885 0.143942
Si Si6 0.099611 0.666779 0.291006
Si Si7 0.583135 0.164204 0.003172
O O1 0.750000 0.250000 0.500000
O O2 0.617069 0.233200 0.490424
O O3 0.613130 0.199146 0.368491
O O4 0.674767 0.000000 0.467567
O O5 0.257767 0.738456 0.771643
O O6 0.153637 0.797851 0.622484
O O7 0.312135 0.813507 0.695069
O O8 0.236427 0.000000 0.718914
O O9 0.307365 0.500000 0.853151
O O10 0.409556 0.334530 0.853143
O O11 0.349080 0.247037 0.921359
O O12 0.000000 0.176354 0.500000
O O13 0.114073 0.000000 0.528929
O O14 0.483012 0.500000 0.138353
O O15 0.534320 0.737389 0.220635
O O16 0.441117 0.753617 0.070785
O O17 0.895051 0.500000 0.995796
O O18 0.421831 0.000000 0.727459
O O19 0.500000 0.164442 0.000000
#
# Coordination Sequence:
#
# PCOD9206861 Si02
#       7
#     8   8   8   8   8   8   8
#     4  11  21  34  53  75 100 129 168 211 253 301
#     4   9  16  29  45  63  89 122 159 197 241 293
#     4   9  16  24  36  57  83 114 153 195 234 278
#     4  10  21  37  54  73 100 133 168 209 257 304
#     4   9  16  24  36  57  85 116 150 192 235 280
#     4   9  17  29  44  64  90 122 158 198 240 290
#     4   9  15  23  35  52  79 118 154 185 228 283
#
# _framework density 16.583338000000001
#
# number of rings (size 3 to 8) (size 9 to 14) (size 15 to 20)
#    0.000    2.571    1.429    1.714    0.000    7.143 
#    0.000    0.000    0.000    0.000    0.000    0.000 
#    0.000    1.143    0.000    3.429    0.000    5.714 
#
# Total GULP energy -156082.204609 kJ/mol
# GULP energy per Si atom -5574.364450 kJ/mol
# Density = 1.654559 g / cm^3
# Si number density = 16.583338 Si / 1000 Ang^3
#
#
#
# Elastic Constant Matrix: (Units=GPa)
#
#
# Indices 1 2 3 4 5 6 
#
# 1 20.4833 26.8884 29.5934 0.0000 1.3354 0.0000
# 2 26.8884 135.7750 118.3482 0.0000 0.0106 0.0000
# 3 29.5934 118.3482 181.7056 0.0000 5.1668 0.0000
# 4 0.0000 0.0000 0.0000 34.2935 0.0000 -3.4583
# 5 1.3354 0.0106 5.1668 0.0000 8.4450 0.0000
# 6 0.0000 0.0000 0.0000 -3.4583 0.0000 11.8519
#
#
#
# Elastic Compliance Matrix: (Units=1/GPa)
#
#
# Indices 1 2 3 4 5 6 
#
# 1 0.068637 -0.009353 -0.004863 0.000000 -0.007867 0.000000
# 2 -0.009353 0.018716 -0.010897 0.000000 0.008123 0.000000
# 3 -0.004863 -0.010897 0.013608 0.000000 -0.007543 0.000000
# 4 0.000000 0.000000 0.000000 0.030044 0.000000 0.008767
# 5 -0.007867 0.008123 -0.007543 0.000000 0.124262 0.000000
# 6 0.000000 0.000000 0.000000 0.008767 0.000000 0.086933
#
#
# Mechanical properties :
#
#
# Convention : Reuss Voigt Hill
#
# Bulk Modulus (GPa) = 19.71110 76.40267 48.05689
# Shear Modulus (GPa) = 12.21488 21.79367 17.00427
#
# Velocity S-wave (km/s) = 2.71694 3.62911 3.20563
# Velocity P-wave (km/s) = 4.66414 7.98327 6.53784
#
# Compressibility (1/GPa) = 0.05073284
#
# Stress axis : x y z
#
# Youngs Moduli (GPa) = 14.56942 53.43155 73.48851
#
# Poissons Ratio (x) = 0.49976 0.35736
# Poissons Ratio (y) = 0.13627 0.80084
# Poissons Ratio (z) = 0.07085 0.58227
#
# Static dielectric constant tensor:
#      x y z
#    x 1.524900 0.000000 0.002000 
#    y 0.000000 1.559030 0.000000 
#    z 0.002000 0.000000 1.552600 
# 
# From -- ./inp_files/323828.got.cif
#   From: 2010.05.17/outbox.cif.g08.bks.cpg/sg12_162_cif.got.tgz:323828.got - 2010.06.03 13:09:07.
