data_PCOD9206827
_publ_section_title
;
Structure prediction by ZEFSAII (Michael W. Deem and Ramdas Pophale) SiO2 
 PCOD9206827
Probable space group: C 2/M
;
_chemical_formula_sum "Si O2"
_cell_formula_units_Z 64
_cell_length_a 15.321947
_cell_length_b 18.368997
_cell_length_c 18.983436
_cell_angle_alpha 90.000000
_cell_angle_beta 141.511737
_cell_angle_gamma 90.000000
_cell_volume 3325.155201
_symmetry_space_group_name_H-M "C 2/M"
_symmetry_group_IT_number 12
_symmetry_cell_setting 'monoclinic'
loop_
_space_group_symop_operation_xyz
x,y,z
-x,y,-z
-x,-y,-z
x,-y,z
1/2+x,1/2+y,z
1/2-x,1/2+y,-z
1/2-x,1/2-y,-z
1/2+x,1/2-y,z
loop_
_atom_site_type_symbol
_atom_site_label
_atom_site_fract_x
_atom_site_fract_y
_atom_site_fract_z
Si Si1 0.407435 0.698354 0.507369
Si Si2 0.890949 0.687384 0.991729
Si Si3 0.405025 0.638290 0.007249
Si Si4 0.175162 0.416450 0.410222
Si Si5 0.571710 0.296712 0.752249
Si Si6 0.566561 0.582795 0.243415
Si Si7 0.086464 0.641556 0.834646
Si Si8 0.643131 0.862120 0.548814
O O1 0.500000 0.673334 0.500000
O O2 0.294266 0.639083 0.458953
O O3 0.515206 0.716270 0.638526
O O4 0.334116 0.775019 0.442079
O O5 0.734167 0.681527 0.861989
O O6 0.913717 0.773730 0.021565
O O7 0.904463 0.645953 0.074677
O O8 0.000000 0.665159 0.000000
O O9 0.471168 0.599718 0.116247
O O10 0.500000 0.619362 0.000000
O O11 0.239501 0.620971 0.900360
O O12 0.222824 0.500000 0.439157
O O13 0.137814 0.394032 0.466675
O O14 0.038408 0.406640 0.274820
O O15 0.480042 0.361397 0.726099
O O16 0.555479 0.223305 0.787113
O O17 0.551325 0.500000 0.256514
O O18 0.727971 0.600693 0.329955
O O19 0.500000 0.873842 0.500000
#
# Coordination Sequence:
#
# PCOD9206827 Si02
#       8
#     8   8   8   8   8   8   8   8
#     4  11  25  42  71  96 123 165 218 268 313 370
#     4  10  21  36  68  96 119 154 207 269 315 358
#     4  10  22  38  61  93 122 159 208 257 313 372
#     4  12  26  42  63  95 135 171 204 257 325 383
#     4  11  20  42  64  91 122 161 213 264 308 368
#     4  12  24  39  62  87 126 173 208 253 313 379
#     4  11  21  41  64  91 125 164 205 261 308 373
#     4  11  25  43  66  96 125 165 219 264 313 377
#
# _framework density 19.247222000000001
#
# number of rings (size 3 to 8) (size 9 to 14) (size 15 to 20)
#    0.000    1.000    5.000    2.250    3.500    4.000 
#    0.000    0.000    0.000    0.750    0.000    0.000 
#    0.000    0.000    0.000    0.000    0.000    0.000 
#
# Total GULP energy -178879.225283 kJ/mol
# GULP energy per Si atom -5589.975790 kJ/mol
# Density = 1.920341 g / cm^3
# Si number density = 19.247222 Si / 1000 Ang^3
#
#
#
# Elastic Constant Matrix: (Units=GPa)
#
#
# Indices 1 2 3 4 5 6 
#
# 1 88.6261 17.6535 27.8452 0.0000 0.9931 0.0000
# 2 17.6535 47.1610 17.7831 0.0000 11.8963 0.0000
# 3 27.8452 17.7831 89.6796 0.0000 7.9577 -0.0001
# 4 0.0000 0.0000 0.0000 0.6732 -0.0002 -10.1499
# 5 0.9931 11.8963 7.9577 -0.0002 25.8792 -0.0001
# 6 0.0000 0.0000 -0.0001 -10.1499 -0.0001 -2.5191
#
#
#
# Elastic Compliance Matrix: (Units=1/GPa)
#
#
# Indices 1 2 3 4 5 6 
#
# 1 0.013197 -0.004266 -0.003476 0.000000 0.002523 0.000000
# 2 -0.004266 0.026756 -0.002986 0.000000 -0.011218 0.000000
# 3 -0.003476 -0.002986 0.013044 0.000000 -0.002505 0.000000
# 4 0.000000 0.000000 0.000000 0.024057 0.000000 -0.096927
# 5 0.002523 -0.011218 -0.002505 0.000000 0.044471 -0.000001
# 6 0.000000 0.000000 0.000000 -0.096927 -0.000001 -0.006429
#
#
# Mechanical properties :
#
#
# Convention : Reuss Voigt Hill
#
# Bulk Modulus (GPa) = 31.70263 39.11448 35.40856
# Shear Modulus (GPa) = 33.99865 15.61898 24.80881
#
# Velocity S-wave (km/s) = 4.20744 2.85176 3.59410
# Velocity P-wave (km/s) = 6.33328 5.58656 5.97160
#
# Compressibility (1/GPa) = 0.03154312
#
# Stress axis : x y z
#
# Youngs Moduli (GPa) = 75.77616 37.37444 76.66175
#
# Poissons Ratio (x) = 0.15943 0.26644
# Poissons Ratio (y) = 0.32325 0.22889
# Poissons Ratio (z) = 0.26336 0.11159
#
# Static dielectric constant tensor:
#      x y z
#    x 1.664850 0.000000 0.005370 
#    y 0.000000 1.655070 0.000000 
#    z 0.005370 0.000000 1.672950 
# 
# From -- ./inp_files/271676.got.cif
#   From: 2010.05.17/outbox.cif.g08.bks.cpg/sg12_136_cif.got.tgz:271676.got - 2010.06.03 13:09:07.
