data_PCOD9206711
_publ_section_title
;
Structure prediction by ZEFSAII (Michael W. Deem and Ramdas Pophale) SiO2 
 PCOD9206711
Probable space group: C 2/M
;
_chemical_formula_sum "Si O2"
_cell_formula_units_Z 36
_cell_length_a 8.107036
_cell_length_b 17.878753
_cell_length_c 11.806675
_cell_angle_alpha 90.000000
_cell_angle_beta 96.239853
_cell_angle_gamma 90.000000
_cell_volume 1701.164652
_symmetry_space_group_name_H-M "C 2/M"
_symmetry_group_IT_number 12
_symmetry_cell_setting 'monoclinic'
loop_
_space_group_symop_operation_xyz
x,y,z
-x,y,-z
-x,-y,-z
x,-y,z
1/2+x,1/2+y,z
1/2-x,1/2+y,-z
1/2-x,1/2-y,-z
1/2+x,1/2-y,z
loop_
_atom_site_type_symbol
_atom_site_label
_atom_site_fract_x
_atom_site_fract_y
_atom_site_fract_z
Si Si1 0.984452 0.697381 0.748187
Si Si2 0.757408 0.500000 0.499742
Si Si3 0.629511 0.354591 0.824480
Si Si4 0.682911 0.167337 0.960432
Si Si5 0.000000 0.637550 0.500000
Si Si6 0.953567 0.000000 0.308330
O O1 0.804953 0.667252 0.775588
O O2 0.013170 0.782001 0.796177
O O3 0.138186 0.656710 0.825752
O O4 0.995939 0.686313 0.614451
O O5 0.850474 0.422112 0.483877
O O6 0.600477 0.500000 0.407986
O O7 0.713267 0.500000 0.628718
O O8 0.546093 0.425219 0.762762
O O9 0.684231 0.377378 0.956285
O O10 0.500000 0.158473 0.000000
O O11 0.750000 0.250000 0.000000
#
# Coordination Sequence:
#
# PCOD9206711 Si02
#       6
#     8   4   8   8   4   4
#     4  10  21  36  61  90 116 153 199 244 280 340
#     4  10  24  40  58  79 125 165 175 245 304 352
#     4  10  21  38  62  89 118 151 197 242 289 344
#     4   8  16  34  56  84 113 149 185 240 288 327
#     4  11  22  40  60  85 118 152 204 231 292 352
#     4  11  22  42  59  84 121 156 192 234 307 345
#
# _framework density 21.161974000000001
#
# number of rings (size 3 to 8) (size 9 to 14) (size 15 to 20)
#    0.000    2.222    2.222    0.000    3.111    2.667 
#    0.000    7.222    0.000    1.333    0.000    0.000 
#    0.000    0.000    0.000    0.000    0.000    0.000 
#
# Total GULP energy -100273.217347 kJ/mol
# GULP energy per Si atom -5570.734297 kJ/mol
# Density = 2.111381 g / cm^3
# Si number density = 21.161974 Si / 1000 Ang^3
#
#
#
# Elastic Constant Matrix: (Units=GPa)
#
#
# Indices 1 2 3 4 5 6 
#
# 1 56.9099 8.1068 22.2899 0.0000 10.2708 0.0000
# 2 8.1068 69.4579 24.0779 0.0000 21.5572 0.0000
# 3 22.2899 24.0779 141.9749 0.0000 22.3505 0.0000
# 4 0.0000 0.0000 0.0000 64.0601 0.0000 41.2728
# 5 10.2708 21.5572 22.3505 0.0000 22.1094 0.0000
# 6 0.0000 0.0000 0.0000 41.2728 0.0000 8.6556
#
#
#
# Elastic Compliance Matrix: (Units=1/GPa)
#
#
# Indices 1 2 3 4 5 6 
#
# 1 0.019663 0.000868 -0.001978 0.000000 -0.007981 0.000000
# 2 0.000868 0.020701 -0.000483 0.000000 -0.020099 0.000000
# 3 -0.001978 -0.000483 0.008583 0.000000 -0.007287 0.000000
# 4 0.000000 0.000000 0.000000 -0.007533 0.000000 0.035922
# 5 -0.007981 -0.020099 -0.007287 0.000000 0.075901 0.000000
# 6 0.000000 0.000000 0.000000 0.035922 0.000000 -0.055755
#
#
# Mechanical properties :
#
#
# Convention : Reuss Voigt Hill
#
# Bulk Modulus (GPa) = 21.85246 41.92132 31.88689
# Shear Modulus (GPa) = 62.49958 33.22290 47.86124
#
# Velocity S-wave (km/s) = 5.44041 3.96654 4.76085
# Velocity P-wave (km/s) = 7.05781 6.38989 6.73214
#
# Compressibility (1/GPa) = 0.04576143
#
# Stress axis : x y z
#
# Youngs Moduli (GPa) = 50.85686 48.30587 116.50823
#
# Poissons Ratio (x) = -0.04191 0.23043
# Poissons Ratio (y) = -0.04413 0.05626
# Poissons Ratio (z) = 0.10059 0.02333
#
# Static dielectric constant tensor:
#      x y z
#    x 1.841950 0.000000 -0.059480 
#    y 0.000000 1.777940 0.000000 
#    z -0.059480 0.000000 1.843930 
# 
# From -- ./inp_files/118804.got.cif
#   From: 2010.05.17/outbox.cif.g08.bks.cpg/sg12_60_cif.got.tgz:118804.got - 2010.06.03 13:09:07.
