data_PCOD9206685
_publ_section_title
;
Structure prediction by ZEFSAII (Michael W. Deem and Ramdas Pophale) SiO2 
 PCOD9206685
Probable space group: C 2/M
;
_chemical_formula_sum "Si O2"
_cell_formula_units_Z 48
_cell_length_a 19.644477
_cell_length_b 14.490393
_cell_length_c 23.067430
_cell_angle_alpha 90.000000
_cell_angle_beta 22.389208
_cell_angle_gamma 90.000000
_cell_volume 2501.073854
_symmetry_space_group_name_H-M "C 2/M"
_symmetry_group_IT_number 12
_symmetry_cell_setting 'monoclinic'
loop_
_space_group_symop_operation_xyz
x,y,z
-x,y,-z
-x,-y,-z
x,-y,z
1/2+x,1/2+y,z
1/2-x,1/2+y,-z
1/2-x,1/2-y,-z
1/2+x,1/2-y,z
loop_
_atom_site_type_symbol
_atom_site_label
_atom_site_fract_x
_atom_site_fract_y
_atom_site_fract_z
Si Si1 0.711298 0.812211 0.086011
Si Si2 0.709519 0.765551 0.851584
Si Si3 0.061326 0.099735 0.784760
Si Si4 0.319388 0.778844 0.382401
Si Si5 0.994245 0.890148 0.435165
Si Si6 0.163000 0.395091 0.329908
O O1 0.760710 0.752867 0.103980
O O2 0.502684 0.835283 0.248181
O O3 0.750000 0.750000 0.000000
O O4 0.854622 0.892359 0.965008
O O5 0.797686 0.676389 0.751209
O O6 0.824940 0.851006 0.736626
O O7 0.500000 0.772290 0.000000
O O8 0.126788 0.185224 0.694417
O O9 0.167937 0.104433 0.760900
O O10 0.099382 0.000000 0.727135
O O11 0.250000 0.750000 0.500000
O O12 0.170744 0.835159 0.463940
O O13 0.000000 0.873036 0.500000
O O14 0.976836 0.000000 0.439850
O O15 0.128170 0.500000 0.336891
O O16 0.000000 0.367086 0.500000
#
# Coordination Sequence:
#
# PCOD9206685 Si02
#       6
#     8   8   8   8   8   8
#     4  10  23  40  59  93 128 172 212 257 321 391
#     4  12  22  39  69  93 130 176 213 271 326 387
#     4  10  21  39  61  91 130 169 207 258 323 394
#     4  11  22  42  67  94 129 169 222 277 331 386
#     4  11  26  46  69  97 128 171 230 282 327 388
#     4  10  21  36  60  95 130 165 208 254 317 395
#
# _framework density 19.191756000000002
#
# number of rings (size 3 to 8) (size 9 to 14) (size 15 to 20)
#    0.000    1.333    3.333    2.500    2.333    2.667 
#    0.000    0.000    0.000    0.000    0.000    0.000 
#    0.000    0.000    0.000    0.000    0.000    0.000 
#
# Total GULP energy -133976.871386 kJ/mol
# GULP energy per Si atom -5582.369641 kJ/mol
# Density = 1.914807 g / cm^3
# Si number density = 19.191756 Si / 1000 Ang^3
#
#
#
# Elastic Constant Matrix: (Units=GPa)
#
#
# Indices 1 2 3 4 5 6 
#
# 1 136.6842 56.4836 65.6966 0.0052 2.0486 -0.0081
# 2 56.4836 120.3476 54.6923 0.0092 6.0772 0.0064
# 3 65.6966 54.6923 128.5587 0.0160 -11.1407 0.0225
# 4 0.0052 0.0092 0.0160 17.6484 -0.0018 5.4002
# 5 2.0486 6.0772 -11.1407 -0.0018 39.0951 -0.0020
# 6 -0.0081 0.0064 0.0225 5.4002 -0.0020 -12.3686
#
#
#
# Elastic Compliance Matrix: (Units=1/GPa)
#
#
# Indices 1 2 3 4 5 6 
#
# 1 0.010620 -0.002975 -0.004275 0.000006 -0.001312 -0.000013
# 2 -0.002975 0.011471 -0.003589 -0.000002 -0.002650 0.000001
# 3 -0.004275 -0.003589 0.011850 -0.000012 0.004159 0.000017
# 4 0.000006 -0.000002 -0.000012 0.049984 0.000000 0.021824
# 5 -0.001312 -0.002650 0.004159 0.000000 0.027244 0.000003
# 6 -0.000013 0.000001 0.000017 0.021824 0.000003 -0.071321
#
#
# Mechanical properties :
#
#
# Convention : Reuss Voigt Hill
#
# Bulk Modulus (GPa) = 81.55100 82.14841 81.84970
# Shear Modulus (GPa) = 76.20220 22.78953 49.49586
#
# Velocity S-wave (km/s) = 6.30808 3.44970 5.08391
# Velocity P-wave (km/s) = 9.77961 7.66578 8.78650
#
# Compressibility (1/GPa) = 0.01226227
#
# Stress axis : x y z
#
# Youngs Moduli (GPa) = 94.16088 87.17967 84.38475
#
# Poissons Ratio (x) = 0.25939 0.36075
# Poissons Ratio (y) = 0.28016 0.30286
# Poissons Ratio (z) = 0.40254 0.31289
#
# Static dielectric constant tensor:
#      x y z
#    x 1.664220 0.000000 -0.045520 
#    y 0.000000 1.681750 -0.000020 
#    z -0.045520 -0.000020 1.792160 
# 
# From -- ./inp_files/104979.got.cif
#   From: 2010.05.17/outbox.cif.g08.bks.cpg/sg12_53_cif.got.tgz:104979.got - 2010.06.03 13:09:07.
