data_PCOD9206090
_publ_section_title
;
Structure prediction by ZEFSAII (Michael W. Deem and Ramdas Pophale) SiO2 
 PCOD9206090
Probable space group: C 2/M
;
_chemical_formula_sum "Si O2"
_cell_formula_units_Z 56
_cell_length_a 11.974116
_cell_length_b 23.386257
_cell_length_c 10.676692
_cell_angle_alpha 90.000000
_cell_angle_beta 56.276194
_cell_angle_gamma 90.000000
_cell_volume 2486.679846
_symmetry_space_group_name_H-M "C 2/M"
_symmetry_group_IT_number 12
_symmetry_cell_setting 'monoclinic'
loop_
_space_group_symop_operation_xyz
x,y,z
-x,y,-z
-x,-y,-z
x,-y,z
1/2+x,1/2+y,z
1/2-x,1/2+y,-z
1/2-x,1/2-y,-z
1/2+x,1/2-y,z
loop_
_atom_site_type_symbol
_atom_site_label
_atom_site_fract_x
_atom_site_fract_y
_atom_site_fract_z
Si Si1 0.360136 0.561569 0.974074
Si Si2 0.206573 0.639479 0.257944
Si Si3 0.702841 0.888770 0.864711
Si Si4 0.139243 0.933860 0.652294
Si Si5 0.487943 0.143884 0.195038
Si Si6 0.013010 0.163413 0.360527
Si Si7 0.332233 0.740083 0.320734
O O1 0.344622 0.500000 0.048925
O O2 0.309486 0.613394 0.090737
O O3 0.263531 0.561741 0.913110
O O4 0.510763 0.567322 0.828163
O O5 0.236798 0.598502 0.358379
O O6 0.060764 0.636518 0.283118
O O7 0.245474 0.703558 0.275975
O O8 0.613563 0.903540 0.799022
O O9 0.834368 0.853180 0.750487
O O10 0.607748 0.854152 0.019657
O O11 0.082357 0.893165 0.577599
O O12 0.164260 0.000000 0.605080
O O13 0.397317 0.200172 0.244280
O O14 0.000000 0.195293 0.500000
O O15 0.956226 0.199316 0.281590
O O16 0.250000 0.750000 0.500000
#
# Coordination Sequence:
#
# PCOD9206090 Si02
#       7
#     8   8   8   8   8   8   8
#     4   9  17  35  64  90 122 157 197 254 308 359
#     4  10  21  36  55  88 115 154 201 245 300 369
#     4   9  20  40  55  90 122 153 200 247 298 357
#     4   9  18  35  59  91 122 154 197 254 309 359
#     4  10  22  39  57  81 123 159 198 252 297 354
#     4  10  21  37  61  85 119 156 206 250 295 370
#     4  11  25  40  59  83 115 163 204 252 309 364
#
# _framework density 22.519987
#
# number of rings (size 3 to 8) (size 9 to 14) (size 15 to 20)
#    0.000    2.286    0.000    1.714    4.000    3.143 
#   18.000    6.429    0.000    0.000    0.000   52.000 
#    0.000    0.000    0.000    0.000    0.000    0.000 
#
# Total GULP energy -156179.594924 kJ/mol
# GULP energy per Si atom -5577.842676 kJ/mol
# Density = 2.246873 g / cm^3
# Si number density = 22.519987 Si / 1000 Ang^3
#
#
#
# Elastic Constant Matrix: (Units=GPa)
#
#
# Indices 1 2 3 4 5 6 
#
# 1 210.3056 38.2520 16.7013 0.0000 20.5579 0.0000
# 2 38.2520 83.8676 9.6718 0.0000 1.7158 0.0000
# 3 16.7013 9.6718 37.2009 0.0000 -12.3354 0.0000
# 4 0.0000 0.0000 0.0000 18.8862 0.0000 8.1552
# 5 20.5579 1.7158 -12.3354 0.0000 23.5779 0.0000
# 6 0.0000 0.0000 0.0000 8.1552 0.0000 7.5687
#
#
#
# Elastic Compliance Matrix: (Units=1/GPa)
#
#
# Indices 1 2 3 4 5 6 
#
# 1 0.006307 -0.002151 -0.004893 0.000000 -0.007903 0.000000
# 2 -0.002151 0.013216 -0.002623 0.000000 -0.000458 0.000000
# 3 -0.004893 -0.002623 0.037794 0.000000 0.024230 0.000000
# 4 0.000000 0.000000 0.000000 0.099018 0.000000 -0.106691
# 5 -0.007903 -0.000458 0.024230 0.000000 0.062013 0.000000
# 6 0.000000 0.000000 0.000000 -0.106691 0.000000 0.247080
#
#
# Mechanical properties :
#
#
# Convention : Reuss Voigt Hill
#
# Bulk Modulus (GPa) = 26.32610 51.18050 38.75330
# Shear Modulus (GPa) = 10.05180 27.78984 18.92082
#
# Velocity S-wave (km/s) = 2.11499 3.51666 2.90173
# Velocity P-wave (km/s) = 4.20473 6.26619 5.33596
#
# Compressibility (1/GPa) = 0.03798512
#
# Stress axis : x y z
#
# Youngs Moduli (GPa) = 158.54709 75.66386 26.45920
#
# Poissons Ratio (x) = 0.16274 0.12946
# Poissons Ratio (y) = 0.34100 0.06939
# Poissons Ratio (z) = 0.77576 0.19843
#
# Static dielectric constant tensor:
#      x y z
#    x 1.914540 0.000000 0.055990 
#    y 0.000000 1.847940 0.000000 
#    z 0.055990 0.000000 1.859750 
# 
# From -- ./inp_files/135254.got.cif
#   From: 2010.05.17/outbox.cif.g08.bks.cpg/sg12_68_cif.got.tgz:135254.got - 2010.06.03 13:09:07.
