data_PCOD9206367
_publ_section_title
;
Structure prediction by ZEFSAII (Michael W. Deem and Ramdas Pophale) SiO2 
 PCOD9206367
Probable space group: C 2/M
;
_chemical_formula_sum "Si O2"
_cell_formula_units_Z 64
_cell_length_a 18.266114
_cell_length_b 22.626764
_cell_length_c 18.628114
_cell_angle_alpha 90.000000
_cell_angle_beta 27.592591
_cell_angle_gamma 90.000000
_cell_volume 3566.059966
_symmetry_space_group_name_H-M "C 2/M"
_symmetry_group_IT_number 12
_symmetry_cell_setting 'monoclinic'
loop_
_space_group_symop_operation_xyz
x,y,z
-x,y,-z
-x,-y,-z
x,-y,z
1/2+x,1/2+y,z
1/2-x,1/2+y,-z
1/2-x,1/2-y,-z
1/2+x,1/2-y,z
loop_
_atom_site_type_symbol
_atom_site_label
_atom_site_fract_x
_atom_site_fract_y
_atom_site_fract_z
Si Si1 0.371698 0.568146 0.929494
Si Si2 0.262744 0.751749 0.103369
Si Si3 0.462605 0.657732 0.114355
Si Si4 0.182131 0.931955 0.312808
Si Si5 0.501298 0.430990 0.657485
Si Si6 0.223860 0.646984 0.648360
Si Si7 0.615903 0.835531 0.123322
Si Si8 0.183414 0.740989 0.338777
O O1 0.344400 0.500000 0.972894
O O2 0.489831 0.602539 0.879342
O O3 0.454064 0.570327 0.780475
O O4 0.210376 0.605948 0.064677
O O5 0.134471 0.711785 0.172205
O O6 0.224978 0.761285 0.220406
O O7 0.421968 0.711983 0.964073
O O8 0.296699 0.807236 0.022468
O O9 0.288108 0.684306 0.267531
O O10 0.500000 0.642942 0.000000
O O11 0.294328 0.893626 0.264689
O O12 0.000000 0.924869 0.500000
O O13 0.154059 0.915821 0.254784
O O14 0.227152 0.000000 0.279245
O O15 0.543517 0.500000 0.602002
O O16 0.641072 0.386247 0.515288
O O17 0.280897 0.708363 0.633657
O O18 0.063847 0.653616 0.743171
O O19 0.000000 0.727482 0.500000
#
# Coordination Sequence:
#
# PCOD9206367 Si02
#       8
#     8   8   8   8   8   8   8   8
#     4  10  22  38  59  84 109 148 194 233 277 333
#     4   9  20  40  54  76 113 151 176 222 295 334
#     4   9  19  40  61  80 113 147 180 234 294 335
#     4   8  15  29  46  66 102 146 180 213 259 309
#     4   9  19  36  52  74 116 154 184 229 275 318
#     4  11  20  31  52  87 105 148 189 225 274 326
#     4  10  21  36  58  77 110 148 184 232 276 333
#     4  11  22  34  56  86 113 142 187 233 276 341
#
# _framework density 17.946977
#
# number of rings (size 3 to 8) (size 9 to 14) (size 15 to 20)
#    0.000    2.375    1.250    2.250    3.500    2.250 
#    0.000    1.250    0.000    2.625    0.000    0.000 
#    0.000    0.000    0.000    0.000    0.000    0.000 
#
# Total GULP energy -178409.360646 kJ/mol
# GULP energy per Si atom -5575.292520 kJ/mol
# Density = 1.790613 g / cm^3
# Si number density = 17.946977 Si / 1000 Ang^3
#
#
#
# Elastic Constant Matrix: (Units=GPa)
#
#
# Indices 1 2 3 4 5 6 
#
# 1 92.7377 21.1996 9.6387 0.0251 -23.6659 -0.0036
# 2 21.1996 48.5027 3.8030 0.0455 -9.1981 -0.0094
# 3 9.6387 3.8030 25.1691 0.0306 -20.2979 -0.0067
# 4 0.0251 0.0455 0.0306 10.8667 0.0083 2.6972
# 5 -23.6659 -9.1981 -20.2979 0.0083 30.5779 0.0002
# 6 -0.0036 -0.0094 -0.0067 2.6972 0.0002 30.9468
#
#
#
# Elastic Compliance Matrix: (Units=1/GPa)
#
#
# Indices 1 2 3 4 5 6 
#
# 1 0.014792 -0.004209 0.006850 -0.000049 0.014729 0.000006
# 2 -0.004209 0.023282 0.002400 -0.000103 0.005338 0.000016
# 3 0.006850 0.002400 0.089535 -0.000340 0.065458 0.000050
# 4 -0.000049 -0.000103 -0.000340 0.094060 -0.000320 -0.008198
# 5 0.014729 0.005338 0.065458 -0.000320 0.089161 0.000045
# 6 0.000006 0.000016 0.000050 -0.008198 0.000045 0.033028
#
#
# Mechanical properties :
#
#
# Convention : Reuss Voigt Hill
#
# Bulk Modulus (GPa) = 7.26270 26.18799 16.72535
# Shear Modulus (GPa) = 13.16920 23.26283 18.21601
#
# Velocity S-wave (km/s) = 2.71178 3.60418 3.18935
# Velocity P-wave (km/s) = 3.72298 5.65188 4.78562
#
# Compressibility (1/GPa) = 0.13768978
#
# Stress axis : x y z
#
# Youngs Moduli (GPa) = 67.60327 42.95256 11.16879
#
# Poissons Ratio (x) = 0.18079 -0.07651
# Poissons Ratio (y) = 0.28455 -0.02680
# Poissons Ratio (z) = -0.46308 -0.10307
#
# Static dielectric constant tensor:
#      x y z
#    x 1.644330 -0.000010 0.015830 
#    y -0.000010 1.638080 0.000010 
#    z 0.015830 0.000010 1.612880 
# 
# From -- ./inp_files/279086.got.cif
#   From: 2010.05.17/outbox.cif.g08.bks.cpg/sg12_140_cif.got.tgz:279086.got - 2010.06.03 13:09:07.
