data_PCOD9206006
_publ_section_title
;
Structure prediction by ZEFSAII (Michael W. Deem and Ramdas Pophale) SiO2 
 PCOD9206006
Probable space group: C 2/M
;
_chemical_formula_sum "Si O2"
_cell_formula_units_Z 48
_cell_length_a 31.445754
_cell_length_b 8.860282
_cell_length_c 18.386278
_cell_angle_alpha 90.000000
_cell_angle_beta 148.770037
_cell_angle_gamma 90.000000
_cell_volume 2656.015314
_symmetry_space_group_name_H-M "C 2/M"
_symmetry_group_IT_number 12
_symmetry_cell_setting 'monoclinic'
loop_
_space_group_symop_operation_xyz
x,y,z
-x,y,-z
-x,-y,-z
x,-y,z
1/2+x,1/2+y,z
1/2-x,1/2+y,-z
1/2-x,1/2-y,-z
1/2+x,1/2-y,z
loop_
_atom_site_type_symbol
_atom_site_label
_atom_site_fract_x
_atom_site_fract_y
_atom_site_fract_z
Si Si1 0.332569 0.179586 0.090349
Si Si2 0.071478 0.318845 0.911494
Si Si3 0.588939 0.680815 0.095869
Si Si4 0.582171 0.319754 0.396612
Si Si5 0.740644 0.181445 0.406073
Si Si6 0.484692 0.319291 0.394763
O O1 0.360115 0.223820 0.048869
O O2 0.406426 0.234798 0.248914
O O3 0.326010 0.000000 0.082042
O O4 0.250000 0.250000 0.000000
O O5 0.070028 0.500000 0.916124
O O6 0.984355 0.262912 0.751587
O O7 0.089634 0.244368 0.015198
O O8 0.597821 0.500000 0.108386
O O9 0.661622 0.752366 0.249752
O O10 0.500000 0.717336 0.000000
O O11 0.572312 0.500000 0.370317
O O12 0.675197 0.280338 0.513466
O O13 0.557924 0.288142 0.444838
O O14 0.750000 0.250000 0.500000
O O15 0.733940 0.000000 0.400307
O O16 0.500000 0.275395 0.500000
O O17 0.470008 0.500000 0.371578
#
# Coordination Sequence:
#
# PCOD9206006 Si02
#       6
#     8   8   8   8   8   8
#     4  10  21  36  55  81 112 146 185 228 274 325
#     4  10  21  37  58  83 110 143 185 230 274 324
#     4  11  24  40  58  82 112 146 184 226 275 330
#     4   9  19  36  56  79 109 143 178 221 274 327
#     4  11  23  38  57  82 112 145 183 226 272 325
#     4   9  18  34  56  80 108 143 180 221 272 327
#
# _framework density 18.072184
#
# number of rings (size 3 to 8) (size 9 to 14) (size 15 to 20)
#    0.000    2.000    0.000    3.000    0.000   10.333 
#    0.000    3.333    0.000    0.000    0.000    0.000 
#    0.000    0.000    0.000    0.000    0.000    0.000 
#
# Total GULP energy -134023.483146 kJ/mol
# GULP energy per Si atom -5584.311798 kJ/mol
# Density = 1.803105 g / cm^3
# Si number density = 18.072184 Si / 1000 Ang^3
#
#
#
# Elastic Constant Matrix: (Units=GPa)
#
#
# Indices 1 2 3 4 5 6 
#
# 1 183.8265 78.3896 126.4797 0.0000 0.1556 0.0000
# 2 78.3896 54.6638 64.5522 0.0000 3.7864 0.0000
# 3 126.4797 64.5522 141.8717 0.0000 2.0987 0.0000
# 4 0.0000 0.0000 0.0000 35.5406 0.0000 -0.5252
# 5 0.1556 3.7864 2.0987 0.0000 41.4290 0.0000
# 6 0.0000 0.0000 0.0000 -0.5252 0.0000 30.0229
#
#
#
# Elastic Compliance Matrix: (Units=1/GPa)
#
#
# Indices 1 2 3 4 5 6 
#
# 1 0.018693 -0.015609 -0.009590 0.000000 0.001842 0.000000
# 2 -0.015609 0.052877 -0.010081 0.000000 -0.004263 0.000000
# 3 -0.009590 -0.010081 0.020186 0.000000 -0.000065 0.000000
# 4 0.000000 0.000000 0.000000 0.028144 0.000000 0.000492
# 5 0.001842 -0.004263 -0.000065 0.000000 0.024524 0.000000
# 6 0.000000 0.000000 0.000000 0.000492 0.000000 0.033316
#
#
# Mechanical properties :
#
#
# Convention : Reuss Voigt Hill
#
# Bulk Modulus (GPa) = 47.17767 102.13389 74.65578
# Shear Modulus (GPa) = 19.57994 28.79452 24.18723
#
# Velocity S-wave (km/s) = 3.29512 3.99595 3.66234
# Velocity P-wave (km/s) = 6.37486 8.82764 7.69955
#
# Compressibility (1/GPa) = 0.02119647
#
# Stress axis : x y z
#
# Youngs Moduli (GPa) = 53.49715 18.91191 49.54017
#
# Poissons Ratio (x) = 0.29519 0.47508
# Poissons Ratio (y) = 0.83503 0.49940
# Poissons Ratio (z) = 0.51302 0.19064
#
# Static dielectric constant tensor:
#      x y z
#    x 1.629480 0.000000 0.009980 
#    y 0.000000 1.606050 0.000000 
#    z 0.009980 0.000000 1.570280 
# 
# From -- ./inp_files/274046.got.cif
#   From: 2010.05.17/outbox.cif.g08.bks.cpg/sg12_138_cif.got.tgz:274046.got - 2010.06.03 13:09:07.
