data_PCOD9206466
_publ_section_title
;
Structure prediction by ZEFSAII (Michael W. Deem and Ramdas Pophale) SiO2 
 PCOD9206466
Probable space group: C 2/M
;
_chemical_formula_sum "Si O2"
_cell_formula_units_Z 58
_cell_length_a 25.140828
_cell_length_b 17.395522
_cell_length_c 12.597362
_cell_angle_alpha 90.000000
_cell_angle_beta 145.710713
_cell_angle_gamma 90.000000
_cell_volume 3103.784676
_symmetry_space_group_name_H-M "C 2/M"
_symmetry_group_IT_number 12
_symmetry_cell_setting 'monoclinic'
loop_
_space_group_symop_operation_xyz
x,y,z
-x,y,-z
-x,-y,-z
x,-y,z
1/2+x,1/2+y,z
1/2-x,1/2+y,-z
1/2-x,1/2-y,-z
1/2+x,1/2-y,z
loop_
_atom_site_type_symbol
_atom_site_label
_atom_site_fract_x
_atom_site_fract_y
_atom_site_fract_z
Si Si1 0.298522 0.868286 0.384235
Si Si2 0.673928 0.413514 0.987415
Si Si3 0.000000 0.500000 0.000000
Si Si4 0.504145 0.688011 0.631502
Si Si5 0.194845 0.416253 0.361546
Si Si6 0.205200 0.815020 0.648606
Si Si7 0.498364 0.872942 0.373866
Si Si8 0.205020 0.413572 0.021322
O O1 0.221672 0.905497 0.180352
O O2 0.291300 0.890651 0.494628
O O3 0.288775 0.776717 0.351068
O O4 0.402626 0.892856 0.516319
O O5 0.636851 0.500000 0.911600
O O6 0.592204 0.352685 0.831180
O O7 0.754416 0.401711 0.030149
O O8 0.084253 0.433933 0.155506
O O9 0.500000 0.665915 0.500000
O O10 0.405883 0.666302 0.525181
O O11 0.513510 0.780413 0.650261
O O12 0.241772 0.500000 0.422428
O O13 0.241270 0.355542 0.359499
O O14 0.252676 0.849015 0.832981
O O15 0.500000 0.895932 0.500000
O O16 0.407791 0.908550 0.168046
O O17 0.232505 0.500000 0.102130
#
# Coordination Sequence:
#
# PCOD9206466 Si02
#       8
#     8   8   2   8   8   8   8   8
#     4  11  23  40  64  89 127 165 203 256 311 376
#     4  11  23  38  56  88 126 167 206 253 313 364
#     4   8  24  44  68  96 114 164 196 256 316 370
#     4  10  21  39  60  87 120 164 212 257 302 358
#     4  10  23  43  65  93 125 156 202 252 315 370
#     4  11  23  40  65  90 120 164 213 258 303 366
#     4  10  21  36  58  89 125 159 201 253 316 379
#     4  11  23  35  58  91 126 163 207 256 314 373
#
# _framework density 18.686862000000001
#
# number of rings (size 3 to 8) (size 9 to 14) (size 15 to 20)
#    0.414    1.103    2.759    2.069    1.931    3.862 
#    0.000    0.690    0.000    1.655    0.000    0.000 
#    0.000    0.000    0.000    0.000    0.000    0.000 
#
# Total GULP energy -161693.484222 kJ/mol
# GULP energy per Si atom -5575.637387 kJ/mol
# Density = 1.864433 g / cm^3
# Si number density = 18.686862 Si / 1000 Ang^3
#
#
#
# Elastic Constant Matrix: (Units=GPa)
#
#
# Indices 1 2 3 4 5 6 
#
# 1 71.3756 13.3213 22.4970 0.0000 -9.9281 0.0000
# 2 13.3213 46.3566 17.0866 0.0000 4.0079 0.0000
# 3 22.4970 17.0866 77.0743 0.0000 8.0217 0.0000
# 4 0.0000 0.0000 0.0000 -202.7714 0.0000 1.1270
# 5 -9.9281 4.0079 8.0217 0.0000 26.0622 0.0000
# 6 0.0000 0.0000 0.0000 1.1270 0.0000 21.8510
#
#
#
# Elastic Compliance Matrix: (Units=1/GPa)
#
#
# Indices 1 2 3 4 5 6 
#
# 1 0.017622 -0.003917 -0.005203 0.000000 0.008917 0.000000
# 2 -0.003917 0.024471 -0.003858 0.000000 -0.004068 0.000000
# 3 -0.005203 -0.003858 0.016006 0.000000 -0.006315 0.000000
# 4 0.000000 0.000000 0.000000 -0.004930 0.000000 0.000254
# 5 0.008917 -0.004068 -0.006315 0.000000 0.044336 0.000000
# 6 0.000000 0.000000 0.000000 0.000254 0.000000 0.045751
#
#
# Mechanical properties :
#
#
# Convention : Reuss Voigt Hill
#
# Bulk Modulus (GPa) = 31.11207 33.40181 32.25694
# Shear Modulus (GPa) = 27.78912 -21.51150 3.13881
#
# Velocity S-wave (km/s) = 3.86047 -3.39655 1.29743
# Velocity P-wave (km/s) = 6.04618 1.59098 4.42083
#
# Compressibility (1/GPa) = 0.03214187
#
# Stress axis : x y z
#
# Youngs Moduli (GPa) = 56.74829 40.86411 62.47709
#
# Poissons Ratio (x) = 0.16006 0.32508
# Poissons Ratio (y) = 0.22228 0.24106
# Poissons Ratio (z) = 0.29527 0.15767
#
# Static dielectric constant tensor:
#      x y z
#    x 1.636680 0.000000 -0.008560 
#    y 0.000000 1.651030 0.000000 
#    z -0.008560 0.000000 1.619530 
# 
# From -- ./inp_files/184475.got.cif
#   From: 2010.05.17/outbox.cif.g08.bks.cpg/sg12_93_cif.got.tgz:184475.got - 2010.06.03 13:09:07.
