data_PCOD9206840
_publ_section_title
;
Structure prediction by ZEFSAII (Michael W. Deem and Ramdas Pophale) SiO2 
 PCOD9206840
Probable space group: C 2/M
;
_chemical_formula_sum "Si O2"
_cell_formula_units_Z 58
_cell_length_a 14.179949
_cell_length_b 13.592226
_cell_length_c 15.424457
_cell_angle_alpha 90.000000
_cell_angle_beta 61.260443
_cell_angle_gamma 90.000000
_cell_volume 2606.650578
_symmetry_space_group_name_H-M "C 2/M"
_symmetry_group_IT_number 12
_symmetry_cell_setting 'monoclinic'
loop_
_space_group_symop_operation_xyz
x,y,z
-x,y,-z
-x,-y,-z
x,-y,z
1/2+x,1/2+y,z
1/2-x,1/2+y,-z
1/2-x,1/2-y,-z
1/2+x,1/2-y,z
loop_
_atom_site_type_symbol
_atom_site_label
_atom_site_fract_x
_atom_site_fract_y
_atom_site_fract_z
Si Si1 0.521139 0.886967 0.896411
Si Si2 0.452795 0.607945 0.193709
Si Si3 0.285941 0.614494 0.402923
Si Si4 0.330700 0.683971 0.851837
Si Si5 0.716091 0.890915 0.075420
Si Si6 0.119663 0.772925 0.483454
Si Si7 0.000000 0.000000 0.000000
Si Si8 0.736496 0.113918 0.718587
O O1 0.408607 0.893740 0.897406
O O2 0.618053 0.846496 0.796267
O O3 0.558188 0.000000 0.898977
O O4 0.500000 0.839688 0.000000
O O5 0.485864 0.500000 0.218412
O O6 0.335419 0.625549 0.284745
O O7 0.542521 0.683807 0.185689
O O8 0.463246 0.585422 0.087570
O O9 0.282090 0.500000 0.426430
O O10 0.170334 0.664417 0.466261
O O11 0.366694 0.672283 0.431173
O O12 0.278728 0.792990 0.869354
O O13 0.302253 0.625683 0.778546
O O14 0.281239 0.631136 0.958589
O O15 0.749656 0.000000 0.092853
O O16 0.201021 0.828334 0.382707
O O17 0.000000 0.775027 0.500000
O O18 0.728530 0.000000 0.695891
#
# Coordination Sequence:
#
# PCOD9206840 Si02
#       8
#     8   8   8   8   8   8   2   8
#     4   9  17  34  57  81 121 167 211 261 331 404
#     4   9  19  39  64  93 133 171 218 271 330 406
#     4  10  23  47  74  99 139 184 228 296 365 416
#     4  11  21  35  59  89 122 175 221 274 333 400
#     4  10  21  37  52  81 124 171 218 268 328 402
#     4  11  25  44  71 106 135 176 242 302 357 424
#     4   8  20  40  64 100 130 174 216 264 318 432
#     4  11  22  38  65  96 126 168 224 279 337 411
#
# _framework density 22.250776999999999
#
# number of rings (size 3 to 8) (size 9 to 14) (size 15 to 20)
#    0.414    1.517    1.379    2.483    1.931    2.483 
#    6.207    0.690    0.000    0.000    0.000    0.000 
#    0.000    0.000    0.000    0.000    0.000    0.000 
#
# Total GULP energy -161731.149734 kJ/mol
# GULP energy per Si atom -5576.936198 kJ/mol
# Density = 2.220013 g / cm^3
# Si number density = 22.250777 Si / 1000 Ang^3
#
#
#
# Elastic Constant Matrix: (Units=GPa)
#
#
# Indices 1 2 3 4 5 6 
#
# 1 72.8898 11.6374 27.6025 0.0000 -14.1632 0.0000
# 2 11.6374 112.8495 26.0773 0.0000 -10.4972 0.0000
# 3 27.6025 26.0773 103.6955 0.0000 -11.8574 0.0000
# 4 0.0000 0.0000 0.0000 15.4769 0.0000 -1.3308
# 5 -14.1632 -10.4972 -11.8574 0.0000 19.8564 0.0000
# 6 0.0000 0.0000 0.0000 -1.3308 0.0000 18.4353
#
#
#
# Elastic Compliance Matrix: (Units=1/GPa)
#
#
# Indices 1 2 3 4 5 6 
#
# 1 0.016951 -0.000037 -0.003351 0.000000 0.010070 0.000000
# 2 -0.000037 0.009686 -0.001979 0.000000 0.003913 0.000000
# 3 -0.003351 -0.001979 0.011420 0.000000 0.003383 0.000000
# 4 0.000000 0.000000 0.000000 0.065016 0.000000 0.004693
# 5 0.010070 0.003913 0.003383 0.000000 0.061633 0.000000
# 6 0.000000 0.000000 0.000000 0.004693 0.000000 0.054583
#
#
# Mechanical properties :
#
#
# Convention : Reuss Voigt Hill
#
# Bulk Modulus (GPa) = 36.59829 46.67436 41.63633
# Shear Modulus (GPa) = 20.90903 25.69490 23.30196
#
# Velocity S-wave (km/s) = 3.06878 3.40190 3.23962
# Velocity P-wave (km/s) = 5.38891 6.03760 5.72245
#
# Compressibility (1/GPa) = 0.02732368
#
# Stress axis : x y z
#
# Youngs Moduli (GPa) = 58.99327 103.23792 87.56440
#
# Poissons Ratio (x) = 0.00381 0.29346
# Poissons Ratio (y) = 0.00218 0.17326
# Poissons Ratio (z) = 0.19771 0.20427
#
# Static dielectric constant tensor:
#      x y z
#    x 1.816990 0.000000 -0.012460 
#    y 0.000000 1.815750 0.000000 
#    z -0.012460 0.000000 1.830200 
# 
# From -- ./inp_files/215208.got.cif
#   From: 2010.05.17/outbox.cif.g08.bks.cpg/sg12_108_cif.got.tgz:215208.got - 2010.06.03 13:09:07.
