data_PCOD9206682
_publ_section_title
;
Structure prediction by ZEFSAII (Michael W. Deem and Ramdas Pophale) SiO2 
 PCOD9206682
Probable space group: C 2/M
;
_chemical_formula_sum "Si O2"
_cell_formula_units_Z 58
_cell_length_a 26.144869
_cell_length_b 12.878757
_cell_length_c 18.681789
_cell_angle_alpha 90.000000
_cell_angle_beta 155.876562
_cell_angle_gamma 90.000000
_cell_volume 2570.914297
_symmetry_space_group_name_H-M "C 2/M"
_symmetry_group_IT_number 12
_symmetry_cell_setting 'monoclinic'
loop_
_space_group_symop_operation_xyz
x,y,z
-x,y,-z
-x,-y,-z
x,-y,z
1/2+x,1/2+y,z
1/2-x,1/2+y,-z
1/2-x,1/2-y,-z
1/2+x,1/2-y,z
loop_
_atom_site_type_symbol
_atom_site_label
_atom_site_fract_x
_atom_site_fract_y
_atom_site_fract_z
Si Si1 0.602604 0.334113 0.574175
Si Si2 0.827870 0.687575 0.525547
Si Si3 0.492921 0.381426 0.705054
Si Si4 0.147501 0.379114 0.028265
Si Si5 0.395910 0.173386 0.764918
Si Si6 0.464206 0.118197 0.561452
Si Si7 0.500000 0.000000 0.000000
Si Si8 0.718044 0.876624 0.954657
O O1 0.500000 0.368365 0.500000
O O2 0.563078 0.376129 0.446701
O O3 0.734505 0.372250 0.769901
O O4 0.599869 0.208189 0.566309
O O5 0.912975 0.792468 0.641345
O O6 0.691699 0.728954 0.328046
O O7 0.831929 0.635085 0.608393
O O8 0.894955 0.622073 0.549931
O O9 0.482211 0.500000 0.718276
O O10 0.640205 0.352943 0.886613
O O11 0.101662 0.500000 0.972061
O O12 0.188417 0.352680 0.999903
O O13 0.038238 0.309027 0.920754
O O14 0.412635 0.090844 0.849238
O O15 0.461639 0.000000 0.531422
O O16 0.606125 0.156463 0.759171
O O17 0.709631 0.000000 0.941499
#
# Coordination Sequence:
#
# PCOD9206682 Si02
#       8
#     8   8   8   8   8   8   2   8
#     4  11  23  35  56  96 133 170 205 268 328 381
#     4  10  24  42  64  92 131 170 220 269 328 401
#     4  10  21  36  60  94 133 169 208 264 326 393
#     4  11  21  37  64  95 131 164 200 260 328 392
#     4  11  25  42  61 100 126 165 212 273 332 394
#     4  10  22  40  63  85 116 172 224 264 308 388
#     4  12  28  40  76 100 132 170 214 296 342 382
#     4   9  18  35  62  91 118 159 211 253 310 381
#
# _framework density 22.560067
#
# number of rings (size 3 to 8) (size 9 to 14) (size 15 to 20)
#    0.000    1.655    3.448    0.414    5.793    4.138 
#    0.000    0.000    0.000    2.483    0.000    0.000 
#    0.000    0.000    0.000    0.000    0.000    0.000 
#
# Total GULP energy -161753.989260 kJ/mol
# GULP energy per Si atom -5577.723768 kJ/mol
# Density = 2.250872 g / cm^3
# Si number density = 22.560067 Si / 1000 Ang^3
#
#
#
# Elastic Constant Matrix: (Units=GPa)
#
#
# Indices 1 2 3 4 5 6 
#
# 1 54.4357 7.4382 31.2913 0.0000 3.9229 0.0000
# 2 7.4382 117.2231 26.2438 0.0000 -2.8361 0.0000
# 3 31.2913 26.2438 113.8676 0.0000 10.6677 0.0000
# 4 0.0000 0.0000 0.0000 21.9114 0.0000 0.2121
# 5 3.9229 -2.8361 10.6677 0.0000 40.6217 0.0000
# 6 0.0000 0.0000 0.0000 0.2121 0.0000 6.0573
#
#
#
# Elastic Compliance Matrix: (Units=1/GPa)
#
#
# Indices 1 2 3 4 5 6 
#
# 1 0.021829 -0.000071 -0.005930 0.000000 -0.000556 0.000000
# 2 -0.000071 0.009053 -0.002180 0.000000 0.001212 0.000000
# 3 -0.005930 -0.002180 0.011149 0.000000 -0.002507 0.000000
# 4 0.000000 0.000000 0.000000 0.045654 0.000000 -0.001598
# 5 -0.000556 0.001212 -0.002507 0.000000 0.025414 0.000000
# 6 0.000000 0.000000 0.000000 -0.001598 0.000000 0.165145
#
#
# Mechanical properties :
#
#
# Convention : Reuss Voigt Hill
#
# Bulk Modulus (GPa) = 38.95957 46.16367 42.56162
# Shear Modulus (GPa) = 16.49276 28.42161 22.45718
#
# Velocity S-wave (km/s) = 2.70674 3.55324 3.15848
# Velocity P-wave (km/s) = 5.20340 6.11073 5.67523
#
# Compressibility (1/GPa) = 0.02566763
#
# Stress axis : x y z
#
# Youngs Moduli (GPa) = 45.81075 110.46411 89.69205
#
# Poissons Ratio (x) = 0.00783 0.53190
# Poissons Ratio (y) = 0.00325 0.19557
# Poissons Ratio (z) = 0.27167 0.24086
#
# Static dielectric constant tensor:
#      x y z
#    x 1.912060 0.000000 0.024870 
#    y 0.000000 1.884810 0.000000 
#    z 0.024870 0.000000 1.876660 
# 
# From -- ./inp_files/330316.got.cif
#   From: 2010.05.17/outbox.cif.g08.bks.cpg/sg12_166_cif.got.tgz:330316.got - 2010.06.03 13:09:07.
