data_PCOD9206671
_publ_section_title
;
Structure prediction by ZEFSAII (Michael W. Deem and Ramdas Pophale) SiO2 
 PCOD9206671
Probable space group: C 2/M
;
_chemical_formula_sum "Si O2"
_cell_formula_units_Z 56
_cell_length_a 14.049940
_cell_length_b 9.060009
_cell_length_c 22.853429
_cell_angle_alpha 90.000000
_cell_angle_beta 63.499997
_cell_angle_gamma 90.000000
_cell_volume 2603.428429
_symmetry_space_group_name_H-M "C 2/M"
_symmetry_group_IT_number 12
_symmetry_cell_setting 'monoclinic'
loop_
_space_group_symop_operation_xyz
x,y,z
-x,y,-z
-x,-y,-z
x,-y,z
1/2+x,1/2+y,z
1/2-x,1/2+y,-z
1/2-x,1/2-y,-z
1/2+x,1/2-y,z
loop_
_atom_site_type_symbol
_atom_site_label
_atom_site_fract_x
_atom_site_fract_y
_atom_site_fract_z
Si Si1 0.379228 0.733186 0.042404
Si Si2 0.395584 0.325079 0.293099
Si Si3 0.640717 0.153386 0.077356
Si Si4 0.439625 0.673422 0.148063
Si Si5 0.186412 0.827955 0.375064
Si Si6 0.363397 0.674841 0.479817
Si Si7 0.025772 0.674512 0.345479
O O1 0.263755 0.658919 0.063079
O O2 0.387128 0.765541 0.109347
O O3 0.500000 0.666131 0.000000
O O4 0.370877 0.845286 0.990233
O O5 0.383935 0.500000 0.307209
O O6 0.392794 0.298704 0.224710
O O7 0.306072 0.228008 0.349506
O O8 0.502668 0.263013 0.292558
O O9 0.565181 0.287113 0.116856
O O10 0.594176 0.000000 0.113164
O O11 0.425204 0.500000 0.138026
O O12 0.124184 0.814238 0.453482
O O13 0.139313 0.719639 0.339625
O O14 0.181926 0.000000 0.359389
O O15 0.363629 0.500000 0.465065
O O16 0.250000 0.750000 0.500000
O O17 0.447335 0.759689 0.416814
O O18 0.013079 0.500000 0.342302
#
# Coordination Sequence:
#
# PCOD9206671 Si02
#       7
#     8   8   8   8   8   8   8
#     4   9  20  37  61  88 122 158 196 241 297 358
#     4  11  24  43  64  88 122 164 212 262 312 370
#     4  10  21  36  60  93 123 155 199 248 298 354
#     4  10  23  41  61  86 119 162 203 245 303 362
#     4  11  24  42  65  94 124 160 205 257 317 375
#     4  11  22  38  64  94 127 160 202 256 316 376
#     4  12  25  41  63  91 124 165 210 256 312 375
#
# _framework density 21.510096999999998
#
# number of rings (size 3 to 8) (size 9 to 14) (size 15 to 20)
#    0.000    1.429    1.429    3.429    0.000   16.286 
#    0.000    0.000    0.000    0.000    0.000    0.000 
#    0.000    0.000    0.000    0.000    0.000    0.000 
#
# Total GULP energy -156025.357542 kJ/mol
# GULP energy per Si atom -5572.334198 kJ/mol
# Density = 2.146114 g / cm^3
# Si number density = 21.510097 Si / 1000 Ang^3
#
#
#
# Elastic Constant Matrix: (Units=GPa)
#
#
# Indices 1 2 3 4 5 6 
#
# 1 110.6144 10.7995 19.0548 0.0000 12.1781 0.0000
# 2 10.7995 79.0000 24.2092 0.0000 3.7202 0.0000
# 3 19.0548 24.2092 83.1960 0.0000 19.1594 0.0000
# 4 0.0000 0.0000 0.0000 79.3260 0.0000 17.7491
# 5 12.1781 3.7202 19.1594 0.0000 29.0247 0.0000
# 6 0.0000 0.0000 0.0000 17.7491 0.0000 17.7345
#
#
#
# Elastic Compliance Matrix: (Units=1/GPa)
#
#
# Indices 1 2 3 4 5 6 
#
# 1 0.009680 -0.000787 -0.001269 0.000000 -0.003123 0.000000
# 2 -0.000787 0.013989 -0.004190 0.000000 0.001304 0.000000
# 3 -0.001269 -0.004190 0.015665 0.000000 -0.009271 0.000000
# 4 0.000000 0.000000 0.000000 0.016244 0.000000 -0.016257
# 5 -0.003123 0.001304 -0.009271 0.000000 0.041717 0.000000
# 6 0.000000 0.000000 0.000000 -0.016257 0.000000 0.072658
#
#
# Mechanical properties :
#
#
# Convention : Reuss Voigt Hill
#
# Bulk Modulus (GPa) = 37.25761 42.32639 39.79200
# Shear Modulus (GPa) = 26.12459 39.80016 32.96237
#
# Velocity S-wave (km/s) = 3.48879 4.30618 3.91885
# Velocity P-wave (km/s) = 5.79547 6.66666 6.24627
#
# Compressibility (1/GPa) = 0.02684015
#
# Stress axis : x y z
#
# Youngs Moduli (GPa) = 103.30940 71.48675 63.83748
#
# Poissons Ratio (x) = 0.05629 0.08099
# Poissons Ratio (y) = 0.08134 0.26750
# Poissons Ratio (z) = 0.13106 0.29956
#
# Static dielectric constant tensor:
#      x y z
#    x 1.807640 0.000000 0.005850 
#    y 0.000000 1.727890 0.000000 
#    z 0.005850 0.000000 1.792160 
# 
# From -- ./inp_files/338517.got.cif
#   From: 2010.05.17/outbox.cif.g08.bks.cpg/sg12_170_cif.got.tgz:338517.got - 2010.06.03 13:09:07.
