data_PCOD9206034
_publ_section_title
;
Structure prediction by ZEFSAII (Michael W. Deem and Ramdas Pophale) SiO2 
 PCOD9206034
Probable space group: C 2/M
;
_chemical_formula_sum "Si O2"
_cell_formula_units_Z 48
_cell_length_a 12.451906
_cell_length_b 14.711461
_cell_length_c 14.835130
_cell_angle_alpha 90.000000
_cell_angle_beta 47.847367
_cell_angle_gamma 90.000000
_cell_volume 2014.707236
_symmetry_space_group_name_H-M "C 2/M"
_symmetry_group_IT_number 12
_symmetry_cell_setting 'monoclinic'
loop_
_space_group_symop_operation_xyz
x,y,z
-x,y,-z
-x,-y,-z
x,-y,z
1/2+x,1/2+y,z
1/2-x,1/2+y,-z
1/2-x,1/2-y,-z
1/2+x,1/2-y,z
loop_
_atom_site_type_symbol
_atom_site_label
_atom_site_fract_x
_atom_site_fract_y
_atom_site_fract_z
Si Si1 0.984294 0.095507 0.615270
Si Si2 0.491180 0.769703 0.846151
Si Si3 0.218306 0.895448 0.008230
Si Si4 0.008664 0.291285 0.638907
Si Si5 0.198785 0.855067 0.814945
Si Si6 0.260000 0.902238 0.586520
O O1 0.000000 0.091647 0.500000
O O2 0.929523 0.195651 0.665459
O O3 0.140010 0.098763 0.576199
O O4 0.912266 0.000000 0.684781
O O5 0.380185 0.852664 0.926680
O O6 0.569309 0.788724 0.706537
O O7 0.608353 0.738801 0.854112
O O8 0.385589 0.681785 0.891214
O O9 0.167771 0.894072 0.931020
O O10 0.209315 0.000000 0.043831
O O11 0.127223 0.322595 0.500262
O O12 0.873024 0.357458 0.716493
O O13 0.175373 0.897614 0.729128
O O14 0.336572 0.000000 0.538977
#
# Coordination Sequence:
#
# PCOD9206034 Si02
#       6
#     8   8   8   8   8   8
#     4  10  21  36  55  81 118 168 217 251 298 371
#     4  10  23  41  64  96 128 166 213 268 331 384
#     4  10  23  44  69  96 128 166 216 275 331 387
#     4  11  23  38  61  87 130 168 207 256 315 377
#     4  11  22  39  66  96 129 166 215 262 324 382
#     4  11  23  38  61  94 132 169 211 261 316 379
#
# _framework density 23.824801999999998
#
# number of rings (size 3 to 8) (size 9 to 14) (size 15 to 20)
#    0.000    1.500    1.667    3.000    2.333    6.667 
#    0.000    0.833    0.000   13.000    0.000    0.000 
#    0.000    0.000    0.000    0.000    0.000    0.000 
#
# Total GULP energy -133757.831120 kJ/mol
# GULP energy per Si atom -5573.242963 kJ/mol
# Density = 2.377058 g / cm^3
# Si number density = 23.824802 Si / 1000 Ang^3
#
#
#
# Elastic Constant Matrix: (Units=GPa)
#
#
# Indices 1 2 3 4 5 6 
#
# 1 84.3169 4.6289 16.6184 0.0000 14.6874 0.0000
# 2 4.6289 94.4138 20.0784 0.0000 1.6303 0.0000
# 3 16.6184 20.0784 92.1054 0.0000 18.6939 0.0000
# 4 0.0000 0.0000 0.0000 -3.8825 0.0000 -7.3995
# 5 14.6874 1.6303 18.6939 0.0000 38.6689 0.0000
# 6 0.0000 0.0000 0.0000 -7.3995 0.0000 -18.0399
#
#
#
# Elastic Compliance Matrix: (Units=1/GPa)
#
#
# Indices 1 2 3 4 5 6 
#
# 1 0.012885 -0.000258 -0.001416 0.000000 -0.004198 0.000000
# 2 -0.000258 0.011133 -0.002556 0.000000 0.000864 0.000000
# 3 -0.001416 -0.002556 0.012794 0.000000 -0.005539 0.000000
# 4 0.000000 0.000000 0.000000 -1.180025 0.000001 0.484015
# 5 -0.004198 0.000864 -0.005539 0.000001 0.030097 0.000000
# 6 0.000000 0.000000 0.000000 0.484015 0.000000 -0.253963
#
#
# Mechanical properties :
#
#
# Convention : Reuss Voigt Hill
#
# Bulk Modulus (GPa) = 35.27166 39.27638 37.27402
# Shear Modulus (GPa) = -3.70599 18.64999 7.47200
#
# Velocity S-wave (km/s) = -1.24856 2.80089 1.77286
# Velocity P-wave (km/s) = 3.57186 5.19435 4.45755
#
# Compressibility (1/GPa) = 0.02835138
#
# Stress axis : x y z
#
# Youngs Moduli (GPa) = 77.61165 89.82373 78.16099
#
# Poissons Ratio (x) = 0.02317 0.11071
# Poissons Ratio (y) = 0.02002 0.19976
# Poissons Ratio (z) = 0.10993 0.22957
#
# Static dielectric constant tensor:
#      x y z
#    x 1.913810 0.000000 0.041730 
#    y 0.000000 2.051510 0.000000 
#    z 0.041730 0.000000 1.916960 
# 
# From -- ./inp_files/204839.got.cif
#   From: 2010.05.17/outbox.cif.g08.bks.cpg/sg12_103_cif.got.tgz:204839.got - 2010.06.03 13:09:07.
