data_PCOD9206609
_publ_section_title
;
Structure prediction by ZEFSAII (Michael W. Deem and Ramdas Pophale) SiO2 
 PCOD9206609
Probable space group: C 2/M
;
_chemical_formula_sum "Si O2"
_cell_formula_units_Z 44
_cell_length_a 9.018179
_cell_length_b 28.406115
_cell_length_c 9.880326
_cell_angle_alpha 90.000000
_cell_angle_beta 114.983717
_cell_angle_gamma 90.000000
_cell_volume 2294.220783
_symmetry_space_group_name_H-M "C 2/M"
_symmetry_group_IT_number 12
_symmetry_cell_setting 'monoclinic'
loop_
_space_group_symop_operation_xyz
x,y,z
-x,y,-z
-x,-y,-z
x,-y,z
1/2+x,1/2+y,z
1/2-x,1/2+y,-z
1/2-x,1/2-y,-z
1/2+x,1/2-y,z
loop_
_atom_site_type_symbol
_atom_site_label
_atom_site_fract_x
_atom_site_fract_y
_atom_site_fract_z
Si Si1 0.238227 0.780647 0.319916
Si Si2 0.854373 0.500000 0.755259
Si Si3 0.031060 0.130816 0.291667
Si Si4 0.500000 0.423128 0.000000
Si Si5 0.257832 0.102448 0.617953
Si Si6 0.264874 0.000000 0.035445
Si Si7 0.437090 0.194926 0.673322
O O1 0.086998 0.815737 0.287236
O O2 0.370684 0.794747 0.258420
O O3 0.347614 0.788458 0.498577
O O4 0.164286 0.729075 0.266786
O O5 0.798760 0.548510 0.664010
O O6 0.050625 0.500000 0.840347
O O7 0.779825 0.500000 0.878140
O O8 0.015213 0.106738 0.141452
O O9 0.173340 0.107767 0.439068
O O10 0.870507 0.122339 0.320361
O O11 0.340144 0.455627 0.955982
O O12 0.405696 0.139675 0.678989
#
# Coordination Sequence:
#
# PCOD9206609 Si02
#       7
#     8   4   8   4   8   4   8
#     4   9  17  31  55  86 118 153 186 239 288 356
#     4  11  22  41  60  88 115 155 200 244 286 352
#     4  10  21  36  60  85 121 153 196 238 300 342
#     4  11  22  42  58  84 114 160 194 245 288 362
#     4  10  21  37  59  89 117 156 197 248 287 340
#     4  10  24  40  61  79 115 160 202 232 298 349
#     4   9  17  31  55  86 120 147 192 236 299 340
#
# _framework density 19.178625
#
# number of rings (size 3 to 8) (size 9 to 14) (size 15 to 20)
#    0.000    2.182    1.818    1.091    2.545    7.273 
#    0.000    0.909    0.000    6.545    0.000    0.000 
#    0.000    0.000    0.000    0.000    0.000    0.000 
#
# Total GULP energy -122613.206250 kJ/mol
# GULP energy per Si atom -5573.327557 kJ/mol
# Density = 1.913497 g / cm^3
# Si number density = 19.178625 Si / 1000 Ang^3
#
#
#
# Elastic Constant Matrix: (Units=GPa)
#
#
# Indices 1 2 3 4 5 6 
#
# 1 80.2063 29.5449 7.4879 0.0000 -7.6616 0.0000
# 2 29.5449 110.7528 10.7449 0.0000 3.1416 0.0000
# 3 7.4879 10.7449 62.0387 0.0000 -10.5572 0.0000
# 4 0.0000 0.0000 0.0000 14.4388 0.0000 -14.0715
# 5 -7.6616 3.1416 -10.5572 0.0000 9.4994 0.0000
# 6 0.0000 0.0000 0.0000 -14.0715 0.0000 16.9001
#
#
#
# Elastic Compliance Matrix: (Units=1/GPa)
#
#
# Indices 1 2 3 4 5 6 
#
# 1 0.015603 -0.004779 0.001671 0.000000 0.016021 0.000000
# 2 -0.004779 0.010926 -0.003189 0.000000 -0.011012 0.000000
# 3 0.001671 -0.003189 0.020815 0.000000 0.025535 0.000000
# 4 0.000000 0.000000 0.000000 0.367312 0.000000 0.305834
# 5 0.016021 -0.011012 0.025535 0.000000 0.150212 0.000000
# 6 0.000000 0.000000 0.000000 0.305834 0.000000 0.313817
#
#
# Mechanical properties :
#
#
# Convention : Reuss Voigt Hill
#
# Bulk Modulus (GPa) = 28.77814 38.72812 33.75313
# Shear Modulus (GPa) = 5.53795 21.84900 13.69347
#
# Velocity S-wave (km/s) = 1.70113 3.37892 2.67497
# Velocity P-wave (km/s) = 4.34699 5.95483 5.21327
#
# Compressibility (1/GPa) = 0.03474860
#
# Stress axis : x y z
#
# Youngs Moduli (GPa) = 64.09189 91.52713 48.04219
#
# Poissons Ratio (x) = 0.43739 -0.08027
# Poissons Ratio (y) = 0.30628 0.15323
# Poissons Ratio (z) = -0.10709 0.29192
#
# Static dielectric constant tensor:
#      x y z
#    x 1.689400 0.000000 -0.025400 
#    y 0.000000 1.683240 0.000000 
#    z -0.025400 0.000000 1.666060 
# 
# From -- ./inp_files/41753.got.cif
#   From: 2010.05.17/outbox.cif.g08.bks.cpg/sg12_21_cif.got.tgz:41753.got - 2010.06.03 13:09:07.
