data_PCOD9206126
_publ_section_title
;
Structure prediction by ZEFSAII (Michael W. Deem and Ramdas Pophale) SiO2 
 PCOD9206126
Probable space group: C 2/M
;
_chemical_formula_sum "Si O2"
_cell_formula_units_Z 56
_cell_length_a 18.774951
_cell_length_b 8.705174
_cell_length_c 29.878030
_cell_angle_alpha 90.000000
_cell_angle_beta 141.795355
_cell_angle_gamma 90.000000
_cell_volume 3020.148813
_symmetry_space_group_name_H-M "C 2/M"
_symmetry_group_IT_number 12
_symmetry_cell_setting 'monoclinic'
loop_
_space_group_symop_operation_xyz
x,y,z
-x,y,-z
-x,-y,-z
x,-y,z
1/2+x,1/2+y,z
1/2-x,1/2+y,-z
1/2-x,1/2-y,-z
1/2+x,1/2-y,z
loop_
_atom_site_type_symbol
_atom_site_label
_atom_site_fract_x
_atom_site_fract_y
_atom_site_fract_z
Si Si1 0.465035 0.685004 0.433405
Si Si2 0.915750 0.815398 0.999562
Si Si3 0.763475 0.184732 0.270899
Si Si4 0.003590 0.684671 0.865547
Si Si5 0.123345 0.316870 0.434041
Si Si6 0.077877 0.315684 0.729396
Si Si7 0.659834 0.316731 0.863223
O O1 0.500000 0.737123 0.500000
O O2 0.476206 0.500000 0.437627
O O3 0.337517 0.722204 0.351929
O O4 0.551401 0.757300 0.440593
O O5 0.960797 0.744256 0.068039
O O6 0.913683 0.000000 0.002194
O O7 0.787542 0.754313 0.927727
O O8 0.000000 0.773975 0.000000
O O9 0.630069 0.227175 0.208563
O O10 0.827218 0.263484 0.260401
O O11 0.769930 0.000000 0.267431
O O12 0.013393 0.500000 0.868841
O O13 0.085877 0.755691 0.868528
O O14 0.129223 0.500000 0.437388
O O15 0.250000 0.250000 0.500000
O O16 0.046442 0.272527 0.352881
O O17 0.083117 0.500000 0.736892
O O18 0.101907 0.236904 0.788363
O O19 0.667506 0.500000 0.868876
#
# Coordination Sequence:
#
# PCOD9206126 Si02
#       7
#     8   8   8   8   8   8   8
#     4   9  18  34  56  82 113 149 189 233 282 337
#     4  11  24  42  64  88 115 149 189 232 280 335
#     4   9  19  36  58  83 112 149 190 232 281 337
#     4  11  23  39  59  85 119 153 189 234 282 334
#     4  10  21  36  56  82 113 150 190 235 284 335
#     4  10  21  38  59  83 113 149 190 235 283 336
#     4  12  25  40  60  86 117 151 188 232 283 336
#
# _framework density 18.542131999999999
#
# number of rings (size 3 to 8) (size 9 to 14) (size 15 to 20)
#    0.000    1.714    0.000    4.286    0.000    7.714 
#    0.000    2.857    0.000    0.000    0.000    0.000 
#    0.000    0.000    0.000    0.000    0.000    0.000 
#
# Total GULP energy -156444.246896 kJ/mol
# GULP energy per Si atom -5587.294532 kJ/mol
# Density = 1.849993 g / cm^3
# Si number density = 18.542132 Si / 1000 Ang^3
#
#
#
# Elastic Constant Matrix: (Units=GPa)
#
#
# Indices 1 2 3 4 5 6 
#
# 1 121.2976 39.2392 98.4973 0.0000 5.5734 0.0000
# 2 39.2392 43.2911 44.3741 0.0000 1.8501 0.0001
# 3 98.4973 44.3741 177.9565 0.0000 2.8833 0.0000
# 4 0.0000 0.0000 0.0000 29.5789 0.0000 -3.9398
# 5 5.5734 1.8501 2.8833 0.0000 37.3970 0.0000
# 6 0.0000 0.0001 0.0000 -3.9398 0.0000 21.4794
#
#
#
# Elastic Compliance Matrix: (Units=1/GPa)
#
#
# Indices 1 2 3 4 5 6 
#
# 1 0.016730 -0.007566 -0.007348 0.000000 -0.001552 0.000000
# 2 -0.007566 0.034485 -0.004408 0.000000 -0.000239 0.000000
# 3 -0.007348 -0.004408 0.010778 0.000000 0.000482 0.000000
# 4 0.000000 0.000000 0.000000 0.034655 0.000000 0.006356
# 5 -0.001552 -0.000239 0.000482 0.000000 0.026946 0.000000
# 6 0.000000 0.000000 0.000000 0.006356 0.000000 0.047722
#
#
# Mechanical properties :
#
#
# Convention : Reuss Voigt Hill
#
# Bulk Modulus (GPa) = 42.82687 78.52962 60.67824
# Shear Modulus (GPa) = 22.96298 28.38670 25.67484
#
# Velocity S-wave (km/s) = 3.52294 3.91695 3.72516
# Velocity P-wave (km/s) = 6.30042 7.93099 7.16226
#
# Compressibility (1/GPa) = 0.02334983
#
# Stress axis : x y z
#
# Youngs Moduli (GPa) = 59.77304 28.99805 92.78395
#
# Poissons Ratio (x) = 0.21939 0.68179
# Poissons Ratio (y) = 0.45223 0.40895
# Poissons Ratio (z) = 0.43922 0.12781
#
# Static dielectric constant tensor:
#      x y z
#    x 1.595870 0.000000 0.007730 
#    y 0.000000 1.621000 0.000000 
#    z 0.007730 0.000000 1.654720 
# 
# From -- ./inp_files/363196.got.cif
#   From: 2010.05.17/outbox.cif.g08.bks.cpg/sg12_182_cif.got.tgz:363196.got - 2010.06.03 13:09:07.
