data_PCOD9206041
_publ_section_title
;
Structure prediction by ZEFSAII (Michael W. Deem and Ramdas Pophale) SiO2 
 PCOD9206041
Probable space group: C 2/M
;
_chemical_formula_sum "Si O2"
_cell_formula_units_Z 56
_cell_length_a 24.587172
_cell_length_b 8.858763
_cell_length_c 13.935141
_cell_angle_alpha 90.000000
_cell_angle_beta 56.968286
_cell_angle_gamma 90.000000
_cell_volume 2544.651004
_symmetry_space_group_name_H-M "C 2/M"
_symmetry_group_IT_number 12
_symmetry_cell_setting 'monoclinic'
loop_
_space_group_symop_operation_xyz
x,y,z
-x,y,-z
-x,-y,-z
x,-y,z
1/2+x,1/2+y,z
1/2-x,1/2+y,-z
1/2-x,1/2-y,-z
1/2+x,1/2-y,z
loop_
_atom_site_type_symbol
_atom_site_label
_atom_site_fract_x
_atom_site_fract_y
_atom_site_fract_z
Si Si1 0.814751 0.667123 0.412235
Si Si2 0.714228 0.818844 0.232807
Si Si3 0.566582 0.182103 0.820247
Si Si4 0.150707 0.177385 0.122854
Si Si5 0.640851 0.681177 0.906155
Si Si6 0.002956 0.821837 0.293758
Si Si7 0.399631 0.170278 0.523046
O O1 0.798653 0.500000 0.392414
O O2 0.750000 0.750000 0.500000
O O3 0.864445 0.738870 0.290327
O O4 0.856431 0.655868 0.468674
O O5 0.700809 0.774260 0.136074
O O6 0.786049 0.768505 0.195742
O O7 0.652269 0.760421 0.352744
O O8 0.713949 0.000000 0.243541
O O9 0.578588 0.240282 0.916464
O O10 0.517046 0.245586 0.788855
O O11 0.562790 0.000000 0.822585
O O12 0.078985 0.202919 0.234951
O O13 0.167183 0.000000 0.116159
O O14 0.143301 0.210846 0.017636
O O15 0.635027 0.500000 0.897576
O O16 0.961882 0.758300 0.423065
O O17 0.990540 0.000000 0.296406
O O18 0.418012 0.000000 0.536853
#
# Coordination Sequence:
#
# PCOD9206041 Si02
#       7
#     8   8   8   8   8   8   8
#     4   9  17  29  47  73 107 141 175 217 268 324
#     4  10  21  37  60  86 112 146 187 229 280 333
#     4  10  21  36  55  82 113 145 182 229 278 329
#     4  10  23  40  58  81 112 148 189 235 277 323
#     4  10  21  39  60  83 112 147 185 229 280 333
#     4  10  21  38  58  82 112 150 189 225 274 333
#     4   9  19  35  53  79 112 143 180 228 275 327
#
# _framework density 22.006948000000001
#
# number of rings (size 3 to 8) (size 9 to 14) (size 15 to 20)
#    0.000    2.286    0.000    3.000    0.000    8.000 
#    0.000    5.714    0.000    0.000    0.000    0.000 
#    0.000    0.000    0.000    0.000    0.000    0.000 
#
# Total GULP energy -156182.190042 kJ/mol
# GULP energy per Si atom -5577.935359 kJ/mol
# Density = 2.195686 g / cm^3
# Si number density = 22.006948 Si / 1000 Ang^3
#
#
#
# Elastic Constant Matrix: (Units=GPa)
#
#
# Indices 1 2 3 4 5 6 
#
# 1 84.0218 29.2890 12.4511 0.0000 14.0052 0.0000
# 2 29.2890 21.8932 4.6136 0.0000 -8.4912 0.0000
# 3 12.4511 4.6136 60.5653 0.0000 -3.5469 0.0000
# 4 0.0000 0.0000 0.0000 24.8546 0.0000 7.9552
# 5 14.0052 -8.4912 -3.5469 0.0000 25.6796 0.0000
# 6 0.0000 0.0000 0.0000 7.9552 0.0000 17.7375
#
#
#
# Elastic Compliance Matrix: (Units=1/GPa)
#
#
# Indices 1 2 3 4 5 6 
#
# 1 0.066896 -0.117213 -0.009305 0.000000 -0.076527 0.000000
# 2 -0.117213 0.258321 0.013272 0.000000 0.151176 0.000000
# 3 -0.009305 0.013272 0.018114 0.000000 0.011966 0.000000
# 4 0.000000 0.000000 0.000000 0.046978 0.000000 -0.021069
# 5 -0.076527 0.151176 0.011966 0.000000 0.132318 0.000000
# 6 0.000000 0.000000 0.000000 -0.021069 0.000000 0.065827
#
#
# Mechanical properties :
#
#
# Convention : Reuss Voigt Hill
#
# Bulk Modulus (GPa) = 8.55885 28.79862 18.67874
# Shear Modulus (GPa) = 5.85554 21.66278 13.75916
#
# Velocity S-wave (km/s) = 1.63296 3.14086 2.50315
# Velocity P-wave (km/s) = 2.73002 5.12522 4.10615
#
# Compressibility (1/GPa) = 0.11683818
#
# Stress axis : x y z
#
# Youngs Moduli (GPa) = 14.94865 3.87115 55.20646
#
# Poissons Ratio (x) = 0.45375 0.51372
# Poissons Ratio (y) = 1.75218 -0.73272
# Poissons Ratio (z) = 0.13910 -0.05138
#
# Static dielectric constant tensor:
#      x y z
#    x 1.814940 0.000000 -0.014600 
#    y 0.000000 1.789500 0.000000 
#    z -0.014600 0.000000 1.997860 
# 
# From -- ./inp_files/238410.got.cif
#   From: 2010.05.17/outbox.cif.g08.bks.cpg/sg12_120_cif.got.tgz:238410.got - 2010.06.03 13:09:07.
