data_PCOD9206223
_publ_section_title
;
Structure prediction by ZEFSAII (Michael W. Deem and Ramdas Pophale) SiO2 
 PCOD9206223
Probable space group: C 2/M
;
_chemical_formula_sum "Si O2"
_cell_formula_units_Z 42
_cell_length_a 10.085654
_cell_length_b 7.403598
_cell_length_c 28.061858
_cell_angle_alpha 90.000000
_cell_angle_beta 55.194525
_cell_angle_gamma 90.000000
_cell_volume 1720.507421
_symmetry_space_group_name_H-M "C 2/M"
_symmetry_group_IT_number 12
_symmetry_cell_setting 'monoclinic'
loop_
_space_group_symop_operation_xyz
x,y,z
-x,y,-z
-x,-y,-z
x,-y,z
1/2+x,1/2+y,z
1/2-x,1/2+y,-z
1/2-x,1/2-y,-z
1/2+x,1/2-y,z
loop_
_atom_site_type_symbol
_atom_site_label
_atom_site_fract_x
_atom_site_fract_y
_atom_site_fract_z
Si Si1 0.737655 0.789262 0.574045
Si Si2 0.449848 0.719150 0.833494
Si Si3 0.819392 0.715371 0.037686
Si Si4 0.632274 0.283960 0.352506
Si Si5 0.000000 0.500000 0.500000
Si Si6 0.812969 0.210442 0.764311
O O1 0.551290 0.768518 0.598503
O O2 0.755803 0.728797 0.626279
O O3 0.859798 0.657573 0.522893
O O4 0.782801 0.000000 0.560862
O O5 0.448328 0.500000 0.833418
O O6 0.304813 0.783297 0.896984
O O7 0.624461 0.776674 0.816254
O O8 0.419131 0.785406 0.785778
O O9 0.830223 0.500000 0.043586
O O10 0.750000 0.750000 0.000000
O O11 0.000000 0.789808 0.000000
O O12 0.644924 0.500000 0.347814
O O13 0.670546 0.210263 0.292047
O O14 0.857124 0.000000 0.751671
#
# Coordination Sequence:
#
# PCOD9206223 Si02
#       6
#     8   8   8   8   2   8
#     4  11  25  44  68  98 129 171 214 260 315 383
#     4  10  21  36  56  89 119 154 205 252 307 367
#     4  10  21  37  56  80 116 160 204 254 306 365
#     4  10  22  43  65  96 129 163 210 258 317 380
#     4  12  26  48  68  96 136 172 210 270 310 366
#     4  10  21  38  63  89 122 158 196 254 306 365
#
# _framework density 24.411404999999998
#
# number of rings (size 3 to 8) (size 9 to 14) (size 15 to 20)
#    0.000    1.714    0.952    2.571    1.333    4.952 
#    0.000    0.000    0.000    0.000    0.000    0.000 
#    0.000    0.000    0.000    0.000    0.000    0.000 
#
# Total GULP energy -117309.876825 kJ/mol
# GULP energy per Si atom -5586.184611 kJ/mol
# Density = 2.435584 g / cm^3
# Si number density = 24.411405 Si / 1000 Ang^3
#
#
#
# Elastic Constant Matrix: (Units=GPa)
#
#
# Indices 1 2 3 4 5 6 
#
# 1 57.2887 -26.6259 -15.6847 0.0000 14.8220 0.0000
# 2 -26.6259 83.9070 -11.5145 0.0000 8.3904 0.0000
# 3 -15.6847 -11.5145 78.7208 0.0000 10.4685 0.0000
# 4 0.0000 0.0000 0.0000 -27.8500 0.0000 -4.8953
# 5 14.8220 8.3904 10.4685 0.0000 43.9904 0.0000
# 6 0.0000 0.0000 0.0000 -4.8953 0.0000 16.8944
#
#
#
# Elastic Compliance Matrix: (Units=1/GPa)
#
#
# Indices 1 2 3 4 5 6 
#
# 1 0.029462 0.012114 0.009572 0.000000 -0.014515 0.000000
# 2 0.012114 0.017495 0.006154 0.000000 -0.008883 0.000000
# 3 0.009572 0.006154 0.016621 0.000000 -0.008354 0.000000
# 4 0.000000 0.000000 0.000000 -0.034166 0.000000 -0.009900
# 5 -0.014515 -0.008883 -0.008354 0.000000 0.031305 0.000000
# 6 0.000000 0.000000 0.000000 -0.009900 0.000000 0.056323
#
#
# Mechanical properties :
#
#
# Convention : Reuss Voigt Hill
#
# Bulk Modulus (GPa) = 8.38512 12.47403 10.42957
# Shear Modulus (GPa) = 49.45007 24.85639 37.15323
#
# Velocity S-wave (km/s) = 4.50566 3.19443 3.90547
# Velocity P-wave (km/s) = 5.52361 4.32745 4.96171
#
# Compressibility (1/GPa) = 0.11925894
#
# Stress axis : x y z
#
# Youngs Moduli (GPa) = 33.94215 57.15969 60.16310
#
# Poissons Ratio (x) = -0.69244 -0.57590
# Poissons Ratio (y) = -0.41118 -0.37024
# Poissons Ratio (z) = -0.32491 -0.35176
#
# Static dielectric constant tensor:
#      x y z
#    x 1.875590 0.000000 0.050220 
#    y 0.000000 2.050870 0.000000 
#    z 0.050220 0.000000 1.980720 
# 
# From -- ./inp_files/303676.got.cif
#   From: 2010.05.17/outbox.cif.g08.bks.cpg/sg12_152_cif.got.tgz:303676.got - 2010.06.03 13:09:07.
