data_PCOD9206218
_publ_section_title
;
Structure prediction by ZEFSAII (Michael W. Deem and Ramdas Pophale) SiO2 
 PCOD9206218
Probable space group: C 2/M
;
_chemical_formula_sum "Si O2"
_cell_formula_units_Z 56
_cell_length_a 24.286863
_cell_length_b 8.974417
_cell_length_c 18.104180
_cell_angle_alpha 90.000000
_cell_angle_beta 44.882996
_cell_angle_gamma 90.000000
_cell_volume 2784.536025
_symmetry_space_group_name_H-M "C 2/M"
_symmetry_group_IT_number 12
_symmetry_cell_setting 'monoclinic'
loop_
_space_group_symop_operation_xyz
x,y,z
-x,y,-z
-x,-y,-z
x,-y,z
1/2+x,1/2+y,z
1/2-x,1/2+y,-z
1/2-x,1/2-y,-z
1/2+x,1/2-y,z
loop_
_atom_site_type_symbol
_atom_site_label
_atom_site_fract_x
_atom_site_fract_y
_atom_site_fract_z
Si Si1 0.390729 0.176919 0.025242
Si Si2 0.552514 0.822597 0.604776
Si Si3 0.590141 0.321763 0.331180
Si Si4 0.987645 0.825441 0.201818
Si Si5 0.646471 0.674304 0.789875
Si Si6 0.314434 0.322633 0.608370
Si Si7 0.229888 0.823602 0.096260
O O1 0.397292 0.250183 0.099302
O O2 0.301339 0.200637 0.084440
O O3 0.405652 0.000000 0.014469
O O4 0.445565 0.252425 0.912232
O O5 0.489666 0.765143 0.604480
O O6 0.524044 0.757899 0.710048
O O7 0.635854 0.754014 0.503395
O O8 0.555766 0.000000 0.603131
O O9 0.574903 0.500000 0.340252
O O10 0.636551 0.297095 0.362890
O O11 0.649451 0.273831 0.209761
O O12 0.908555 0.814763 0.229174
O O13 0.005379 0.000000 0.197993
O O14 0.659173 0.500000 0.794403
O O15 0.728704 0.754700 0.698670
O O16 0.309285 0.500000 0.601963
O O17 0.223437 0.000000 0.091058
O O18 0.250000 0.750000 0.000000
#
# Coordination Sequence:
#
# PCOD9206218 Si02
#       7
#     8   8   8   8   8   8   8
#     4  11  22  40  64  94 128 165 211 259 313 375
#     4  12  26  42  63  95 128 164 211 263 318 375
#     4  10  21  41  64  89 125 167 209 253 309 377
#     4  11  25  44  64  91 127 170 214 260 316 374
#     4  11  24  42  66  95 127 165 213 263 313 373
#     4  11  23  43  69  94 124 167 212 258 316 377
#     4  10  21  36  56  88 125 163 204 248 303 366
#
# _framework density 20.111070999999999
#
# number of rings (size 3 to 8) (size 9 to 14) (size 15 to 20)
#    0.000    1.143    1.429    4.714    0.000   11.429 
#    0.000    0.000    0.000    0.000    0.000    0.000 
#    0.000    0.000    0.000    0.000    0.000    0.000 
#
# Total GULP energy -156686.625822 kJ/mol
# GULP energy per Si atom -5595.950922 kJ/mol
# Density = 2.006530 g / cm^3
# Si number density = 20.111071 Si / 1000 Ang^3
#
#
#
# Elastic Constant Matrix: (Units=GPa)
#
#
# Indices 1 2 3 4 5 6 
#
# 1 35.1064 39.1913 20.8700 -0.0004 -0.1806 0.0001
# 2 39.1913 104.4247 50.4002 -0.0017 -5.9620 0.0015
# 3 20.8700 50.4002 130.5040 -0.0006 -16.1240 0.0004
# 4 -0.0004 -0.0017 -0.0006 32.9937 0.0009 -4.7489
# 5 -0.1806 -5.9620 -16.1240 0.0009 24.5471 -0.0006
# 6 0.0001 0.0015 0.0004 -4.7489 -0.0006 31.0201
#
#
#
# Elastic Compliance Matrix: (Units=1/GPa)
#
#
# Indices 1 2 3 4 5 6 
#
# 1 0.049685 -0.018190 -0.001547 0.000000 -0.005068 0.000001
# 2 -0.018190 0.018430 -0.003997 0.000001 0.001717 -0.000001
# 3 -0.001547 -0.003997 0.010156 0.000000 0.005689 0.000000
# 4 0.000000 0.000001 0.000000 0.030992 -0.000001 0.004745
# 5 -0.005068 0.001717 0.005689 -0.000001 0.044855 0.000001
# 6 0.000001 -0.000001 0.000000 0.004745 0.000001 0.032963
#
#
# Mechanical properties :
#
#
# Convention : Reuss Voigt Hill
#
# Bulk Modulus (GPa) = 32.46270 54.55089 43.50680
# Shear Modulus (GPa) = 20.42356 28.35044 24.38700
#
# Velocity S-wave (km/s) = 3.19021 3.75866 3.48604
# Velocity P-wave (km/s) = 5.45405 6.78383 6.15496
#
# Compressibility (1/GPa) = 0.03080458
#
# Stress axis : x y z
#
# Youngs Moduli (GPa) = 20.12697 54.25951 98.46067
#
# Poissons Ratio (x) = 0.98696 0.15231
# Poissons Ratio (y) = 0.36610 0.39350
# Poissons Ratio (z) = 0.03113 0.21685
#
# Static dielectric constant tensor:
#      x y z
#    x 1.713630 0.000000 0.013740 
#    y 0.000000 1.671830 0.000000 
#    z 0.013740 0.000000 1.729590 
# 
# From -- ./inp_files/288236.got.cif
#   From: 2010.05.17/outbox.cif.g08.bks.cpg/sg12_145_cif.got.tgz:288236.got - 2010.06.03 13:09:07.
