data_PCOD9206886
_publ_section_title
;
Structure prediction by ZEFSAII (Michael W. Deem and Ramdas Pophale) SiO2 
 PCOD9206886
Probable space group: C 2/M
;
_chemical_formula_sum "Si O2"
_cell_formula_units_Z 40
_cell_length_a 13.708647
_cell_length_b 19.745916
_cell_length_c 12.185299
_cell_angle_alpha 90.000000
_cell_angle_beta 148.412489
_cell_angle_gamma 90.000000
_cell_volume 1727.721593
_symmetry_space_group_name_H-M "C 2/M"
_symmetry_group_IT_number 12
_symmetry_cell_setting 'monoclinic'
loop_
_space_group_symop_operation_xyz
x,y,z
-x,y,-z
-x,-y,-z
x,-y,z
1/2+x,1/2+y,z
1/2-x,1/2+y,-z
1/2-x,1/2-y,-z
1/2+x,1/2-y,z
loop_
_atom_site_type_symbol
_atom_site_label
_atom_site_fract_x
_atom_site_fract_y
_atom_site_fract_z
Si Si1 0.477374 0.426059 0.158187
Si Si2 0.503197 0.918871 0.820000
Si Si3 0.744301 0.177952 0.549581
Si Si4 0.797712 0.081197 0.274929
Si Si5 0.289113 0.895630 0.286096
O O1 0.462440 0.500000 0.197315
O O2 0.294964 0.406458 0.914554
O O3 0.569531 0.363197 0.308033
O O4 0.643077 0.432745 0.225847
O O5 0.428131 0.868355 0.655678
O O6 0.350354 0.907740 0.769910
O O7 0.500415 0.000000 0.789259
O O8 0.699438 0.900100 0.065295
O O9 0.750000 0.250000 0.500000
O O10 0.728910 0.177376 0.668634
O O11 0.000000 0.108984 0.500000
O O12 0.813002 0.000000 0.284326
O O13 0.500000 0.919053 0.500000
#
# Coordination Sequence:
#
# PCOD9206886 Si02
#       5
#     8   8   8   8   8
#     4   9  19  36  60  84 112 146 186 231 279 327
#     4   9  17  32  54  76 103 140 178 223 269 315
#     4  10  21  37  54  79 116 144 181 228 279 330
#     4   8  15  31  52  76 104 133 173 214 261 319
#     4   9  19  37  60  83 109 145 188 231 281 333
#
# _framework density 23.151878
#
# number of rings (size 3 to 8) (size 9 to 14) (size 15 to 20)
#    1.200    1.800    0.000    3.000    0.000    1.600 
#   10.800    2.000    0.000    0.000    0.000    0.000 
#    0.000    0.000    0.000    0.000    0.000    0.000 
#
# Total GULP energy -111372.695555 kJ/mol
# GULP energy per Si atom -5568.634778 kJ/mol
# Density = 2.309918 g / cm^3
# Si number density = 23.151878 Si / 1000 Ang^3
#
#
#
# Elastic Constant Matrix: (Units=GPa)
#
#
# Indices 1 2 3 4 5 6 
#
# 1 50.8255 13.5948 11.2347 0.0000 7.5894 0.0000
# 2 13.5948 128.3914 55.7004 0.0000 -9.2580 0.0000
# 3 11.2347 55.7004 190.7190 0.0000 25.1473 0.0000
# 4 0.0000 0.0000 0.0000 -1.0011 0.0000 -11.2838
# 5 7.5894 -9.2580 25.1473 0.0000 42.9404 0.0000
# 6 0.0000 0.0000 0.0000 -11.2838 0.0000 17.2604
#
#
#
# Elastic Compliance Matrix: (Units=1/GPa)
#
#
# Indices 1 2 3 4 5 6 
#
# 1 0.020988 -0.002569 0.000082 0.000000 -0.004312 0.000000
# 2 -0.002569 0.009823 -0.003312 0.000000 0.004512 0.000000
# 3 0.000082 -0.003312 0.006829 0.000000 -0.004728 0.000000
# 4 0.000000 0.000000 0.000000 -0.119364 0.000000 -0.078033
# 5 -0.004312 0.004512 -0.004728 0.000000 0.027792 0.000000
# 6 0.000000 0.000000 0.000000 -0.078033 0.000000 0.006923
#
#
# Mechanical properties :
#
#
# Convention : Reuss Voigt Hill
#
# Bulk Modulus (GPa) = 38.39899 58.99952 48.69926
# Shear Modulus (GPa) = -187.05319 31.13367 -77.95976
#
# Velocity S-wave (km/s) = -8.99830 3.67107 -5.80916
# Velocity P-wave (km/s) = 9.55706 6.59606 4.89027
#
# Compressibility (1/GPa) = 0.02604235
#
# Stress axis : x y z
#
# Youngs Moduli (GPa) = 47.64646 101.80089 146.42747
#
# Poissons Ratio (x) = 0.26153 -0.01208
# Poissons Ratio (y) = 0.12240 0.48503
# Poissons Ratio (z) = -0.00393 0.33721
#
# Static dielectric constant tensor:
#      x y z
#    x 2.047660 0.000000 -0.019290 
#    y 0.000000 1.923830 0.000000 
#    z -0.019290 0.000000 1.943050 
# 
# From -- ./inp_files/285055.got.cif
#   From: 2010.05.17/outbox.cif.g08.bks.cpg/sg12_143_cif.got.tgz:285055.got - 2010.06.03 13:09:07.
