data_PCOD9206495
_publ_section_title
;
Structure prediction by ZEFSAII (Michael W. Deem and Ramdas Pophale) SiO2 
 PCOD9206495
Probable space group: C 2/M
;
_chemical_formula_sum "Si O2"
_cell_formula_units_Z 48
_cell_length_a 11.791494
_cell_length_b 28.153673
_cell_length_c 7.441234
_cell_angle_alpha 90.000000
_cell_angle_beta 72.580092
_cell_angle_gamma 90.000000
_cell_volume 2356.998505
_symmetry_space_group_name_H-M "C 2/M"
_symmetry_group_IT_number 12
_symmetry_cell_setting 'monoclinic'
loop_
_space_group_symop_operation_xyz
x,y,z
-x,y,-z
-x,-y,-z
x,-y,z
1/2+x,1/2+y,z
1/2-x,1/2+y,-z
1/2-x,1/2-y,-z
1/2+x,1/2-y,z
loop_
_atom_site_type_symbol
_atom_site_label
_atom_site_fract_x
_atom_site_fract_y
_atom_site_fract_z
Si Si1 0.241990 0.671922 0.176549
Si Si2 0.023050 0.337692 0.693000
Si Si3 0.753123 0.119487 0.554930
Si Si4 0.419638 0.738883 0.209194
Si Si5 0.572087 0.448371 0.651074
Si Si6 0.568217 0.645143 0.215074
O O1 0.247511 0.647045 0.368340
O O2 0.288994 0.724890 0.199968
O O3 0.109137 0.666281 0.163802
O O4 0.338727 0.651893 0.991547
O O5 0.126248 0.372718 0.710877
O O6 0.078290 0.284737 0.667941
O O7 0.000000 0.352685 0.500000
O O8 0.796464 0.067571 0.473522
O O9 0.854800 0.139286 0.640022
O O10 0.484911 0.691944 0.256344
O O11 0.500000 0.751721 0.000000
O O12 0.500000 0.452591 0.500000
O O13 0.569871 0.500000 0.743366
O O14 0.509199 0.402900 0.773186
#
# Coordination Sequence:
#
# PCOD9206495 Si02
#       6
#     8   8   8   8   8   8
#     4  10  22  38  52  79 120 143 189 235 260 329
#     4  10  24  35  53  81 112 157 190 224 267 334
#     4  10  21  37  57  80 112 148 183 228 281 329
#     4  10  22  34  54  80 113 148 189 233 271 317
#     4   9  18  36  62  90 110 136 184 235 286 335
#     4  10  21  36  59  81 109 150 178 235 286 319
#
# _framework density 20.364884
#
# number of rings (size 3 to 8) (size 9 to 14) (size 15 to 20)
#    0.000    2.167    1.667    0.000    7.000    2.667 
#    0.000    1.667    0.000    5.500    0.000    4.667 
#    0.000    0.000    0.000    0.000    0.000    0.000 
#
# Total GULP energy -133736.959684 kJ/mol
# GULP energy per Si atom -5572.373320 kJ/mol
# Density = 2.031853 g / cm^3
# Si number density = 20.364884 Si / 1000 Ang^3
#
#
#
# Elastic Constant Matrix: (Units=GPa)
#
#
# Indices 1 2 3 4 5 6 
#
# 1 131.9522 54.5229 17.4132 0.0000 -27.8086 0.0000
# 2 54.5229 82.9431 7.7699 0.0000 -5.1348 0.0000
# 3 17.4132 7.7699 53.2958 0.0000 1.3912 0.0000
# 4 0.0000 0.0000 0.0000 11.0420 0.0000 0.1161
# 5 -27.8086 -5.1348 1.3912 0.0000 32.6954 0.0000
# 6 0.0000 0.0000 0.0000 0.1161 0.0000 0.7642
#
#
#
# Elastic Compliance Matrix: (Units=1/GPa)
#
#
# Indices 1 2 3 4 5 6 
#
# 1 0.013498 -0.007899 -0.003530 0.000000 0.010390 0.000000
# 2 -0.007899 0.016978 0.000212 0.000000 -0.004061 0.000000
# 3 -0.003530 0.000212 0.019985 0.000000 -0.003819 0.000000
# 4 0.000000 0.000000 0.000000 0.090708 0.000000 -0.013779
# 5 0.010390 -0.004061 -0.003819 0.000000 0.038947 0.000000
# 6 0.000000 0.000000 0.000000 -0.013779 0.000000 1.310604
#
#
# Mechanical properties :
#
#
# Convention : Reuss Voigt Hill
#
# Bulk Modulus (GPa) = 35.68027 47.51146 41.59586
# Shear Modulus (GPa) = 3.28408 21.46601 12.37504
#
# Velocity S-wave (km/s) = 1.27127 3.25017 2.46776
# Velocity P-wave (km/s) = 4.43997 6.12091 5.34691
#
# Compressibility (1/GPa) = 0.02802670
#
# Stress axis : x y z
#
# Youngs Moduli (GPa) = 74.08578 58.90098 50.03671
#
# Poissons Ratio (x) = 0.46526 0.17662
# Poissons Ratio (y) = 0.58520 -0.01059
# Poissons Ratio (z) = 0.26150 -0.01247
#
# Static dielectric constant tensor:
#      x y z
#    x 1.824630 0.000000 -0.031890 
#    y 0.000000 1.751820 0.000000 
#    z -0.031890 0.000000 1.789640 
# 
# From -- ./inp_files/50610.got.cif
#   From: 2010.05.17/outbox.cif.g08.bks.cpg/sg12_26_cif.got.tgz:50610.got - 2010.06.03 13:09:07.
