data_PCOD9206045
_publ_section_title
;
Structure prediction by ZEFSAII (Michael W. Deem and Ramdas Pophale) SiO2 
 PCOD9206045
Probable space group: C 2/M
;
_chemical_formula_sum "Si O2"
_cell_formula_units_Z 32
_cell_length_a 13.679930
_cell_length_b 24.491060
_cell_length_c 4.913397
_cell_angle_alpha 90.000000
_cell_angle_beta 73.641665
_cell_angle_gamma 90.000000
_cell_volume 1579.526474
_symmetry_space_group_name_H-M "C 2/M"
_symmetry_group_IT_number 12
_symmetry_cell_setting 'monoclinic'
loop_
_space_group_symop_operation_xyz
x,y,z
-x,y,-z
-x,-y,-z
x,-y,z
1/2+x,1/2+y,z
1/2-x,1/2+y,-z
1/2-x,1/2-y,-z
1/2+x,1/2-y,z
loop_
_atom_site_type_symbol
_atom_site_label
_atom_site_fract_x
_atom_site_fract_y
_atom_site_fract_z
Si Si1 0.879525 0.342327 0.618124
Si Si2 0.776171 0.061972 0.292718
Si Si3 0.615097 0.608210 0.307802
Si Si4 0.272458 0.201904 0.198372
O O1 0.822758 0.399523 0.604290
O O2 0.000000 0.342417 0.500000
O O3 0.673156 0.202468 0.547509
O O4 0.148113 0.332080 0.046772
O O5 0.829056 0.064966 0.543151
O O6 0.754173 0.000000 0.230029
O O7 0.856306 0.090043 0.019890
O O8 0.500000 0.611128 0.500000
O O9 0.670147 0.666422 0.311733
O O10 0.250000 0.250000 0.000000
#
# Coordination Sequence:
#
# PCOD9206045 Si02
#       4
#     8   8   8   8
#     4  10  21  38  58  83 114 147 188 236 282 335
#     4  10  21  36  56  83 114 149 189 232 280 336
#     4  10  21  36  55  82 114 147 188 235 281 336
#     4  10  21  38  58  82 112 147 190 236 284 338
#
# _framework density 20.259235
#
# number of rings (size 3 to 8) (size 9 to 14) (size 15 to 20)
#    0.000    2.000    0.000    3.000    0.000    4.500 
#    0.000    7.500    0.000    9.000    0.000    0.000 
#    0.000    0.000    0.000    0.000    0.000    0.000 
#
# Total GULP energy -89134.835928 kJ/mol
# GULP energy per Si atom -5570.927246 kJ/mol
# Density = 2.021312 g / cm^3
# Si number density = 20.259235 Si / 1000 Ang^3
#
#
#
# Elastic Constant Matrix: (Units=GPa)
#
#
# Indices 1 2 3 4 5 6 
#
# 1 76.7980 26.8755 42.7060 0.0000 -13.5250 0.0000
# 2 26.8755 74.7786 10.8909 0.0000 -5.8469 0.0000
# 3 42.7060 10.8909 79.3139 0.0000 10.9872 0.0000
# 4 0.0000 0.0000 0.0000 23.5538 0.0000 8.8635
# 5 -13.5250 -5.8469 10.9872 0.0000 43.6439 0.0000
# 6 0.0000 0.0000 0.0000 8.8635 0.0000 5.1359
#
#
#
# Elastic Compliance Matrix: (Units=1/GPa)
#
#
# Indices 1 2 3 4 5 6 
#
# 1 0.024679 -0.006038 -0.013891 0.000000 0.010336 0.000000
# 2 -0.006038 0.015367 0.001156 0.000000 -0.000104 0.000000
# 3 -0.013891 0.001156 0.021245 0.000000 -0.009498 0.000000
# 4 0.000000 0.000000 0.000000 0.121107 0.000000 -0.209006
# 5 0.010336 -0.000104 -0.009498 0.000000 0.028493 0.000000
# 6 0.000000 0.000000 0.000000 -0.209006 0.000000 0.555411
#
#
# Mechanical properties :
#
#
# Convention : Reuss Voigt Hill
#
# Bulk Modulus (GPa) = 42.11774 43.53724 42.82749
# Shear Modulus (GPa) = 6.15943 24.49459 15.32701
#
# Velocity S-wave (km/s) = 1.74554 3.48092 2.75352
# Velocity P-wave (km/s) = 4.98970 6.13942 5.59417
#
# Compressibility (1/GPa) = 0.02374296
#
# Stress axis : x y z
#
# Youngs Moduli (GPa) = 40.52013 65.07610 47.07059
#
# Poissons Ratio (x) = 0.39296 0.65385
# Poissons Ratio (y) = 0.24468 -0.05440
# Poissons Ratio (z) = 0.56286 -0.07520
#
# Static dielectric constant tensor:
#      x y z
#    x 1.720290 0.000000 0.027080 
#    y 0.000000 1.775860 0.000000 
#    z 0.027080 0.000000 1.689950 
# 
# From -- ./inp_files/11219.got.cif
#   From: 2010.05.17/outbox.cif.g08.bks.cpg/sg12_6_cif.got.tgz:11219.got - 2010.06.03 13:09:07.
