data_PCOD9206395
_publ_section_title
;
Structure prediction by ZEFSAII (Michael W. Deem and Ramdas Pophale) SiO2 
 PCOD9206395
Probable space group: C 2/M
;
_chemical_formula_sum "Si O2"
_cell_formula_units_Z 56
_cell_length_a 23.645282
_cell_length_b 12.926370
_cell_length_c 20.959082
_cell_angle_alpha 90.000000
_cell_angle_beta 156.374980
_cell_angle_gamma 90.000000
_cell_volume 2567.236925
_symmetry_space_group_name_H-M "C 2/M"
_symmetry_group_IT_number 12
_symmetry_cell_setting 'monoclinic'
loop_
_space_group_symop_operation_xyz
x,y,z
-x,y,-z
-x,-y,-z
x,-y,z
1/2+x,1/2+y,z
1/2-x,1/2+y,-z
1/2-x,1/2-y,-z
1/2+x,1/2-y,z
loop_
_atom_site_type_symbol
_atom_site_label
_atom_site_fract_x
_atom_site_fract_y
_atom_site_fract_z
Si Si1 0.011586 0.173803 0.873378
Si Si2 0.933299 0.382874 0.001863
Si Si3 0.662231 0.118021 0.796437
Si Si4 0.093430 0.330702 0.403466
Si Si5 0.164504 0.117044 0.435142
Si Si6 0.146909 0.784097 0.675856
Si Si7 0.767162 0.887946 0.706117
O O1 0.929752 0.143273 0.724728
O O2 0.925624 0.122671 0.842802
O O3 0.013710 0.294627 0.894950
O O4 0.170859 0.135829 0.029306
O O5 0.964929 0.500000 0.054675
O O6 0.765416 0.363623 0.821043
O O7 0.000000 0.367931 0.000000
O O8 0.570978 0.142019 0.765279
O O9 0.606855 0.203142 0.689866
O O10 0.634484 0.000000 0.749424
O O11 0.124935 0.208338 0.442158
O O12 0.176904 0.367977 0.427262
O O13 0.168144 0.383812 0.541126
O O14 0.141500 0.000000 0.432683
O O15 0.224203 0.708242 0.705085
O O16 0.000000 0.830055 0.500000
O O17 0.749539 0.000000 0.719834
#
# Coordination Sequence:
#
# PCOD9206395 Si02
#       7
#     8   8   8   8   8   8   8
#     4  10  21  38  60  86 115 152 197 235 286 349
#     4  10  21  40  59  80 116 157 194 236 281 334
#     4  11  21  34  56  89 122 151 187 242 294 340
#     4  10  21  36  58  85 114 151 197 240 290 347
#     4  10  21  41  62  81 114 153 192 244 297 342
#     4  11  22  35  57  88 121 154 195 233 283 352
#     4  11  20  36  58  85 122 158 189 235 286 340
#
# _framework density 21.813336
#
# number of rings (size 3 to 8) (size 9 to 14) (size 15 to 20)
#    0.000    1.571    2.857    3.857    0.000    1.429 
#    0.000   13.571    0.000    0.000    0.000    0.000 
#    0.000    0.000    0.000    0.000    0.000    0.000 
#
# Total GULP energy -156425.261386 kJ/mol
# GULP energy per Si atom -5586.616478 kJ/mol
# Density = 2.176369 g / cm^3
# Si number density = 21.813336 Si / 1000 Ang^3
#
#
#
# Elastic Constant Matrix: (Units=GPa)
#
#
# Indices 1 2 3 4 5 6 
#
# 1 40.6273 12.2082 23.3934 0.0003 18.6387 0.0001
# 2 12.2082 140.7996 9.2161 0.0007 8.0214 0.0003
# 3 23.3934 9.2161 90.7212 0.0006 32.8194 0.0002
# 4 0.0003 0.0007 0.0006 9.9925 0.0004 -2.4715
# 5 18.6387 8.0214 32.8194 0.0004 31.1689 0.0002
# 6 0.0001 0.0003 0.0002 -2.4715 0.0002 20.2179
#
#
#
# Elastic Compliance Matrix: (Units=1/GPa)
#
#
# Indices 1 2 3 4 5 6 
#
# 1 0.034676 -0.001840 -0.002301 0.000000 -0.017840 0.000000
# 2 -0.001840 0.007306 0.000023 0.000000 -0.000805 0.000000
# 3 -0.002301 0.000023 0.017959 0.000000 -0.017540 0.000000
# 4 0.000000 0.000000 0.000000 0.103195 -0.000001 0.012615
# 5 -0.017840 -0.000805 -0.017540 -0.000001 0.061427 0.000000
# 6 0.000000 0.000000 0.000000 0.012615 0.000000 0.051003
#
#
# Mechanical properties :
#
#
# Convention : Reuss Voigt Hill
#
# Bulk Modulus (GPa) = 19.33992 40.19815 29.76904
# Shear Modulus (GPa) = 16.60923 27.43122 22.02023
#
# Velocity S-wave (km/s) = 2.76239 3.55003 3.18069
# Velocity P-wave (km/s) = 4.36575 5.93902 5.21208
#
# Compressibility (1/GPa) = 0.05170652
#
# Stress axis : x y z
#
# Youngs Moduli (GPa) = 28.83832 136.87149 55.68207
#
# Poissons Ratio (x) = 0.25180 0.12812
# Poissons Ratio (y) = 0.05305 -0.00130
# Poissons Ratio (z) = 0.06636 -0.00318
#
# Static dielectric constant tensor:
#      x y z
#    x 1.819110 0.000000 0.007830 
#    y 0.000000 1.780830 0.000000 
#    z 0.007830 0.000000 1.831200 
# 
# From -- ./inp_files/369429.got.cif
#   From: 2010.05.17/outbox.cif.g08.bks.cpg/sg12_185_cif.got.tgz:369429.got - 2010.06.03 13:09:07.
