data_PCOD9206077
_publ_section_title
;
Structure prediction by ZEFSAII (Michael W. Deem and Ramdas Pophale) SiO2 
 PCOD9206077
Probable space group: C 2/M
;
_chemical_formula_sum "Si O2"
_cell_formula_units_Z 60
_cell_length_a 24.644872
_cell_length_b 15.849797
_cell_length_c 9.321946
_cell_angle_alpha 90.000000
_cell_angle_beta 65.811168
_cell_angle_gamma 90.000000
_cell_volume 3321.596866
_symmetry_space_group_name_H-M "C 2/M"
_symmetry_group_IT_number 12
_symmetry_cell_setting 'monoclinic'
loop_
_space_group_symop_operation_xyz
x,y,z
-x,y,-z
-x,-y,-z
x,-y,z
1/2+x,1/2+y,z
1/2-x,1/2+y,-z
1/2-x,1/2-y,-z
1/2+x,1/2-y,z
loop_
_atom_site_type_symbol
_atom_site_label
_atom_site_fract_x
_atom_site_fract_y
_atom_site_fract_z
Si Si1 0.925813 0.233182 0.823077
Si Si2 0.947025 0.593915 0.943841
Si Si3 0.571354 0.404380 0.933339
Si Si4 0.301009 0.803543 0.867154
Si Si5 0.500000 0.359278 0.500000
Si Si6 0.777075 0.220393 0.619645
Si Si7 0.310845 0.905831 0.123466
Si Si8 0.114332 0.095405 0.560188
O O1 0.952883 0.322615 0.842841
O O2 0.862467 0.254520 0.823738
O O3 0.968528 0.192434 0.660328
O O4 0.914694 0.168676 0.967282
O O5 0.947772 0.500000 0.873201
O O6 0.880908 0.602407 0.083141
O O7 0.000000 0.595108 0.000000
O O8 0.589818 0.500000 0.958822
O O9 0.596058 0.389200 0.746433
O O10 0.500000 0.404912 0.000000
O O11 0.288001 0.800182 0.713042
O O12 0.250000 0.750000 0.000000
O O13 0.306023 0.887285 0.957536
O O14 0.444698 0.403145 0.476582
O O15 0.750000 0.250000 0.500000
O O16 0.728742 0.160851 0.749785
O O17 0.837132 0.165224 0.536187
O O18 0.290986 0.000000 0.177317
O O19 0.139143 0.000000 0.524321
#
# Coordination Sequence:
#
# PCOD9206077 Si02
#       8
#     8   8   8   8   4   8   8   8
#     4  11  21  37  59  84 117 156 195 246 301 360
#     4   9  19  35  61  89 111 147 199 250 299 355
#     4  10  21  36  55  84 118 155 196 237 288 354
#     4   9  20  38  57  82 107 148 202 237 295 354
#     4  12  23  36  59  92 124 164 200 240 312 364
#     4  11  23  38  60  86 122 156 197 248 304 365
#     4   9  19  38  61  82 114 153 196 246 295 353
#     4  11  24  40  58  86 125 163 203 249 300 362
#
# _framework density 18.063601999999999
#
# number of rings (size 3 to 8) (size 9 to 14) (size 15 to 20)
#    0.000    1.867    2.667    1.000    5.600    0.533 
#    0.000    2.333    0.000    0.000    0.000    0.000 
#    0.000    0.000    0.000    0.000    0.000    0.000 
#
# Total GULP energy -167124.693353 kJ/mol
# GULP energy per Si atom -5570.823112 kJ/mol
# Density = 1.802249 g / cm^3
# Si number density = 18.063602 Si / 1000 Ang^3
#
#
#
# Elastic Constant Matrix: (Units=GPa)
#
#
# Indices 1 2 3 4 5 6 
#
# 1 84.2750 26.7395 30.8338 0.0000 13.8723 0.0000
# 2 26.7395 89.4242 47.0690 0.0000 12.8447 0.0000
# 3 30.8338 47.0690 98.1896 0.0000 15.9214 0.0000
# 4 0.0000 0.0000 0.0000 -216.4897 0.0000 140.1833
# 5 13.8723 12.8447 15.9214 0.0000 31.6261 0.0000
# 6 0.0000 0.0000 0.0000 140.1833 0.0000 -89.8970
#
#
#
# Elastic Compliance Matrix: (Units=1/GPa)
#
#
# Indices 1 2 3 4 5 6 
#
# 1 0.014234 -0.002238 -0.002757 0.000000 -0.003947 0.000000
# 2 -0.002238 0.015521 -0.006396 0.000000 -0.002102 0.000000
# 3 -0.002757 -0.006396 0.014699 0.000000 -0.003593 0.000000
# 4 0.000000 0.000000 0.000000 0.474177 0.000000 0.739421
# 5 -0.003947 -0.002102 -0.003593 0.000000 0.036013 0.000000
# 6 0.000000 0.000000 0.000000 0.739421 0.000000 1.141912
#
#
# Mechanical properties :
#
#
# Convention : Reuss Voigt Hill
#
# Bulk Modulus (GPa) = 46.14564 53.46370 49.80467
# Shear Modulus (GPa) = 2.89593 -43.80235 -20.45321
#
# Velocity S-wave (km/s) = 1.26754 -4.92966 -3.36860
# Velocity P-wave (km/s) = 5.26725 1.65542 3.53578
#
# Compressibility (1/GPa) = 0.02167052
#
# Stress axis : x y z
#
# Youngs Moduli (GPa) = 70.25197 64.43041 68.03207
#
# Poissons Ratio (x) = 0.14421 0.18757
# Poissons Ratio (y) = 0.15724 0.43516
# Poissons Ratio (z) = 0.19369 0.41213
#
# Static dielectric constant tensor:
#      x y z
#    x 1.616410 0.000000 0.023810 
#    y 0.000000 1.561810 0.000000 
#    z 0.023810 0.000000 1.609160 
# 
# From -- ./inp_files/96841.got.cif
#   From: 2010.05.17/outbox.cif.g08.bks.cpg/sg12_49_cif.got.tgz:96841.got - 2010.06.03 13:09:07.
