data_PCOD9206948
_publ_section_title
;
Structure prediction by ZEFSAII (Michael W. Deem and Ramdas Pophale) SiO2 
 PCOD9206948
Probable space group: C 2/M
;
_chemical_formula_sum "Si O2"
_cell_formula_units_Z 64
_cell_length_a 25.578156
_cell_length_b 8.304884
_cell_length_c 16.799725
_cell_angle_alpha 90.000000
_cell_angle_beta 130.415343
_cell_angle_gamma 90.000000
_cell_volume 2717.050594
_symmetry_space_group_name_H-M "C 2/M"
_symmetry_group_IT_number 12
_symmetry_cell_setting 'monoclinic'
loop_
_space_group_symop_operation_xyz
x,y,z
-x,y,-z
-x,-y,-z
x,-y,z
1/2+x,1/2+y,z
1/2-x,1/2+y,-z
1/2-x,1/2-y,-z
1/2+x,1/2-y,z
loop_
_atom_site_type_symbol
_atom_site_label
_atom_site_fract_x
_atom_site_fract_y
_atom_site_fract_z
Si Si1 0.561210 0.193106 0.168755
Si Si2 0.184552 0.808231 0.887429
Si Si3 0.574689 0.182910 0.610894
Si Si4 0.387524 0.306573 0.623985
Si Si5 0.689521 0.692603 0.603624
Si Si6 0.764484 0.810695 0.820838
Si Si7 0.912035 0.693245 0.990526
Si Si8 0.540578 0.313435 0.743622
O O1 0.614184 0.262076 0.284995
O O2 0.576629 0.230498 0.092401
O O3 0.561525 0.000000 0.176737
O O4 0.481762 0.250562 0.103399
O O5 0.204719 0.762843 0.816947
O O6 0.111766 0.738672 0.847325
O O7 0.179882 0.000000 0.888891
O O8 0.250000 0.750000 0.000000
O O9 0.500000 0.168084 0.500000
O O10 0.625207 0.249415 0.593390
O O11 0.561585 0.300720 0.671790
O O12 0.595650 0.000000 0.656554
O O13 0.388139 0.500000 0.617276
O O14 0.329272 0.249203 0.504509
O O15 0.464245 0.242347 0.676503
O O16 0.693786 0.500000 0.606671
O O17 0.753737 0.753011 0.719345
O O18 0.837104 0.762962 0.930633
O O19 0.758826 0.000000 0.816978
O O20 0.909482 0.500000 0.996111
O O21 0.535483 0.500000 0.763156
#
# Coordination Sequence:
#
# PCOD9206948 Si02
#       8
#     8   8   8   8   8   8   8   8
#     4   9  20  40  67  94 120 148 189 244 298 356
#     4  11  24  40  58  83 121 163 203 248 295 349
#     4  11  21  32  51  80 111 147 196 246 283 333
#     4  10  22  37  58  89 122 155 199 247 298 355
#     4  11  22  38  58  81 116 163 203 244 295 356
#     4  12  25  40  61  90 121 157 203 250 297 355
#     4   9  20  42  67  92 119 153 193 237 298 364
#     4  10  21  37  55  78 113 159 200 238 289 348
#
# _framework density 23.554953999999999
#
# number of rings (size 3 to 8) (size 9 to 14) (size 15 to 20)
#    0.000    1.625    2.500    3.000    1.750    3.500 
#    0.000    1.875    0.000    0.000    0.000    0.000 
#    0.000    0.000    0.000    0.000    0.000    0.000 
#
# Total GULP energy -178664.137137 kJ/mol
# GULP energy per Si atom -5583.254286 kJ/mol
# Density = 2.350134 g / cm^3
# Si number density = 23.554954 Si / 1000 Ang^3
#
#
#
# Elastic Constant Matrix: (Units=GPa)
#
#
# Indices 1 2 3 4 5 6 
#
# 1 38.5299 -0.5458 -9.4716 0.0000 1.4279 0.0000
# 2 -0.5458 26.4134 3.1597 0.0000 3.5031 0.0000
# 3 -9.4716 3.1597 137.9397 0.0000 -13.3742 0.0000
# 4 0.0000 0.0000 0.0000 35.1133 0.0000 -4.3809
# 5 1.4279 3.5031 -13.3742 0.0000 29.3019 0.0000
# 6 0.0000 0.0000 0.0000 -4.3809 0.0000 13.6705
#
#
#
# Elastic Compliance Matrix: (Units=1/GPa)
#
#
# Indices 1 2 3 4 5 6 
#
# 1 0.026410 0.000407 0.001752 0.000000 -0.000536 0.000000
# 2 0.000407 0.038732 -0.001371 0.000000 -0.005276 0.000000
# 3 0.001752 -0.001371 0.007752 0.000000 0.003617 0.000000
# 4 0.000000 0.000000 0.000000 0.029665 0.000000 0.009507
# 5 -0.000536 -0.005276 0.003617 0.000000 0.036435 0.000000
# 6 0.000000 0.000000 0.000000 0.009507 0.000000 0.076197
#
#
# Mechanical properties :
#
#
# Convention : Reuss Voigt Hill
#
# Bulk Modulus (GPa) = 13.42805 21.01862 17.22333
# Shear Modulus (GPa) = 20.96986 29.59985 25.28486
#
# Velocity S-wave (km/s) = 2.98695 3.54874 3.27990
# Velocity P-wave (km/s) = 4.19630 5.07287 4.65526
#
# Compressibility (1/GPa) = 0.07447100
#
# Stress axis : x y z
#
# Youngs Moduli (GPa) = 37.86415 25.81865 129.00029
#
# Poissons Ratio (x) = -0.01051 -0.22603
# Poissons Ratio (y) = -0.01542 0.17683
# Poissons Ratio (z) = -0.06634 0.03539
#
# Static dielectric constant tensor:
#      x y z
#    x 2.231960 0.000000 -0.108580 
#    y 0.000000 1.833440 0.000000 
#    z -0.108580 0.000000 2.019110 
# 
# From -- ./inp_files/295696.got.cif
#   From: 2010.05.17/outbox.cif.g08.bks.cpg/sg12_148_cif.got.tgz:295696.got - 2010.06.03 13:09:07.
