data_PCOD9206426
_publ_section_title
;
Structure prediction by ZEFSAII (Michael W. Deem and Ramdas Pophale) SiO2 
 PCOD9206426
Probable space group: C 2/M
;
_chemical_formula_sum "Si O2"
_cell_formula_units_Z 48
_cell_length_a 23.115900
_cell_length_b 22.750216
_cell_length_c 12.254804
_cell_angle_alpha 90.000000
_cell_angle_beta 160.253750
_cell_angle_gamma 90.000000
_cell_volume 2177.374852
_symmetry_space_group_name_H-M "C 2/M"
_symmetry_group_IT_number 12
_symmetry_cell_setting 'monoclinic'
loop_
_space_group_symop_operation_xyz
x,y,z
-x,y,-z
-x,-y,-z
x,-y,z
1/2+x,1/2+y,z
1/2-x,1/2+y,-z
1/2-x,1/2-y,-z
1/2+x,1/2-y,z
loop_
_atom_site_type_symbol
_atom_site_label
_atom_site_fract_x
_atom_site_fract_y
_atom_site_fract_z
Si Si1 0.434724 0.109027 0.274480
Si Si2 0.632938 0.179106 0.318297
Si Si3 0.590845 0.064584 0.007159
Si Si4 0.246834 0.688628 0.753345
Si Si5 0.106924 0.862821 0.394656
Si Si6 0.671979 0.299500 0.741888
O O1 0.500000 0.078505 0.500000
O O2 0.588615 0.153052 0.519685
O O3 0.405319 0.069131 0.117112
O O4 0.271638 0.152533 0.991509
O O5 0.683696 0.209159 0.521390
O O6 0.798980 0.165557 0.541994
O O7 0.500000 0.210351 0.000000
O O8 0.531616 0.118444 0.171689
O O9 0.781999 0.077774 0.391565
O O10 0.530480 0.000000 0.931808
O O11 0.279962 0.742856 0.893959
O O12 0.405437 0.644442 0.020061
O O13 0.137693 0.830716 0.565113
O O14 0.500000 0.282254 0.500000
#
# Coordination Sequence:
#
# PCOD9206426 Si02
#       6
#     8   8   8   8   8   8
#     4  10  21  37  59  88 122 155 195 243 290 346
#     4   9  20  38  59  84 116 152 195 241 292 345
#     4   9  20  40  64  87 114 152 197 246 299 350
#     4  11  21  36  58  86 121 157 195 239 288 347
#     4  10  21  36  58  87 118 152 194 243 294 347
#     4  11  23  39  60  86 118 159 200 238 285 343
#
# _framework density 22.044893999999999
#
# number of rings (size 3 to 8) (size 9 to 14) (size 15 to 20)
#    0.000    2.000    0.000    4.000    0.000    6.000 
#    0.000   11.667    0.000   25.000    0.000    0.000 
#    0.000    0.000    0.000    0.000    0.000    0.000 
#
# Total GULP energy -133980.856899 kJ/mol
# GULP energy per Si atom -5582.535704 kJ/mol
# Density = 2.199472 g / cm^3
# Si number density = 22.044894 Si / 1000 Ang^3
#
#
#
# Elastic Constant Matrix: (Units=GPa)
#
#
# Indices 1 2 3 4 5 6 
#
# 1 119.0971 13.2245 20.7941 0.0000 -12.0769 0.0000
# 2 13.2245 81.0208 19.3994 0.0000 -0.7696 0.0000
# 3 20.7941 19.3994 87.8603 0.0000 3.8412 0.0000
# 4 0.0000 0.0000 0.0000 13.4508 0.0000 5.5432
# 5 -12.0769 -0.7696 3.8412 0.0000 41.0930 0.0000
# 6 0.0000 0.0000 0.0000 5.5432 0.0000 5.0569
#
#
#
# Elastic Compliance Matrix: (Units=1/GPa)
#
#
# Indices 1 2 3 4 5 6 
#
# 1 0.009158 -0.000970 -0.002079 0.000000 0.002868 0.000000
# 2 -0.000970 0.013145 -0.002682 0.000000 0.000212 0.000000
# 3 -0.002079 -0.002682 0.012546 0.000000 -0.001834 0.000000
# 4 0.000000 0.000000 0.000000 0.135602 0.000000 -0.148641
# 5 0.002868 0.000212 -0.001834 0.000000 0.025353 0.000000
# 6 0.000000 0.000000 0.000000 -0.148641 0.000000 0.360684
#
#
# Mechanical properties :
#
#
# Convention : Reuss Voigt Hill
#
# Bulk Modulus (GPa) = 42.75743 43.86824 43.31283
# Shear Modulus (GPa) = 8.68440 27.55748 18.12094
#
# Velocity S-wave (km/s) = 1.98695 3.53946 2.87017
# Velocity P-wave (km/s) = 4.97008 6.05362 5.53841
#
# Compressibility (1/GPa) = 0.02338775
#
# Stress axis : x y z
#
# Youngs Moduli (GPa) = 109.19512 76.07440 79.70632
#
# Poissons Ratio (x) = 0.07378 0.16568
# Poissons Ratio (y) = 0.10590 0.21378
# Poissons Ratio (z) = 0.22698 0.20404
#
# Static dielectric constant tensor:
#      x y z
#    x 1.840760 0.000000 -0.041430 
#    y 0.000000 1.820650 0.000000 
#    z -0.041430 0.000000 1.815620 
# 
# From -- ./inp_files/170717.got.cif
#   From: 2010.05.17/outbox.cif.g08.bks.cpg/sg12_86_cif.got.tgz:170717.got - 2010.06.03 13:09:07.
