data_PCOD9206736
_publ_section_title
;
Structure prediction by ZEFSAII (Michael W. Deem and Ramdas Pophale) SiO2 
 PCOD9206736
Probable space group: C 2/M
;
_chemical_formula_sum "Si O2"
_cell_formula_units_Z 58
_cell_length_a 23.540192
_cell_length_b 21.048857
_cell_length_c 9.894070
_cell_angle_alpha 90.000000
_cell_angle_beta 144.532558
_cell_angle_gamma 90.000000
_cell_volume 2844.600914
_symmetry_space_group_name_H-M "C 2/M"
_symmetry_group_IT_number 12
_symmetry_cell_setting 'monoclinic'
loop_
_space_group_symop_operation_xyz
x,y,z
-x,y,-z
-x,-y,-z
x,-y,z
1/2+x,1/2+y,z
1/2-x,1/2+y,-z
1/2-x,1/2-y,-z
1/2+x,1/2-y,z
loop_
_atom_site_type_symbol
_atom_site_label
_atom_site_fract_x
_atom_site_fract_y
_atom_site_fract_z
Si Si1 0.500000 0.000000 0.500000
Si Si2 0.422806 0.880472 0.180321
Si Si3 0.162597 0.712951 0.757698
Si Si4 0.011545 0.257183 0.270191
Si Si5 0.175987 0.829415 0.120008
Si Si6 0.894570 0.924761 0.237225
Si Si7 0.399246 0.654228 0.740778
Si Si8 0.782663 0.075631 0.295080
O O1 0.470141 0.943733 0.332142
O O2 0.383770 0.838536 0.232319
O O3 0.493850 0.832684 0.237400
O O4 0.327330 0.898676 0.908969
O O5 0.076456 0.755856 0.529505
O O6 0.218103 0.684273 0.735341
O O7 0.250000 0.750000 0.000000
O O8 0.068736 0.221877 0.260926
O O9 0.903625 0.226058 0.063657
O O10 0.173914 0.839290 0.275751
O O11 0.133774 0.888093 0.952367
O O12 0.817567 0.912750 0.208287
O O13 0.000000 0.905995 0.500000
O O14 0.897020 0.000000 0.215763
O O15 0.354040 0.611691 0.535658
O O16 0.500000 0.627123 0.000000
O O17 0.786918 0.000000 0.325517
#
# Coordination Sequence:
#
# PCOD9206736 Si02
#       8
#     2   8   8   8   8   8   8   8
#     4  12  24  44  72 100 142 168 228 280 352 394
#     4  12  23  42  69 103 135 175 223 288 339 403
#     4  12  23  37  66 101 128 169 217 282 348 394
#     4  11  24  41  61  92 135 172 219 272 339 403
#     4  11  24  40  64  95 135 174 219 281 341 403
#     4  10  21  36  61  95 131 172 217 278 333 399
#     4  10  24  44  62  98 137 185 221 274 342 408
#     4  11  23  41  69  99 136 179 232 276 335 408
#
# _framework density 20.389503999999999
#
# number of rings (size 3 to 8) (size 9 to 14) (size 15 to 20)
#    0.000    0.966    4.828    2.483    1.931    1.379 
#    4.966    0.000    0.000    0.000    0.000    6.276 
#    0.000    0.000    0.000    0.000    0.000    0.000 
#
# Total GULP energy -161789.548955 kJ/mol
# GULP energy per Si atom -5578.949964 kJ/mol
# Density = 2.034310 g / cm^3
# Si number density = 20.389504 Si / 1000 Ang^3
#
#
#
# Elastic Constant Matrix: (Units=GPa)
#
#
# Indices 1 2 3 4 5 6 
#
# 1 104.3596 43.8786 8.1727 0.0000 -15.8002 0.0000
# 2 43.8786 126.1854 48.8074 0.0000 -15.3856 0.0000
# 3 8.1727 48.8074 88.0971 0.0000 -6.8114 0.0000
# 4 0.0000 0.0000 0.0000 21.1377 0.0000 6.9886
# 5 -15.8002 -15.3856 -6.8114 0.0000 26.5455 0.0000
# 6 0.0000 0.0000 0.0000 6.9886 0.0000 14.8665
#
#
#
# Elastic Compliance Matrix: (Units=1/GPa)
#
#
# Indices 1 2 3 4 5 6 
#
# 1 0.011982 -0.004155 0.001587 0.000000 0.005131 0.000000
# 2 -0.004155 0.012083 -0.006079 0.000000 0.002971 0.000000
# 3 0.001587 -0.006079 0.014663 0.000000 0.001184 0.000000
# 4 0.000000 0.000000 0.000000 0.056015 0.000000 -0.026332
# 5 0.005131 0.002971 0.001184 0.000000 0.042751 0.000000
# 6 0.000000 0.000000 0.000000 -0.026332 0.000000 0.079644
#
#
# Mechanical properties :
#
#
# Convention : Reuss Voigt Hill
#
# Bulk Modulus (GPa) = 46.65406 57.81773 52.23589
# Shear Modulus (GPa) = 20.69744 27.02882 23.86313
#
# Velocity S-wave (km/s) = 3.18952 3.64486 3.42477
# Velocity P-wave (km/s) = 6.04112 6.79202 6.42755
#
# Compressibility (1/GPa) = 0.02143436
#
# Stress axis : x y z
#
# Youngs Moduli (GPa) = 83.46129 82.76029 68.19715
#
# Poissons Ratio (x) = 0.34383 -0.10822
# Poissons Ratio (y) = 0.34675 0.41458
# Poissons Ratio (z) = -0.13244 0.50311
#
# Static dielectric constant tensor:
#      x y z
#    x 1.759940 0.000000 0.020500 
#    y 0.000000 1.722910 0.000000 
#    z 0.020500 0.000000 1.749340 
# 
# From -- ./inp_files/99284.got.cif
#   From: 2010.05.17/outbox.cif.g08.bks.cpg/sg12_50_cif.got.tgz:99284.got - 2010.06.03 13:09:07.
