data_PCOD9206717
_publ_section_title
;
Structure prediction by ZEFSAII (Michael W. Deem and Ramdas Pophale) SiO2 
 PCOD9206717
Probable space group: C 2/M
;
_chemical_formula_sum "Si O2"
_cell_formula_units_Z 52
_cell_length_a 12.317991
_cell_length_b 13.561417
_cell_length_c 17.814237
_cell_angle_alpha 90.000000
_cell_angle_beta 41.204076
_cell_angle_gamma 90.000000
_cell_volume 1960.325467
_symmetry_space_group_name_H-M "C 2/M"
_symmetry_group_IT_number 12
_symmetry_cell_setting 'monoclinic'
loop_
_space_group_symop_operation_xyz
x,y,z
-x,y,-z
-x,-y,-z
x,-y,z
1/2+x,1/2+y,z
1/2-x,1/2+y,-z
1/2-x,1/2-y,-z
1/2+x,1/2-y,z
loop_
_atom_site_type_symbol
_atom_site_label
_atom_site_fract_x
_atom_site_fract_y
_atom_site_fract_z
Si Si1 0.784577 0.862972 0.562988
Si Si2 0.917469 0.000000 0.384263
Si Si3 0.271760 0.661543 0.348726
Si Si4 0.258467 0.774691 0.124570
Si Si5 0.904397 0.341968 0.197036
Si Si6 0.070747 0.392304 0.313079
Si Si7 0.213292 0.110845 0.001586
O O1 0.808008 0.746531 0.557896
O O2 0.721486 0.891896 0.679077
O O3 0.624992 0.892673 0.595936
O O4 0.930434 0.915077 0.444463
O O5 0.872964 0.085564 0.344956
O O6 0.386374 0.728983 0.234978
O O7 0.138425 0.615023 0.362128
O O8 0.351868 0.838905 0.138275
O O9 0.134701 0.703886 0.235422
O O10 0.350421 0.692681 0.024305
O O11 0.194125 0.851363 0.096416
O O12 0.086686 0.383942 0.112148
O O13 0.130981 0.500000 0.252407
O O14 0.151650 0.000000 0.023030
#
# Coordination Sequence:
#
# PCOD9206717 Si02
#       7
#     8   4   8   8   8   8   8
#     4  10  22  35  61  91 120 155 199 256 294 356
#     4  12  20  39  60  93 120 158 205 248 310 365
#     4   9  22  36  58  92 124 150 197 262 307 340
#     4  10  21  36  61  90 129 147 197 258 299 338
#     4   9  21  37  55  90 122 159 189 251 301 346
#     4  11  19  39  67  90 113 160 209 248 291 360
#     4  11  22  39  66  91 116 161 209 248 290 358
#
# _framework density 26.526206999999999
#
# number of rings (size 3 to 8) (size 9 to 14) (size 15 to 20)
#    0.923    0.923    3.077    1.385    1.077    2.462 
#    0.000    0.000   16.923   10.154    0.000    0.000 
#    0.000    0.000    0.000    0.000    0.000    0.000 
#
# Total GULP energy -144868.478612 kJ/mol
# GULP energy per Si atom -5571.864562 kJ/mol
# Density = 2.646583 g / cm^3
# Si number density = 26.526207 Si / 1000 Ang^3
#
#
#
# Elastic Constant Matrix: (Units=GPa)
#
#
# Indices 1 2 3 4 5 6 
#
# 1 122.3550 11.9458 55.1121 -0.0002 22.8238 0.0000
# 2 11.9458 146.6906 17.2936 -0.0001 15.4010 0.0000
# 3 55.1121 17.2936 99.9649 -0.0004 30.7072 0.0002
# 4 -0.0002 -0.0001 -0.0004 -218.1116 0.0002 -38.8924
# 5 22.8238 15.4010 30.7072 0.0002 46.9711 -0.0001
# 6 0.0000 0.0000 0.0002 -38.8924 -0.0001 -26.5867
#
#
#
# Elastic Compliance Matrix: (Units=1/GPa)
#
#
# Indices 1 2 3 4 5 6 
#
# 1 0.010984 -0.000064 -0.005520 0.000000 -0.001707 0.000000
# 2 -0.000064 0.007093 -0.000609 0.000000 -0.001896 0.000000
# 3 -0.005520 -0.000609 0.015349 0.000000 -0.007153 0.000000
# 4 0.000000 0.000000 0.000000 -0.006203 0.000000 0.009074
# 5 -0.001707 -0.001896 -0.007153 0.000000 0.027417 0.000000
# 6 0.000000 0.000000 0.000000 0.009074 0.000000 -0.050886
#
#
# Mechanical properties :
#
#
# Convention : Reuss Voigt Hill
#
# Bulk Modulus (GPa) = 47.52976 59.74593 53.63785
# Shear Modulus (GPa) = 215.93675 -20.56818 97.68429
#
# Velocity S-wave (km/s) = 9.03226 -2.78761 6.07499
# Velocity P-wave (km/s) = 11.25756 3.49446 8.33498
#
# Compressibility (1/GPa) = 0.02103945
#
# Stress axis : x y z
#
# Youngs Moduli (GPa) = 91.04042 140.97993 65.14946
#
# Poissons Ratio (x) = 0.00909 0.35963
# Poissons Ratio (y) = 0.00587 0.03968
# Poissons Ratio (z) = 0.50255 0.08587
#
# Static dielectric constant tensor:
#      x y z
#    x 2.111510 0.000000 -0.059480 
#    y 0.000000 2.022640 0.000000 
#    z -0.059480 0.000000 2.173380 
# 
# From -- ./inp_files/269766.got.cif
#   From: 2010.05.17/outbox.cif.g08.bks.cpg/sg12_135_cif.got.tgz:269766.got - 2010.06.03 13:09:07.
