data_PCOD9206052
_publ_section_title
;
Structure prediction by ZEFSAII (Michael W. Deem and Ramdas Pophale) SiO2 
 PCOD9206052
Probable space group: C 2/M
;
_chemical_formula_sum "Si O2"
_cell_formula_units_Z 64
_cell_length_a 28.969914
_cell_length_b 13.355339
_cell_length_c 9.980372
_cell_angle_alpha 90.000000
_cell_angle_beta 104.966906
_cell_angle_gamma 90.000000
_cell_volume 3730.437484
_symmetry_space_group_name_H-M "C 2/M"
_symmetry_group_IT_number 12
_symmetry_cell_setting 'monoclinic'
loop_
_space_group_symop_operation_xyz
x,y,z
-x,y,-z
-x,-y,-z
x,-y,z
1/2+x,1/2+y,z
1/2-x,1/2+y,-z
1/2-x,1/2-y,-z
1/2+x,1/2-y,z
loop_
_atom_site_type_symbol
_atom_site_label
_atom_site_fract_x
_atom_site_fract_y
_atom_site_fract_z
Si Si1 0.975976 0.878962 0.848393
Si Si2 0.208736 0.617841 0.555956
Si Si3 0.368895 0.312332 0.165313
Si Si4 0.239931 0.881853 0.868307
Si Si5 0.794919 0.748711 0.688265
Si Si6 0.181580 0.383532 0.847173
Si Si7 0.874425 0.117112 0.875522
Si Si8 0.537342 0.620812 0.644997
O O1 0.919912 0.860089 0.816542
O O2 0.007402 0.843058 0.750322
O O3 0.979991 0.000000 0.850379
O O4 0.000000 0.839686 0.000000
O O5 0.208533 0.500000 0.526861
O O6 0.184828 0.681033 0.418033
O O7 0.261709 0.664802 0.600088
O O8 0.189811 0.631399 0.693919
O O9 0.315909 0.354805 0.158131
O O10 0.358640 0.194645 0.138427
O O11 0.409601 0.333447 0.306030
O O12 0.385942 0.364561 0.040538
O O13 0.263664 0.820011 0.765057
O O14 0.243819 0.000000 0.844030
O O15 0.270413 0.863076 0.028443
O O16 0.833394 0.806913 0.804394
O O17 0.169664 0.500000 0.859994
O O18 0.861092 0.000000 0.849776
O O19 0.500000 0.643796 0.500000
O O20 0.543663 0.500000 0.651595
#
# Coordination Sequence:
#
# PCOD9206052 Si02
#       8
#     8   8   8   8   8   8   8   8
#     4   9  17  33  52  75 105 139 176 217 272 331
#     4  10  21  37  52  70 110 153 184 224 274 321
#     4  12  20  35  57  84 110 151 193 227 279 339
#     4  11  21  34  54  84 117 148 189 235 271 325
#     4  11  21  35  53  80 111 147 188 229 271 331
#     4  10  21  37  57  81 114 151 190 234 277 330
#     4  11  21  33  57  85 111 145 187 229 276 338
#     4  10  21  36  55  82 115 145 180 234 289 338
#
# _framework density 17.156165000000001
#
# number of rings (size 3 to 8) (size 9 to 14) (size 15 to 20)
#    0.000    1.500    3.750    3.000    0.000    2.000 
#    0.000    0.000    0.000    0.375    0.000    3.500 
#    0.000    0.000    0.000    0.000    0.000    0.000 
#
# Total GULP energy -178391.259028 kJ/mol
# GULP energy per Si atom -5574.726845 kJ/mol
# Density = 1.711712 g / cm^3
# Si number density = 17.156165 Si / 1000 Ang^3
#
#
#
# Elastic Constant Matrix: (Units=GPa)
#
#
# Indices 1 2 3 4 5 6 
#
# 1 83.6757 31.5859 34.2023 0.0000 11.0678 0.0000
# 2 31.5859 84.7960 26.0566 0.0000 5.5420 0.0000
# 3 34.2023 26.0566 79.7952 0.0000 10.1924 0.0000
# 4 0.0000 0.0000 0.0000 22.3714 0.0000 -1.0426
# 5 11.0678 5.5420 10.1924 0.0000 25.6164 0.0000
# 6 0.0000 0.0000 0.0000 -1.0426 0.0000 17.1514
#
#
#
# Elastic Compliance Matrix: (Units=1/GPa)
#
#
# Indices 1 2 3 4 5 6 
#
# 1 0.016126 -0.004198 -0.005022 0.000000 -0.004061 0.000000
# 2 -0.004198 0.014236 -0.002831 0.000000 -0.000140 0.000000
# 3 -0.005022 -0.002831 0.016071 0.000000 -0.003612 0.000000
# 4 0.000000 0.000000 0.000000 0.044827 0.000000 0.002725
# 5 -0.004061 -0.000140 -0.003612 0.000000 0.042259 0.000000
# 6 0.000000 0.000000 0.000000 0.002725 0.000000 0.058470
#
#
# Mechanical properties :
#
#
# Convention : Reuss Voigt Hill
#
# Bulk Modulus (GPa) = 44.78553 47.99517 46.39035
# Shear Modulus (GPa) = 22.36791 23.45599 22.91195
#
# Velocity S-wave (km/s) = 3.61471 3.70158 3.65841
# Velocity P-wave (km/s) = 6.60173 6.80479 6.70403
#
# Compressibility (1/GPa) = 0.02232864
#
# Stress axis : x y z
#
# Youngs Moduli (GPa) = 62.01357 70.24489 62.22499
#
# Poissons Ratio (x) = 0.29488 0.31251
# Poissons Ratio (y) = 0.26033 0.17619
# Poissons Ratio (z) = 0.31145 0.19890
#
# Static dielectric constant tensor:
#      x y z
#    x 1.577390 0.000000 -0.001850 
#    y 0.000000 1.576440 0.000000 
#    z -0.001850 0.000000 1.687530 
# 
# From -- ./inp_files/111241.got.cif
#   From: 2010.05.17/outbox.cif.g08.bks.cpg/sg12_56_cif.got.tgz:111241.got - 2010.06.03 13:09:07.
