data_PCOD9206646
_publ_section_title
;
Structure prediction by ZEFSAII (Michael W. Deem and Ramdas Pophale) SiO2 
 PCOD9206646
Probable space group: C 2/M
;
_chemical_formula_sum "Si O2"
_cell_formula_units_Z 56
_cell_length_a 14.826798
_cell_length_b 9.243168
_cell_length_c 23.370625
_cell_angle_alpha 90.000000
_cell_angle_beta 113.926262
_cell_angle_gamma 90.000000
_cell_volume 2927.636312
_symmetry_space_group_name_H-M "C 2/M"
_symmetry_group_IT_number 12
_symmetry_cell_setting 'monoclinic'
loop_
_space_group_symop_operation_xyz
x,y,z
-x,y,-z
-x,-y,-z
x,-y,z
1/2+x,1/2+y,z
1/2-x,1/2+y,-z
1/2-x,1/2-y,-z
1/2+x,1/2-y,z
loop_
_atom_site_type_symbol
_atom_site_label
_atom_site_fract_x
_atom_site_fract_y
_atom_site_fract_z
Si Si1 0.589996 0.668683 0.443712
Si Si2 0.717333 0.327494 0.293413
Si Si3 0.063309 0.329877 0.321845
Si Si4 0.805246 0.827786 0.096393
Si Si5 0.108223 0.173382 0.004366
Si Si6 0.358597 0.669382 0.418184
Si Si7 0.847897 0.670962 0.222652
O O1 0.612745 0.500000 0.437545
O O2 0.603759 0.764387 0.391346
O O3 0.473437 0.676582 0.429449
O O4 0.645939 0.712908 0.516172
O O5 0.710766 0.500000 0.296445
O O6 0.615893 0.251510 0.283466
O O7 0.794436 0.266393 0.359882
O O8 0.757206 0.291207 0.240758
O O9 0.082600 0.500000 0.324594
O O10 0.946647 0.306491 0.285215
O O11 0.873840 0.797423 0.058555
O O12 0.848706 0.762145 0.165401
O O13 0.794381 0.000000 0.097888
O O14 0.698521 0.754844 0.058223
O O15 0.119157 0.000000 0.015868
O O16 0.000000 0.214485 0.000000
O O17 0.329492 0.500000 0.406248
O O18 0.842614 0.500000 0.207452
#
# Coordination Sequence:
#
# PCOD9206646 Si02
#       7
#     8   8   8   8   8   8   8
#     4   9  18  34  57  83 110 143 184 235 295 351
#     4  11  23  39  58  82 110 148 194 238 291 349
#     4  11  23  39  58  83 112 148 193 240 291 345
#     4  10  21  36  60  91 118 152 194 232 277 327
#     4   9  19  38  62  89 123 157 189 228 274 326
#     4   9  18  34  57  83 110 142 184 237 294 348
#     4  10  23  42  59  79 116 156 191 234 283 338
#
# _framework density 19.128059
#
# number of rings (size 3 to 8) (size 9 to 14) (size 15 to 20)
#    0.000    2.143    1.429    2.143    0.000    5.429 
#    0.000    5.714    0.000    0.000    0.000    0.000 
#    0.000    0.000    0.000    0.000    0.000    0.000 
#
# Total GULP energy -156357.060922 kJ/mol
# GULP energy per Si atom -5584.180747 kJ/mol
# Density = 1.908452 g / cm^3
# Si number density = 19.128059 Si / 1000 Ang^3
#
#
#
# Elastic Constant Matrix: (Units=GPa)
#
#
# Indices 1 2 3 4 5 6 
#
# 1 93.1204 30.0930 18.3466 0.0000 -17.8605 0.0000
# 2 30.0930 54.1593 41.8404 0.0000 -15.6594 0.0000
# 3 18.3466 41.8404 82.9570 0.0000 -17.5221 0.0000
# 4 0.0000 0.0000 0.0000 35.8104 0.0000 1.0809
# 5 -17.8605 -15.6594 -17.5221 0.0000 16.7953 0.0000
# 6 0.0000 0.0000 0.0000 1.0809 0.0000 27.5956
#
#
#
# Elastic Compliance Matrix: (Units=1/GPa)
#
#
# Indices 1 2 3 4 5 6 
#
# 1 0.014728 -0.006766 0.002733 0.000000 0.012205 0.000000
# 2 -0.006766 0.037004 -0.014621 0.000000 0.012052 0.000000
# 3 0.002733 -0.014621 0.021239 0.000000 0.011432 0.000000
# 4 0.000000 0.000000 0.000000 0.027958 0.000000 -0.001095
# 5 0.012205 0.012052 0.011432 0.000000 0.095683 0.000000
# 6 0.000000 0.000000 0.000000 -0.001095 0.000000 0.036281
#
#
# Mechanical properties :
#
#
# Convention : Reuss Voigt Hill
#
# Bulk Modulus (GPa) = 28.04068 45.64406 36.84237
# Shear Modulus (GPa) = 17.72498 25.37071 21.54784
#
# Velocity S-wave (km/s) = 3.04739 3.64587 3.35999
# Velocity P-wave (km/s) = 5.20321 6.45270 5.86135
#
# Compressibility (1/GPa) = 0.03566248
#
# Stress axis : x y z
#
# Youngs Moduli (GPa) = 67.89944 27.02423 47.08289
#
# Poissons Ratio (x) = 0.18284 -0.12869
# Poissons Ratio (y) = 0.45940 0.68842
# Poissons Ratio (z) = -0.18559 0.39513
#
# Static dielectric constant tensor:
#      x y z
#    x 1.690590 0.000000 -0.003490 
#    y 0.000000 1.631450 0.000000 
#    z -0.003490 0.000000 1.649180 
# 
# From -- ./inp_files/338188.got.cif
#   From: 2010.05.17/outbox.cif.g08.bks.cpg/sg12_170_cif.got.tgz:338188.got - 2010.06.03 13:09:07.
