data_PCOD9206810
_publ_section_title
;
Structure prediction by ZEFSAII (Michael W. Deem and Ramdas Pophale) SiO2 
 PCOD9206810
Probable space group: C 2/M
;
_chemical_formula_sum "Si O2"
_cell_formula_units_Z 56
_cell_length_a 13.917506
_cell_length_b 18.597802
_cell_length_c 12.260325
_cell_angle_alpha 90.000000
_cell_angle_beta 119.983910
_cell_angle_gamma 90.000000
_cell_volume 2748.691771
_symmetry_space_group_name_H-M "C 2/M"
_symmetry_group_IT_number 12
_symmetry_cell_setting 'monoclinic'
loop_
_space_group_symop_operation_xyz
x,y,z
-x,y,-z
-x,-y,-z
x,-y,z
1/2+x,1/2+y,z
1/2-x,1/2+y,-z
1/2-x,1/2-y,-z
1/2+x,1/2-y,z
loop_
_atom_site_type_symbol
_atom_site_label
_atom_site_fract_x
_atom_site_fract_y
_atom_site_fract_z
Si Si1 0.642736 0.211609 0.787245
Si Si2 0.218696 0.082761 0.068719
Si Si3 0.128464 0.085487 0.572125
Si Si4 0.449764 0.201769 0.839354
Si Si5 0.233872 0.361956 0.139564
Si Si6 0.500000 0.661624 0.000000
Si Si7 0.000000 0.313675 0.500000
Si Si8 0.696711 0.171797 0.454851
O O1 0.711877 0.138067 0.816747
O O2 0.570118 0.198389 0.854062
O O3 0.717622 0.281302 0.848414
O O4 0.564641 0.224662 0.637193
O O5 0.228713 0.000000 0.107351
O O6 0.255709 0.093244 0.964516
O O7 0.093498 0.111831 0.002059
O O8 0.191663 0.104924 0.720734
O O9 0.202113 0.118951 0.516207
O O10 0.000000 0.111000 0.500000
O O11 0.127022 0.000000 0.559448
O O12 0.393097 0.150109 0.896038
O O13 0.372471 0.183311 0.694014
O O14 0.445016 0.282824 0.882937
O O15 0.105671 0.349110 0.495610
O O16 0.750000 0.250000 0.500000
#
# Coordination Sequence:
#
# PCOD9206810 Si02
#       8
#     8   8   8   8   8   4   4   8
#     4  11  22  41  66  96 125 164 213 268 307 381
#     4  12  26  42  61  92 130 170 209 256 325 385
#     4  10  23  41  63  97 135 167 212 271 328 382
#     4  10  21  36  64  98 116 154 215 262 309 360
#     4  11  21  40  67  92 126 168 212 262 313 380
#     4  12  21  40  62  90 129 158 204 264 315 378
#     4  10  22  40  65  96 125 162 218 262 322 364
#     4  10  22  36  63  96 127 166 214 261 314 383
#
# _framework density 20.373328000000001
#
# number of rings (size 3 to 8) (size 9 to 14) (size 15 to 20)
#    0.000    1.286    2.857    3.643    6.000    0.000 
#    0.000    9.286    0.000    0.000    0.000    0.000 
#    0.000    0.000    0.000    0.000    0.000    0.000 
#
# Total GULP energy -156111.452277 kJ/mol
# GULP energy per Si atom -5575.409010 kJ/mol
# Density = 2.032696 g / cm^3
# Si number density = 20.373328 Si / 1000 Ang^3
#
#
#
# Elastic Constant Matrix: (Units=GPa)
#
#
# Indices 1 2 3 4 5 6 
#
# 1 170.0235 41.1541 32.8532 0.0000 1.6572 0.0000
# 2 41.1541 107.3870 6.2737 0.0000 6.7763 0.0000
# 3 32.8532 6.2737 65.1432 0.0000 -4.7216 0.0000
# 4 0.0000 0.0000 0.0000 27.4846 0.0000 5.9406
# 5 1.6572 6.7763 -4.7216 0.0000 30.1804 0.0000
# 6 0.0000 0.0000 0.0000 5.9406 0.0000 26.8700
#
#
#
# Elastic Compliance Matrix: (Units=1/GPa)
#
#
# Indices 1 2 3 4 5 6 
#
# 1 0.007150 -0.002519 -0.003389 0.000000 -0.000357 0.000000
# 2 -0.002519 0.010409 0.000110 0.000000 -0.002181 0.000000
# 3 -0.003389 0.000110 0.017257 0.000000 0.002861 0.000000
# 4 0.000000 0.000000 0.000000 0.038210 0.000000 -0.008448
# 5 -0.000357 -0.002181 0.002861 0.000000 0.034091 0.000000
# 6 0.000000 0.000000 0.000000 -0.008448 0.000000 0.039084
#
#
# Mechanical properties :
#
#
# Convention : Reuss Voigt Hill
#
# Bulk Modulus (GPa) = 43.06906 55.90172 49.48539
# Shear Modulus (GPa) = 30.20479 34.39183 32.29831
#
# Velocity S-wave (km/s) = 3.85459 4.11308 3.98593
# Velocity P-wave (km/s) = 6.40283 7.07495 6.74726
#
# Compressibility (1/GPa) = 0.02321852
#
# Stress axis : x y z
#
# Youngs Moduli (GPa) = 139.86591 96.07178 57.94841
#
# Poissons Ratio (x) = 0.24205 0.19639
# Poissons Ratio (y) = 0.35239 -0.00638
# Poissons Ratio (z) = 0.47401 -0.01058
#
# Static dielectric constant tensor:
#      x y z
#    x 1.778900 0.000000 -0.006740 
#    y 0.000000 1.676740 0.000000 
#    z -0.006740 0.000000 1.770180 
# 
# From -- ./inp_files/146275.got.cif
#   From: 2010.05.17/outbox.cif.g08.bks.cpg/sg12_74_cif.got.tgz:146275.got - 2010.06.03 13:09:07.
