data_PCOD9206465
_publ_section_title
;
Structure prediction by ZEFSAII (Michael W. Deem and Ramdas Pophale) SiO2 
 PCOD9206465
Probable space group: C 2/M
;
_chemical_formula_sum "Si O2"
_cell_formula_units_Z 48
_cell_length_a 25.481462
_cell_length_b 8.776444
_cell_length_c 12.739981
_cell_angle_alpha 90.000000
_cell_angle_beta 70.644078
_cell_angle_gamma 90.000000
_cell_volume 2688.087776
_symmetry_space_group_name_H-M "C 2/M"
_symmetry_group_IT_number 12
_symmetry_cell_setting 'monoclinic'
loop_
_space_group_symop_operation_xyz
x,y,z
-x,y,-z
-x,-y,-z
x,-y,z
1/2+x,1/2+y,z
1/2-x,1/2+y,-z
1/2-x,1/2-y,-z
1/2+x,1/2-y,z
loop_
_atom_site_type_symbol
_atom_site_label
_atom_site_fract_x
_atom_site_fract_y
_atom_site_fract_z
Si Si1 0.119229 0.682092 0.125662
Si Si2 0.617564 0.317993 0.722510
Si Si3 0.312057 0.682131 0.733543
Si Si4 0.185590 0.316998 0.871980
Si Si5 0.994904 0.183133 0.880637
Si Si6 0.692221 0.181668 0.494534
O O1 0.120626 0.500000 0.135655
O O2 0.142525 0.758606 0.214938
O O3 0.057684 0.736867 0.136614
O O4 0.159145 0.725076 0.001201
O O5 0.622813 0.500000 0.707958
O O6 0.652189 0.264516 0.801227
O O7 0.553073 0.280578 0.785746
O O8 0.643932 0.237228 0.604483
O O9 0.315414 0.500000 0.720596
O O10 0.250627 0.720522 0.819077
O O11 0.317226 0.757662 0.616314
O O12 0.179692 0.500000 0.862625
O O13 0.986844 0.000000 0.882523
O O14 0.000000 0.226805 0.000000
O O15 0.750000 0.250000 0.500000
O O16 0.696095 0.000000 0.492685
#
# Coordination Sequence:
#
# PCOD9206465 Si02
#       6
#     8   8   8   8   8   8
#     4  11  23  38  59  90 125 162 201 246 303 357
#     4  11  22  37  62  91 120 156 201 249 297 350
#     4  11  23  40  61  87 122 163 203 246 300 358
#     4  10  21  36  58  89 124 159 196 244 300 360
#     4  10  21  39  61  88 120 159 202 246 298 356
#     4  12  24  40  62  89 122 157 200 247 297 355
#
# _framework density 17.856559000000001
#
# number of rings (size 3 to 8) (size 9 to 14) (size 15 to 20)
#    0.000    1.167    3.333    3.500    0.000    3.000 
#    0.000    0.833    0.000    5.000    0.000    0.000 
#    0.000    0.000    0.000    0.000    0.000    0.000 
#
# Total GULP energy -134201.096590 kJ/mol
# GULP energy per Si atom -5591.712358 kJ/mol
# Density = 1.781592 g / cm^3
# Si number density = 17.856559 Si / 1000 Ang^3
#
#
#
# Elastic Constant Matrix: (Units=GPa)
#
#
# Indices 1 2 3 4 5 6 
#
# 1 129.2437 65.9373 97.0160 0.0000 11.8381 0.0000
# 2 65.9373 74.1329 67.9272 0.0000 1.6486 0.0000
# 3 97.0160 67.9272 143.1970 0.0000 3.8058 0.0000
# 4 0.0000 0.0000 0.0000 32.0242 0.0000 4.2600
# 5 11.8381 1.6486 3.8058 0.0000 31.3577 0.0000
# 6 0.0000 0.0000 0.0000 4.2600 0.0000 30.2459
#
#
#
# Elastic Compliance Matrix: (Units=1/GPa)
#
#
# Indices 1 2 3 4 5 6 
#
# 1 0.019507 -0.009292 -0.008654 0.000000 -0.005826 0.000000
# 2 -0.009292 0.028287 -0.007200 0.000000 0.002894 0.000000
# 3 -0.008654 -0.007200 0.016217 0.000000 0.001677 0.000000
# 4 0.000000 0.000000 0.000000 0.031823 0.000000 -0.004482
# 5 -0.005826 0.002894 0.001677 0.000000 0.033734 0.000000
# 6 0.000000 0.000000 0.000000 -0.004482 0.000000 0.033694
#
#
# Mechanical properties :
#
#
# Convention : Reuss Voigt Hill
#
# Bulk Modulus (GPa) = 72.88490 89.81495 81.34992
# Shear Modulus (GPa) = 22.92270 26.43844 24.68057
#
# Velocity S-wave (km/s) = 3.58678 3.85203 3.72177
# Velocity P-wave (km/s) = 7.61963 8.37803 8.00782
#
# Compressibility (1/GPa) = 0.01372026
#
# Stress axis : x y z
#
# Youngs Moduli (GPa) = 51.26322 35.35237 61.66394
#
# Poissons Ratio (x) = 0.32849 0.53361
# Poissons Ratio (y) = 0.47633 0.44397
# Poissons Ratio (z) = 0.44361 0.25453
#
# Static dielectric constant tensor:
#      x y z
#    x 1.575390 0.000000 -0.015330 
#    y 0.000000 1.596730 0.000000 
#    z -0.015330 0.000000 1.592170 
# 
# From -- ./inp_files/172424.got.cif
#   From: 2010.05.17/outbox.cif.g08.bks.cpg/sg12_87_cif.got.tgz:172424.got - 2010.06.03 13:09:07.
