data_PCOD9206644
_publ_section_title
;
Structure prediction by ZEFSAII (Michael W. Deem and Ramdas Pophale) SiO2 
 PCOD9206644
Probable space group: C 2/M
;
_chemical_formula_sum "Si O2"
_cell_formula_units_Z 36
_cell_length_a 24.627299
_cell_length_b 11.355201
_cell_length_c 8.823767
_cell_angle_alpha 90.000000
_cell_angle_beta 57.695128
_cell_angle_gamma 90.000000
_cell_volume 2085.612171
_symmetry_space_group_name_H-M "C 2/M"
_symmetry_group_IT_number 12
_symmetry_cell_setting 'monoclinic'
loop_
_space_group_symop_operation_xyz
x,y,z
-x,y,-z
-x,-y,-z
x,-y,z
1/2+x,1/2+y,z
1/2-x,1/2+y,-z
1/2-x,1/2-y,-z
1/2+x,1/2-y,z
loop_
_atom_site_type_symbol
_atom_site_label
_atom_site_fract_x
_atom_site_fract_y
_atom_site_fract_z
Si Si1 0.687161 0.000000 0.280659
Si Si2 0.887102 0.132661 0.553689
Si Si3 0.182798 0.302678 0.544268
Si Si4 0.277743 0.500000 0.859893
Si Si5 0.563788 0.000000 0.241121
Si Si6 0.845277 0.500000 0.176406
Si Si7 0.000000 0.703693 0.500000
O O1 0.690610 0.886757 0.385154
O O2 0.620419 0.000000 0.285140
O O3 0.744134 0.000000 0.072329
O O4 0.861863 0.195536 0.440806
O O5 0.825076 0.110113 0.755009
O O6 0.940327 0.214593 0.547490
O O7 0.911521 0.000000 0.488601
O O8 0.250000 0.250000 0.500000
O O9 0.154421 0.385818 0.717054
O O10 0.221451 0.500000 0.818732
O O11 0.520911 0.115046 0.335008
O O12 0.598044 0.000000 0.029313
#
# Coordination Sequence:
#
# PCOD9206644 Si02
#       7
#     4   8   8   4   4   4   4
#     4  10  21  36  60  91 117 146 196 246 297 331
#     4  10  21  37  58  84 116 158 194 231 286 344
#     4  11  20  36  59  88 123 154 180 239 307 353
#     4   9  20  36  57  94 112 146 199 240 288 339
#     4  10  22  38  63  92 107 152 202 245 284 332
#     4  10  21  37  60  93 119 142 192 248 301 341
#     4  11  21  40  62  82 115 155 200 240 278 341
#
# _framework density 17.261119000000001
#
# number of rings (size 3 to 8) (size 9 to 14) (size 15 to 20)
#    0.667    1.111    4.444    0.333    1.556    2.667 
#    0.000    2.222    0.000    1.333    0.000    0.000 
#    0.000    0.000    0.000    0.000    0.000    0.000 
#
# Total GULP energy -100356.193130 kJ/mol
# GULP energy per Si atom -5575.344063 kJ/mol
# Density = 1.722183 g / cm^3
# Si number density = 17.261119 Si / 1000 Ang^3
#
#
#
# Elastic Constant Matrix: (Units=GPa)
#
#
# Indices 1 2 3 4 5 6 
#
# 1 30.2619 24.9358 30.4364 0.0000 -5.4383 0.0000
# 2 24.9358 126.9469 53.4867 0.0000 -3.1823 0.0000
# 3 30.4364 53.4867 134.3622 0.0000 -4.6534 0.0000
# 4 0.0000 0.0000 0.0000 3.6075 0.0000 -2.9916
# 5 -5.4383 -3.1823 -4.6534 0.0000 26.0497 0.0000
# 6 0.0000 0.0000 0.0000 -2.9916 0.0000 44.6943
#
#
#
# Elastic Compliance Matrix: (Units=1/GPa)
#
#
# Indices 1 2 3 4 5 6 
#
# 1 0.047343 -0.005647 -0.008209 0.000000 0.007727 0.000000
# 2 -0.005647 0.010144 -0.002774 0.000000 -0.000435 0.000000
# 3 -0.008209 -0.002774 0.010400 0.000000 -0.000195 0.000000
# 4 0.000000 0.000000 0.000000 0.293489 0.000000 0.019644
# 5 0.007727 -0.000435 -0.000195 0.000000 0.039913 0.000000
# 6 0.000000 0.000000 0.000000 0.019644 0.000000 0.023689
#
#
# Mechanical properties :
#
#
# Convention : Reuss Voigt Hill
#
# Bulk Modulus (GPa) = 28.87924 56.58764 42.73344
# Shear Modulus (GPa) = 10.64327 27.05111 18.84719
#
# Velocity S-wave (km/s) = 2.48584 3.96304 3.30796
# Velocity P-wave (km/s) = 5.00064 7.33454 6.27701
#
# Compressibility (1/GPa) = 0.03462695
#
# Stress axis : x y z
#
# Youngs Moduli (GPa) = 21.12256 98.57569 96.15728
#
# Poissons Ratio (x) = 0.55667 0.78933
# Poissons Ratio (y) = 0.11928 0.26676
# Poissons Ratio (z) = 0.17339 0.27347
#
# Static dielectric constant tensor:
#      x y z
#    x 1.588010 0.000000 -0.005570 
#    y 0.000000 1.596640 0.000000 
#    z -0.005570 0.000000 1.560370 
# 
# From -- ./inp_files/82793.got.cif
#   From: 2010.05.17/outbox.cif.g08.bks.cpg/sg12_42_cif.got.tgz:82793.got - 2010.06.03 13:09:07.
