data_PCOD9206759
_publ_section_title
;
Structure prediction by ZEFSAII (Michael W. Deem and Ramdas Pophale) SiO2 
 PCOD9206759
Probable space group: C 2/M
;
_chemical_formula_sum "Si O2"
_cell_formula_units_Z 44
_cell_length_a 5.408143
_cell_length_b 22.405013
_cell_length_c 16.063866
_cell_angle_alpha 90.000000
_cell_angle_beta 66.823411
_cell_angle_gamma 90.000000
_cell_volume 1789.364913
_symmetry_space_group_name_H-M "C 2/M"
_symmetry_group_IT_number 12
_symmetry_cell_setting 'monoclinic'
loop_
_space_group_symop_operation_xyz
x,y,z
-x,y,-z
-x,-y,-z
x,-y,z
1/2+x,1/2+y,z
1/2-x,1/2+y,-z
1/2-x,1/2-y,-z
1/2+x,1/2-y,z
loop_
_atom_site_type_symbol
_atom_site_label
_atom_site_fract_x
_atom_site_fract_y
_atom_site_fract_z
Si Si1 0.059301 0.837608 0.174049
Si Si2 0.808211 0.564559 0.707344
Si Si3 0.435479 0.586310 0.602379
Si Si4 0.985569 0.433068 0.902857
Si Si5 0.496628 0.719663 0.651212
Si Si6 0.000000 0.850183 0.000000
O O1 0.277103 0.890358 0.157280
O O2 0.107808 0.788643 0.239022
O O3 0.790383 0.874246 0.235614
O O4 0.084989 0.816606 0.074064
O O5 0.721250 0.500000 0.756123
O O6 0.661069 0.565114 0.637524
O O7 0.130289 0.566893 0.661703
O O8 0.500000 0.569247 0.500000
O O9 0.452470 0.657429 0.611524
O O10 0.997362 0.500000 0.867706
O O11 0.715133 0.395486 0.931860
O O12 0.000000 0.438781 0.000000
O O13 0.808245 0.735527 0.624602
#
# Coordination Sequence:
#
# PCOD9206759 Si02
#       6
#     8   8   8   8   8   4
#     4  10  23  40  62  91 132 174 226 277 327 388
#     4  11  24  41  67 103 144 184 215 257 325 404
#     4  11  25  45  70 102 135 171 222 274 329 403
#     4   9  18  33  55  88 125 164 209 261 320 380
#     4  11  25  45  70  95 128 170 223 286 347 391
#     4  10  21  36  62  90 132 172 222 274 321 380
#
# _framework density 24.589731
#
# number of rings (size 3 to 8) (size 9 to 14) (size 15 to 20)
#    0.000    1.636    0.000    4.091    7.636    5.091 
#    0.000    0.909    0.000    0.000    0.000    0.000 
#    0.000    0.000    0.000    0.000    0.000    0.000 
#
# Total GULP energy -122861.237229 kJ/mol
# GULP energy per Si atom -5584.601692 kJ/mol
# Density = 2.453376 g / cm^3
# Si number density = 24.589731 Si / 1000 Ang^3
#
#
#
# Elastic Constant Matrix: (Units=GPa)
#
#
# Indices 1 2 3 4 5 6 
#
# 1 127.9177 10.7903 47.6294 0.0000 21.2843 0.0000
# 2 10.7903 44.1007 -6.2535 0.0000 2.6230 0.0000
# 3 47.6294 -6.2535 84.1095 0.0000 31.1974 0.0000
# 4 0.0000 0.0000 0.0000 -2.3863 0.0000 -5.4296
# 5 21.2843 2.6230 31.1974 0.0000 49.1683 0.0000
# 6 0.0000 0.0000 0.0000 -5.4296 0.0000 27.9220
#
#
#
# Elastic Compliance Matrix: (Units=1/GPa)
#
#
# Indices 1 2 3 4 5 6 
#
# 1 0.010402 -0.003353 -0.005932 0.000000 -0.000560 0.000000
# 2 -0.003353 0.024344 0.004776 0.000000 -0.002878 0.000000
# 3 -0.005932 0.004776 0.019284 0.000000 -0.009923 0.000000
# 4 0.000000 0.000000 0.000000 -0.290517 0.000000 -0.056493
# 5 -0.000560 -0.002878 -0.009923 0.000000 0.027030 0.000000
# 6 0.000000 0.000000 0.000000 -0.056493 0.000000 0.024829
#
#
# Mechanical properties :
#
#
# Convention : Reuss Voigt Hill
#
# Bulk Modulus (GPa) = 22.21612 40.05114 31.13363
# Shear Modulus (GPa) = -31.13214 28.53826 -1.29694
#
# Velocity S-wave (km/s) = -3.56204 3.41042 -0.72703
# Velocity P-wave (km/s) = 2.80413 5.64190 3.46178
#
# Compressibility (1/GPa) = 0.04501237
#
# Stress axis : x y z
#
# Youngs Moduli (GPa) = 96.13187 41.07758 51.85637
#
# Poissons Ratio (x) = 0.13773 0.30762
# Poissons Ratio (y) = 0.32233 -0.24767
# Poissons Ratio (z) = 0.57027 -0.19619
#
# Static dielectric constant tensor:
#      x y z
#    x 2.347210 0.000000 0.447120 
#    y 0.000000 1.954300 0.000000 
#    z 0.447120 0.000000 2.974640 
# 
# From -- ./inp_files/253125.got.cif
#   From: 2010.05.17/outbox.cif.g08.bks.cpg/sg12_127_cif.got.tgz:253125.got - 2010.06.03 13:09:07.
