data_PCOD9206131
_publ_section_title
;
Structure prediction by ZEFSAII (Michael W. Deem and Ramdas Pophale) SiO2 
 PCOD9206131
Probable space group: C 2/M
;
_chemical_formula_sum "Si O2"
_cell_formula_units_Z 58
_cell_length_a 22.989626
_cell_length_b 7.720483
_cell_length_c 28.070427
_cell_angle_alpha 90.000000
_cell_angle_beta 147.762257
_cell_angle_gamma 90.000000
_cell_volume 2657.698729
_symmetry_space_group_name_H-M "C 2/M"
_symmetry_group_IT_number 12
_symmetry_cell_setting 'monoclinic'
loop_
_space_group_symop_operation_xyz
x,y,z
-x,y,-z
-x,-y,-z
x,-y,z
1/2+x,1/2+y,z
1/2-x,1/2+y,-z
1/2-x,1/2-y,-z
1/2+x,1/2-y,z
loop_
_atom_site_type_symbol
_atom_site_label
_atom_site_fract_x
_atom_site_fract_y
_atom_site_fract_z
Si Si1 0.500000 0.500000 0.000000
Si Si2 0.523737 0.200563 0.280835
Si Si3 0.071914 0.787556 0.160800
Si Si4 0.960478 0.711641 0.524902
Si Si5 0.900134 0.711339 0.288364
Si Si6 0.717386 0.701475 0.350983
Si Si7 0.350563 0.810156 0.889457
Si Si8 0.623245 0.293540 0.909019
O O1 0.414005 0.652491 0.957402
O O2 0.474412 0.269067 0.295560
O O3 0.632162 0.285334 0.334919
O O4 0.431964 0.215742 0.176350
O O5 0.550486 0.000000 0.306694
O O6 0.155157 0.733708 0.260677
O O7 0.111693 0.705882 0.139540
O O8 0.952728 0.741254 0.098766
O O9 0.075455 0.000000 0.155310
O O10 0.961431 0.500000 0.527689
O O11 0.836095 0.774037 0.444739
O O12 0.000000 0.762313 0.500000
O O13 0.042482 0.767488 0.623019
O O14 0.893759 0.500000 0.283344
O O15 0.778418 0.780236 0.198704
O O16 0.734997 0.500000 0.352272
O O17 0.376628 0.000000 0.926744
O O18 0.610322 0.500000 0.896153
O O19 0.750000 0.250000 0.000000
#
# Coordination Sequence:
#
# PCOD9206131 Si02
#       8
#     2   8   8   8   8   8   8   8
#     4  12  26  48  64  86 134 160 202 276 306 388
#     4  10  21  36  56  82 122 171 207 253 328 381
#     4   9  18  37  60  84 122 162 195 260 322 366
#     4   9  17  32  60  92 119 164 222 261 316 386
#     4  10  21  40  61  86 129 172 206 264 326 378
#     4   9  18  34  60  90 121 162 215 263 310 372
#     4  12  25  42  68  94 120 167 215 256 324 386
#     4  10  21  37  60  86 116 154 201 256 316 371
#
# _framework density 21.82339
#
# number of rings (size 3 to 8) (size 9 to 14) (size 15 to 20)
#    0.000    2.069    1.379    2.690    0.000    7.724 
#    0.000    0.690    0.000    1.655    0.000    0.000 
#    0.000    0.000    0.000    0.000    0.000    0.000 
#
# Total GULP energy -161803.165495 kJ/mol
# GULP energy per Si atom -5579.419500 kJ/mol
# Density = 2.177372 g / cm^3
# Si number density = 21.823390 Si / 1000 Ang^3
#
#
#
# Elastic Constant Matrix: (Units=GPa)
#
#
# Indices 1 2 3 4 5 6 
#
# 1 89.7079 0.2515 26.8921 0.0000 0.0466 0.0000
# 2 0.2515 79.2349 11.7794 0.0004 1.1156 0.0003
# 3 26.8921 11.7794 101.5194 0.0000 32.0925 0.0000
# 4 0.0000 0.0004 0.0000 14.6096 0.0000 9.3840
# 5 0.0466 1.1156 32.0925 0.0000 32.4719 0.0000
# 6 0.0000 0.0003 0.0000 9.3840 0.0000 24.7883
#
#
#
# Elastic Compliance Matrix: (Units=1/GPa)
#
#
# Indices 1 2 3 4 5 6 
#
# 1 0.012628 0.000628 -0.004953 0.000000 0.004855 0.000000
# 2 0.000628 0.012924 -0.002218 0.000000 0.001747 0.000000
# 3 -0.004953 -0.002218 0.016570 0.000000 -0.016293 0.000000
# 4 0.000000 0.000000 0.000000 0.090439 0.000000 -0.034237
# 5 0.004855 0.001747 -0.016293 0.000000 0.046832 0.000000
# 6 0.000000 0.000000 0.000000 -0.034237 0.000000 0.053303
#
#
# Mechanical properties :
#
#
# Convention : Reuss Voigt Hill
#
# Bulk Modulus (GPa) = 34.44035 38.70090 36.57063
# Shear Modulus (GPa) = 19.57252 29.80992 24.69122
#
# Velocity S-wave (km/s) = 2.99801 3.69990 3.36729
# Velocity P-wave (km/s) = 5.27255 6.00204 5.64908
#
# Compressibility (1/GPa) = 0.02903571
#
# Stress axis : x y z
#
# Youngs Moduli (GPa) = 79.19107 77.37607 60.34860
#
# Poissons Ratio (x) = -0.04858 0.29889
# Poissons Ratio (y) = -0.04972 0.13387
# Poissons Ratio (z) = 0.39221 0.17164
#
# Static dielectric constant tensor:
#      x y z
#    x 1.814660 0.000000 -0.010620 
#    y 0.000000 1.836550 0.000000 
#    z -0.010620 0.000000 1.820440 
# 
# From -- ./inp_files/382079.got.cif
#   From: 2010.05.17/outbox.cif.g08.bks.cpg/sg12_192_cif.got.tgz:382079.got - 2010.06.03 13:09:07.
