data_PCOD9206159
_publ_section_title
;
Structure prediction by ZEFSAII (Michael W. Deem and Ramdas Pophale) SiO2 
 PCOD9206159
Probable space group: C 2/M
;
_chemical_formula_sum "Si O2"
_cell_formula_units_Z 56
_cell_length_a 22.384885
_cell_length_b 9.778839
_cell_length_c 16.671349
_cell_angle_alpha 90.000000
_cell_angle_beta 49.608068
_cell_angle_gamma 90.000000
_cell_volume 2779.436140
_symmetry_space_group_name_H-M "C 2/M"
_symmetry_group_IT_number 12
_symmetry_cell_setting 'monoclinic'
loop_
_space_group_symop_operation_xyz
x,y,z
-x,y,-z
-x,-y,-z
x,-y,z
1/2+x,1/2+y,z
1/2-x,1/2+y,-z
1/2-x,1/2-y,-z
1/2+x,1/2-y,z
loop_
_atom_site_type_symbol
_atom_site_label
_atom_site_fract_x
_atom_site_fract_y
_atom_site_fract_z
Si Si1 0.581492 0.850627 0.093581
Si Si2 0.907621 0.660310 0.290393
Si Si3 0.890322 0.649039 0.571942
Si Si4 0.463792 0.654709 0.388324
Si Si5 0.797445 0.838227 0.097865
Si Si6 0.123941 0.724181 0.233232
Si Si7 0.293403 0.345279 0.291440
O O1 0.488118 0.831090 0.168792
O O2 0.600436 0.851698 0.172124
O O3 0.602757 0.000000 0.041245
O O4 0.631147 0.730334 0.010935
O O5 0.893824 0.500000 0.320073
O O6 0.925809 0.748931 0.353475
O O7 0.837384 0.731629 0.304139
O O8 0.920548 0.500000 0.519156
O O9 0.938802 0.771385 0.491830
O O10 0.887138 0.651318 0.671216
O O11 0.800622 0.663312 0.620692
O O12 0.435579 0.500000 0.408487
O O13 0.558068 0.658466 0.295126
O O14 0.717410 0.756062 0.147099
O O15 0.811112 0.829621 0.181361
O O16 0.786258 0.000000 0.088184
O O17 0.317222 0.500000 0.294924
#
# Coordination Sequence:
#
# PCOD9206159 Si02
#       7
#     8   8   8   8   8   8   8
#     4  10  21  36  56  84 115 148 190 237 283 333
#     4  10  22  40  61  84 112 150 193 235 283 338
#     4  10  21  38  61  85 113 152 192 232 282 338
#     4  11  24  39  58  86 117 149 188 235 286 339
#     4  10  21  37  59  86 115 151 192 232 281 338
#     4  10  21  37  58  83 115 150 189 231 277 335
#     4   9  20  39  60  84 114 149 191 236 282 335
#
# _framework density 20.147970999999998
#
# number of rings (size 3 to 8) (size 9 to 14) (size 15 to 20)
#    0.000    2.000    0.000    3.857    0.000   10.286 
#    0.000    5.714    0.000    0.000    0.000    0.000 
#    0.000    0.000    0.000    0.000    0.000    0.000 
#
# Total GULP energy -156215.634744 kJ/mol
# GULP energy per Si atom -5579.129812 kJ/mol
# Density = 2.010211 g / cm^3
# Si number density = 20.147971 Si / 1000 Ang^3
#
#
#
# Elastic Constant Matrix: (Units=GPa)
#
#
# Indices 1 2 3 4 5 6 
#
# 1 99.8957 55.1155 15.1456 0.0000 -8.6836 0.0000
# 2 55.1155 144.4501 50.0983 0.0001 -2.9343 -0.0002
# 3 15.1456 50.0983 67.5642 0.0000 -5.9002 0.0000
# 4 0.0000 0.0001 0.0000 9.6912 0.0000 -8.2233
# 5 -8.6836 -2.9343 -5.9002 0.0000 11.9677 0.0000
# 6 0.0000 -0.0002 0.0000 -8.2233 0.0000 4.6091
#
#
#
# Elastic Compliance Matrix: (Units=1/GPa)
#
#
# Indices 1 2 3 4 5 6 
#
# 1 0.013694 -0.005729 0.002009 0.000000 0.009522 0.000000
# 2 -0.005729 0.011732 -0.007865 0.000000 -0.005158 0.000000
# 3 0.002009 -0.007865 0.021047 0.000000 0.009906 0.000000
# 4 0.000000 0.000000 0.000000 -0.200785 0.000001 -0.358231
# 5 0.009522 -0.005158 0.009906 0.000001 0.094087 0.000001
# 6 0.000000 0.000000 0.000000 -0.358231 0.000001 -0.422176
#
#
# Mechanical properties :
#
#
# Convention : Reuss Voigt Hill
#
# Bulk Modulus (GPa) = 42.90998 61.40318 52.15658
# Shear Modulus (GPa) = -11.07508 18.02363 3.47427
#
# Velocity S-wave (km/s) = -2.34708 2.99417 1.31458
# Velocity P-wave (km/s) = 3.74147 6.51887 5.31480
#
# Compressibility (1/GPa) = 0.02330460
#
# Stress axis : x y z
#
# Youngs Moduli (GPa) = 73.02393 85.24008 47.51208
#
# Poissons Ratio (x) = 0.48830 -0.09547
# Poissons Ratio (y) = 0.41832 0.37369
# Poissons Ratio (z) = -0.14674 0.67042
#
# Static dielectric constant tensor:
#      x y z
#    x 1.720380 0.000000 -0.008120 
#    y 0.000000 1.690670 0.000000 
#    z -0.008120 0.000000 1.716650 
# 
# From -- ./inp_files/288228.got.cif
#   From: 2010.05.17/outbox.cif.g08.bks.cpg/sg12_145_cif.got.tgz:288228.got - 2010.06.03 13:09:07.
