data_PCOD9206958
_publ_section_title
;
Structure prediction by ZEFSAII (Michael W. Deem and Ramdas Pophale) SiO2 
 PCOD9206958
Probable space group: C 2/M
;
_chemical_formula_sum "Si O2"
_cell_formula_units_Z 56
_cell_length_a 30.778102
_cell_length_b 8.702459
_cell_length_c 12.699950
_cell_angle_alpha 90.000000
_cell_angle_beta 105.804614
_cell_angle_gamma 90.000000
_cell_volume 3273.025640
_symmetry_space_group_name_H-M "C 2/M"
_symmetry_group_IT_number 12
_symmetry_cell_setting 'monoclinic'
loop_
_space_group_symop_operation_xyz
x,y,z
-x,y,-z
-x,-y,-z
x,-y,z
1/2+x,1/2+y,z
1/2-x,1/2+y,-z
1/2-x,1/2-y,-z
1/2+x,1/2-y,z
loop_
_atom_site_type_symbol
_atom_site_label
_atom_site_fract_x
_atom_site_fract_y
_atom_site_fract_z
Si Si1 0.790551 0.684706 0.233874
Si Si2 0.638305 0.317123 0.302372
Si Si3 0.862829 0.684184 0.107356
Si Si4 0.192802 0.682895 0.141689
Si Si5 0.703429 0.184069 0.516015
Si Si6 0.451070 0.816328 0.849373
Si Si7 0.952341 0.182886 0.085164
O O1 0.784165 0.500000 0.220581
O O2 0.832311 0.727282 0.186977
O O3 0.744575 0.765918 0.167729
O O4 0.798935 0.720817 0.361782
O O5 0.634669 0.500000 0.303058
O O6 0.669786 0.267985 0.224676
O O7 0.662645 0.254596 0.422430
O O8 0.589624 0.242775 0.249143
O O9 0.870389 0.500000 0.114547
O O10 0.910544 0.767981 0.129509
O O11 0.834151 0.718730 0.982918
O O12 0.189911 0.500000 0.157960
O O13 0.750000 0.250000 0.500000
O O14 0.703544 0.000000 0.504118
O O15 0.499905 0.753192 0.847715
O O16 0.451503 0.000000 0.854214
O O17 0.443449 0.751746 0.962592
O O18 0.956010 0.000000 0.079446
#
# Coordination Sequence:
#
# PCOD9206958 Si02
#       7
#     8   8   8   8   8   8   8
#     4  10  22  38  56  78 111 151 193 232 275 328
#     4  12  23  36  56  82 114 147 185 232 280 331
#     4  10  21  37  55  80 114 153 188 226 275 333
#     4  11  21  33  54  81 113 149 186 225 277 335
#     4  11  22  37  57  81 110 148 190 236 280 325
#     4  11  21  36  57  82 112 146 183 228 280 332
#     4  11  21  34  55  84 115 147 182 224 275 333
#
# _framework density 17.109552000000001
#
# number of rings (size 3 to 8) (size 9 to 14) (size 15 to 20)
#    0.000    1.143    2.857    6.000    0.000    1.714 
#    0.000    0.000    0.000    0.857    0.000    6.000 
#    0.000    0.000    0.000    0.000    0.000    0.000 
#
# Total GULP energy -156532.138895 kJ/mol
# GULP energy per Si atom -5590.433532 kJ/mol
# Density = 1.707061 g / cm^3
# Si number density = 17.109552 Si / 1000 Ang^3
#
#
#
# Elastic Constant Matrix: (Units=GPa)
#
#
# Indices 1 2 3 4 5 6 
#
# 1 141.3469 60.1439 53.5559 0.0000 13.3704 0.0000
# 2 60.1439 99.7617 36.4035 0.0000 4.3766 0.0000
# 3 53.5559 36.4035 54.1463 0.0000 8.1936 0.0000
# 4 0.0000 0.0000 0.0000 19.5638 0.0000 6.6054
# 5 13.3704 4.3766 8.1936 0.0000 32.3829 0.0000
# 6 0.0000 0.0000 0.0000 6.6054 0.0000 31.8047
#
#
#
# Elastic Compliance Matrix: (Units=1/GPa)
#
#
# Indices 1 2 3 4 5 6 
#
# 1 0.012560 -0.004061 -0.009349 0.000000 -0.002271 0.000000
# 2 -0.004061 0.014603 -0.005985 0.000000 0.001218 0.000000
# 3 -0.009349 -0.005985 0.032269 0.000000 -0.003496 0.000000
# 4 0.000000 0.000000 0.000000 0.054969 0.000000 -0.011416
# 5 -0.002271 0.001218 -0.003496 0.000000 0.032538 0.000000
# 6 0.000000 0.000000 0.000000 -0.011416 0.000000 0.033813
#
#
# Mechanical properties :
#
#
# Convention : Reuss Voigt Hill
#
# Bulk Modulus (GPa) = 48.44779 66.16238 57.30508
# Shear Modulus (GPa) = 22.08262 26.42704 24.25483
#
# Velocity S-wave (km/s) = 3.59647 3.93438 3.76921
# Velocity P-wave (km/s) = 6.75454 7.70668 7.24627
#
# Compressibility (1/GPa) = 0.02064078
#
# Stress axis : x y z
#
# Youngs Moduli (GPa) = 79.61839 68.48014 30.98995
#
# Poissons Ratio (x) = 0.27809 0.28973
# Poissons Ratio (y) = 0.32332 0.18548
# Poissons Ratio (z) = 0.74435 0.40987
#
# Static dielectric constant tensor:
#      x y z
#    x 1.571560 0.000000 0.001530 
#    y 0.000000 1.573840 0.000000 
#    z 0.001530 0.000000 1.558440 
# 
# From -- ./inp_files/181151.got.cif
#   From: 2010.05.17/outbox.cif.g08.bks.cpg/sg12_91_cif.got.tgz:181151.got - 2010.06.03 13:09:07.
