data_PCOD9206726
_publ_section_title
;
Structure prediction by ZEFSAII (Michael W. Deem and Ramdas Pophale) SiO2 
 PCOD9206726
Probable space group: C 2/M
;
_chemical_formula_sum "Si O2"
_cell_formula_units_Z 52
_cell_length_a 10.865368
_cell_length_b 20.727485
_cell_length_c 20.904182
_cell_angle_alpha 90.000000
_cell_angle_beta 151.430097
_cell_angle_gamma 90.000000
_cell_volume 2251.446254
_symmetry_space_group_name_H-M "C 2/M"
_symmetry_group_IT_number 12
_symmetry_cell_setting 'monoclinic'
loop_
_space_group_symop_operation_xyz
x,y,z
-x,y,-z
-x,-y,-z
x,-y,z
1/2+x,1/2+y,z
1/2-x,1/2+y,-z
1/2-x,1/2-y,-z
1/2+x,1/2-y,z
loop_
_atom_site_type_symbol
_atom_site_label
_atom_site_fract_x
_atom_site_fract_y
_atom_site_fract_z
Si Si1 0.136992 0.572748 0.769590
Si Si2 0.213720 0.235194 0.384403
Si Si3 0.112147 0.571761 0.979911
Si Si4 0.763753 0.203799 0.081522
Si Si5 0.191224 0.353730 0.461870
Si Si6 0.000000 0.823467 0.000000
Si Si7 0.707134 0.426890 0.682483
O O1 0.240188 0.500000 0.819189
O O2 0.021674 0.592617 0.648606
O O3 0.892289 0.575476 0.705999
O O4 0.317519 0.628537 0.878549
O O5 0.500000 0.258368 0.500000
O O6 0.105023 0.290445 0.381962
O O7 0.262810 0.170083 0.445901
O O8 0.018526 0.220607 0.238232
O O9 0.216113 0.500000 0.009025
O O10 0.884231 0.586592 0.825291
O O11 0.298591 0.633934 0.064074
O O12 0.000000 0.563776 0.000000
O O13 0.655844 0.277417 0.019398
O O14 0.500000 0.186729 0.000000
O O15 0.469247 0.379706 0.568169
O O16 0.607346 0.500000 0.642994
#
# Coordination Sequence:
#
# PCOD9206726 Si02
#       7
#     8   8   8   8   8   4   8
#     4  11  22  39  60  86 121 161 204 256 310 366
#     4  11  23  39  60  91 127 162 203 251 311 369
#     4   9  17  33  58  87 118 150 190 246 298 351
#     4   9  18  36  61  86 120 154 200 244 300 363
#     4  11  21  37  63  86 122 160 203 254 304 362
#     4  10  21  38  59  84 120 160 198 254 305 374
#     4  10  21  36  61  93 117 153 207 256 307 365
#
# _framework density 23.096264000000001
#
# number of rings (size 3 to 8) (size 9 to 14) (size 15 to 20)
#    0.462    1.385    1.538    3.923    0.000    1.231 
#    2.769    1.538    0.000    3.231    0.000    0.000 
#    0.000    0.000    0.000    0.000    0.000    0.000 
#
# Total GULP energy -144858.876451 kJ/mol
# GULP energy per Si atom -5571.495248 kJ/mol
# Density = 2.304370 g / cm^3
# Si number density = 23.096264 Si / 1000 Ang^3
#
#
#
# Elastic Constant Matrix: (Units=GPa)
#
#
# Indices 1 2 3 4 5 6 
#
# 1 12.7197 7.8431 -10.2036 -0.0008 4.5762 0.0034
# 2 7.8431 186.3310 70.4650 -0.0053 -13.6542 0.0078
# 3 -10.2036 70.4650 97.7209 -0.0027 -6.8564 0.0239
# 4 -0.0008 -0.0053 -0.0027 -67.6684 -0.0151 7.1881
# 5 4.5762 -13.6542 -6.8564 -0.0151 17.1613 0.0025
# 6 0.0034 0.0078 0.0239 7.1881 0.0025 18.9515
#
#
#
# Elastic Compliance Matrix: (Units=1/GPa)
#
#
# Indices 1 2 3 4 5 6 
#
# 1 0.117678 -0.015469 0.020964 0.000003 -0.035311 -0.000037
# 2 -0.015469 0.009669 -0.007982 -0.000001 0.008629 0.000008
# 3 0.020964 -0.007982 0.017840 -0.000002 -0.004813 -0.000022
# 4 0.000003 -0.000001 -0.000002 -0.014206 -0.000016 0.005388
# 5 -0.035311 0.008629 -0.004813 -0.000016 0.072629 0.000005
# 6 -0.000037 0.000008 -0.000022 0.005388 0.000005 0.050723
#
#
# Mechanical properties :
#
#
# Convention : Reuss Voigt Hill
#
# Bulk Modulus (GPa) = 7.13198 48.10895 27.62046
# Shear Modulus (GPa) = 16.33757 8.93337 12.63547
#
# Velocity S-wave (km/s) = 2.66253 1.96883 2.34151
# Velocity P-wave (km/s) = 3.54213 5.10327 4.39261
#
# Compressibility (1/GPa) = 0.14021353
#
# Stress axis : x y z
#
# Youngs Moduli (GPa) = 8.49779 103.42667 56.05370
#
# Poissons Ratio (x) = 1.59991 -1.17513
# Poissons Ratio (y) = 0.13145 0.44741
# Poissons Ratio (z) = -0.17815 0.82552
#
# Static dielectric constant tensor:
#      x y z
#    x 2.044660 0.000000 -0.027530 
#    y 0.000000 1.963780 -0.000010 
#    z -0.027530 -0.000010 1.828720 
# 
# From -- ./inp_files/362048.got.cif
#   From: 2010.05.17/outbox.cif.g08.bks.cpg/sg12_182_cif.got.tgz:362048.got - 2010.06.03 13:09:07.
