data_PCOD9206548
_publ_section_title
;
Structure prediction by ZEFSAII (Michael W. Deem and Ramdas Pophale) SiO2 
 PCOD9206548
Probable space group: C 2/M
;
_chemical_formula_sum "Si O2"
_cell_formula_units_Z 48
_cell_length_a 8.328963
_cell_length_b 14.026504
_cell_length_c 26.227996
_cell_angle_alpha 90.000000
_cell_angle_beta 135.044352
_cell_angle_gamma 90.000000
_cell_volume 2164.980759
_symmetry_space_group_name_H-M "C 2/M"
_symmetry_group_IT_number 12
_symmetry_cell_setting 'monoclinic'
loop_
_space_group_symop_operation_xyz
x,y,z
-x,y,-z
-x,-y,-z
x,-y,z
1/2+x,1/2+y,z
1/2-x,1/2+y,-z
1/2-x,1/2-y,-z
1/2+x,1/2-y,z
loop_
_atom_site_type_symbol
_atom_site_label
_atom_site_fract_x
_atom_site_fract_y
_atom_site_fract_z
Si Si1 0.255372 0.789176 0.921319
Si Si2 0.995925 0.788216 0.445020
Si Si3 0.617040 0.394010 0.791444
Si Si4 0.393004 0.895799 0.277802
Si Si5 0.178490 0.886855 0.122224
Si Si6 0.951721 0.804404 0.651921
O O1 0.244947 0.831911 0.861890
O O2 0.237033 0.675486 0.906656
O O3 0.056548 0.838655 0.909774
O O4 0.500000 0.808795 0.000000
O O5 0.250000 0.750000 0.500000
O O6 0.959894 0.839008 0.382743
O O7 0.000000 0.841677 0.500000
O O8 0.821508 0.697994 0.406981
O O9 0.713872 0.500000 0.810575
O O10 0.362058 0.399025 0.756998
O O11 0.583956 0.351694 0.728036
O O12 0.356811 0.877504 0.209349
O O13 0.507828 0.808891 0.332201
O O14 0.497030 0.000000 0.308778
O O15 0.147474 0.000000 0.106014
#
# Coordination Sequence:
#
# PCOD9206548 Si02
#       6
#     8   8   8   8   8   8
#     4  11  22  40  64  89 130 173 211 266 326 374
#     4   9  20  34  57  89 116 152 191 228 302 371
#     4  10  21  36  59  89 117 157 213 253 301 370
#     4   9  18  34  58  85 113 152 197 247 306 353
#     4  10  22  40  61  89 127 166 213 267 319 377
#     4  11  17  35  63  80 115 155 191 249 290 356
#
# _framework density 22.171098000000001
#
# number of rings (size 3 to 8) (size 9 to 14) (size 15 to 20)
#    0.000    2.000    3.333    2.000    0.000    1.667 
#    0.000    2.500    0.000   20.000    0.000    0.000 
#    0.000    0.000    0.000    0.000    0.000    0.000 
#
# Total GULP energy -133904.589827 kJ/mol
# GULP energy per Si atom -5579.357909 kJ/mol
# Density = 2.212064 g / cm^3
# Si number density = 22.171098 Si / 1000 Ang^3
#
#
#
# Elastic Constant Matrix: (Units=GPa)
#
#
# Indices 1 2 3 4 5 6 
#
# 1 70.4879 21.4594 29.0516 0.0000 -9.5571 0.0000
# 2 21.4594 121.8989 33.6020 0.0000 1.5448 0.0000
# 3 29.0516 33.6020 100.2329 0.0000 -16.5294 0.0000
# 4 0.0000 0.0000 0.0000 0.6483 0.0000 4.7225
# 5 -9.5571 1.5448 -16.5294 0.0000 18.3506 0.0000
# 6 0.0000 0.0000 0.0000 4.7225 0.0000 17.0689
#
#
#
# Elastic Compliance Matrix: (Units=1/GPa)
#
#
# Indices 1 2 3 4 5 6 
#
# 1 0.017001 -0.002197 -0.003172 0.000000 0.006183 0.000000
# 2 -0.002197 0.009593 -0.003407 0.000000 -0.005021 0.000000
# 3 -0.003172 -0.003407 0.013874 0.000000 0.011132 0.000000
# 4 0.000000 0.000000 0.000000 -1.519251 0.000000 0.420331
# 5 0.006183 -0.005021 0.011132 0.000000 0.068164 0.000000
# 6 0.000000 0.000000 0.000000 0.420331 0.000000 -0.057707
#
#
# Mechanical properties :
#
#
# Convention : Reuss Voigt Hill
#
# Bulk Modulus (GPa) = 43.63617 51.20508 47.42063
# Shear Modulus (GPa) = -3.46468 21.11401 8.82467
#
# Velocity S-wave (km/s) = -1.25144 3.08932 1.99722
# Velocity P-wave (km/s) = 4.19954 5.98922 5.17237
#
# Compressibility (1/GPa) = 0.02291677
#
# Stress axis : x y z
#
# Youngs Moduli (GPa) = 58.81972 104.24132 72.07714
#
# Poissons Ratio (x) = 0.22902 0.22859
# Poissons Ratio (y) = 0.12923 0.24558
# Poissons Ratio (z) = 0.18655 0.35517
#
# Static dielectric constant tensor:
#      x y z
#    x 1.898290 0.000000 0.002340 
#    y 0.000000 1.803730 0.000000 
#    z 0.002340 0.000000 1.873210 
# 
# From -- ./inp_files/356361.got.cif
#   From: 2010.05.17/outbox.cif.g08.bks.cpg/sg12_179_cif.got.tgz:356361.got - 2010.06.03 13:09:07.
