data_PCOD9206154
_publ_section_title
;
Structure prediction by ZEFSAII (Michael W. Deem and Ramdas Pophale) SiO2 
 PCOD9206154
Probable space group: C 2/M
;
_chemical_formula_sum "Si O2"
_cell_formula_units_Z 32
_cell_length_a 10.656884
_cell_length_b 23.168921
_cell_length_c 9.897436
_cell_angle_alpha 90.000000
_cell_angle_beta 139.338557
_cell_angle_gamma 90.000000
_cell_volume 1592.325592
_symmetry_space_group_name_H-M "C 2/M"
_symmetry_group_IT_number 12
_symmetry_cell_setting 'monoclinic'
loop_
_space_group_symop_operation_xyz
x,y,z
-x,y,-z
-x,-y,-z
x,-y,z
1/2+x,1/2+y,z
1/2-x,1/2+y,-z
1/2-x,1/2-y,-z
1/2+x,1/2-y,z
loop_
_atom_site_type_symbol
_atom_site_label
_atom_site_fract_x
_atom_site_fract_y
_atom_site_fract_z
Si Si1 0.729459 0.408129 0.709793
Si Si2 0.594696 0.062765 0.858305
Si Si3 0.158893 0.167414 0.026098
Si Si4 0.162275 0.787435 0.738358
O O1 0.500000 0.414873 0.500000
O O2 0.776277 0.339680 0.760806
O O3 0.868293 0.431908 0.707387
O O4 0.797479 0.434918 0.907396
O O5 0.634000 0.000000 0.827783
O O6 0.675672 0.119116 0.849750
O O7 0.087317 0.182381 0.815505
O O8 0.227721 0.229608 0.135364
O O9 0.000000 0.145651 0.000000
O O10 0.000000 0.771351 0.500000
#
# Coordination Sequence:
#
# PCOD9206154 Si02
#       4
#     8   8   8   8
#     4   9  18  35  60  90 110 145 199 253 295 333
#     4  10  21  36  56  83 118 158 197 238 286 346
#     4  10  22  37  57  87 123 157 188 240 297 354
#     4   9  20  37  60  89 116 147 197 245 298 348
#
# _framework density 20.096392999999999
#
# number of rings (size 3 to 8) (size 9 to 14) (size 15 to 20)
#    0.000    2.500    0.000    1.500   10.500    3.500 
#    9.000    0.000    0.000    0.750    0.000    0.000 
#    0.000    0.000    0.000    0.000    0.000    0.000 
#
# Total GULP energy -89175.425514 kJ/mol
# GULP energy per Si atom -5573.464095 kJ/mol
# Density = 2.005065 g / cm^3
# Si number density = 20.096393 Si / 1000 Ang^3
#
#
#
# Elastic Constant Matrix: (Units=GPa)
#
#
# Indices 1 2 3 4 5 6 
#
# 1 82.3218 32.3383 19.6049 0.0000 25.7430 0.0000
# 2 32.3383 126.9397 12.8753 0.0000 11.4730 0.0000
# 3 19.6049 12.8753 81.8026 0.0000 17.6854 0.0000
# 4 0.0000 0.0000 0.0000 -210.1103 0.0000 50.6230
# 5 25.7430 11.4730 17.6854 0.0000 25.2035 0.0000
# 6 0.0000 0.0000 0.0000 50.6230 0.0000 6.7613
#
#
#
# Elastic Compliance Matrix: (Units=1/GPa)
#
#
# Indices 1 2 3 4 5 6 
#
# 1 0.019038 -0.003217 -0.000199 0.000000 -0.017841 0.000000
# 2 -0.003217 0.008782 -0.000539 0.000000 -0.000333 0.000000
# 3 -0.000199 -0.000539 0.014453 0.000000 -0.009693 0.000000
# 4 0.000000 0.000000 0.000000 -0.001697 0.000000 0.012709
# 5 -0.017841 -0.000333 -0.009693 0.000000 0.064853 0.000000
# 6 0.000000 0.000000 0.000000 0.012709 0.000000 0.052748
#
#
# Mechanical properties :
#
#
# Convention : Reuss Voigt Hill
#
# Bulk Modulus (GPa) = 29.10215 46.74455 37.92335
# Shear Modulus (GPa) = 28.16249 -20.54608 3.80821
#
# Velocity S-wave (km/s) = 3.74755 -3.20093 1.37807
# Velocity P-wave (km/s) = 5.76526 3.10635 4.63075
#
# Compressibility (1/GPa) = 0.03436172
#
# Stress axis : x y z
#
# Youngs Moduli (GPa) = 52.52698 113.86703 69.19145
#
# Poissons Ratio (x) = 0.36634 0.01377
# Poissons Ratio (y) = 0.16899 0.03730
# Poissons Ratio (z) = 0.01046 0.06139
#
# Static dielectric constant tensor:
#      x y z
#    x 1.719970 0.000000 0.001320 
#    y 0.000000 1.736520 0.000000 
#    z 0.001320 0.000000 1.717320 
# 
# From -- ./inp_files/132276.got.cif
#   From: 2010.05.17/outbox.cif.g08.bks.cpg/sg12_67_cif.got.tgz:132276.got - 2010.06.03 13:09:07.
