data_PCOD9206314
_publ_section_title
;
Structure prediction by ZEFSAII (Michael W. Deem and Ramdas Pophale) SiO2 
 PCOD9206314
Probable space group: C 2/M
;
_chemical_formula_sum "Si O2"
_cell_formula_units_Z 56
_cell_length_a 25.145444
_cell_length_b 9.079332
_cell_length_c 13.787731
_cell_angle_alpha 90.000000
_cell_angle_beta 73.131845
_cell_angle_gamma 90.000000
_cell_volume 3012.358137
_symmetry_space_group_name_H-M "C 2/M"
_symmetry_group_IT_number 12
_symmetry_cell_setting 'monoclinic'
loop_
_space_group_symop_operation_xyz
x,y,z
-x,y,-z
-x,-y,-z
x,-y,z
1/2+x,1/2+y,z
1/2-x,1/2+y,-z
1/2-x,1/2-y,-z
1/2+x,1/2-y,z
loop_
_atom_site_type_symbol
_atom_site_label
_atom_site_fract_x
_atom_site_fract_y
_atom_site_fract_z
Si Si1 0.080025 0.328053 0.016646
Si Si2 0.684136 0.825114 0.439860
Si Si3 0.381238 0.177483 0.718480
Si Si4 0.312987 0.674008 0.355977
Si Si5 0.085382 0.325354 0.788834
Si Si6 0.020472 0.825114 0.225038
Si Si7 0.806104 0.327585 0.938767
O O1 0.065010 0.500000 0.045105
O O2 0.070145 0.298374 0.909416
O O3 0.047728 0.224993 0.108192
O O4 0.145232 0.312210 0.007168
O O5 0.641922 0.790569 0.375720
O O6 0.675677 0.731558 0.541101
O O7 0.747628 0.799556 0.371551
O O8 0.679732 0.000000 0.465174
O O9 0.438502 0.255587 0.716699
O O10 0.335082 0.223524 0.823164
O O11 0.388015 0.000000 0.724893
O O12 0.323231 0.500000 0.343143
O O13 0.353946 0.761543 0.264456
O O14 0.084194 0.500000 0.773308
O O15 0.040596 0.245253 0.744625
O O16 0.018198 0.000000 0.234257
O O17 0.794050 0.500000 0.933058
O O18 0.750000 0.250000 0.000000
#
# Coordination Sequence:
#
# PCOD9206314 Si02
#       7
#     8   8   8   8   8   8   8
#     4   9  20  37  54  75 108 150 189 222 267 327
#     4   9  19  38  61  82 110 148 183 220 275 335
#     4   9  19  37  58  77 106 149 187 219 268 332
#     4  10  21  36  57  87 116 140 177 232 278 322
#     4  11  22  37  58  80 109 150 189 226 271 328
#     4  11  22  36  55  83 113 143 183 233 278 322
#     4   9  18  31  48  75 109 141 177 220 262 314
#
# _framework density 18.590088000000002
#
# number of rings (size 3 to 8) (size 9 to 14) (size 15 to 20)
#    0.000    2.286    0.000    3.429    2.000    6.286 
#    0.000    0.714    0.000    4.286    0.000    0.000 
#    0.000    0.000    0.000    0.000    0.000    0.000 
#
# Total GULP energy -156317.410643 kJ/mol
# GULP energy per Si atom -5582.764666 kJ/mol
# Density = 1.854778 g / cm^3
# Si number density = 18.590088 Si / 1000 Ang^3
#
#
#
# Elastic Constant Matrix: (Units=GPa)
#
#
# Indices 1 2 3 4 5 6 
#
# 1 37.5766 31.8305 14.1058 0.0000 17.1999 0.0000
# 2 31.8305 60.3943 21.2040 0.0000 10.1487 0.0000
# 3 14.1058 21.2040 26.5406 0.0000 17.0273 0.0000
# 4 0.0000 0.0000 0.0000 27.8941 0.0000 -6.1963
# 5 17.1999 10.1487 17.0273 0.0000 28.4510 0.0000
# 6 0.0000 0.0000 0.0000 -6.1963 0.0000 24.4999
#
#
#
# Elastic Compliance Matrix: (Units=1/GPa)
#
#
# Indices 1 2 3 4 5 6 
#
# 1 0.067563 -0.035015 0.016650 0.000000 -0.038319 0.000000
# 2 -0.035015 0.041526 -0.030264 0.000000 0.024468 0.000000
# 3 0.016650 -0.030264 0.085285 0.000000 -0.050312 0.000000
# 4 0.000000 0.000000 0.000000 0.037984 0.000000 0.009606
# 5 -0.038319 0.024468 -0.050312 0.000000 0.079696 0.000000
# 6 0.000000 0.000000 0.000000 0.009606 0.000000 0.043246
#
#
# Mechanical properties :
#
#
# Convention : Reuss Voigt Hill
#
# Bulk Modulus (GPa) = 10.29694 28.75469 19.52582
# Shear Modulus (GPa) = 10.31075 19.99374 15.15225
#
# Velocity S-wave (km/s) = 2.35763 3.28305 2.85804
# Velocity P-wave (km/s) = 3.60030 5.46558 4.62789
#
# Compressibility (1/GPa) = 0.09711626
#
# Stress axis : x y z
#
# Youngs Moduli (GPa) = 14.80107 24.08114 11.72535
#
# Poissons Ratio (x) = 0.84320 -0.19523
# Poissons Ratio (y) = 0.51826 0.35486
# Poissons Ratio (z) = -0.24644 0.72879
#
# Static dielectric constant tensor:
#      x y z
#    x 1.647640 0.000000 0.000800 
#    y 0.000000 1.620090 0.000000 
#    z 0.000800 0.000000 1.633300 
# 
# From -- ./inp_files/180653.got.cif
#   From: 2010.05.17/outbox.cif.g08.bks.cpg/sg12_91_cif.got.tgz:180653.got - 2010.06.03 13:09:07.
