data_PCOD9206102
_publ_section_title
;
Structure prediction by ZEFSAII (Michael W. Deem and Ramdas Pophale) SiO2 
 PCOD9206102
Probable space group: C 2/M
;
_chemical_formula_sum "Si O2"
_cell_formula_units_Z 48
_cell_length_a 8.929584
_cell_length_b 22.901592
_cell_length_c 11.899239
_cell_angle_alpha 90.000000
_cell_angle_beta 96.823625
_cell_angle_gamma 90.000000
_cell_volume 2416.177635
_symmetry_space_group_name_H-M "C 2/M"
_symmetry_group_IT_number 12
_symmetry_cell_setting 'monoclinic'
loop_
_space_group_symop_operation_xyz
x,y,z
-x,y,-z
-x,-y,-z
x,-y,z
1/2+x,1/2+y,z
1/2-x,1/2+y,-z
1/2-x,1/2-y,-z
1/2+x,1/2-y,z
loop_
_atom_site_type_symbol
_atom_site_label
_atom_site_fract_x
_atom_site_fract_y
_atom_site_fract_z
Si Si1 0.273925 0.669047 0.712686
Si Si2 0.646534 0.429485 0.943872
Si Si3 0.528518 0.255313 0.675825
Si Si4 0.232876 0.671297 0.440740
Si Si5 0.799629 0.430402 0.733836
Si Si6 0.144696 0.568543 0.837900
O O1 0.432844 0.700517 0.742757
O O2 0.248422 0.665588 0.575533
O O3 0.246041 0.607004 0.764259
O O4 0.146818 0.713282 0.747349
O O5 0.631613 0.500000 0.935666
O O6 0.794714 0.417569 0.032395
O O7 0.500000 0.408084 0.000000
O O8 0.681387 0.410877 0.819740
O O9 0.625306 0.294446 0.598858
O O10 0.409354 0.211567 0.606231
O O11 0.218193 0.609367 0.377416
O O12 0.782638 0.500000 0.711022
O O13 0.968740 0.421175 0.797536
O O14 0.172488 0.500000 0.822065
#
# Coordination Sequence:
#
# PCOD9206102 Si02
#       6
#     8   8   8   8   8   8
#     4  11  20  35  57  84 113 147 184 227 270 322
#     4   9  19  37  59  80 105 142 188 228 267 327
#     4  10  21  36  56  79 110 151 196 224 257 318
#     4  11  20  35  57  84 113 147 184 227 270 322
#     4  10  21  36  57  84 113 145 180 224 278 331
#     4  10  21  36  57  84 113 145 180 224 278 331
#
# _framework density 19.866088999999999
#
# number of rings (size 3 to 8) (size 9 to 14) (size 15 to 20)
#    0.000    1.833    1.667    4.500    2.333    2.667 
#    0.000    1.667    0.000    8.000    0.000    0.000 
#    0.000    0.000    0.000    0.000    0.000    0.000 
#
# Total GULP energy -133967.985599 kJ/mol
# GULP energy per Si atom -5581.999400 kJ/mol
# Density = 1.982087 g / cm^3
# Si number density = 19.866089 Si / 1000 Ang^3
#
#
#
# Elastic Constant Matrix: (Units=GPa)
#
#
# Indices 1 2 3 4 5 6 
#
# 1 90.2145 30.5986 9.7286 0.0000 -13.2842 0.0000
# 2 30.5986 73.6994 34.9970 0.0000 -8.1194 0.0000
# 3 9.7286 34.9970 41.8793 0.0000 -9.4655 0.0000
# 4 0.0000 0.0000 0.0000 4.8849 0.0000 -12.4753
# 5 -13.2842 -8.1194 -9.4655 0.0000 22.5649 0.0000
# 6 0.0000 0.0000 0.0000 -12.4753 0.0000 26.7579
#
#
#
# Elastic Compliance Matrix: (Units=1/GPa)
#
#
# Indices 1 2 3 4 5 6 
#
# 1 0.014145 -0.007114 0.004377 0.000000 0.007604 0.000000
# 2 -0.007114 0.026074 -0.020949 0.000000 -0.003593 0.000000
# 3 0.004377 -0.020949 0.043357 0.000000 0.013226 0.000000
# 4 0.000000 0.000000 0.000000 -1.073639 0.000000 -0.500561
# 5 0.007604 -0.003593 0.013226 0.000000 0.053048 0.000000
# 6 0.000000 0.000000 0.000000 -0.500561 0.000000 -0.196004
#
#
# Mechanical properties :
#
#
# Convention : Reuss Voigt Hill
#
# Bulk Modulus (GPa) = 27.61994 39.60461 33.61227
# Shear Modulus (GPa) = -4.65732 19.53949 7.44109
#
# Velocity S-wave (km/s) = -1.53279 3.13958 1.93746
# Velocity P-wave (km/s) = 3.28643 5.75514 4.68627
#
# Compressibility (1/GPa) = 0.03620573
#
# Stress axis : x y z
#
# Youngs Moduli (GPa) = 70.69575 38.35242 23.06444
#
# Poissons Ratio (x) = 0.27283 -0.10096
# Poissons Ratio (y) = 0.50291 0.48317
# Poissons Ratio (z) = -0.30946 0.80343
#
# Static dielectric constant tensor:
#      x y z
#    x 1.759260 0.000000 0.002800 
#    y 0.000000 1.689820 0.000000 
#    z 0.002800 0.000000 1.685810 
# 
# From -- ./inp_files/121873.got.cif
#   From: 2010.05.17/outbox.cif.g08.bks.cpg/sg12_61_cif.got.tgz:121873.got - 2010.06.03 13:09:07.
