data_PCOD9206237
_publ_section_title
;
Structure prediction by ZEFSAII (Michael W. Deem and Ramdas Pophale) SiO2 
 PCOD9206237
Probable space group: C 2/M
;
_chemical_formula_sum "Si O2"
_cell_formula_units_Z 64
_cell_length_a 13.596603
_cell_length_b 13.397707
_cell_length_c 18.676302
_cell_angle_alpha 90.000000
_cell_angle_beta 83.974918
_cell_angle_gamma 90.000000
_cell_volume 3383.343600
_symmetry_space_group_name_H-M "C 2/M"
_symmetry_group_IT_number 12
_symmetry_cell_setting 'monoclinic'
loop_
_space_group_symop_operation_xyz
x,y,z
-x,y,-z
-x,-y,-z
x,-y,z
1/2+x,1/2+y,z
1/2-x,1/2+y,-z
1/2-x,1/2-y,-z
1/2+x,1/2-y,z
loop_
_atom_site_type_symbol
_atom_site_label
_atom_site_fract_x
_atom_site_fract_y
_atom_site_fract_z
Si Si1 0.116760 0.188119 0.990181
Si Si2 0.464419 0.305994 0.391660
Si Si3 0.245290 0.308190 0.772802
Si Si4 0.654918 0.883398 0.630415
Si Si5 0.355245 0.617340 0.532620
Si Si6 0.288460 0.115257 0.068847
Si Si7 0.038079 0.884260 0.239735
Si Si8 0.850381 0.114950 0.167452
O O1 0.143177 0.305162 0.978156
O O2 0.160593 0.135583 0.915794
O O3 0.177064 0.143272 0.052037
O O4 0.000000 0.171940 0.000000
O O5 0.433281 0.192383 0.379912
O O6 0.568371 0.320278 0.424582
O O7 0.381796 0.354405 0.449556
O O8 0.475614 0.362655 0.315982
O O9 0.200102 0.354850 0.704452
O O10 0.204325 0.362917 0.847112
O O11 0.362965 0.320617 0.764550
O O12 0.214942 0.193274 0.784159
O O13 0.743629 0.866634 0.566587
O O14 0.628063 0.000000 0.631219
O O15 0.377831 0.500000 0.542742
O O16 0.309098 0.000000 0.051970
O O17 0.964362 0.863757 0.180108
O O18 0.068497 0.000000 0.235372
O O19 0.830185 0.000000 0.186069
#
# Coordination Sequence:
#
# PCOD9206237 Si02
#       8
#     8   8   8   8   8   8   8   8
#     4  10  21  37  57  84 116 144 183 235 283 332
#     4  11  20  35  57  86 112 140 185 239 272 329
#     4  11  21  37  58  82 114 147 194 233 272 333
#     4  11  22  37  57  81 114 153 187 230 283 334
#     4  10  21  38  61  85 111 145 187 233 283 331
#     4  10  21  36  57  82 111 151 189 227 276 335
#     4  11  20  34  59  84 108 147 189 231 277 329
#     4  10  22  38  58  84 115 146 184 235 288 333
#
# _framework density 18.9162
#
# number of rings (size 3 to 8) (size 9 to 14) (size 15 to 20)
#    0.000    1.500    2.500    4.125    0.000    2.250 
#    0.000    1.875    0.000    5.250    0.000    0.000 
#    0.000    0.000    0.000    0.000    0.000    0.000 
#
# Total GULP energy -178723.281777 kJ/mol
# GULP energy per Si atom -5585.102556 kJ/mol
# Density = 1.887315 g / cm^3
# Si number density = 18.916200 Si / 1000 Ang^3
#
#
#
# Elastic Constant Matrix: (Units=GPa)
#
#
# Indices 1 2 3 4 5 6 
#
# 1 56.6269 44.9213 -4.2149 0.0000 5.1345 0.0000
# 2 44.9213 115.6265 -0.0174 0.0000 7.9653 0.0000
# 3 -4.2149 -0.0174 36.7634 0.0000 1.5193 0.0000
# 4 0.0000 0.0000 0.0000 14.9825 0.0000 5.6426
# 5 5.1345 7.9653 1.5193 0.0000 16.5349 0.0000
# 6 0.0000 0.0000 0.0000 5.6426 0.0000 12.4047
#
#
#
# Elastic Compliance Matrix: (Units=1/GPa)
#
#
# Indices 1 2 3 4 5 6 
#
# 1 0.026052 -0.009871 0.003132 0.000000 -0.003622 0.000000
# 2 -0.009871 0.012687 -0.001004 0.000000 -0.002954 0.000000
# 3 0.003132 -0.001004 0.027685 0.000000 -0.003033 0.000000
# 4 0.000000 0.000000 0.000000 0.080542 0.000000 -0.036637
# 5 -0.003622 -0.002954 -0.003033 0.000000 0.063305 0.000000
# 6 0.000000 0.000000 0.000000 -0.036637 0.000000 0.097280
#
#
# Mechanical properties :
#
#
# Convention : Reuss Voigt Hill
#
# Bulk Modulus (GPa) = 19.63188 32.26609 25.94899
# Shear Modulus (GPa) = 14.70522 20.00628 17.35575
#
# Velocity S-wave (km/s) = 2.79119 3.25565 3.03232
# Velocity P-wave (km/s) = 4.55945 5.58809 5.09977
#
# Compressibility (1/GPa) = 0.05093755
#
# Stress axis : x y z
#
# Youngs Moduli (GPa) = 38.38530 78.82174 36.12074
#
# Poissons Ratio (x) = 0.77806 -0.11312
# Poissons Ratio (y) = 0.37891 0.03625
# Poissons Ratio (z) = -0.12022 0.07911
#
# Static dielectric constant tensor:
#      x y z
#    x 1.644010 0.000000 -0.002400 
#    y 0.000000 1.645470 0.000000 
#    z -0.002400 0.000000 1.680180 
# 
# From -- ./inp_files/269287.got.cif
#   From: 2010.05.17/outbox.cif.g08.bks.cpg/sg12_135_cif.got.tgz:269287.got - 2010.06.03 13:09:07.
