data_PCOD9206501
_publ_section_title
;
Structure prediction by ZEFSAII (Michael W. Deem and Ramdas Pophale) SiO2 
 PCOD9206501
Probable space group: C 2/M
;
_chemical_formula_sum "Si O2"
_cell_formula_units_Z 64
_cell_length_a 15.624182
_cell_length_b 18.448343
_cell_length_c 13.823622
_cell_angle_alpha 90.000000
_cell_angle_beta 120.076407
_cell_angle_gamma 90.000000
_cell_volume 3448.039599
_symmetry_space_group_name_H-M "C 2/M"
_symmetry_group_IT_number 12
_symmetry_cell_setting 'monoclinic'
loop_
_space_group_symop_operation_xyz
x,y,z
-x,y,-z
-x,-y,-z
x,-y,z
1/2+x,1/2+y,z
1/2-x,1/2+y,-z
1/2-x,1/2-y,-z
1/2+x,1/2-y,z
loop_
_atom_site_type_symbol
_atom_site_label
_atom_site_fract_x
_atom_site_fract_y
_atom_site_fract_z
Si Si1 0.645457 0.314861 0.026169
Si Si2 0.544821 0.155748 0.235820
Si Si3 0.581382 0.912791 0.464602
Si Si4 0.834977 0.647591 0.028997
Si Si5 0.387921 0.587840 0.431881
Si Si6 0.053582 0.823036 0.186369
Si Si7 0.784650 0.585411 0.796883
Si Si8 0.192353 0.913270 0.403612
O O1 0.655328 0.229823 0.005891
O O2 0.612546 0.320176 0.118222
O O3 0.748697 0.352096 0.059510
O O4 0.557598 0.344799 0.907879
O O5 0.557712 0.127817 0.351659
O O6 0.547370 0.242743 0.228220
O O7 0.632314 0.125259 0.218770
O O8 0.440683 0.128534 0.133318
O O9 0.500000 0.896014 0.500000
O O10 0.694356 0.894109 0.557758
O O11 0.579339 0.000000 0.446430
O O12 0.803255 0.600481 0.919433
O O13 0.500000 0.615862 0.500000
O O14 0.394053 0.500000 0.431867
O O15 0.322471 0.610845 0.303052
O O16 0.329761 0.606500 0.497188
O O17 0.111715 0.875038 0.291174
O O18 0.792388 0.500000 0.781585
O O19 0.182162 0.000000 0.389572
#
# Coordination Sequence:
#
# PCOD9206501 Si02
#       8
#     8   8   8   8   8   8   8   8
#     4   9  20  40  57  81 113 152 188 231 297 339
#     4  11  21  38  60  86 116 153 194 237 287 345
#     4  10  22  40  60  84 120 159 193 237 293 343
#     4  10  21  36  59  83 114 152 190 234 284 346
#     4   9  19  36  57  81 116 153 185 233 296 345
#     4  10  21  38  62  83 112 152 192 236 286 347
#     4  11  21  36  59  89 119 149 190 239 289 344
#     4  10  21  39  61  84 112 153 194 237 293 346
#
# _framework density 18.561271999999999
#
# number of rings (size 3 to 8) (size 9 to 14) (size 15 to 20)
#    0.000    2.000    2.500    0.750    3.500    2.000 
#    0.000    2.500    0.000    0.000    0.000    0.000 
#    0.000    0.000    0.000    0.000    0.000    0.000 
#
# Total GULP energy -178601.221756 kJ/mol
# GULP energy per Si atom -5581.288180 kJ/mol
# Density = 1.851903 g / cm^3
# Si number density = 18.561272 Si / 1000 Ang^3
#
#
#
# Elastic Constant Matrix: (Units=GPa)
#
#
# Indices 1 2 3 4 5 6 
#
# 1 86.1353 9.0638 18.8114 0.0000 21.5143 0.0000
# 2 9.0638 19.2202 24.7067 0.0000 7.3204 0.0000
# 3 18.8114 24.7067 99.6740 0.0000 20.5597 0.0000
# 4 0.0000 0.0000 0.0000 32.2865 0.0000 3.7681
# 5 21.5143 7.3204 20.5597 0.0000 32.9952 0.0000
# 6 0.0000 0.0000 0.0000 3.7681 0.0000 11.8315
#
#
#
# Elastic Compliance Matrix: (Units=1/GPa)
#
#
# Indices 1 2 3 4 5 6 
#
# 1 0.014073 -0.003307 -0.000109 0.000000 -0.008375 0.000000
# 2 -0.003307 0.078153 -0.017919 0.000000 -0.004017 0.000000
# 3 -0.000109 -0.017919 0.015675 0.000000 -0.005721 0.000000
# 4 0.000000 0.000000 0.000000 0.032168 0.000000 -0.010245
# 5 -0.008375 -0.004017 -0.005721 0.000000 0.040224 0.000000
# 6 0.000000 0.000000 0.000000 -0.010245 0.000000 0.087783
#
#
# Mechanical properties :
#
#
# Convention : Reuss Voigt Hill
#
# Bulk Modulus (GPa) = 15.33025 34.46591 24.89808
# Shear Modulus (GPa) = 15.03803 25.58581 20.31192
#
# Velocity S-wave (km/s) = 2.84946 3.71678 3.31164
# Velocity P-wave (km/s) = 4.37071 6.08509 5.29771
#
# Compressibility (1/GPa) = 0.06523050
#
# Stress axis : x y z
#
# Youngs Moduli (GPa) = 71.05705 12.79548 63.79573
#
# Poissons Ratio (x) = 0.04231 0.00694
# Poissons Ratio (y) = 0.23498 1.14318
# Poissons Ratio (z) = 0.00773 0.22929
#
# Static dielectric constant tensor:
#      x y z
#    x 1.639780 0.000000 0.018740 
#    y 0.000000 1.621500 0.000000 
#    z 0.018740 0.000000 1.625260 
# 
# From -- ./inp_files/216384.got.cif
#   From: 2010.05.17/outbox.cif.g08.bks.cpg/sg12_109_cif.got.tgz:216384.got - 2010.06.03 13:09:07.
