data_PCOD9206639
_publ_section_title
;
Structure prediction by ZEFSAII (Michael W. Deem and Ramdas Pophale) SiO2 
 PCOD9206639
Probable space group: C 2/M
;
_chemical_formula_sum "Si O2"
_cell_formula_units_Z 50
_cell_length_a 17.641244
_cell_length_b 8.107814
_cell_length_c 18.195720
_cell_angle_alpha 90.000000
_cell_angle_beta 126.395774
_cell_angle_gamma 90.000000
_cell_volume 2094.905439
_symmetry_space_group_name_H-M "C 2/M"
_symmetry_group_IT_number 12
_symmetry_cell_setting 'monoclinic'
loop_
_space_group_symop_operation_xyz
x,y,z
-x,y,-z
-x,-y,-z
x,-y,z
1/2+x,1/2+y,z
1/2-x,1/2+y,-z
1/2-x,1/2-y,-z
1/2+x,1/2-y,z
loop_
_atom_site_type_symbol
_atom_site_label
_atom_site_fract_x
_atom_site_fract_y
_atom_site_fract_z
Si Si1 0.142789 0.302804 0.458373
Si Si2 0.444462 0.681821 0.136589
Si Si3 0.832946 0.805505 0.370375
Si Si4 0.126061 0.691271 0.291492
Si Si5 0.635476 0.309704 0.066265
Si Si6 0.500000 0.000000 0.000000
Si Si7 0.145773 0.686637 0.772942
O O1 0.135517 0.500000 0.463221
O O2 0.250000 0.250000 0.500000
O O3 0.118885 0.224539 0.522969
O O4 0.094209 0.246747 0.354335
O O5 0.485266 0.500000 0.154246
O O6 0.535887 0.796093 0.188317
O O7 0.393622 0.703105 0.184559
O O8 0.374513 0.705502 0.028379
O O9 0.724896 0.737244 0.319177
O O10 0.879090 0.725335 0.325428
O O11 0.829095 0.000000 0.353429
O O12 0.148677 0.500000 0.316532
O O13 0.603711 0.500000 0.065939
O O14 0.741634 0.300595 0.155109
O O15 0.578472 0.149590 0.058770
O O16 0.115617 0.500000 0.773000
#
# Coordination Sequence:
#
# PCOD9206639 Si02
#       7
#     8   8   8   8   8   2   8
#     4   9  17  33  55  84 119 157 196 245 307 367
#     4  11  24  41  62  88 123 161 207 256 302 370
#     4  10  21  36  60  90 121 155 203 253 307 370
#     4   9  20  36  59  88 120 157 202 247 305 373
#     4  10  26  44  64  98 129 164 210 250 311 374
#     4  12  26  40  76  94 128 168 192 280 304 362
#     4  11  24  42  63  86 123 165 207 253 301 371
#
# _framework density 23.867426999999999
#
# number of rings (size 3 to 8) (size 9 to 14) (size 15 to 20)
#    0.000    1.920    0.000    3.600    6.720    3.840 
#    0.000    0.800    0.000    4.800    0.000    0.000 
#    0.000    0.000    0.000    0.000    0.000    0.000 
#
# Total GULP energy -139354.754707 kJ/mol
# GULP energy per Si atom -5574.190188 kJ/mol
# Density = 2.381310 g / cm^3
# Si number density = 23.867427 Si / 1000 Ang^3
#
#
#
# Elastic Constant Matrix: (Units=GPa)
#
#
# Indices 1 2 3 4 5 6 
#
# 1 56.6406 17.5011 30.1014 0.0000 -28.2855 0.0000
# 2 17.5011 77.5086 13.4048 0.0000 -2.6016 0.0000
# 3 30.1014 13.4048 93.2294 0.0000 -35.6432 0.0000
# 4 0.0000 0.0000 0.0000 198.5958 0.0000 -112.6144
# 5 -28.2855 -2.6016 -35.6432 0.0000 45.0115 0.0000
# 6 0.0000 0.0000 0.0000 -112.6144 0.0000 86.9442
#
#
#
# Elastic Compliance Matrix: (Units=1/GPa)
#
#
# Indices 1 2 3 4 5 6 
#
# 1 0.028445 -0.005480 -0.002414 0.000000 0.015647 0.000000
# 2 -0.005480 0.014322 -0.001850 0.000000 -0.004081 0.000000
# 3 -0.002414 -0.001850 0.015992 0.000000 0.011040 0.000000
# 4 0.000000 0.000000 0.000000 0.018964 0.000000 0.024563
# 5 0.015647 -0.004081 0.011040 0.000000 0.040555 0.000000
# 6 0.000000 0.000000 0.000000 0.024563 0.000000 0.043317
#
#
# Mechanical properties :
#
#
# Convention : Reuss Voigt Hill
#
# Bulk Modulus (GPa) = 25.46423 38.82146 32.14284
# Shear Modulus (GPa) = 25.74999 77.20172 51.47585
#
# Velocity S-wave (km/s) = 3.28819 5.69353 4.64911
# Velocity P-wave (km/s) = 5.01083 7.71508 6.50503
#
# Compressibility (1/GPa) = 0.03927078
#
# Stress axis : x y z
#
# Youngs Moduli (GPa) = 35.15526 69.82188 62.52941
#
# Poissons Ratio (x) = 0.38263 0.15097
# Poissons Ratio (y) = 0.19265 0.11569
# Poissons Ratio (z) = 0.08488 0.12918
#
# Static dielectric constant tensor:
#      x y z
#    x 1.924660 0.000000 -0.018320 
#    y 0.000000 1.917560 0.000000 
#    z -0.018320 0.000000 1.941820 
# 
# From -- ./inp_files/275797.got.cif
#   From: 2010.05.17/outbox.cif.g08.bks.cpg/sg12_138_cif.got.tgz:275797.got - 2010.06.03 13:09:07.
