data_PCOD9206670
_publ_section_title
;
Structure prediction by ZEFSAII (Michael W. Deem and Ramdas Pophale) SiO2 
 PCOD9206670
Probable space group: C 2/M
;
_chemical_formula_sum "Si O2"
_cell_formula_units_Z 64
_cell_length_a 14.445701
_cell_length_b 16.085363
_cell_length_c 16.896827
_cell_angle_alpha 90.000000
_cell_angle_beta 131.564956
_cell_angle_gamma 90.000000
_cell_volume 2937.613722
_symmetry_space_group_name_H-M "C 2/M"
_symmetry_group_IT_number 12
_symmetry_cell_setting 'monoclinic'
loop_
_space_group_symop_operation_xyz
x,y,z
-x,y,-z
-x,-y,-z
x,-y,z
1/2+x,1/2+y,z
1/2-x,1/2+y,-z
1/2-x,1/2-y,-z
1/2+x,1/2-y,z
loop_
_atom_site_type_symbol
_atom_site_label
_atom_site_fract_x
_atom_site_fract_y
_atom_site_fract_z
Si Si1 0.527007 0.592699 0.290614
Si Si2 0.723459 0.654996 0.504372
Si Si3 0.971810 0.597872 0.570155
Si Si4 0.679991 0.717419 0.058047
Si Si5 0.733002 0.093007 0.131929
Si Si6 0.343809 0.868268 0.735174
Si Si7 0.573802 0.688101 0.167085
Si Si8 0.898349 0.596195 0.195717
O O1 0.564243 0.500000 0.329839
O O2 0.585655 0.643722 0.394869
O O3 0.379975 0.598039 0.203794
O O4 0.584088 0.618578 0.239067
O O5 0.750000 0.750000 0.500000
O O6 0.748571 0.626853 0.608348
O O7 0.828895 0.608429 0.512923
O O8 0.999063 0.500000 0.581896
O O9 0.056604 0.627423 0.691605
O O10 0.000000 0.635404 0.500000
O O11 0.684968 0.818021 0.071115
O O12 0.639771 0.679257 0.120308
O O13 0.802819 0.664713 0.108570
O O14 0.570824 0.698667 0.935221
O O15 0.701306 0.095927 0.207286
O O16 0.692057 0.000000 0.078449
O O17 0.371885 0.771301 0.764380
O O18 0.475160 0.905382 0.782745
O O19 0.850777 0.500000 0.171911
#
# Coordination Sequence:
#
# PCOD9206670 Si02
#       8
#     8   8   8   8   8   8   8   8
#     4  11  24  40  62  92 129 166 208 255 310 379
#     4  11  22  38  59  91 123 163 207 250 306 370
#     4   9  20  36  56  84 120 158 200 250 301 359
#     4  10  23  41  67  90 127 160 205 264 313 380
#     4  10  23  42  64  92 124 167 212 257 309 368
#     4  10  21  41  64  86 125 164 211 259 303 365
#     4  10  22  43  62  92 120 165 205 254 321 369
#     4  10  21  36  60  93 122 159 206 254 310 368
#
# _framework density 21.786390999999998
#
# number of rings (size 3 to 8) (size 9 to 14) (size 15 to 20)
#    0.000    1.875    1.250    1.500    3.500    5.000 
#    0.000    9.375    0.000    0.000    0.000    0.000 
#    0.000    0.000    0.000    0.000    0.000    0.000 
#
# Total GULP energy -178650.486374 kJ/mol
# GULP energy per Si atom -5582.827699 kJ/mol
# Density = 2.173680 g / cm^3
# Si number density = 21.786391 Si / 1000 Ang^3
#
#
#
# Elastic Constant Matrix: (Units=GPa)
#
#
# Indices 1 2 3 4 5 6 
#
# 1 64.0445 6.3057 14.8622 0.0000 -21.0668 0.0000
# 2 6.3057 62.3192 -7.1342 0.0000 -1.6337 0.0000
# 3 14.8622 -7.1342 50.6880 0.0000 -10.3111 0.0000
# 4 0.0000 0.0000 0.0000 573.6386 0.0000 -365.0428
# 5 -21.0668 -1.6337 -10.3111 0.0000 23.7562 0.0000
# 6 0.0000 0.0000 0.0000 -365.0428 0.0000 270.6609
#
#
#
# Elastic Compliance Matrix: (Units=1/GPa)
#
#
# Indices 1 2 3 4 5 6 
#
# 1 0.022677 -0.002171 -0.003175 0.000000 0.018583 0.000000
# 2 -0.002171 0.016635 0.003092 0.000000 0.000561 0.000000
# 3 -0.003175 0.003092 0.022557 0.000000 0.007188 0.000000
# 4 0.000000 0.000000 0.000000 0.012300 0.000000 0.016589
# 5 0.018583 0.000561 0.007188 0.000000 0.061732 0.000000
# 6 0.000000 0.000000 0.000000 0.016589 0.000000 0.026068
#
#
# Mechanical properties :
#
#
# Convention : Reuss Voigt Hill
#
# Bulk Modulus (GPa) = 17.43325 22.79101 20.11213
# Shear Modulus (GPa) = 26.94027 184.47901 105.70964
#
# Velocity S-wave (km/s) = 3.52030 9.21195 6.97325
# Velocity P-wave (km/s) = 4.95405 11.11893 8.60736
#
# Compressibility (1/GPa) = 0.05736167
#
# Stress axis : x y z
#
# Youngs Moduli (GPa) = 44.09724 60.11518 44.33271
#
# Poissons Ratio (x) = 0.13050 0.14074
# Poissons Ratio (y) = 0.09573 -0.13707
# Poissons Ratio (z) = 0.13999 -0.18587
#
# Static dielectric constant tensor:
#      x y z
#    x 1.814720 0.000000 -0.001770 
#    y 0.000000 1.784520 0.000000 
#    z -0.001770 0.000000 1.815760 
# 
# From -- ./inp_files/270718.got.cif
#   From: 2010.05.17/outbox.cif.g08.bks.cpg/sg12_136_cif.got.tgz:270718.got - 2010.06.03 13:09:07.
