data_PCOD9206729
_publ_section_title
;
Structure prediction by ZEFSAII (Michael W. Deem and Ramdas Pophale) SiO2 
 PCOD9206729
Probable space group: C 2/M
;
_chemical_formula_sum "Si O2"
_cell_formula_units_Z 56
_cell_length_a 13.978473
_cell_length_b 19.988588
_cell_length_c 9.131917
_cell_angle_alpha 90.000000
_cell_angle_beta 89.801301
_cell_angle_gamma 90.000000
_cell_volume 2551.533016
_symmetry_space_group_name_H-M "C 2/M"
_symmetry_group_IT_number 12
_symmetry_cell_setting 'monoclinic'
loop_
_space_group_symop_operation_xyz
x,y,z
-x,y,-z
-x,-y,-z
x,-y,z
1/2+x,1/2+y,z
1/2-x,1/2+y,-z
1/2-x,1/2-y,-z
1/2+x,1/2-y,z
loop_
_atom_site_type_symbol
_atom_site_label
_atom_site_fract_x
_atom_site_fract_y
_atom_site_fract_z
Si Si1 0.733936 0.579596 0.521241
Si Si2 0.417463 0.329343 0.623979
Si Si3 0.388810 0.805631 0.487827
Si Si4 0.125443 0.190350 0.066020
Si Si5 0.341283 0.792516 0.169822
Si Si6 0.295736 0.423104 0.138441
Si Si7 0.889853 0.573938 0.045157
O O1 0.751343 0.500000 0.497958
O O2 0.656717 0.611294 0.410666
O O3 0.824357 0.629240 0.509685
O O4 0.696356 0.587715 0.688463
O O5 0.500000 0.334742 0.500000
O O6 0.372239 0.255555 0.598569
O O7 0.441241 0.328430 0.796621
O O8 0.500000 0.824002 0.500000
O O9 0.367356 0.771107 0.331517
O O10 0.229045 0.208670 0.135584
O O11 0.105495 0.252169 0.958482
O O12 0.144611 0.127585 0.960271
O O13 0.370993 0.869576 0.162147
O O14 0.321100 0.500000 0.107082
O O15 0.184398 0.414041 0.087994
O O16 0.868722 0.500000 0.102796
O O17 0.000000 0.576634 0.000000
#
# Coordination Sequence:
#
# PCOD9206729 Si02
#       7
#     8   8   8   8   8   8   8
#     4  11  24  43  68  94 135 182 224 275 332 401
#     4  11  25  44  68  97 130 172 220 284 342 394
#     4  11  25  41  63  98 141 178 215 272 333 407
#     4  10  21  39  66  94 122 167 224 276 322 385
#     4  10  21  36  61  94 125 175 213 268 320 388
#     4   9  20  38  61  89 121 166 213 262 324 386
#     4   9  19  33  54  84 124 164 207 258 308 373
#
# _framework density 21.947589000000001
#
# number of rings (size 3 to 8) (size 9 to 14) (size 15 to 20)
#    0.000    1.857    1.429    1.286    8.000    2.857 
#    0.000    3.571    0.000    1.714    0.000    0.000 
#    0.000    0.000    0.000    0.000    0.000    0.000 
#
# Total GULP energy -156417.190612 kJ/mol
# GULP energy per Si atom -5586.328236 kJ/mol
# Density = 2.189764 g / cm^3
# Si number density = 21.947589 Si / 1000 Ang^3
#
#
#
# Elastic Constant Matrix: (Units=GPa)
#
#
# Indices 1 2 3 4 5 6 
#
# 1 70.3014 38.8625 27.6833 0.0000 -4.1680 0.0000
# 2 38.8625 123.3680 52.3617 0.0000 -8.5450 0.0000
# 3 27.6833 52.3617 111.0515 0.0000 -17.2389 0.0000
# 4 0.0000 0.0000 0.0000 30.7641 0.0000 1.6141
# 5 -4.1680 -8.5450 -17.2389 0.0000 26.5792 0.0000
# 6 0.0000 0.0000 0.0000 1.6141 0.0000 -13.7537
#
#
#
# Elastic Compliance Matrix: (Units=1/GPa)
#
#
# Indices 1 2 3 4 5 6 
#
# 1 0.017653 -0.004618 -0.002251 0.000000 -0.000176 0.000000
# 2 -0.004618 0.011343 -0.004162 0.000000 0.000223 0.000000
# 3 -0.002251 -0.004162 0.012527 0.000000 0.006434 0.000000
# 4 0.000000 0.000000 0.000000 0.032307 0.000000 0.003791
# 5 -0.000176 0.000223 0.006434 0.000000 0.041840 0.000000
# 6 0.000000 0.000000 0.000000 0.003791 0.000000 -0.072263
#
#
# Mechanical properties :
#
#
# Convention : Reuss Voigt Hill
#
# Bulk Modulus (GPa) = 51.38443 60.28177 55.83310
# Shear Modulus (GPa) = 69.48728 21.10548 45.29638
#
# Velocity S-wave (km/s) = 5.63288 3.10438 4.54788
# Velocity P-wave (km/s) = 8.10980 6.35417 7.28506
#
# Compressibility (1/GPa) = 0.01946115
#
# Stress axis : x y z
#
# Youngs Moduli (GPa) = 56.64756 88.16304 79.82611
#
# Poissons Ratio (x) = 0.40713 0.17965
# Poissons Ratio (y) = 0.26159 0.33227
# Poissons Ratio (z) = 0.12749 0.36697
#
# Static dielectric constant tensor:
#      x y z
#    x 1.843760 0.000000 -0.002400 
#    y 0.000000 1.780040 0.000000 
#    z -0.002400 0.000000 1.837580 
# 
# From -- ./inp_files/64087.got.cif
#   From: 2010.05.17/outbox.cif.g08.bks.cpg/sg12_33_cif.got.tgz:64087.got - 2010.06.03 13:09:07.
