data_PCOD9206509
_publ_section_title
;
Structure prediction by ZEFSAII (Michael W. Deem and Ramdas Pophale) SiO2 
 PCOD9206509
Probable space group: C 2/M
;
_chemical_formula_sum "Si O2"
_cell_formula_units_Z 40
_cell_length_a 5.214379
_cell_length_b 14.609428
_cell_length_c 26.630880
_cell_angle_alpha 90.000000
_cell_angle_beta 106.442904
_cell_angle_gamma 90.000000
_cell_volume 1945.746461
_symmetry_space_group_name_H-M "C 2/M"
_symmetry_group_IT_number 12
_symmetry_cell_setting 'monoclinic'
loop_
_space_group_symop_operation_xyz
x,y,z
-x,y,-z
-x,-y,-z
x,-y,z
1/2+x,1/2+y,z
1/2-x,1/2+y,-z
1/2-x,1/2-y,-z
1/2+x,1/2-y,z
loop_
_atom_site_type_symbol
_atom_site_label
_atom_site_fract_x
_atom_site_fract_y
_atom_site_fract_z
Si Si1 0.500000 0.687647 0.000000
Si Si2 0.582515 0.390538 0.112915
Si Si3 0.802329 0.000000 0.536213
Si Si4 0.904447 0.186337 0.603238
Si Si5 0.836830 0.390822 0.830862
Si Si6 0.023636 0.193738 0.723646
O O1 0.567350 0.630842 0.053465
O O2 0.250000 0.750000 0.000000
O O3 0.579792 0.500000 0.118548
O O4 0.329371 0.355504 0.130360
O O5 0.860719 0.355036 0.151536
O O6 0.500000 0.000000 0.500000
O O7 0.851648 0.906504 0.570032
O O8 0.000000 0.000000 0.500000
O O9 0.644554 0.252172 0.593608
O O10 0.984853 0.158832 0.664782
O O11 0.857059 0.500000 0.836548
O O12 0.671737 0.369254 0.771829
O O13 0.232929 0.277676 0.728033
#
# Coordination Sequence:
#
# PCOD9206509 Si02
#       6
#     4   8   4   8   8   8
#     4  12  25  38  57  82 106 144 190 238 291 338
#     4  10  22  40  56  79 112 149 188 231 291 353
#     4  12  26  42  68 100 126 174 224 259 320 371
#     4  10  23  43  64  94 133 170 213 265 320 377
#     4  10  21  36  59  85 111 147 190 235 287 349
#     4  10  21  37  59  87 119 157 192 237 305 355
#
# _framework density 20.557663000000002
#
# number of rings (size 3 to 8) (size 9 to 14) (size 15 to 20)
#    0.000    1.600    0.000    3.900    1.400    7.200 
#    0.000    4.000    0.000    0.000    0.000    0.000 
#    0.000    0.000    0.000    0.000    0.000    0.000 
#
# Total GULP energy -111770.395479 kJ/mol
# GULP energy per Si atom -5588.519774 kJ/mol
# Density = 2.051087 g / cm^3
# Si number density = 20.557663 Si / 1000 Ang^3
#
#
#
# Elastic Constant Matrix: (Units=GPa)
#
#
# Indices 1 2 3 4 5 6 
#
# 1 112.6867 10.3416 28.4202 0.0000 -2.6973 0.0000
# 2 10.3416 59.7635 27.0929 0.0000 -4.4961 0.0000
# 3 28.4202 27.0929 94.6403 0.0000 4.0525 0.0000
# 4 0.0000 0.0000 0.0000 55.5072 0.0000 6.3044
# 5 -2.6973 -4.4961 4.0525 0.0000 33.0751 0.0000
# 6 0.0000 0.0000 0.0000 6.3044 0.0000 15.4499
#
#
#
# Elastic Compliance Matrix: (Units=1/GPa)
#
#
# Indices 1 2 3 4 5 6 
#
# 1 0.009649 -0.000290 -0.002862 0.000000 0.001098 0.000000
# 2 -0.000290 0.019603 -0.005668 0.000000 0.003336 0.000000
# 3 -0.002862 -0.005668 0.013160 0.000000 -0.002616 0.000000
# 4 0.000000 0.000000 0.000000 0.018891 0.000000 -0.007709
# 5 0.001098 0.003336 -0.002616 0.000000 0.031098 0.000000
# 6 0.000000 0.000000 0.000000 -0.007709 0.000000 0.067871
#
#
# Mechanical properties :
#
#
# Convention : Reuss Voigt Hill
#
# Bulk Modulus (GPa) = 40.36485 44.31108 42.33797
# Shear Modulus (GPa) = 26.85754 34.22219 30.53987
#
# Velocity S-wave (km/s) = 3.61840 4.08449 3.85849
# Velocity P-wave (km/s) = 6.09383 6.62159 6.36318
#
# Compressibility (1/GPa) = 0.02477403
#
# Stress axis : x y z
#
# Youngs Moduli (GPa) = 103.64049 51.01255 75.98705
#
# Poissons Ratio (x) = 0.01478 0.21744
# Poissons Ratio (y) = 0.03003 0.43066
# Poissons Ratio (z) = 0.29657 0.28912
#
# Static dielectric constant tensor:
#      x y z
#    x 1.731910 0.000000 -0.006270 
#    y 0.000000 1.709910 0.000000 
#    z -0.006270 0.000000 1.720770 
# 
# From -- ./inp_files/330891.got.cif
#   From: 2010.05.17/outbox.cif.g08.bks.cpg/sg12_166_cif.got.tgz:330891.got - 2010.06.03 13:09:07.
