data_PCOD9206451
_publ_section_title
;
Structure prediction by ZEFSAII (Michael W. Deem and Ramdas Pophale) SiO2 
 PCOD9206451
Probable space group: C 2/M
;
_chemical_formula_sum "Si O2"
_cell_formula_units_Z 64
_cell_length_a 8.470305
_cell_length_b 28.523445
_cell_length_c 24.916273
_cell_angle_alpha 90.000000
_cell_angle_beta 32.178636
_cell_angle_gamma 90.000000
_cell_volume 3205.924096
_symmetry_space_group_name_H-M "C 2/M"
_symmetry_group_IT_number 12
_symmetry_cell_setting 'monoclinic'
loop_
_space_group_symop_operation_xyz
x,y,z
-x,y,-z
-x,-y,-z
x,-y,z
1/2+x,1/2+y,z
1/2-x,1/2+y,-z
1/2-x,1/2-y,-z
1/2+x,1/2-y,z
loop_
_atom_site_type_symbol
_atom_site_label
_atom_site_fract_x
_atom_site_fract_y
_atom_site_fract_z
Si Si1 0.428847 0.893337 0.076678
Si Si2 0.705058 0.553157 0.242472
Si Si3 0.899824 0.189152 0.788775
Si Si4 0.344088 0.949392 0.788618
Si Si5 0.531381 0.363419 0.927478
Si Si6 0.155776 0.446722 0.584215
Si Si7 0.328103 0.873599 0.603977
Si Si8 0.336437 0.778350 0.877541
O O1 0.395034 0.927839 0.136945
O O2 0.153816 0.858332 0.161182
O O3 0.500000 0.917677 0.000000
O O4 0.698445 0.856211 0.004678
O O5 0.603445 0.500000 0.260452
O O6 0.442390 0.589797 0.327150
O O7 0.898836 0.552140 0.240526
O O8 0.607940 0.203372 0.836794
O O9 0.939671 0.232167 0.817451
O O10 0.176246 0.172881 0.672702
O O11 0.137373 0.907323 0.863935
O O12 0.473144 0.945271 0.692190
O O13 0.192581 0.000000 0.836989
O O14 0.755195 0.320426 0.860022
O O15 0.500000 0.374601 0.000000
O O16 0.500000 0.441898 0.500000
O O17 0.117758 0.500000 0.571962
O O18 0.044422 0.404187 0.579765
O O19 0.500000 0.863063 0.500000
O O20 0.000000 0.770392 0.000000
#
# Coordination Sequence:
#
# PCOD9206451 Si02
#       8
#     8   8   8   8   8   8   8   8
#     4  11  23  36  54  87 128 164 210 255 301 374
#     4  10  21  38  59  87 125 170 210 250 306 365
#     4  11  24  41  63  94 120 160 211 263 320 383
#     4  10  21  36  58  88 125 163 208 256 304 366
#     4  11  20  37  57  85 124 168 207 248 305 367
#     4  10  22  40  64  96 124 159 216 268 312 371
#     4  11  24  43  65  90 127 165 204 260 325 385
#     4  11  22  39  64  92 124 158 210 267 316 378
#
# _framework density 19.963041
#
# number of rings (size 3 to 8) (size 9 to 14) (size 15 to 20)
#    0.000    1.375    3.750    2.625    5.250    3.000 
#    0.000    0.625    0.000    0.750    0.000    0.000 
#    0.000    0.000    0.000    0.000    0.000    0.000 
#
# Total GULP energy -178430.216625 kJ/mol
# GULP energy per Si atom -5575.944270 kJ/mol
# Density = 1.991760 g / cm^3
# Si number density = 19.963041 Si / 1000 Ang^3
#
#
#
# Elastic Constant Matrix: (Units=GPa)
#
#
# Indices 1 2 3 4 5 6 
#
# 1 53.1113 15.0675 26.2658 -0.0026 0.4387 0.0000
# 2 15.0675 111.9710 46.8885 -0.0006 8.5534 -0.0007
# 3 26.2658 46.8885 97.8987 -0.0100 15.8826 -0.0004
# 4 -0.0026 -0.0006 -0.0100 29.0440 0.0010 7.0094
# 5 0.4387 8.5534 15.8826 0.0010 28.2140 0.0013
# 6 0.0000 -0.0007 -0.0004 7.0094 0.0013 24.9503
#
#
#
# Elastic Compliance Matrix: (Units=1/GPa)
#
#
# Indices 1 2 3 4 5 6 
#
# 1 0.022018 -0.000647 -0.006134 0.000000 0.003307 0.000000
# 2 -0.000647 0.011195 -0.005106 -0.000002 -0.000510 0.000001
# 3 -0.006134 -0.005106 0.015450 0.000005 -0.007054 -0.000001
# 4 0.000000 -0.000002 0.000005 0.036935 -0.000003 -0.010376
# 5 0.003307 -0.000510 -0.007054 -0.000003 0.039517 -0.000001
# 6 0.000000 0.000001 -0.000001 -0.010376 -0.000001 0.042995
#
#
# Mechanical properties :
#
#
# Convention : Reuss Voigt Hill
#
# Bulk Modulus (GPa) = 40.17636 48.82496 44.50066
# Shear Modulus (GPa) = 24.97760 28.09230 26.53495
#
# Velocity S-wave (km/s) = 3.54106 3.75536 3.64978
# Velocity P-wave (km/s) = 6.07354 6.58137 6.33254
#
# Compressibility (1/GPa) = 0.02489026
#
# Stress axis : x y z
#
# Youngs Moduli (GPa) = 45.41716 89.32702 64.72453
#
# Poissons Ratio (x) = 0.05778 0.39702
# Poissons Ratio (y) = 0.02938 0.33045
# Poissons Ratio (z) = 0.27859 0.45606
#
# Static dielectric constant tensor:
#      x y z
#    x 1.775130 0.000000 -0.016580 
#    y 0.000000 1.705660 0.000000 
#    z -0.016580 0.000000 1.727630 
# 
# From -- ./inp_files/334352.got.cif
#   From: 2010.05.17/outbox.cif.g08.bks.cpg/sg12_168_cif.got.tgz:334352.got - 2010.06.03 13:09:07.
