data_PCOD9206571
_publ_section_title
;
Structure prediction by ZEFSAII (Michael W. Deem and Ramdas Pophale) SiO2 
 PCOD9206571
Probable space group: C 2/M
;
_chemical_formula_sum "Si O2"
_cell_formula_units_Z 48
_cell_length_a 12.705922
_cell_length_b 20.053873
_cell_length_c 11.104457
_cell_angle_alpha 90.000000
_cell_angle_beta 62.602911
_cell_angle_gamma 90.000000
_cell_volume 2512.093937
_symmetry_space_group_name_H-M "C 2/M"
_symmetry_group_IT_number 12
_symmetry_cell_setting 'monoclinic'
loop_
_space_group_symop_operation_xyz
x,y,z
-x,y,-z
-x,-y,-z
x,-y,z
1/2+x,1/2+y,z
1/2-x,1/2+y,-z
1/2-x,1/2-y,-z
1/2+x,1/2-y,z
loop_
_atom_site_type_symbol
_atom_site_label
_atom_site_fract_x
_atom_site_fract_y
_atom_site_fract_z
Si Si1 0.689706 0.000000 0.849406
Si Si2 0.877081 0.075481 0.324792
Si Si3 0.364871 0.290907 0.468440
Si Si4 0.110026 0.242923 0.266087
Si Si5 0.206557 0.608263 0.192502
Si Si6 0.040331 0.500000 0.178530
Si Si7 0.351395 0.392320 0.873687
O O1 0.598063 0.000000 0.786040
O O2 0.775116 0.935994 0.819179
O O3 0.609412 0.000000 0.013597
O O4 0.860231 0.132187 0.433384
O O5 0.778664 0.087497 0.273389
O O6 0.010961 0.086498 0.204109
O O7 0.867549 0.000000 0.374600
O O8 0.250000 0.250000 0.500000
O O9 0.378612 0.283359 0.603593
O O10 0.467728 0.256805 0.333281
O O11 0.168691 0.314544 0.219845
O O12 0.157969 0.185643 0.153787
O O13 0.090419 0.563558 0.225667
O O14 0.294899 0.596361 0.033971
#
# Coordination Sequence:
#
# PCOD9206571 Si02
#       7
#     4   8   8   8   8   4   8
#     4   9  18  37  53  77 127 157 190 232 284 361
#     4  11  21  37  64  93 120 153 199 250 304 358
#     4  10  21  41  61  81 117 161 201 248 298 340
#     4  10  22  38  60  86 115 158 204 246 294 352
#     4  11  20  36  61  89 125 153 194 245 306 362
#     4   9  20  33  55  83 114 167 190 225 294 353
#     4  10  21  36  59  91 121 156 193 245 301 363
#
# _framework density 19.107565999999998
#
# number of rings (size 3 to 8) (size 9 to 14) (size 15 to 20)
#    0.000    1.833    3.333    1.000    0.000    2.000 
#    1.500    1.667    1.833    2.000    0.000    0.000 
#    0.000    0.000    0.000    0.000    0.000    0.000 
#
# Total GULP energy -133865.399488 kJ/mol
# GULP energy per Si atom -5577.724979 kJ/mol
# Density = 1.906408 g / cm^3
# Si number density = 19.107566 Si / 1000 Ang^3
#
#
#
# Elastic Constant Matrix: (Units=GPa)
#
#
# Indices 1 2 3 4 5 6 
#
# 1 124.9206 54.0048 10.3699 0.0000 -1.7054 0.0000
# 2 54.0048 147.9061 17.5550 0.0000 -7.3012 0.0000
# 3 10.3699 17.5550 25.1025 0.0000 0.3941 0.0000
# 4 0.0000 0.0000 0.0000 25.1621 0.0000 3.4231
# 5 -1.7054 -7.3012 0.3941 0.0000 15.9157 0.0000
# 6 0.0000 0.0000 0.0000 3.4231 0.0000 24.9988
#
#
#
# Elastic Compliance Matrix: (Units=1/GPa)
#
#
# Indices 1 2 3 4 5 6 
#
# 1 0.009571 -0.003325 -0.001621 0.000000 -0.000460 0.000000
# 2 -0.003325 0.008730 -0.004791 0.000000 0.003767 0.000000
# 3 -0.001621 -0.004791 0.043911 0.000000 -0.003459 0.000000
# 4 0.000000 0.000000 0.000000 0.040497 0.000000 -0.005545
# 5 -0.000460 0.003767 -0.003459 0.000000 0.064595 0.000000
# 6 0.000000 0.000000 0.000000 -0.005545 0.000000 0.040761
#
#
# Mechanical properties :
#
#
# Convention : Reuss Voigt Hill
#
# Bulk Modulus (GPa) = 23.39844 51.30983 37.35414
# Shear Modulus (GPa) = 20.67962 27.61529 24.14746
#
# Velocity S-wave (km/s) = 3.29336 3.80577 3.55880
# Velocity P-wave (km/s) = 5.17048 6.79877 6.03975
#
# Compressibility (1/GPa) = 0.04273789
#
# Stress axis : x y z
#
# Youngs Moduli (GPa) = 104.48489 114.55311 22.77338
#
# Poissons Ratio (x) = 0.38087 0.03692
# Poissons Ratio (y) = 0.34739 0.10910
# Poissons Ratio (z) = 0.16940 0.54877
#
# Static dielectric constant tensor:
#      x y z
#    x 1.605700 0.000000 -0.035920 
#    y 0.000000 1.430470 0.000000 
#    z -0.035920 0.000000 1.637770 
# 
# From -- ./inp_files/131697.got.cif
#   From: 2010.05.17/outbox.cif.g08.bks.cpg/sg12_66_cif.got.tgz:131697.got - 2010.06.03 13:09:07.
