data_PCOD9206773
_publ_section_title
;
Structure prediction by ZEFSAII (Michael W. Deem and Ramdas Pophale) SiO2 
 PCOD9206773
Probable space group: C 2/M
;
_chemical_formula_sum "Si O2"
_cell_formula_units_Z 52
_cell_length_a 28.183843
_cell_length_b 14.404444
_cell_length_c 8.718616
_cell_angle_alpha 90.000000
_cell_angle_beta 140.914482
_cell_angle_gamma 90.000000
_cell_volume 2231.594712
_symmetry_space_group_name_H-M "C 2/M"
_symmetry_group_IT_number 12
_symmetry_cell_setting 'monoclinic'
loop_
_space_group_symop_operation_xyz
x,y,z
-x,y,-z
-x,-y,-z
x,-y,z
1/2+x,1/2+y,z
1/2-x,1/2+y,-z
1/2-x,1/2-y,-z
1/2+x,1/2-y,z
loop_
_atom_site_type_symbol
_atom_site_label
_atom_site_fract_x
_atom_site_fract_y
_atom_site_fract_z
Si Si1 0.640519 0.215229 0.683292
Si Si2 0.000000 0.163070 0.000000
Si Si3 0.748499 0.606995 0.452853
Si Si4 0.998826 0.609581 0.321109
Si Si5 0.418748 0.841908 0.842671
Si Si6 0.722753 0.771584 0.186532
Si Si7 0.957571 0.102059 0.558979
O O1 0.581059 0.141065 0.469028
O O2 0.710769 0.229865 0.750897
O O3 0.599468 0.313433 0.591953
O O4 0.667099 0.188329 0.919635
O O5 0.070459 0.235430 0.182396
O O6 0.000310 0.113587 0.167782
O O7 0.724328 0.500000 0.384150
O O8 0.836893 0.614294 0.622014
O O9 0.701030 0.681080 0.233627
O O10 0.749960 0.649767 0.627395
O O11 0.987714 0.500000 0.284862
O O12 0.000000 0.639042 0.500000
O O13 0.934562 0.660206 0.065424
O O14 0.500000 0.889145 0.000000
O O15 0.000000 0.105975 0.500000
O O16 0.921752 0.000000 0.475664
#
# Coordination Sequence:
#
# PCOD9206773 Si02
#       7
#     8   4   8   8   8   8   8
#     4  11  22  43  63  87 129 169 215 274 311 387
#     4  10  21  40  65  96 134 170 201 264 333 404
#     4  11  23  42  63  92 129 165 216 271 317 390
#     4  11  22  36  62  99 128 160 202 262 346 412
#     4  10  21  36  62  96 125 157 196 256 339 402
#     4  10  25  41  63  88 120 178 223 255 325 375
#     4  11  24  41  66  97 128 171 221 273 332 384
#
# _framework density 23.301721000000001
#
# number of rings (size 3 to 8) (size 9 to 14) (size 15 to 20)
#    0.462    0.923    1.538    3.923    2.154    6.154 
#    0.000    3.077    0.000    0.000    0.000    0.000 
#    0.000    0.000    0.000    0.000    0.000    0.000 
#
# Total GULP energy -145048.102391 kJ/mol
# GULP energy per Si atom -5578.773169 kJ/mol
# Density = 2.324869 g / cm^3
# Si number density = 23.301721 Si / 1000 Ang^3
#
#
#
# Elastic Constant Matrix: (Units=GPa)
#
#
# Indices 1 2 3 4 5 6 
#
# 1 81.1860 -4.2654 -0.4726 0.0000 -22.8374 0.0000
# 2 -4.2654 86.2590 4.8583 0.0000 -20.8978 0.0000
# 3 -0.4726 4.8583 75.5466 0.0000 -19.0439 0.0000
# 4 0.0000 0.0000 0.0000 9.8913 0.0000 1.9849
# 5 -22.8374 -20.8978 -19.0439 0.0000 32.6668 0.0000
# 6 0.0000 0.0000 0.0000 1.9849 0.0000 5.9866
#
#
#
# Elastic Compliance Matrix: (Units=1/GPa)
#
#
# Indices 1 2 3 4 5 6 
#
# 1 0.017708 0.005024 0.004359 0.000000 0.018134 0.000000
# 2 0.005024 0.015303 0.002814 0.000000 0.014942 0.000000
# 3 0.004359 0.002814 0.016770 0.000000 0.014624 0.000000
# 4 0.000000 0.000000 0.000000 0.108305 0.000000 -0.035908
# 5 0.018134 0.014942 0.014624 0.000000 0.061374 0.000000
# 6 0.000000 0.000000 0.000000 -0.035908 0.000000 0.178944
#
#
# Mechanical properties :
#
#
# Convention : Reuss Voigt Hill
#
# Bulk Modulus (GPa) = 13.48195 27.02580 20.25388
# Shear Modulus (GPa) = 12.53966 25.90036 19.22001
#
# Velocity S-wave (km/s) = 2.32231 3.33757 2.87510
# Velocity P-wave (km/s) = 3.60405 5.14547 4.44213
#
# Compressibility (1/GPa) = 0.07417323
#
# Stress axis : x y z
#
# Youngs Moduli (GPa) = 56.47217 65.34716 59.63192
#
# Poissons Ratio (x) = -0.32827 -0.25994
# Poissons Ratio (y) = -0.28369 -0.16780
# Poissons Ratio (z) = -0.24617 -0.18388
#
# Static dielectric constant tensor:
#      x y z
#    x 2.053540 0.000000 -0.063000 
#    y 0.000000 1.792750 0.000000 
#    z -0.063000 0.000000 1.957870 
# 
# From -- ./inp_files/112073.got.cif
#   From: 2010.05.17/outbox.cif.g08.bks.cpg/sg12_57_cif.got.tgz:112073.got - 2010.06.03 13:09:07.
