data_PCOD9206517
_publ_section_title
;
Structure prediction by ZEFSAII (Michael W. Deem and Ramdas Pophale) SiO2 
 PCOD9206517
Probable space group: C 2/M
;
_chemical_formula_sum "Si O2"
_cell_formula_units_Z 42
_cell_length_a 17.574290
_cell_length_b 15.162851
_cell_length_c 7.736138
_cell_angle_alpha 90.000000
_cell_angle_beta 118.147695
_cell_angle_gamma 90.000000
_cell_volume 1817.693630
_symmetry_space_group_name_H-M "C 2/M"
_symmetry_group_IT_number 12
_symmetry_cell_setting 'monoclinic'
loop_
_space_group_symop_operation_xyz
x,y,z
-x,y,-z
-x,-y,-z
x,-y,z
1/2+x,1/2+y,z
1/2-x,1/2+y,-z
1/2-x,1/2-y,-z
1/2+x,1/2-y,z
loop_
_atom_site_type_symbol
_atom_site_label
_atom_site_fract_x
_atom_site_fract_y
_atom_site_fract_z
Si Si1 0.772978 0.103475 0.030085
Si Si2 0.000000 0.000000 0.500000
Si Si3 0.878005 0.272070 0.236760
Si Si4 0.603343 0.593840 0.317419
Si Si5 0.941558 0.274926 0.698632
Si Si6 0.793769 0.597336 0.649553
O O1 0.848100 0.177675 0.124223
O O2 0.736832 0.098432 0.185866
O O3 0.793268 0.000000 0.004638
O O4 0.698082 0.154947 0.846168
O O5 0.055332 0.073604 0.448466
O O6 0.905908 0.260429 0.464978
O O7 0.960693 0.306076 0.218947
O O8 0.593444 0.500000 0.210854
O O9 0.562509 0.682267 0.207833
O O10 0.704965 0.612781 0.449988
O O11 0.872056 0.338006 0.707971
O O12 0.823712 0.500000 0.632609
#
# Coordination Sequence:
#
# PCOD9206517 Si02
#       6
#     8   2   8   8   8   8
#     4  10  22  41  61  83 118 155 198 240 290 355
#     4   8  16  28  52  84 122 134 192 230 288 336
#     4  10  23  37  59  90 114 156 195 239 299 344
#     4   9  18  29  54  89 118 144 183 241 290 339
#     4  11  21  36  60  90 122 145 194 251 291 345
#     4  10  21  36  59  86 117 156 194 237 294 346
#
# _framework density 23.106204999999999
#
# number of rings (size 3 to 8) (size 9 to 14) (size 15 to 20)
#    0.571    1.524    1.905    1.714    0.000    3.048 
#    0.000    3.810    0.000    0.000    0.000    4.000 
#    0.000    0.000    0.000    0.000    0.000    0.000 
#
# Total GULP energy -116942.255344 kJ/mol
# GULP energy per Si atom -5568.678826 kJ/mol
# Density = 2.305361 g / cm^3
# Si number density = 23.106205 Si / 1000 Ang^3
#
#
#
# Elastic Constant Matrix: (Units=GPa)
#
#
# Indices 1 2 3 4 5 6 
#
# 1 135.5615 56.4932 12.6047 0.0000 12.1940 0.0000
# 2 56.4932 75.7597 17.9279 0.0000 3.2151 0.0000
# 3 12.6047 17.9279 73.8678 0.0000 21.5913 0.0000
# 4 0.0000 0.0000 0.0000 4.6352 0.0000 -11.3862
# 5 12.1940 3.2151 21.5913 0.0000 17.5759 0.0000
# 6 0.0000 0.0000 0.0000 -11.3862 0.0000 50.0480
#
#
#
# Elastic Compliance Matrix: (Units=1/GPa)
#
#
# Indices 1 2 3 4 5 6 
#
# 1 0.011840 -0.009160 0.003298 0.000000 -0.010591 0.000000
# 2 -0.009160 0.021162 -0.006708 0.000000 0.010724 0.000000
# 3 0.003298 -0.006708 0.023268 0.000000 -0.029645 0.000000
# 4 0.000000 0.000000 0.000000 0.489057 0.000000 0.111263
# 5 -0.010591 0.010724 -0.029645 0.000000 0.098701 0.000000
# 6 0.000000 0.000000 0.000000 0.111263 0.000000 0.045294
#
#
# Mechanical properties :
#
#
# Convention : Reuss Voigt Hill
#
# Bulk Modulus (GPa) = 32.12142 51.02673 41.57408
# Shear Modulus (GPa) = 6.89809 27.66270 17.28040
#
# Velocity S-wave (km/s) = 1.72970 3.46381 2.73768
# Velocity P-wave (km/s) = 4.23332 6.17485 5.29385
#
# Compressibility (1/GPa) = 0.03113187
#
# Stress axis : x y z
#
# Youngs Moduli (GPa) = 84.45939 47.25362 42.97731
#
# Poissons Ratio (x) = 0.43285 -0.14176
# Poissons Ratio (y) = 0.77365 0.28828
# Poissons Ratio (z) = -0.27859 0.31697
#
# Static dielectric constant tensor:
#      x y z
#    x 1.858520 0.000000 -0.001680 
#    y 0.000000 1.899620 0.000000 
#    z -0.001680 0.000000 1.935560 
# 
# From -- ./inp_files/73748.got.cif
#   From: 2010.05.17/outbox.cif.g08.bks.cpg/sg12_37_cif.got.tgz:73748.got - 2010.06.03 13:09:07.
