data_PCOD9206244
_publ_section_title
;
Structure prediction by ZEFSAII (Michael W. Deem and Ramdas Pophale) SiO2 
 PCOD9206244
Probable space group: C 2/M
;
_chemical_formula_sum "Si O2"
_cell_formula_units_Z 56
_cell_length_a 18.102386
_cell_length_b 20.475980
_cell_length_c 10.544582
_cell_angle_alpha 90.000000
_cell_angle_beta 130.563981
_cell_angle_gamma 90.000000
_cell_volume 2969.208750
_symmetry_space_group_name_H-M "C 2/M"
_symmetry_group_IT_number 12
_symmetry_cell_setting 'monoclinic'
loop_
_space_group_symop_operation_xyz
x,y,z
-x,y,-z
-x,-y,-z
x,-y,z
1/2+x,1/2+y,z
1/2-x,1/2+y,-z
1/2-x,1/2-y,-z
1/2+x,1/2-y,z
loop_
_atom_site_type_symbol
_atom_site_label
_atom_site_fract_x
_atom_site_fract_y
_atom_site_fract_z
Si Si1 0.821869 0.759255 0.773026
Si Si2 0.739844 0.183715 0.067104
Si Si3 0.531698 0.331649 0.665895
Si Si4 0.275265 0.070765 0.136096
Si Si5 0.606839 0.785607 0.420774
Si Si6 0.081425 0.426760 0.481436
Si Si7 0.070160 0.117301 0.972492
O O1 0.816791 0.700493 0.868549
O O2 0.709390 0.776932 0.611799
O O3 0.872504 0.738042 0.699282
O O4 0.879178 0.818357 0.906326
O O5 0.852383 0.169054 0.218249
O O6 0.750000 0.250000 0.000000
O O7 0.696411 0.128076 0.928503
O O8 0.500000 0.364970 0.500000
O O9 0.475984 0.261785 0.613287
O O10 0.512091 0.364173 0.780194
O O11 0.320940 0.078144 0.325806
O O12 0.305839 0.000000 0.120582
O O13 0.160135 0.074532 0.027384
O O14 0.576815 0.861626 0.392947
O O15 0.076429 0.500000 0.417933
O O16 0.000000 0.423295 0.500000
O O17 0.000000 0.088500 0.000000
#
# Coordination Sequence:
#
# PCOD9206244 Si02
#       7
#     8   8   8   8   8   8   8
#     4  11  21  34  53  87 114 148 183 243 281 351
#     4  11  20  35  57  83 110 146 192 234 284 338
#     4  11  21  31  54  85 113 144 186 238 289 333
#     4  10  22  39  59  81 114 152 193 237 285 341
#     4  11  21  33  55  84 117 144 187 232 304 325
#     4  10  21  36  57  83 111 150 193 232 280 350
#     4  11  21  37  56  85 116 150 195 232 290 341
#
# _framework density 18.860243000000001
#
# number of rings (size 3 to 8) (size 9 to 14) (size 15 to 20)
#    0.000    1.286    7.143    0.429    2.000    0.286 
#    0.000    0.714    0.000    6.857    0.000    4.000 
#    0.000    0.000    0.000    0.000    0.000    0.000 
#
# Total GULP energy -156100.746525 kJ/mol
# GULP energy per Si atom -5575.026662 kJ/mol
# Density = 1.881732 g / cm^3
# Si number density = 18.860243 Si / 1000 Ang^3
#
#
#
# Elastic Constant Matrix: (Units=GPa)
#
#
# Indices 1 2 3 4 5 6 
#
# 1 45.4315 5.3089 -2.4012 0.0000 -16.9578 0.0000
# 2 5.3089 87.0730 3.5289 0.0000 -14.8032 0.0000
# 3 -2.4012 3.5289 60.7977 0.0000 -16.9627 0.0000
# 4 0.0000 0.0000 0.0000 12.3832 0.0000 -4.8877
# 5 -16.9578 -14.8032 -16.9627 0.0000 30.4292 0.0000
# 6 0.0000 0.0000 0.0000 -4.8877 0.0000 19.9332
#
#
#
# Elastic Compliance Matrix: (Units=1/GPa)
#
#
# Indices 1 2 3 4 5 6 
#
# 1 0.030267 0.001536 0.007130 0.000000 0.021589 0.000000
# 2 0.001536 0.012667 0.001520 0.000000 0.007865 0.000000
# 3 0.007130 0.001520 0.021263 0.000000 0.016566 0.000000
# 4 0.000000 0.000000 0.000000 0.089408 0.000000 0.021923
# 5 0.021589 0.007865 0.016566 0.000000 0.057955 0.000000
# 6 0.000000 0.000000 0.000000 0.021923 0.000000 0.055543
#
#
# Mechanical properties :
#
#
# Convention : Reuss Voigt Hill
#
# Bulk Modulus (GPa) = 11.82486 22.90838 17.36662
# Shear Modulus (GPa) = 18.18702 25.00683 21.59692
#
# Velocity S-wave (km/s) = 3.10869 3.64524 3.38761
# Velocity P-wave (km/s) = 4.37820 5.46716 4.95270
#
# Compressibility (1/GPa) = 0.08456762
#
# Stress axis : x y z
#
# Youngs Moduli (GPa) = 33.03942 78.94821 47.02947
#
# Poissons Ratio (x) = -0.12126 -0.33530
# Poissons Ratio (y) = -0.05075 -0.07148
# Poissons Ratio (z) = -0.23556 -0.11999
#
# Static dielectric constant tensor:
#      x y z
#    x 1.669660 0.000000 0.026030 
#    y 0.000000 1.743330 0.000000 
#    z 0.026030 0.000000 1.689290 
# 
# From -- ./inp_files/168522.got.cif
#   From: 2010.05.17/outbox.cif.g08.bks.cpg/sg12_85_cif.got.tgz:168522.got - 2010.06.03 13:09:07.
