data_PCOD9206046
_publ_section_title
;
Structure prediction by ZEFSAII (Michael W. Deem and Ramdas Pophale) SiO2 
 PCOD9206046
Probable space group: C 2/M
;
_chemical_formula_sum "Si O2"
_cell_formula_units_Z 56
_cell_length_a 10.609884
_cell_length_b 8.403553
_cell_length_c 33.181639
_cell_angle_alpha 90.000000
_cell_angle_beta 76.020369
_cell_angle_gamma 90.000000
_cell_volume 2870.873110
_symmetry_space_group_name_H-M "C 2/M"
_symmetry_group_IT_number 12
_symmetry_cell_setting 'monoclinic'
loop_
_space_group_symop_operation_xyz
x,y,z
-x,y,-z
-x,-y,-z
x,-y,z
1/2+x,1/2+y,z
1/2-x,1/2+y,-z
1/2-x,1/2-y,-z
1/2+x,1/2-y,z
loop_
_atom_site_type_symbol
_atom_site_label
_atom_site_fract_x
_atom_site_fract_y
_atom_site_fract_z
Si Si1 0.607265 0.307545 0.191095
Si Si2 0.108283 0.307585 0.523734
Si Si3 0.751788 0.809200 0.332975
Si Si4 0.963422 0.692443 0.380488
Si Si5 0.036425 0.807619 0.952124
Si Si6 0.180125 0.807626 0.095312
Si Si7 0.176167 0.309231 0.761386
O O1 0.606306 0.500000 0.191269
O O2 0.643652 0.253928 0.143200
O O3 0.715948 0.253969 0.214684
O O4 0.465700 0.249374 0.214832
O O5 0.108218 0.500000 0.523657
O O6 0.250000 0.250000 0.500000
O O7 0.072067 0.253895 0.571620
O O8 0.000000 0.253888 0.500000
O O9 0.857270 0.750436 0.356919
O O10 0.607557 0.753942 0.356687
O O11 0.787744 0.750214 0.285777
O O12 0.752069 0.000000 0.332943
O O13 0.963336 0.500000 0.380343
O O14 0.178165 0.750067 0.928400
O O15 0.928155 0.753740 0.928404
O O16 0.036690 0.000000 0.952094
O O17 0.000000 0.753701 0.000000
O O18 0.180497 0.000000 0.095260
O O19 0.176229 0.500000 0.761203
#
# Coordination Sequence:
#
# PCOD9206046 Si02
#       7
#     8   8   8   8   8   8   8
#     4  10  22  39  58  83 113 145 185 231 278 332
#     4  10  21  38  59  85 117 150 188 233 278 329
#     4  11  23  39  60  84 112 148 187 229 279 331
#     4  10  22  39  59  85 116 150 189 232 278 330
#     4  10  21  36  55  82 114 148 188 231 276 330
#     4  10  21  37  57  82 112 146 186 231 278 330
#     4  11  23  38  58  84 112 144 184 228 277 334
#
# _framework density 19.506260000000001
#
# number of rings (size 3 to 8) (size 9 to 14) (size 15 to 20)
#    0.000    1.714    0.000    3.857    0.000    8.000 
#    0.000    0.000    0.000    0.000    0.000    0.000 
#    0.000    0.000    0.000    0.000    0.000    0.000 
#
# Total GULP energy -156551.766546 kJ/mol
# GULP energy per Si atom -5591.134519 kJ/mol
# Density = 1.946186 g / cm^3
# Si number density = 19.506260 Si / 1000 Ang^3
#
#
#
# Elastic Constant Matrix: (Units=GPa)
#
#
# Indices 1 2 3 4 5 6 
#
# 1 244.9169 26.3778 151.6761 0.0000 1.4326 0.0000
# 2 26.3778 9.5493 29.5295 0.0000 2.0133 0.0000
# 3 151.6761 29.5295 248.7016 0.0000 0.8876 0.0000
# 4 0.0000 0.0000 0.0000 9.1724 0.0000 -16.4167
# 5 1.4326 2.0133 0.8876 0.0000 47.2738 0.0000
# 6 0.0000 0.0000 0.0000 -16.4167 0.0000 23.9230
#
#
#
# Elastic Compliance Matrix: (Units=1/GPa)
#
#
# Indices 1 2 3 4 5 6 
#
# 1 0.007104 -0.009922 -0.003156 0.000000 0.000267 0.000000
# 2 -0.009922 0.181470 -0.015470 0.000000 -0.007137 0.000000
# 3 -0.003156 -0.015470 0.007780 0.000000 0.000608 0.000000
# 4 0.000000 0.000000 0.000000 -0.477737 0.000000 -0.327837
# 5 0.000267 -0.007137 0.000608 0.000000 0.021438 0.000000
# 6 0.000000 0.000000 0.000000 -0.327837 0.000000 -0.183171
#
#
# Mechanical properties :
#
#
# Convention : Reuss Voigt Hill
#
# Bulk Modulus (GPa) = 7.18087 102.03716 54.60902
# Shear Modulus (GPa) = -14.72323 35.77947 10.52812
#
# Velocity S-wave (km/s) = -2.75033 4.28747 2.32573
# Velocity P-wave (km/s) = 2.52913 8.77117 5.93872
#
# Compressibility (1/GPa) = 0.13925892
#
# Stress axis : x y z
#
# Youngs Moduli (GPa) = 140.75953 5.51055 128.53409
#
# Poissons Ratio (x) = 0.05468 0.40560
# Poissons Ratio (y) = 1.39664 1.98843
# Poissons Ratio (z) = 0.44418 0.08525
#
# Static dielectric constant tensor:
#      x y z
#    x 1.638790 0.000000 0.014380 
#    y 0.000000 1.673160 0.000000 
#    z 0.014380 0.000000 1.657030 
# 
# From -- ./inp_files/357493.got.cif
#   From: 2010.05.17/outbox.cif.g08.bks.cpg/sg12_179_cif.got.tgz:357493.got - 2010.06.03 13:09:07.
