data_PCOD9206665
_publ_section_title
;
Structure prediction by ZEFSAII (Michael W. Deem and Ramdas Pophale) SiO2 
 PCOD9206665
Probable space group: C 2/M
;
_chemical_formula_sum "Si O2"
_cell_formula_units_Z 60
_cell_length_a 18.457813
_cell_length_b 18.197054
_cell_length_c 9.313340
_cell_angle_alpha 90.000000
_cell_angle_beta 105.751171
_cell_angle_gamma 90.000000
_cell_volume 3010.681541
_symmetry_space_group_name_H-M "C 2/M"
_symmetry_group_IT_number 12
_symmetry_cell_setting 'monoclinic'
loop_
_space_group_symop_operation_xyz
x,y,z
-x,y,-z
-x,-y,-z
x,-y,z
1/2+x,1/2+y,z
1/2-x,1/2+y,-z
1/2-x,1/2-y,-z
1/2+x,1/2-y,z
loop_
_atom_site_type_symbol
_atom_site_label
_atom_site_fract_x
_atom_site_fract_y
_atom_site_fract_z
Si Si1 0.757870 0.670322 0.429436
Si Si2 0.587495 0.184830 0.035976
Si Si3 0.877163 0.853032 0.859639
Si Si4 0.000000 0.204136 0.500000
Si Si5 0.201117 0.417729 0.268347
Si Si6 0.340883 0.380588 0.155114
Si Si7 0.372425 0.217925 0.256779
Si Si8 0.015461 0.083182 0.298619
O O1 0.750000 0.750000 0.500000
O O2 0.684172 0.652133 0.298378
O O3 0.774020 0.613079 0.564019
O O4 0.824522 0.675802 0.348969
O O5 0.596505 0.270803 0.083931
O O6 0.640075 0.136752 0.166295
O O7 0.500000 0.165401 0.000000
O O8 0.613271 0.177125 0.884580
O O9 0.946686 0.898593 0.832999
O O10 0.840609 0.886893 0.983113
O O11 0.050823 0.254442 0.627878
O O12 0.044345 0.146836 0.421840
O O13 0.170935 0.500000 0.264023
O O14 0.274186 0.418344 0.204444
O O15 0.331983 0.294466 0.191716
O O16 0.425127 0.406026 0.243903
O O17 0.033337 0.000000 0.352140
#
# Coordination Sequence:
#
# PCOD9206665 Si02
#       8
#     8   8   8   4   8   8   8   8
#     4  12  22  40  66  94 129 168 211 268 318 378
#     4  11  23  43  71  97 124 165 223 276 320 378
#     4  11  22  39  65  97 128 169 220 264 307 377
#     4  10  21  36  60  92 129 160 210 266 313 382
#     4  12  27  44  65  95 132 170 214 267 329 390
#     4  10  21  41  63  92 130 169 218 260 310 380
#     4  10  21  38  67  98 121 162 215 268 319 369
#     4  11  23  36  57  93 138 178 209 252 319 389
#
# _framework density 19.929043
#
# number of rings (size 3 to 8) (size 9 to 14) (size 15 to 20)
#    0.000    1.067    2.667    5.000    3.733    4.533 
#    0.000    2.000    0.000    0.800    0.000    0.000 
#    0.000    0.000    0.000    0.000    0.000    0.000 
#
# Total GULP energy -167737.050223 kJ/mol
# GULP energy per Si atom -5591.235007 kJ/mol
# Density = 1.988368 g / cm^3
# Si number density = 19.929043 Si / 1000 Ang^3
#
#
#
# Elastic Constant Matrix: (Units=GPa)
#
#
# Indices 1 2 3 4 5 6 
#
# 1 81.5127 18.2754 46.3301 0.0000 -12.9063 0.0000
# 2 18.2754 44.3469 13.1715 0.0000 -8.4313 0.0000
# 3 46.3301 13.1715 133.6224 0.0000 -5.0279 0.0000
# 4 0.0000 0.0000 0.0000 5.0246 0.0000 -1.6050
# 5 -12.9063 -8.4313 -5.0279 0.0000 39.6167 0.0000
# 6 0.0000 0.0000 0.0000 -1.6050 0.0000 9.6533
#
#
#
# Elastic Compliance Matrix: (Units=1/GPa)
#
#
# Indices 1 2 3 4 5 6 
#
# 1 0.016915 -0.004677 -0.005259 0.000000 0.003848 0.000000
# 2 -0.004677 0.025418 -0.000741 0.000000 0.003792 0.000000
# 3 -0.005259 -0.000741 0.009355 0.000000 -0.000684 0.000000
# 4 0.000000 0.000000 0.000000 0.210186 0.000000 0.034946
# 5 0.003848 0.003792 -0.000684 0.000000 0.027216 0.000000
# 6 0.000000 0.000000 0.000000 0.034946 0.000000 0.109402
#
#
# Mechanical properties :
#
#
# Convention : Reuss Voigt Hill
#
# Bulk Modulus (GPa) = 32.96762 46.11511 39.54136
# Shear Modulus (GPa) = 11.62909 22.97258 17.30084
#
# Velocity S-wave (km/s) = 2.41825 3.39885 2.94959
# Velocity P-wave (km/s) = 4.93717 6.21231 5.61108
#
# Compressibility (1/GPa) = 0.03033280
#
# Stress axis : x y z
#
# Youngs Moduli (GPa) = 59.11913 39.34227 106.90006
#
# Poissons Ratio (x) = 0.18401 0.56219
# Poissons Ratio (y) = 0.27651 0.07923
# Poissons Ratio (z) = 0.31091 0.02916
#
# Static dielectric constant tensor:
#      x y z
#    x 1.720090 0.000000 -0.008770 
#    y 0.000000 1.686980 0.000000 
#    z -0.008770 0.000000 1.720780 
# 
# From -- ./inp_files/75932.got.cif
#   From: 2010.05.17/outbox.cif.g08.bks.cpg/sg12_38_cif.got.tgz:75932.got - 2010.06.03 13:09:07.
