data_PCOD9206943
_publ_section_title
;
Structure prediction by ZEFSAII (Michael W. Deem and Ramdas Pophale) SiO2 
 PCOD9206943
Probable space group: C 2/M
;
_chemical_formula_sum "Si O2"
_cell_formula_units_Z 48
_cell_length_a 25.267774
_cell_length_b 7.469713
_cell_length_c 11.168787
_cell_angle_alpha 90.000000
_cell_angle_beta 98.229236
_cell_angle_gamma 90.000000
_cell_volume 2086.324878
_symmetry_space_group_name_H-M "C 2/M"
_symmetry_group_IT_number 12
_symmetry_cell_setting 'monoclinic'
loop_
_space_group_symop_operation_xyz
x,y,z
-x,y,-z
-x,-y,-z
x,-y,z
1/2+x,1/2+y,z
1/2-x,1/2+y,-z
1/2-x,1/2-y,-z
1/2+x,1/2-y,z
loop_
_atom_site_type_symbol
_atom_site_label
_atom_site_fract_x
_atom_site_fract_y
_atom_site_fract_z
Si Si1 0.186684 0.212777 0.492597
Si Si2 0.983739 0.283972 0.360103
Si Si3 0.866167 0.298143 0.280634
Si Si4 0.847164 0.781498 0.775724
Si Si5 0.961833 0.786174 0.879059
Si Si6 0.761390 0.286203 0.139590
O O1 0.250000 0.250000 0.500000
O O2 0.161046 0.304684 0.598197
O O3 0.154237 0.267286 0.364125
O O4 0.180921 0.000000 0.505960
O O5 0.982130 0.500000 0.368643
O O6 0.924151 0.214675 0.311892
O O7 0.000000 0.220923 0.500000
O O8 0.017766 0.243514 0.251151
O O9 0.875084 0.500000 0.236777
O O10 0.819419 0.209436 0.189035
O O11 0.900386 0.719172 0.860535
O O12 0.790106 0.717590 0.806217
O O13 0.846748 0.000000 0.781797
O O14 0.959536 0.000000 0.894593
O O15 0.000000 0.717785 0.000000
O O16 0.764227 0.500000 0.164897
O O17 0.750000 0.250000 0.000000
#
# Coordination Sequence:
#
# PCOD9206943 Si02
#       6
#     8   8   8   8   8   8
#     4  11  20  34  57  84 114 146 183 226 280 337
#     4  10  22  40  61  86 118 154 192 238 290 343
#     4  10  21  38  58  82 115 148 182 230 283 333
#     4   9  19  37  57  79 113 147 178 229 284 328
#     4  10  22  39  61  87 114 151 197 241 285 339
#     4  10  21  37  55  78 111 146 183 230 280 330
#
# _framework density 23.006964
#
# number of rings (size 3 to 8) (size 9 to 14) (size 15 to 20)
#    0.000    2.000    1.667    1.500    2.333    2.000 
#    0.000    1.667    0.000    0.000    0.000    0.000 
#    0.000    0.000    0.000    0.000    0.000    0.000 
#
# Total GULP energy -133986.388133 kJ/mol
# GULP energy per Si atom -5582.766172 kJ/mol
# Density = 2.295460 g / cm^3
# Si number density = 23.006964 Si / 1000 Ang^3
#
#
#
# Elastic Constant Matrix: (Units=GPa)
#
#
# Indices 1 2 3 4 5 6 
#
# 1 104.7920 -1.4855 31.0703 0.0000 43.0496 0.0000
# 2 -1.4855 78.0660 0.2658 0.0000 10.6716 0.0000
# 3 31.0703 0.2658 136.0812 0.0000 40.7682 0.0000
# 4 0.0000 0.0000 0.0000 19.1879 0.0000 -11.6551
# 5 43.0496 10.6716 40.7682 0.0000 48.4729 0.0000
# 6 0.0000 0.0000 0.0000 -11.6551 0.0000 -4.2155
#
#
#
# Elastic Compliance Matrix: (Units=1/GPa)
#
#
# Indices 1 2 3 4 5 6 
#
# 1 0.015488 0.002356 0.000983 0.000000 -0.015101 0.000000
# 2 0.002356 0.013697 0.001291 0.000000 -0.006193 0.000000
# 3 0.000983 0.001291 0.009984 0.000000 -0.009554 0.000000
# 4 0.000000 0.000000 0.000000 0.019451 0.000000 -0.053777
# 5 -0.015101 -0.006193 -0.009554 0.000000 0.043440 0.000000
# 6 0.000000 0.000000 0.000000 -0.053777 0.000000 -0.088535
#
#
# Mechanical properties :
#
#
# Convention : Reuss Voigt Hill
#
# Bulk Modulus (GPa) = 20.64930 42.07116 31.36023
# Shear Modulus (GPa) = 244.99125 31.96165 138.47645
#
# Velocity S-wave (km/s) = 10.33039 3.73126 7.76657
# Velocity P-wave (km/s) = 12.29975 6.07364 9.69982
#
# Compressibility (1/GPa) = 0.04842780
#
# Stress axis : x y z
#
# Youngs Moduli (GPa) = 64.56544 73.01033 100.16125
#
# Poissons Ratio (x) = -0.17199 -0.09847
# Poissons Ratio (y) = -0.15209 -0.12929
# Poissons Ratio (z) = -0.06347 -0.09424
#
# Static dielectric constant tensor:
#      x y z
#    x 1.887900 0.000000 0.000100 
#    y 0.000000 4.106670 0.000000 
#    z 0.000100 0.000000 1.894030 
# 
# From -- ./inp_files/172210.got.cif
#   From: 2010.05.17/outbox.cif.g08.bks.cpg/sg12_87_cif.got.tgz:172210.got - 2010.06.03 13:09:07.
