data_PCOD9206287
_publ_section_title
;
Structure prediction by ZEFSAII (Michael W. Deem and Ramdas Pophale) SiO2 
 PCOD9206287
Probable space group: C 2/M
;
_chemical_formula_sum "Si O2"
_cell_formula_units_Z 56
_cell_length_a 13.913077
_cell_length_b 13.386172
_cell_length_c 23.742808
_cell_angle_alpha 90.000000
_cell_angle_beta 135.689107
_cell_angle_gamma 90.000000
_cell_volume 3088.943751
_symmetry_space_group_name_H-M "C 2/M"
_symmetry_group_IT_number 12
_symmetry_cell_setting 'monoclinic'
loop_
_space_group_symop_operation_xyz
x,y,z
-x,y,-z
-x,-y,-z
x,-y,z
1/2+x,1/2+y,z
1/2-x,1/2+y,-z
1/2-x,1/2-y,-z
1/2+x,1/2-y,z
loop_
_atom_site_type_symbol
_atom_site_label
_atom_site_fract_x
_atom_site_fract_y
_atom_site_fract_z
Si Si1 0.287216 0.117195 0.787176
Si Si2 0.646258 0.383241 0.919414
Si Si3 0.303760 0.614949 0.576630
Si Si4 0.551004 0.207058 0.957917
Si Si5 0.961599 0.191180 0.245667
Si Si6 0.129328 0.614775 0.304601
Si Si7 0.867531 0.190689 0.483711
O O1 0.432643 0.149344 0.874327
O O2 0.167161 0.178259 0.766916
O O3 0.296008 0.132423 0.723962
O O4 0.261795 0.000000 0.787596
O O5 0.628461 0.500000 0.923460
O O6 0.582244 0.311393 0.939947
O O7 0.578376 0.354456 0.831191
O O8 0.807722 0.355589 0.983018
O O9 0.261073 0.500000 0.557659
O O10 0.408564 0.635709 0.671629
O O11 0.179153 0.693926 0.528772
O O12 0.382609 0.642909 0.551685
O O13 0.500000 0.221733 0.000000
O O14 0.006828 0.306006 0.257989
O O15 0.083748 0.500000 0.287131
O O16 0.238982 0.636787 0.399513
O O17 0.000000 0.180779 0.500000
#
# Coordination Sequence:
#
# PCOD9206287 Si02
#       7
#     8   8   8   8   8   8   8
#     4  11  21  36  60  86 113 150 190 236 281 331
#     4  11  23  39  60  84 115 153 188 235 289 336
#     4  10  21  36  57  85 116 151 188 232 284 334
#     4  11  23  39  58  85 115 146 191 240 278 343
#     4  11  21  37  60  86 116 146 194 237 280 337
#     4  10  22  39  59  83 117 152 188 233 287 338
#     4  10  21  37  58  85 116 149 191 236 276 337
#
# _framework density 18.129173999999999
#
# number of rings (size 3 to 8) (size 9 to 14) (size 15 to 20)
#    0.000    1.429    2.857    3.000    0.000    3.429 
#    0.000    0.714    0.000    3.429    0.000    0.000 
#    0.000    0.000    0.000    0.000    0.000    0.000 
#
# Total GULP energy -156452.038810 kJ/mol
# GULP energy per Si atom -5587.572815 kJ/mol
# Density = 1.808791 g / cm^3
# Si number density = 18.129174 Si / 1000 Ang^3
#
#
#
# Elastic Constant Matrix: (Units=GPa)
#
#
# Indices 1 2 3 4 5 6 
#
# 1 46.8303 10.2505 -24.0221 0.0000 -2.3728 0.0000
# 2 10.2505 96.5708 -8.5296 0.0000 -4.6394 0.0000
# 3 -24.0221 -8.5296 29.6971 0.0000 -11.8261 0.0000
# 4 0.0000 0.0000 0.0000 12.5297 0.0000 -4.3695
# 5 -2.3728 -4.6394 -11.8261 0.0000 28.2336 0.0000
# 6 0.0000 0.0000 0.0000 -4.3695 0.0000 14.8352
#
#
#
# Elastic Compliance Matrix: (Units=1/GPa)
#
#
# Indices 1 2 3 4 5 6 
#
# 1 0.046874 0.000373 0.047548 0.000000 0.023917 0.000000
# 2 0.000373 0.010947 0.005011 0.000000 0.003929 0.000000
# 3 0.047548 0.005011 0.090607 0.000000 0.042772 0.000000
# 4 0.000000 0.000000 0.000000 0.088947 0.000000 0.026198
# 5 0.023917 0.003929 0.042772 0.000000 0.055990 0.000000
# 6 0.000000 0.000000 0.000000 0.026198 0.000000 0.075123
#
#
# Mechanical properties :
#
#
# Convention : Reuss Voigt Hill
#
# Bulk Modulus (GPa) = 3.93249 14.27732 9.10490
# Shear Modulus (GPa) = 14.39314 24.14632 19.26973
#
# Velocity S-wave (km/s) = 2.82072 3.65349 3.26377
# Velocity P-wave (km/s) = 3.57526 5.06850 4.38590
#
# Compressibility (1/GPa) = 0.25429210
#
# Stress axis : x y z
#
# Youngs Moduli (GPa) = 21.33373 91.35091 11.03669
#
# Poissons Ratio (x) = -0.03410 -0.52477
# Poissons Ratio (y) = -0.00796 -0.05530
# Poissons Ratio (z) = -1.01438 -0.45773
#
# Static dielectric constant tensor:
#      x y z
#    x 1.596080 0.000000 -0.009660 
#    y 0.000000 1.604890 0.000000 
#    z -0.009660 0.000000 1.619940 
# 
# From -- ./inp_files/360821.got.cif
#   From: 2010.05.17/outbox.cif.g08.bks.cpg/sg12_181_cif.got.tgz:360821.got - 2010.06.03 13:09:07.
