data_PCOD9206950
_publ_section_title
;
Structure prediction by ZEFSAII (Michael W. Deem and Ramdas Pophale) SiO2 
 PCOD9206950
Probable space group: C 2/M
;
_chemical_formula_sum "Si O2"
_cell_formula_units_Z 64
_cell_length_a 21.023521
_cell_length_b 8.553601
_cell_length_c 25.053017
_cell_angle_alpha 90.000000
_cell_angle_beta 53.279900
_cell_angle_gamma 90.000000
_cell_volume 3611.218193
_symmetry_space_group_name_H-M "C 2/M"
_symmetry_group_IT_number 12
_symmetry_cell_setting 'monoclinic'
loop_
_space_group_symop_operation_xyz
x,y,z
-x,y,-z
-x,-y,-z
x,-y,z
1/2+x,1/2+y,z
1/2-x,1/2+y,-z
1/2-x,1/2-y,-z
1/2+x,1/2-y,z
loop_
_atom_site_type_symbol
_atom_site_label
_atom_site_fract_x
_atom_site_fract_y
_atom_site_fract_z
Si Si1 0.179346 0.311842 0.366651
Si Si2 0.570055 0.686189 0.506009
Si Si3 0.102673 0.310697 0.209037
Si Si4 0.490763 0.189308 0.849665
Si Si5 0.721168 0.812124 0.861894
Si Si6 0.929643 0.309650 0.995354
Si Si7 0.167555 0.187821 0.773274
Si Si8 0.460109 0.811822 0.645323
O O1 0.177149 0.500000 0.369552
O O2 0.149435 0.248646 0.438416
O O3 0.265846 0.262477 0.303166
O O4 0.115034 0.261375 0.353728
O O5 0.500000 0.736676 0.500000
O O6 0.572206 0.500000 0.506462
O O7 0.539919 0.749666 0.577649
O O8 0.105910 0.500000 0.207849
O O9 0.191922 0.248390 0.167329
O O10 0.056481 0.261170 0.285969
O O11 0.057643 0.260123 0.178186
O O12 0.580597 0.249141 0.804186
O O13 0.492696 0.000000 0.849161
O O14 0.449087 0.241715 0.925648
O O15 0.654571 0.760900 0.938115
O O16 0.695117 0.749012 0.817197
O O17 0.721340 0.000000 0.859833
O O18 0.930321 0.500000 0.994858
O O19 0.000000 0.259475 0.000000
O O20 0.166522 0.000000 0.775291
O O21 0.462221 0.000000 0.642929
#
# Coordination Sequence:
#
# PCOD9206950 Si02
#       8
#     8   8   8   8   8   8   8   8
#     4   9  17  30  49  72 102 138 171 212 266 318
#     4   9  17  27  43  74 107 132 168 217 260 303
#     4  10  21  37  55  79 111 144 181 224 268 321
#     4  10  21  38  58  78 106 146 184 220 271 327
#     4  11  21  34  57  81 106 143 184 222 269 323
#     4   9  17  33  55  79 107 140 179 222 271 324
#     4  11  21  35  55  81 111 139 180 228 270 317
#     4   9  16  30  49  70 102 142 174 206 262 322
#
# _framework density 17.722552
#
# number of rings (size 3 to 8) (size 9 to 14) (size 15 to 20)
#    0.000    2.250    2.500    1.125    0.000    4.000 
#    0.000    1.875    0.000    0.750    0.000    0.000 
#    0.000    0.000    0.000    0.000    0.000    0.000 
#
# Total GULP energy -178489.655614 kJ/mol
# GULP energy per Si atom -5577.801738 kJ/mol
# Density = 1.768221 g / cm^3
# Si number density = 17.722552 Si / 1000 Ang^3
#
#
#
# Elastic Constant Matrix: (Units=GPa)
#
#
# Indices 1 2 3 4 5 6 
#
# 1 121.7338 20.8848 90.2651 -0.0001 0.1354 0.0001
# 2 20.8848 8.3930 30.3523 -0.0004 -0.2296 -0.0001
# 3 90.2651 30.3523 218.2818 0.0000 -8.6299 0.0002
# 4 -0.0001 -0.0004 0.0000 20.1873 0.0000 -12.1573
# 5 0.1354 -0.2296 -8.6299 0.0000 22.5397 -0.0003
# 6 0.0001 -0.0001 0.0002 -12.1573 -0.0003 14.7168
#
#
#
# Elastic Compliance Matrix: (Units=1/GPa)
#
#
# Indices 1 2 3 4 5 6 
#
# 1 0.014788 -0.029258 -0.002094 -0.000001 -0.001188 -0.000001
# 2 -0.029258 0.300014 -0.029944 0.000015 -0.008233 0.000015
# 3 -0.002094 -0.029944 0.009747 -0.000002 0.003439 -0.000002
# 4 -0.000001 0.000015 -0.000002 0.098576 0.000001 0.081432
# 5 -0.001188 -0.008233 0.003439 0.000001 0.045606 0.000002
# 6 -0.000001 0.000015 -0.000002 0.081432 0.000002 0.135219
#
#
# Mechanical properties :
#
#
# Convention : Reuss Voigt Hill
#
# Bulk Modulus (GPa) = 4.95154 70.15700 37.55427
# Shear Modulus (GPa) = 6.29832 25.28252 15.79042
#
# Velocity S-wave (km/s) = 1.88721 3.78110 2.98817
# Velocity P-wave (km/s) = 2.74750 7.66384 5.75688
#
# Compressibility (1/GPa) = 0.20195733
#
# Stress axis : x y z
#
# Youngs Moduli (GPa) = 67.62172 3.33317 102.59801
#
# Poissons Ratio (x) = 0.09752 0.21482
# Poissons Ratio (y) = 1.97851 3.07217
# Poissons Ratio (z) = 0.14159 0.09981
#
# Static dielectric constant tensor:
#      x y z
#    x 1.573310 0.000000 0.001560 
#    y 0.000000 1.600090 0.000000 
#    z 0.001560 0.000000 1.624370 
# 
# From -- ./inp_files/320100.got.cif
#   From: 2010.05.17/outbox.cif.g08.bks.cpg/sg12_161_cif.got.tgz:320100.got - 2010.06.03 13:09:07.
