data_PCOD9206123
_publ_section_title
;
Structure prediction by ZEFSAII (Michael W. Deem and Ramdas Pophale) SiO2 
 PCOD9206123
Probable space group: C 2/M
;
_chemical_formula_sum "Si O2"
_cell_formula_units_Z 24
_cell_length_a 13.881701
_cell_length_b 13.306325
_cell_length_c 11.457823
_cell_angle_alpha 90.000000
_cell_angle_beta 150.417752
_cell_angle_gamma 90.000000
_cell_volume 1044.820800
_symmetry_space_group_name_H-M "C 2/M"
_symmetry_group_IT_number 12
_symmetry_cell_setting 'monoclinic'
loop_
_space_group_symop_operation_xyz
x,y,z
-x,y,-z
-x,-y,-z
x,-y,z
1/2+x,1/2+y,z
1/2-x,1/2+y,-z
1/2-x,1/2-y,-z
1/2+x,1/2-y,z
loop_
_atom_site_type_symbol
_atom_site_label
_atom_site_fract_x
_atom_site_fract_y
_atom_site_fract_z
Si Si1 0.101072 0.386105 0.249605
Si Si2 0.908649 0.283221 0.529413
Si Si3 0.643862 0.607324 0.765359
O O1 0.170361 0.500000 0.292359
O O2 0.116941 0.372031 0.406528
O O3 0.216251 0.287756 0.324304
O O4 0.871835 0.383587 0.977965
O O5 0.000000 0.312239 0.500000
O O6 0.064536 0.203752 0.748113
O O7 0.500000 0.605372 0.500000
O O8 0.620508 0.500000 0.801890
#
# Coordination Sequence:
#
# PCOD9206123 Si02
#       3
#     8   8   8
#     4  10  21  37  57  82 113 147 184 228 277 330
#     4  10  21  36  56  82 113 146 185 229 276 328
#     4   9  18  33  55  83 112 143 182 228 277 328
#
# _framework density 22.970445999999999
#
# number of rings (size 3 to 8) (size 9 to 14) (size 15 to 20)
#    0.000    2.333    0.000    2.000    0.000    8.000 
#    0.000   15.000    0.000    0.000    0.000   32.667 
#    0.000    0.000    0.000    0.000    0.000    0.000 
#
# Total GULP energy -66845.300086 kJ/mol
# GULP energy per Si atom -5570.441674 kJ/mol
# Density = 2.291816 g / cm^3
# Si number density = 22.970446 Si / 1000 Ang^3
#
#
#
# Elastic Constant Matrix: (Units=GPa)
#
#
# Indices 1 2 3 4 5 6 
#
# 1 106.3337 12.0680 35.3682 0.0000 -0.2600 0.0000
# 2 12.0680 78.2852 37.0178 0.0000 -5.3204 0.0000
# 3 35.3682 37.0178 131.8520 0.0000 30.5364 0.0000
# 4 0.0000 0.0000 0.0000 22.6851 0.0000 -1.9206
# 5 -0.2600 -5.3204 30.5364 0.0000 51.2847 0.0000
# 6 0.0000 0.0000 0.0000 -1.9206 0.0000 23.0817
#
#
#
# Elastic Compliance Matrix: (Units=1/GPa)
#
#
# Indices 1 2 3 4 5 6 
#
# 1 0.010501 0.000086 -0.003312 0.000000 0.002034 0.000000
# 2 0.000086 0.015742 -0.005592 0.000000 0.004963 0.000000
# 3 -0.003312 -0.005592 0.011809 0.000000 -0.007629 0.000000
# 4 0.000000 0.000000 0.000000 0.044394 0.000000 0.003694
# 5 0.002034 0.004963 -0.007629 0.000000 0.024567 0.000000
# 6 0.000000 0.000000 0.000000 0.003694 0.000000 0.043632
#
#
# Mechanical properties :
#
#
# Convention : Reuss Voigt Hill
#
# Bulk Modulus (GPa) = 48.98168 53.93098 51.45633
# Shear Modulus (GPa) = 28.55708 34.87809 31.71758
#
# Velocity S-wave (km/s) = 3.52974 3.90088 3.71994
# Velocity P-wave (km/s) = 6.16297 6.61956 6.39534
#
# Compressibility (1/GPa) = 0.02041579
#
# Stress axis : x y z
#
# Youngs Moduli (GPa) = 95.22685 63.52351 84.67823
#
# Poissons Ratio (x) = -0.00543 0.28045
# Poissons Ratio (y) = -0.00815 0.47353
# Poissons Ratio (z) = 0.31539 0.35523
#
# Static dielectric constant tensor:
#      x y z
#    x 2.051660 0.000000 -0.002300 
#    y 0.000000 1.871180 0.000000 
#    z -0.002300 0.000000 1.896950 
# 
# From -- ./inp_files/143445.got.cif
#   From: 2010.05.17/outbox.cif.g08.bks.cpg/sg12_72_cif.got.tgz:143445.got - 2010.06.03 13:09:07.
