data_PCOD9206383
_publ_section_title
;
Structure prediction by ZEFSAII (Michael W. Deem and Ramdas Pophale) SiO2 
 PCOD9206383
Probable space group: C 2/M
;
_chemical_formula_sum "Si O2"
_cell_formula_units_Z 56
_cell_length_a 18.929030
_cell_length_b 7.534385
_cell_length_c 18.043505
_cell_angle_alpha 90.000000
_cell_angle_beta 70.440938
_cell_angle_gamma 90.000000
_cell_volume 2424.849738
_symmetry_space_group_name_H-M "C 2/M"
_symmetry_group_IT_number 12
_symmetry_cell_setting 'monoclinic'
loop_
_space_group_symop_operation_xyz
x,y,z
-x,y,-z
-x,-y,-z
x,-y,z
1/2+x,1/2+y,z
1/2-x,1/2+y,-z
1/2-x,1/2-y,-z
1/2+x,1/2-y,z
loop_
_atom_site_type_symbol
_atom_site_label
_atom_site_fract_x
_atom_site_fract_y
_atom_site_fract_z
Si Si1 0.071732 0.215424 0.023299
Si Si2 0.925601 0.713358 0.481710
Si Si3 0.766580 0.801466 0.578356
Si Si4 0.831602 0.284310 0.254089
Si Si5 0.029745 0.283620 0.697298
Si Si6 0.612484 0.208842 0.173126
Si Si7 0.780339 0.204017 0.109224
O O1 0.151390 0.281645 0.962600
O O2 0.071806 0.000000 0.020240
O O3 0.071265 0.271475 0.108816
O O4 0.000000 0.274826 0.000000
O O5 0.915187 0.500000 0.483760
O O6 0.855392 0.789781 0.550105
O O7 0.935728 0.774887 0.393360
O O8 0.000000 0.754343 0.500000
O O9 0.750000 0.750000 0.500000
O O10 0.725629 0.715740 0.662277
O O11 0.737512 0.000000 0.592766
O O12 0.828284 0.500000 0.246839
O O13 0.913298 0.236769 0.256856
O O14 0.809728 0.207760 0.182913
O O15 0.027543 0.500000 0.694847
O O16 0.945863 0.220229 0.745160
O O17 0.696679 0.284933 0.137296
O O18 0.621999 0.000000 0.186718
O O19 0.772149 0.000000 0.086367
#
# Coordination Sequence:
#
# PCOD9206383 Si02
#       7
#     8   8   8   8   8   8   8
#     4  10  21  38  58  82 116 149 180 225 278 332
#     4  10  21  37  60  84 113 155 195 237 294 346
#     4  11  22  38  59  84 116 152 195 244 290 342
#     4  10  21  37  57  80 111 147 185 232 282 335
#     4   9  18  36  55  79 112 143 185 235 277 328
#     4  10  21  36  58  84 111 145 186 231 273 327
#     4  10  22  37  56  85 114 143 185 231 276 333
#
# _framework density 23.094214999999998
#
# number of rings (size 3 to 8) (size 9 to 14) (size 15 to 20)
#    0.000    2.000    1.429    1.714    2.000    2.857 
#    0.000    0.714    0.000    0.000    0.000    0.000 
#    0.000    0.000    0.000    0.000    0.000    0.000 
#
# Total GULP energy -156399.440621 kJ/mol
# GULP energy per Si atom -5585.694308 kJ/mol
# Density = 2.304165 g / cm^3
# Si number density = 23.094215 Si / 1000 Ang^3
#
#
#
# Elastic Constant Matrix: (Units=GPa)
#
#
# Indices 1 2 3 4 5 6 
#
# 1 80.8750 -1.0667 7.4548 -0.0001 -21.0600 0.0001
# 2 -1.0667 47.7129 -13.5528 -0.0004 -4.2777 0.0003
# 3 7.4548 -13.5528 89.1687 0.0000 -25.1594 0.0001
# 4 -0.0001 -0.0004 0.0000 11.0492 -0.0001 18.1388
# 5 -21.0600 -4.2777 -25.1594 -0.0001 48.7403 0.0000
# 6 0.0001 0.0003 0.0001 18.1388 0.0000 -21.5884
#
#
#
# Elastic Compliance Matrix: (Units=1/GPa)
#
#
# Indices 1 2 3 4 5 6 
#
# 1 0.014020 0.001152 0.000867 0.000000 0.006607 0.000000
# 2 0.001152 0.022782 0.004765 0.000000 0.004957 0.000000
# 3 0.000867 0.004765 0.014151 0.000000 0.008098 0.000000
# 4 0.000000 0.000000 0.000000 0.038038 0.000000 0.031960
# 5 0.006607 0.004957 0.008098 0.000000 0.027987 0.000000
# 6 0.000000 0.000000 0.000000 0.031960 0.000000 -0.019468
#
#
# Mechanical properties :
#
#
# Convention : Reuss Voigt Hill
#
# Bulk Modulus (GPa) = 15.49852 22.60303 19.05077
# Shear Modulus (GPa) = 47.41611 22.63498 35.02554
#
# Velocity S-wave (km/s) = 4.53610 3.13407 3.89863
# Velocity P-wave (km/s) = 5.84469 4.78593 5.34161
#
# Compressibility (1/GPa) = 0.06452230
#
# Stress axis : x y z
#
# Youngs Moduli (GPa) = 71.32445 43.89364 70.66526
#
# Poissons Ratio (x) = -0.05057 -0.06127
# Poissons Ratio (y) = -0.08217 -0.33672
# Poissons Ratio (z) = -0.06184 -0.20915
#
# Static dielectric constant tensor:
#      x y z
#    x 1.881400 0.000000 -0.061120 
#    y 0.000000 1.939140 0.000000 
#    z -0.061120 0.000000 1.888830 
# 
# From -- ./inp_files/275103.got.cif
#   From: 2010.05.17/outbox.cif.g08.bks.cpg/sg12_138_cif.got.tgz:275103.got - 2010.06.03 13:09:07.
