data_PCOD9206998
_publ_section_title
;
Structure prediction by ZEFSAII (Michael W. Deem and Ramdas Pophale) SiO2 
 PCOD9206998
Probable space group: C 2/M
;
_chemical_formula_sum "Si O2"
_cell_formula_units_Z 56
_cell_length_a 15.429423
_cell_length_b 8.838578
_cell_length_c 29.481558
_cell_angle_alpha 90.000000
_cell_angle_beta 48.767113
_cell_angle_gamma 90.000000
_cell_volume 3023.580625
_symmetry_space_group_name_H-M "C 2/M"
_symmetry_group_IT_number 12
_symmetry_cell_setting 'monoclinic'
loop_
_space_group_symop_operation_xyz
x,y,z
-x,y,-z
-x,-y,-z
x,-y,z
1/2+x,1/2+y,z
1/2-x,1/2+y,-z
1/2-x,1/2-y,-z
1/2+x,1/2-y,z
loop_
_atom_site_type_symbol
_atom_site_label
_atom_site_fract_x
_atom_site_fract_y
_atom_site_fract_z
Si Si1 0.384889 0.316044 0.091413
Si Si2 0.786952 0.315556 0.770611
Si Si3 0.561084 0.675068 0.433064
Si Si4 0.949682 0.680596 0.312457
Si Si5 0.149795 0.826200 0.563753
Si Si6 0.152097 0.183305 0.999920
Si Si7 0.274266 0.319649 0.309798
O O1 0.385986 0.500000 0.090532
O O2 0.298397 0.263670 0.160402
O O3 0.517923 0.272544 0.056112
O O4 0.340378 0.272441 0.056318
O O5 0.786306 0.500000 0.771819
O O6 0.748808 0.269701 0.733594
O O7 0.918519 0.266511 0.731368
O O8 0.500000 0.731471 0.500000
O O9 0.597115 0.500000 0.428974
O O10 0.464739 0.676271 0.427407
O O11 0.668874 0.768534 0.378161
O O12 0.947711 0.500000 0.313872
O O13 0.879642 0.740421 0.380010
O O14 0.888011 0.743627 0.289654
O O15 0.250000 0.750000 0.500000
O O16 0.180230 0.000000 0.563170
O O17 0.160090 0.000000 0.999916
O O18 0.250000 0.250000 0.000000
O O19 0.283556 0.500000 0.307774
#
# Coordination Sequence:
#
# PCOD9206998 Si02
#       7
#     8   8   8   8   8   8   8
#     4   8  16  33  54  79 111 154 193 224 273 339
#     4   9  19  36  57  79 111 150 191 232 278 339
#     4  10  21  37  56  79 107 139 175 224 282 338
#     4  11  22  38  57  79 109 147 186 230 283 338
#     4  11  22  36  57  83 112 143 180 229 282 341
#     4   9  17  31  56  84 114 149 190 233 275 326
#     4  11  22  37  57  82 107 141 186 233 281 336
#
# _framework density 18.521087999999999
#
# number of rings (size 3 to 8) (size 9 to 14) (size 15 to 20)
#    0.000    2.143    1.429    3.000    0.000    3.143 
#    0.000    1.429    0.000    5.143    0.000    0.000 
#    0.000    0.000    0.000    0.000    0.000    0.000 
#
# Total GULP energy -156235.970038 kJ/mol
# GULP energy per Si atom -5579.856073 kJ/mol
# Density = 1.847893 g / cm^3
# Si number density = 18.521088 Si / 1000 Ang^3
#
#
#
# Elastic Constant Matrix: (Units=GPa)
#
#
# Indices 1 2 3 4 5 6 
#
# 1 171.8149 41.9189 88.4633 0.0000 0.6800 0.0000
# 2 41.9189 47.6290 35.1976 0.0001 -1.5427 0.0000
# 3 88.4633 35.1976 157.3539 0.0000 1.8087 0.0000
# 4 0.0000 0.0001 0.0000 3.9290 0.0000 -5.2621
# 5 0.6800 -1.5427 1.8087 0.0000 17.8863 0.0000
# 6 0.0000 0.0000 0.0000 -5.2621 0.0000 28.6341
#
#
#
# Elastic Compliance Matrix: (Units=1/GPa)
#
#
# Indices 1 2 3 4 5 6 
#
# 1 0.009113 -0.005092 -0.003980 0.000000 -0.000383 0.000000
# 2 -0.005092 0.028134 -0.003465 -0.000001 0.002970 0.000000
# 3 -0.003980 -0.003465 0.009380 0.000000 -0.001096 0.000000
# 4 0.000000 -0.000001 0.000000 0.337605 0.000000 0.062042
# 5 -0.000383 0.002970 -0.001096 0.000000 0.056290 0.000000
# 6 0.000000 0.000000 0.000000 0.062042 0.000000 0.046325
#
#
# Mechanical properties :
#
#
# Convention : Reuss Voigt Hill
#
# Bulk Modulus (GPa) = 46.39493 78.66195 62.52844
# Shear Modulus (GPa) = 9.63196 24.17108 16.90152
#
# Velocity S-wave (km/s) = 2.28294 3.61648 3.02413
# Velocity P-wave (km/s) = 5.66156 7.74612 6.78438
#
# Compressibility (1/GPa) = 0.02155408
#
# Stress axis : x y z
#
# Youngs Moduli (GPa) = 109.73017 35.54471 106.60736
#
# Poissons Ratio (x) = 0.18099 0.42430
# Poissons Ratio (y) = 0.55873 0.36935
# Poissons Ratio (z) = 0.43673 0.12315
#
# Static dielectric constant tensor:
#      x y z
#    x 1.645040 0.000000 -0.000100 
#    y 0.000000 1.646610 0.000000 
#    z -0.000100 0.000000 1.629000 
# 
# From -- ./inp_files/374944.got.cif
#   From: 2010.05.17/outbox.cif.g08.bks.cpg/sg12_188_cif.got.tgz:374944.got - 2010.06.03 13:09:07.
