data_PCOD9206544
_publ_section_title
;
Structure prediction by ZEFSAII (Michael W. Deem and Ramdas Pophale) SiO2 
 PCOD9206544
Probable space group: C 2/M
;
_chemical_formula_sum "Si O2"
_cell_formula_units_Z 36
_cell_length_a 13.988539
_cell_length_b 13.982766
_cell_length_c 8.187957
_cell_angle_alpha 90.000000
_cell_angle_beta 76.177555
_cell_angle_gamma 90.000000
_cell_volume 1555.172121
_symmetry_space_group_name_H-M "C 2/M"
_symmetry_group_IT_number 12
_symmetry_cell_setting 'monoclinic'
loop_
_space_group_symop_operation_xyz
x,y,z
-x,y,-z
-x,-y,-z
x,-y,z
1/2+x,1/2+y,z
1/2-x,1/2+y,-z
1/2-x,1/2-y,-z
1/2+x,1/2-y,z
loop_
_atom_site_type_symbol
_atom_site_label
_atom_site_fract_x
_atom_site_fract_y
_atom_site_fract_z
Si Si1 0.154112 0.000000 0.507520
Si Si2 0.103825 0.794121 0.616566
Si Si3 0.113940 0.292370 0.290297
Si Si4 0.306237 0.000000 0.743079
Si Si5 0.728485 0.000000 0.875499
Si Si6 0.880701 0.701697 0.063548
O O1 0.095686 0.095228 0.577007
O O2 0.244198 0.000000 0.601449
O O3 0.191591 0.000000 0.304106
O O4 0.158248 0.748117 0.438975
O O5 0.144099 0.773924 0.780213
O O6 0.998493 0.742186 0.663328
O O7 0.127002 0.405737 0.283105
O O8 0.152348 0.258598 0.099323
O O9 0.244880 0.000000 0.940170
O O10 0.665117 0.097542 0.881011
O O11 0.000000 0.690726 0.000000
#
# Coordination Sequence:
#
# PCOD9206544 Si02
#       6
#     4   8   8   4   4   8
#     4  12  26  40  56  90 131 164 194 244 309 361
#     4  10  22  38  59  87 123 162 202 243 296 360
#     4   9  20  39  63  89 116 156 204 250 294 354
#     4  10  22  40  64  93 121 151 200 256 305 350
#     4  10  21  36  59  88 124 158 192 244 309 366
#     4   9  18  36  61  89 116 154 204 252 294 349
#
# _framework density 23.148564
#
# number of rings (size 3 to 8) (size 9 to 14) (size 15 to 20)
#    0.000    2.222    0.000    1.667    0.000   11.556 
#    0.000    9.444    0.000    0.000    0.000    0.000 
#    0.000    0.000    0.000    0.000    0.000    0.000 
#
# Total GULP energy -100542.837464 kJ/mol
# GULP energy per Si atom -5585.713192 kJ/mol
# Density = 2.309588 g / cm^3
# Si number density = 23.148564 Si / 1000 Ang^3
#
#
#
# Elastic Constant Matrix: (Units=GPa)
#
#
# Indices 1 2 3 4 5 6 
#
# 1 70.4104 3.9799 41.4991 0.0000 -1.9474 0.0000
# 2 3.9799 103.7087 63.5202 0.0000 25.9514 0.0000
# 3 41.4991 63.5202 195.1511 0.0000 45.7136 0.0000
# 4 0.0000 0.0000 0.0000 44.5278 0.0000 -18.1977
# 5 -1.9474 25.9514 45.7136 0.0000 25.7143 0.0000
# 6 0.0000 0.0000 0.0000 -18.1977 0.0000 65.9185
#
#
#
# Elastic Compliance Matrix: (Units=1/GPa)
#
#
# Indices 1 2 3 4 5 6 
#
# 1 0.019047 0.000234 -0.007555 0.000000 0.014638 0.000000
# 2 0.000234 0.013360 -0.002132 0.000000 -0.009676 0.000000
# 3 -0.007555 -0.002132 0.012089 0.000000 -0.019912 0.000000
# 4 0.000000 0.000000 0.000000 0.025314 0.000000 0.006988
# 5 0.014638 -0.009676 -0.019912 0.000000 0.085162 0.000000
# 6 0.000000 0.000000 0.000000 0.006988 0.000000 0.017099
#
#
# Mechanical properties :
#
#
# Convention : Reuss Voigt Hill
#
# Bulk Modulus (GPa) = 39.07837 65.25207 52.16522
# Shear Modulus (GPa) = 25.06154 44.58351 34.82253
#
# Velocity S-wave (km/s) = 3.29392 4.39335 3.88275
# Velocity P-wave (km/s) = 5.60221 7.34745 6.53336
#
# Compressibility (1/GPa) = 0.02558961
#
# Stress axis : x y z
#
# Youngs Moduli (GPa) = 52.50121 74.84799 82.71865
#
# Poissons Ratio (x) = -0.01749 0.62498
# Poissons Ratio (y) = -0.01227 0.17634
# Poissons Ratio (z) = 0.39667 0.15956
#
# Static dielectric constant tensor:
#      x y z
#    x 2.013700 0.000000 0.048990 
#    y 0.000000 1.799130 0.000000 
#    z 0.048990 0.000000 1.928190 
# 
# From -- ./inp_files/71154.got.cif
#   From: 2010.05.17/outbox.cif.g08.bks.cpg/sg12_36_cif.got.tgz:71154.got - 2010.06.03 13:09:07.
