data_PCOD9206372
_publ_section_title
;
Structure prediction by ZEFSAII (Michael W. Deem and Ramdas Pophale) SiO2 
 PCOD9206372
Probable space group: C 2/M
;
_chemical_formula_sum "Si O2"
_cell_formula_units_Z 42
_cell_length_a 21.259112
_cell_length_b 14.247573
_cell_length_c 16.081087
_cell_angle_alpha 90.000000
_cell_angle_beta 150.952246
_cell_angle_gamma 90.000000
_cell_volume 2364.966589
_symmetry_space_group_name_H-M "C 2/M"
_symmetry_group_IT_number 12
_symmetry_cell_setting 'monoclinic'
loop_
_space_group_symop_operation_xyz
x,y,z
-x,y,-z
-x,-y,-z
x,-y,z
1/2+x,1/2+y,z
1/2-x,1/2+y,-z
1/2-x,1/2-y,-z
1/2+x,1/2-y,z
loop_
_atom_site_type_symbol
_atom_site_label
_atom_site_fract_x
_atom_site_fract_y
_atom_site_fract_z
Si Si1 0.000000 0.000000 0.500000
Si Si2 0.535170 0.742866 0.400647
Si Si3 0.677774 0.315335 0.725170
Si Si4 0.936219 0.109476 0.718784
Si Si5 0.026461 0.724767 0.933174
Si Si6 0.627348 0.109619 0.374987
O O1 0.890096 0.916797 0.357865
O O2 0.399642 0.741108 0.292833
O O3 0.643918 0.732165 0.597302
O O4 0.539508 0.653128 0.344307
O O5 0.562764 0.831898 0.374923
O O6 0.829724 0.314466 0.915318
O O7 0.782567 0.119826 0.558261
O O8 0.010612 0.174310 0.870543
O O9 0.970001 0.000000 0.760883
O O10 0.924454 0.657045 0.769175
O O11 0.000000 0.730852 0.000000
O O12 0.595713 0.000000 0.341301
#
# Coordination Sequence:
#
# PCOD9206372 Si02
#       6
#     2   8   8   8   8   8
#     4   8  20  36  54  84 114 144 174 228 282 342
#     4   9  19  38  57  79 113 151 186 232 282 342
#     4  10  21  36  60  85 112 147 191 230 287 337
#     4  10  21  36  58  82 113 156 194 225 287 341
#     4  11  22  38  57  85 116 145 189 250 279 330
#     4  10  21  37  56  83 115 154 189 234 286 337
#
# _framework density 17.759236000000001
#
# number of rings (size 3 to 8) (size 9 to 14) (size 15 to 20)
#    0.000    2.286    0.000    4.571    6.667    3.810 
#    0.000    5.714    0.000    0.000    0.000    0.000 
#    0.000    0.000    0.000    0.000    0.000    0.000 
#
# Total GULP energy -116929.518032 kJ/mol
# GULP energy per Si atom -5568.072287 kJ/mol
# Density = 1.771881 g / cm^3
# Si number density = 17.759236 Si / 1000 Ang^3
#
#
#
# Elastic Constant Matrix: (Units=GPa)
#
#
# Indices 1 2 3 4 5 6 
#
# 1 95.5530 48.7759 34.1508 0.0000 -21.5383 0.0000
# 2 48.7759 133.2154 51.2375 0.0000 -8.5814 0.0000
# 3 34.1508 51.2375 74.5908 0.0000 4.2024 0.0000
# 4 0.0000 0.0000 0.0000 16.6411 0.0000 7.7175
# 5 -21.5383 -8.5814 4.2024 0.0000 30.1779 0.0000
# 6 0.0000 0.0000 0.0000 7.7175 0.0000 4.5863
#
#
#
# Elastic Compliance Matrix: (Units=1/GPa)
#
#
# Indices 1 2 3 4 5 6 
#
# 1 0.017041 -0.002972 -0.006448 0.000000 0.012215 0.000000
# 2 -0.002972 0.011199 -0.006442 0.000000 0.001960 0.000000
# 3 -0.006448 -0.006442 0.021314 0.000000 -0.009402 0.000000
# 4 0.000000 0.000000 0.000000 0.273624 0.000000 -0.460432
# 5 0.012215 0.001960 -0.009402 0.000000 0.043721 0.000000
# 6 0.000000 0.000000 0.000000 -0.460432 0.000000 0.992817
#
#
# Mechanical properties :
#
#
# Convention : Reuss Voigt Hill
#
# Bulk Modulus (GPa) = 56.09327 63.52085 59.80706
# Shear Modulus (GPa) = 3.57811 21.56073 12.56942
#
# Velocity S-wave (km/s) = 1.42097 3.48811 2.66328
# Velocity P-wave (km/s) = 5.86056 7.21582 6.57321
#
# Compressibility (1/GPa) = 0.01782745
#
# Stress axis : x y z
#
# Youngs Moduli (GPa) = 58.68347 89.29289 46.91765
#
# Poissons Ratio (x) = 0.26540 0.30254
# Poissons Ratio (y) = 0.17442 0.30226
# Poissons Ratio (z) = 0.37841 0.57526
#
# Static dielectric constant tensor:
#      x y z
#    x 1.610890 0.000000 -0.001340 
#    y 0.000000 1.586840 0.000000 
#    z -0.001340 0.000000 1.598720 
# 
# From -- ./inp_files/233811.got.cif
#   From: 2010.05.17/outbox.cif.g08.bks.cpg/sg12_117_cif.got.tgz:233811.got - 2010.06.03 13:09:07.
