data_PCOD9206673
_publ_section_title
;
Structure prediction by ZEFSAII (Michael W. Deem and Ramdas Pophale) SiO2 
 PCOD9206673
Probable space group: C 2/M
;
_chemical_formula_sum "Si O2"
_cell_formula_units_Z 40
_cell_length_a 29.925350
_cell_length_b 12.794581
_cell_length_c 5.529098
_cell_angle_alpha 90.000000
_cell_angle_beta 65.628342
_cell_angle_gamma 90.000000
_cell_volume 1928.344065
_symmetry_space_group_name_H-M "C 2/M"
_symmetry_group_IT_number 12
_symmetry_cell_setting 'monoclinic'
loop_
_space_group_symop_operation_xyz
x,y,z
-x,y,-z
-x,-y,-z
x,-y,z
1/2+x,1/2+y,z
1/2-x,1/2+y,-z
1/2-x,1/2-y,-z
1/2+x,1/2-y,z
loop_
_atom_site_type_symbol
_atom_site_label
_atom_site_fract_x
_atom_site_fract_y
_atom_site_fract_z
Si Si1 0.618410 0.771392 0.121893
Si Si2 0.281084 0.000000 0.707913
Si Si3 0.049314 0.883639 0.035537
Si Si4 0.362115 0.610596 0.540704
Si Si5 0.845724 0.500000 0.053303
Si Si6 0.288168 0.665965 0.334157
O O1 0.630702 0.724564 0.357566
O O2 0.622175 0.893846 0.053951
O O3 0.568527 0.709988 0.161774
O O4 0.664400 0.720556 0.880900
O O5 0.310306 0.000000 0.894703
O O6 0.243162 0.904574 0.774823
O O7 0.315896 0.000000 0.381183
O O8 0.093125 0.894916 0.745756
O O9 0.042888 0.000000 0.165043
O O10 0.000000 0.859178 0.000000
O O11 0.364622 0.500000 0.684551
O O12 0.310831 0.609007 0.515216
O O13 0.250000 0.750000 0.500000
#
# Coordination Sequence:
#
# PCOD9206673 Si02
#       6
#     8   4   8   8   4   8
#     4  11  24  39  62  92 127 176 212 273 321 391
#     4  12  26  42  62  92 129 181 224 276 312 383
#     4   9  20  41  67  97 126 157 206 271 340 400
#     4  10  21  36  60  93 124 161 209 267 328 388
#     4  12  28  44  63  91 137 178 231 262 320 381
#     4  11  22  37  58  86 128 167 219 259 319 372
#
# _framework density 20.743186999999999
#
# number of rings (size 3 to 8) (size 9 to 14) (size 15 to 20)
#    0.000    1.400    3.000    1.800    8.400    2.400 
#    0.000    3.500    0.000    1.200    0.000    0.000 
#    0.000    0.000    0.000    0.000    0.000    0.000 
#
# Total GULP energy -111380.013812 kJ/mol
# GULP energy per Si atom -5569.000691 kJ/mol
# Density = 2.069597 g / cm^3
# Si number density = 20.743187 Si / 1000 Ang^3
#
#
#
# Elastic Constant Matrix: (Units=GPa)
#
#
# Indices 1 2 3 4 5 6 
#
# 1 143.7845 28.5474 8.8811 0.0000 7.8770 0.0000
# 2 28.5474 124.9809 5.8372 0.0000 0.3907 0.0000
# 3 8.8811 5.8372 41.3038 0.0000 8.4257 0.0000
# 4 0.0000 0.0000 0.0000 19.9063 0.0000 -4.6630
# 5 7.8770 0.3907 8.4257 0.0000 20.3016 0.0000
# 6 0.0000 0.0000 0.0000 -4.6630 0.0000 189.2908
#
#
#
# Elastic Compliance Matrix: (Units=1/GPa)
#
#
# Indices 1 2 3 4 5 6 
#
# 1 0.007475 -0.001659 -0.000860 0.000000 -0.002511 0.000000
# 2 -0.001659 0.008425 -0.001018 0.000000 0.000904 0.000000
# 3 -0.000860 -0.001018 0.026731 0.000000 -0.010741 0.000000
# 4 0.000000 0.000000 0.000000 0.050527 0.000000 0.001245
# 5 -0.002511 0.000904 -0.010741 0.000000 0.054672 0.000000
# 6 0.000000 0.000000 0.000000 0.001245 0.000000 0.005314
#
#
# Mechanical properties :
#
#
# Convention : Reuss Voigt Hill
#
# Bulk Modulus (GPa) = 28.12588 44.06673 36.09630
# Shear Modulus (GPa) = 29.05781 63.68664 46.37223
#
# Velocity S-wave (km/s) = 3.74684 5.54699 4.73328
# Velocity P-wave (km/s) = 5.68392 7.89402 6.87831
#
# Compressibility (1/GPa) = 0.03555444
#
# Stress axis : x y z
#
# Youngs Moduli (GPa) = 133.77869 118.69466 37.41003
#
# Poissons Ratio (x) = 0.19696 0.03219
# Poissons Ratio (y) = 0.22199 0.03810
# Poissons Ratio (z) = 0.11511 0.12087
#
# Static dielectric constant tensor:
#      x y z
#    x 1.718100 0.000000 0.075120 
#    y 0.000000 1.775940 0.000000 
#    z 0.075120 0.000000 1.799910 
# 
# From -- ./inp_files/27431.got.cif
#   From: 2010.05.17/outbox.cif.g08.bks.cpg/sg12_14_cif.got.tgz:27431.got - 2010.06.03 13:09:07.
