data_PCOD9206425
_publ_section_title
;
Structure prediction by ZEFSAII (Michael W. Deem and Ramdas Pophale) SiO2 
 PCOD9206425
Probable space group: C 2/M
;
_chemical_formula_sum "Si O2"
_cell_formula_units_Z 48
_cell_length_a 17.471499
_cell_length_b 27.287176
_cell_length_c 17.382985
_cell_angle_alpha 90.000000
_cell_angle_beta 163.052129
_cell_angle_gamma 90.000000
_cell_volume 2415.760818
_symmetry_space_group_name_H-M "C 2/M"
_symmetry_group_IT_number 12
_symmetry_cell_setting 'monoclinic'
loop_
_space_group_symop_operation_xyz
x,y,z
-x,y,-z
-x,-y,-z
x,-y,z
1/2+x,1/2+y,z
1/2-x,1/2+y,-z
1/2-x,1/2-y,-z
1/2+x,1/2-y,z
loop_
_atom_site_type_symbol
_atom_site_label
_atom_site_fract_x
_atom_site_fract_y
_atom_site_fract_z
Si Si1 0.638803 0.148243 0.714937
Si Si2 0.482435 0.718797 0.257953
Si Si3 0.520897 0.059862 0.931809
Si Si4 0.068358 0.058788 0.381414
Si Si5 0.591388 0.375148 0.261980
Si Si6 0.723703 0.735337 0.775392
O O1 0.500000 0.134162 0.500000
O O2 0.391601 0.138559 0.532157
O O3 0.717899 0.205576 0.784938
O O4 0.897862 0.122954 0.001368
O O5 0.494467 0.668924 0.222539
O O6 0.383731 0.711011 0.250044
O O7 0.750000 0.750000 0.500000
O O8 0.250000 0.750000 0.000000
O O9 0.796196 0.073332 0.159083
O O10 0.505628 0.000000 0.919705
O O11 0.500000 0.076839 0.000000
O O12 0.296523 0.077202 0.657699
O O13 0.085308 0.077929 0.311016
O O14 0.081429 0.000000 0.393029
O O15 0.500000 0.724753 0.500000
O O16 0.000000 0.723056 0.000000
#
# Coordination Sequence:
#
# PCOD9206425 Si02
#       6
#     8   8   8   8   8   8
#     4  11  22  37  61  86 112 146 201 243 288 353
#     4  12  22  38  57  85 116 151 188 239 286 350
#     4   9  17  33  57  84 112 150 197 238 279 336
#     4  10  21  36  58  87 117 153 197 242 289 340
#     4  12  22  39  60  87 116 154 193 242 295 349
#     4  11  21  36  57  82 116 151 189 232 285 341
#
# _framework density 19.869516999999998
#
# number of rings (size 3 to 8) (size 9 to 14) (size 15 to 20)
#    0.000    1.167    3.333    5.000    0.000    2.000 
#    0.000    2.500    0.000    3.000    0.000    0.000 
#    0.000    0.000    0.000    0.000    0.000    0.000 
#
# Total GULP energy -133895.949795 kJ/mol
# GULP energy per Si atom -5578.997908 kJ/mol
# Density = 1.982429 g / cm^3
# Si number density = 19.869517 Si / 1000 Ang^3
#
#
#
# Elastic Constant Matrix: (Units=GPa)
#
#
# Indices 1 2 3 4 5 6 
#
# 1 92.3601 12.3173 23.1153 0.0012 5.8620 0.0030
# 2 12.3173 17.9260 13.4274 -0.0002 2.2279 -0.0014
# 3 23.1153 13.4274 148.3058 0.0053 7.2024 0.0006
# 4 0.0012 -0.0002 0.0053 6.7496 -0.0024 -14.9450
# 5 5.8620 2.2279 7.2024 -0.0024 47.7086 -0.0014
# 6 0.0030 -0.0014 0.0006 -14.9450 -0.0014 35.3596
#
#
#
# Elastic Compliance Matrix: (Units=1/GPa)
#
#
# Indices 1 2 3 4 5 6 
#
# 1 0.012166 -0.007352 -0.001183 -0.000073 -0.000973 -0.000032
# 2 -0.007352 0.064475 -0.004623 0.000204 -0.001410 0.000089
# 3 -0.001183 -0.004623 0.007382 -0.000102 -0.000753 -0.000043
# 4 -0.000073 0.000204 -0.000102 2.309628 0.000159 0.976184
# 5 -0.000973 -0.001410 -0.000753 0.000159 0.021260 0.000068
# 6 -0.000032 0.000089 -0.000043 0.976184 0.000068 0.440874
#
#
# Mechanical properties :
#
#
# Convention : Reuss Voigt Hill
#
# Bulk Modulus (GPa) = 17.32921 39.59020 28.45970
# Shear Modulus (GPa) = 1.72334 31.94567 16.83451
#
# Velocity S-wave (km/s) = 0.93232 4.01405 2.91392
# Velocity P-wave (km/s) = 3.14633 6.43831 5.06711
#
# Compressibility (1/GPa) = 0.05770604
#
# Stress axis : x y z
#
# Youngs Moduli (GPa) = 82.19940 15.50996 135.45718
#
# Poissons Ratio (x) = 0.11403 0.16028
# Poissons Ratio (y) = 0.60432 0.62623
# Poissons Ratio (z) = 0.09726 0.07170
#
# Static dielectric constant tensor:
#      x y z
#    x 1.651270 0.000010 -0.019140 
#    y 0.000010 1.783780 -0.000050 
#    z -0.019140 -0.000050 1.728580 
# 
# From -- ./inp_files/12833.got.cif
#   From: 2010.05.17/outbox.cif.g08.bks.cpg/sg12_7_cif.got.tgz:12833.got - 2010.06.03 13:09:07.
