data_PCOD9206595
_publ_section_title
;
Structure prediction by ZEFSAII (Michael W. Deem and Ramdas Pophale) SiO2 
 PCOD9206595
Probable space group: C 2/M
;
_chemical_formula_sum "Si O2"
_cell_formula_units_Z 56
_cell_length_a 6.904870
_cell_length_b 14.614019
_cell_length_c 20.241287
_cell_angle_alpha 90.000000
_cell_angle_beta 72.640359
_cell_angle_gamma 90.000000
_cell_volume 1949.471155
_symmetry_space_group_name_H-M "C 2/M"
_symmetry_group_IT_number 12
_symmetry_cell_setting 'monoclinic'
loop_
_space_group_symop_operation_xyz
x,y,z
-x,y,-z
-x,-y,-z
x,-y,z
1/2+x,1/2+y,z
1/2-x,1/2+y,-z
1/2-x,1/2-y,-z
1/2+x,1/2-y,z
loop_
_atom_site_type_symbol
_atom_site_label
_atom_site_fract_x
_atom_site_fract_y
_atom_site_fract_z
Si Si1 0.191060 0.789254 0.612428
Si Si2 0.819998 0.899187 0.691617
Si Si3 0.212884 0.134240 0.157840
Si Si4 0.680581 0.844866 0.136006
Si Si5 0.253483 0.606182 0.520546
Si Si6 0.772709 0.394504 0.006387
Si Si7 0.161626 0.602553 0.278115
O O1 0.185247 0.690054 0.576023
O O2 0.294233 0.857334 0.548353
O O3 0.759800 0.676591 0.678513
O O4 0.959804 0.826680 0.641474
O O5 0.869889 0.901605 0.764579
O O6 0.579468 0.881315 0.710186
O O7 0.860133 0.000000 0.659759
O O8 0.456005 0.118413 0.141482
O O9 0.162972 0.104965 0.088286
O O10 0.165853 0.241185 0.161131
O O11 0.755761 0.893669 0.194608
O O12 0.794562 0.844904 0.053881
O O13 0.500000 0.604945 0.500000
O O14 0.185930 0.500000 0.538536
O O15 0.783778 0.500000 0.984119
O O16 0.000000 0.360135 0.000000
O O17 0.185857 0.500000 0.302348
#
# Coordination Sequence:
#
# PCOD9206595 Si02
#       7
#     8   8   8   8   8   8   8
#     4  11  24  48  85 119 151 203 248 307 382 454
#     4  10  22  43  74 112 157 203 257 318 382 456
#     4  10  21  36  59  95 136 189 248 305 378 452
#     4  10  21  36  59  95 136 188 247 314 374 449
#     4  10  24  52  85 120 157 197 250 309 373 457
#     4   9  17  34  61  88 125 181 246 311 377 445
#     4  10  22  43  73 114 157 202 259 316 383 457
#
# _framework density 28.725736000000001
#
# number of rings (size 3 to 8) (size 9 to 14) (size 15 to 20)
#    0.000    2.000    0.000    2.571    2.000    4.571 
#   10.286    2.143    0.000   17.143    0.000    0.000 
#    0.000    0.000    0.000    0.000    0.000    0.000 
#
# Total GULP energy -156785.667765 kJ/mol
# GULP energy per Si atom -5599.488134 kJ/mol
# Density = 2.866036 g / cm^3
# Si number density = 28.725736 Si / 1000 Ang^3
#
#
#
# Elastic Constant Matrix: (Units=GPa)
#
#
# Indices 1 2 3 4 5 6 
#
# 1 113.1430 17.3736 43.4975 0.0000 24.0316 0.0000
# 2 17.3736 224.4037 73.5126 0.0000 0.0448 0.0000
# 3 43.4975 73.5126 234.5486 0.0000 19.4592 0.0000
# 4 0.0000 0.0000 0.0000 -65.4681 0.0000 232.3151
# 5 24.0316 0.0448 19.4592 0.0000 68.7154 0.0000
# 6 0.0000 0.0000 0.0000 232.3151 0.0000 -488.1777
#
#
#
# Elastic Compliance Matrix: (Units=1/GPa)
#
#
# Indices 1 2 3 4 5 6 
#
# 1 0.010131 -0.000282 -0.001533 0.000000 -0.003109 0.000000
# 2 -0.000282 0.004987 -0.001555 0.000000 0.000536 0.000000
# 3 -0.001533 -0.001555 0.005111 0.000000 -0.000910 0.000000
# 4 0.000000 0.000000 0.000000 0.022180 0.000000 0.010555
# 5 -0.003109 0.000536 -0.000910 0.000000 0.015897 0.000000
# 6 0.000000 0.000000 0.000000 0.010555 0.000000 0.002974
#
#
# Mechanical properties :
#
#
# Convention : Reuss Voigt Hill
#
# Bulk Modulus (GPa) = 74.12883 93.42918 83.77901
# Shear Modulus (GPa) = 68.94935 -67.80531 0.57202
#
# Velocity S-wave (km/s) = 4.90456 -4.86370 0.44673
# Velocity P-wave (km/s) = 7.61149 1.02681 5.43089
#
# Compressibility (1/GPa) = 0.01349003
#
# Stress axis : x y z
#
# Youngs Moduli (GPa) = 98.70514 200.50169 195.66586
#
# Poissons Ratio (x) = 0.05648 0.29988
# Poissons Ratio (y) = 0.02780 0.30434
# Poissons Ratio (z) = 0.15128 0.31186
#
# Static dielectric constant tensor:
#      x y z
#    x 2.420310 0.000000 -0.053350 
#    y 0.000000 2.239150 0.000000 
#    z -0.053350 0.000000 2.231940 
# 
# From -- ./inp_files/335119.got.cif
#   From: 2010.05.17/outbox.cif.g08.bks.cpg/sg12_168_cif.got.tgz:335119.got - 2010.06.03 13:09:07.
