data_PCOD9206342
_publ_section_title
;
Structure prediction by ZEFSAII (Michael W. Deem and Ramdas Pophale) SiO2 
 PCOD9206342
Probable space group: C 2/M
;
_chemical_formula_sum "Si O2"
_cell_formula_units_Z 28
_cell_length_a 4.894203
_cell_length_b 13.748629
_cell_length_c 17.558205
_cell_angle_alpha 90.000000
_cell_angle_beta 74.363325
_cell_angle_gamma 90.000000
_cell_volume 1137.740898
_symmetry_space_group_name_H-M "C 2/M"
_symmetry_group_IT_number 12
_symmetry_cell_setting 'monoclinic'
loop_
_space_group_symop_operation_xyz
x,y,z
-x,y,-z
-x,-y,-z
x,-y,z
1/2+x,1/2+y,z
1/2-x,1/2+y,-z
1/2-x,1/2-y,-z
1/2+x,1/2-y,z
loop_
_atom_site_type_symbol
_atom_site_label
_atom_site_fract_x
_atom_site_fract_y
_atom_site_fract_z
Si Si1 0.314110 0.385696 0.245052
Si Si2 0.075675 0.383470 0.861041
Si Si3 0.250000 0.250000 0.000000
Si Si4 0.999705 0.312185 0.582386
O O1 0.272539 0.500000 0.246963
O O2 0.169890 0.352529 0.178094
O O3 0.164531 0.352997 0.333161
O O4 0.644698 0.367032 0.210825
O O5 0.064506 0.500000 0.881507
O O6 0.065353 0.309279 0.933002
O O7 0.500000 0.333281 0.000000
O O8 0.819646 0.213615 0.579973
O O9 0.000000 0.364674 0.500000
#
# Coordination Sequence:
#
# PCOD9206342 Si02
#       4
#     8   8   4   8
#     4  10  21  39  63  88 118 157 198 245 297 351
#     4  10  23  42  61  87 121 155 200 254 303 357
#     4  12  26  40  62  90 114 154 204 244 308 368
#     4  10  21  36  57  88 124 159 196 242 292 345
#
# _framework density 24.61017
#
# number of rings (size 3 to 8) (size 9 to 14) (size 15 to 20)
#    0.000    1.714    0.000    3.429    0.000    8.571 
#    0.000    0.000    0.000   10.286    0.000    0.000 
#    0.000    0.000    0.000    0.000    0.000    0.000 
#
# Total GULP energy -78007.860670 kJ/mol
# GULP energy per Si atom -5571.990048 kJ/mol
# Density = 2.455416 g / cm^3
# Si number density = 24.610170 Si / 1000 Ang^3
#
#
#
# Elastic Constant Matrix: (Units=GPa)
#
#
# Indices 1 2 3 4 5 6 
#
# 1 133.7163 -8.6186 2.3445 0.0000 -2.5266 0.0000
# 2 -8.6186 106.2791 53.8954 0.0000 -0.7723 0.0000
# 3 2.3445 53.8954 225.9075 0.0000 7.7556 0.0000
# 4 0.0000 0.0000 0.0000 1.1169 0.0000 -11.3051
# 5 -2.5266 -0.7723 7.7556 0.0000 65.6818 0.0000
# 6 0.0000 0.0000 0.0000 -11.3051 0.0000 15.6258
#
#
#
# Elastic Compliance Matrix: (Units=1/GPa)
#
#
# Indices 1 2 3 4 5 6 
#
# 1 0.007538 0.000750 -0.000268 0.000000 0.000330 0.000000
# 2 0.000750 0.010791 -0.002598 0.000000 0.000462 0.000000
# 3 -0.000268 -0.002598 0.005071 0.000000 -0.000640 0.000000
# 4 0.000000 0.000000 0.000000 -0.141598 0.000000 -0.102445
# 5 0.000330 0.000462 -0.000640 0.000000 0.015319 0.000000
# 6 0.000000 0.000000 0.000000 -0.102445 0.000000 -0.010121
#
#
# Mechanical properties :
#
#
# Convention : Reuss Voigt Hill
#
# Bulk Modulus (GPa) = 52.17466 62.34951 57.26209
# Shear Modulus (GPa) = -48.83857 44.37035 -2.23411
#
# Velocity S-wave (km/s) = -4.45959 4.25070 -0.95382
# Velocity P-wave (km/s) = 2.29582 7.03428 4.70161
#
# Compressibility (1/GPa) = 0.01916639
#
# Stress axis : x y z
#
# Youngs Moduli (GPa) = 132.66470 92.67101 197.19333
#
# Poissons Ratio (x) = -0.06949 0.05294
# Poissons Ratio (y) = -0.09947 0.51232
# Poissons Ratio (z) = 0.03561 0.24077
#
# Static dielectric constant tensor:
#      x y z
#    x 2.132050 0.000000 -0.043970 
#    y 0.000000 1.943710 0.000000 
#    z -0.043970 0.000000 2.034270 
# 
# From -- ./inp_files/252259.got.cif
#   From: 2010.05.17/outbox.cif.g08.bks.cpg/sg12_127_cif.got.tgz:252259.got - 2010.06.03 13:09:07.
