data_PCOD9206434
_publ_section_title
;
Structure prediction by ZEFSAII (Michael W. Deem and Ramdas Pophale) SiO2 
 PCOD9206434
Probable space group: C 2/M
;
_chemical_formula_sum "Si O2"
_cell_formula_units_Z 48
_cell_length_a 25.588257
_cell_length_b 8.637299
_cell_length_c 12.873605
_cell_angle_alpha 90.000000
_cell_angle_beta 70.808205
_cell_angle_gamma 90.000000
_cell_volume 2687.110972
_symmetry_space_group_name_H-M "C 2/M"
_symmetry_group_IT_number 12
_symmetry_cell_setting 'monoclinic'
loop_
_space_group_symop_operation_xyz
x,y,z
-x,y,-z
-x,-y,-z
x,-y,z
1/2+x,1/2+y,z
1/2-x,1/2+y,-z
1/2-x,1/2-y,-z
1/2+x,1/2-y,z
loop_
_atom_site_type_symbol
_atom_site_label
_atom_site_fract_x
_atom_site_fract_y
_atom_site_fract_z
Si Si1 0.503339 0.813374 0.617959
Si Si2 0.689916 0.685821 0.761185
Si Si3 0.189973 0.813990 0.377045
Si Si4 0.111342 0.813547 0.234847
Si Si5 0.808684 0.812968 0.000941
Si Si6 0.624339 0.185877 0.615505
O O1 0.500000 0.760621 0.500000
O O2 0.449772 0.752524 0.712525
O O3 0.561788 0.764959 0.628683
O O4 0.501800 0.000000 0.618765
O O5 0.688518 0.500000 0.756656
O O6 0.750025 0.744198 0.685096
O O7 0.681704 0.734086 0.886327
O O8 0.644761 0.755067 0.713120
O O9 0.148418 0.768565 0.310638
O O10 0.164729 0.753514 0.500883
O O11 0.194021 0.000000 0.376724
O O12 0.108316 0.000000 0.236135
O O13 0.143732 0.762642 0.110288
O O14 0.806328 0.000000 0.999398
O O15 0.750000 0.750000 0.000000
O O16 0.627133 0.000000 0.609774
#
# Coordination Sequence:
#
# PCOD9206434 Si02
#       6
#     8   8   8   8   8   8
#     4  10  21  38  59  83 112 148 190 235 282 334
#     4  11  23  38  58  84 117 154 191 231 283 339
#     4  11  21  35  58  87 119 149 185 233 286 342
#     4  10  21  36  58  88 116 144 186 235 282 334
#     4  10  21  38  59  85 115 149 189 234 280 333
#     4  11  23  39  58  82 117 153 190 235 285 340
#
# _framework density 17.863050999999999
#
# number of rings (size 3 to 8) (size 9 to 14) (size 15 to 20)
#    0.000    1.500    3.333    2.000    0.000    3.667 
#    0.000    0.833    0.000    5.000    0.000    0.000 
#    0.000    0.000    0.000    0.000    0.000    0.000 
#
# Total GULP energy -134110.773121 kJ/mol
# GULP energy per Si atom -5587.948880 kJ/mol
# Density = 1.782239 g / cm^3
# Si number density = 17.863051 Si / 1000 Ang^3
#
#
#
# Elastic Constant Matrix: (Units=GPa)
#
#
# Indices 1 2 3 4 5 6 
#
# 1 107.5957 20.6591 82.9191 0.0000 9.4216 0.0000
# 2 20.6591 23.0142 25.2274 0.0000 6.0749 0.0000
# 3 82.9191 25.2274 163.8477 0.0000 4.3141 0.0000
# 4 0.0000 0.0000 0.0000 22.3022 0.0000 -3.5446
# 5 9.4216 6.0749 4.3141 0.0000 36.7175 0.0000
# 6 0.0000 0.0000 0.0000 -3.5446 0.0000 31.7493
#
#
#
# Elastic Compliance Matrix: (Units=1/GPa)
#
#
# Indices 1 2 3 4 5 6 
#
# 1 0.016217 -0.006036 -0.007217 0.000000 -0.002315 0.000000
# 2 -0.006036 0.056801 -0.005501 0.000000 -0.007202 0.000000
# 3 -0.007217 -0.005501 0.010563 0.000000 0.001521 0.000000
# 4 0.000000 0.000000 0.000000 0.045649 0.000000 0.005096
# 5 -0.002315 -0.007202 0.001521 0.000000 0.028842 0.000000
# 6 0.000000 0.000000 0.000000 0.005096 0.000000 0.032066
#
#
# Mechanical properties :
#
#
# Convention : Reuss Voigt Hill
#
# Bulk Modulus (GPa) = 21.70481 61.34097 41.52289
# Shear Modulus (GPa) = 20.57586 29.19728 24.88657
#
# Velocity S-wave (km/s) = 3.39760 4.04729 3.73659
# Velocity P-wave (km/s) = 5.25058 7.50032 6.47393
#
# Compressibility (1/GPa) = 0.04607274
#
# Stress axis : x y z
#
# Youngs Moduli (GPa) = 61.66195 17.60529 94.67433
#
# Poissons Ratio (x) = 0.10626 0.68326
# Poissons Ratio (y) = 0.37219 0.52083
# Poissons Ratio (z) = 0.44501 0.09685
#
# Static dielectric constant tensor:
#      x y z
#    x 1.584870 0.000000 0.013970 
#    y 0.000000 1.606800 0.000000 
#    z 0.013970 0.000000 1.598240 
# 
# From -- ./inp_files/172153.got.cif
#   From: 2010.05.17/outbox.cif.g08.bks.cpg/sg12_87_cif.got.tgz:172153.got - 2010.06.03 13:09:07.
