data_PCOD9206565
_publ_section_title
;
Structure prediction by ZEFSAII (Michael W. Deem and Ramdas Pophale) SiO2 
 PCOD9206565
Probable space group: C 2/M
;
_chemical_formula_sum "Si O2"
_cell_formula_units_Z 64
_cell_length_a 23.733843
_cell_length_b 8.889929
_cell_length_c 15.413584
_cell_angle_alpha 90.000000
_cell_angle_beta 86.695711
_cell_angle_gamma 90.000000
_cell_volume 3246.739000
_symmetry_space_group_name_H-M "C 2/M"
_symmetry_group_IT_number 12
_symmetry_cell_setting 'monoclinic'
loop_
_space_group_symop_operation_xyz
x,y,z
-x,y,-z
-x,-y,-z
x,-y,z
1/2+x,1/2+y,z
1/2-x,1/2+y,-z
1/2-x,1/2-y,-z
1/2+x,1/2-y,z
loop_
_atom_site_type_symbol
_atom_site_label
_atom_site_fract_x
_atom_site_fract_y
_atom_site_fract_z
Si Si1 0.999082 0.681133 0.228921
Si Si2 0.834837 0.679832 0.539675
Si Si3 0.286881 0.322486 0.371531
Si Si4 0.539463 0.183019 0.416030
Si Si5 0.588235 0.322696 0.886822
Si Si6 0.914242 0.679202 0.932295
Si Si7 0.707442 0.676259 0.072366
Si Si8 0.195329 0.673886 0.810191
O O1 0.992128 0.500000 0.230989
O O2 0.016073 0.731429 0.324129
O O3 0.047239 0.717487 0.153671
O O4 0.943674 0.755615 0.193584
O O5 0.837144 0.500000 0.521070
O O6 0.779928 0.703711 0.604841
O O7 0.820665 0.768275 0.453092
O O8 0.895124 0.725292 0.574020
O O9 0.295107 0.500000 0.356193
O O10 0.306484 0.228411 0.287644
O O11 0.500000 0.232040 0.500000
O O12 0.538225 0.000000 0.415230
O O13 0.581793 0.500000 0.890599
O O14 0.653197 0.274672 0.870322
O O15 0.566577 0.250787 0.978355
O O16 0.914295 0.500000 0.942548
O O17 0.851400 0.738592 0.920948
O O18 0.698545 0.500000 0.053164
O O19 0.741343 0.687526 0.159515
O O20 0.750000 0.750000 0.000000
O O21 0.177951 0.500000 0.821455
#
# Coordination Sequence:
#
# PCOD9206565 Si02
#       8
#     8   8   8   8   8   8   8   8
#     4  10  23  41  64  92 122 162 210 256 307 366
#     4   9  19  37  61  88 121 160 202 248 304 364
#     4  10  21  36  59  90 124 157 200 252 305 362
#     4   9  19  37  62  91 118 156 206 251 297 357
#     4  12  25  41  63  90 124 162 207 259 312 365
#     4  11  23  40  64  91 125 165 207 255 307 366
#     4  11  23  39  61  89 122 160 201 247 306 365
#     4  11  24  40  61  88 121 161 205 248 306 373
#
# _framework density 19.712087
#
# number of rings (size 3 to 8) (size 9 to 14) (size 15 to 20)
#    0.000    1.625    1.250    3.000    3.500    4.500 
#    0.000    0.625    0.000    0.750    0.000    0.000 
#    0.000    0.000    0.000    0.000    0.000    0.000 
#
# Total GULP energy -178812.753067 kJ/mol
# GULP energy per Si atom -5587.898533 kJ/mol
# Density = 1.966722 g / cm^3
# Si number density = 19.712087 Si / 1000 Ang^3
#
#
#
# Elastic Constant Matrix: (Units=GPa)
#
#
# Indices 1 2 3 4 5 6 
#
# 1 91.6412 14.6543 34.0447 0.0000 22.6377 0.0000
# 2 14.6543 22.9525 25.6234 0.0000 6.1894 0.0000
# 3 34.0447 25.6234 114.9576 0.0000 14.3014 0.0000
# 4 0.0000 0.0000 0.0000 21.7194 0.0000 7.2095
# 5 22.6377 6.1894 14.3014 0.0000 21.7860 0.0000
# 6 0.0000 0.0000 0.0000 7.2095 0.0000 26.1993
#
#
#
# Elastic Compliance Matrix: (Units=1/GPa)
#
#
# Indices 1 2 3 4 5 6 
#
# 1 0.015741 -0.004036 -0.002036 0.000000 -0.013873 0.000000
# 2 -0.004036 0.060591 -0.011641 0.000000 -0.005379 0.000000
# 3 -0.002036 -0.011641 0.012220 0.000000 -0.002599 0.000000
# 4 0.000000 0.000000 0.000000 0.050670 0.000000 -0.013943
# 5 -0.013873 -0.005379 -0.002599 0.000000 0.063550 0.000000
# 6 0.000000 0.000000 0.000000 -0.013943 0.000000 0.042006
#
#
# Mechanical properties :
#
#
# Convention : Reuss Voigt Hill
#
# Bulk Modulus (GPa) = 18.82328 42.02180 30.42254
# Shear Modulus (GPa) = 16.78341 24.28952 20.53646
#
# Velocity S-wave (km/s) = 2.92109 3.51410 3.23123
# Velocity P-wave (km/s) = 4.57677 6.15055 5.42107
#
# Compressibility (1/GPa) = 0.05312571
#
# Stress axis : x y z
#
# Youngs Moduli (GPa) = 63.52858 16.50407 81.83357
#
# Poissons Ratio (x) = 0.06661 0.16663
# Poissons Ratio (y) = 0.25639 0.95263
# Poissons Ratio (z) = 0.12936 0.19213
#
# Static dielectric constant tensor:
#      x y z
#    x 1.702140 0.000000 0.009300 
#    y 0.000000 1.658190 0.000000 
#    z 0.009300 0.000000 1.686270 
# 
# From -- ./inp_files/238591.got.cif
#   From: 2010.05.17/outbox.cif.g08.bks.cpg/sg12_120_cif.got.tgz:238591.got - 2010.06.03 13:09:07.
