data_PCOD9206914
_publ_section_title
;
Structure prediction by ZEFSAII (Michael W. Deem and Ramdas Pophale) SiO2 
 PCOD9206914
Probable space group: C 2/M
;
_chemical_formula_sum "Si O2"
_cell_formula_units_Z 40
_cell_length_a 14.716356
_cell_length_b 8.281543
_cell_length_c 16.816029
_cell_angle_alpha 90.000000
_cell_angle_beta 85.531744
_cell_angle_gamma 90.000000
_cell_volume 2043.210026
_symmetry_space_group_name_H-M "C 2/M"
_symmetry_group_IT_number 12
_symmetry_cell_setting 'monoclinic'
loop_
_space_group_symop_operation_xyz
x,y,z
-x,y,-z
-x,-y,-z
x,-y,z
1/2+x,1/2+y,z
1/2-x,1/2+y,-z
1/2-x,1/2-y,-z
1/2+x,1/2-y,z
loop_
_atom_site_type_symbol
_atom_site_label
_atom_site_fract_x
_atom_site_fract_y
_atom_site_fract_z
Si Si1 0.352518 0.305511 0.006279
Si Si2 0.118497 0.311525 0.574921
Si Si3 0.009152 0.803099 0.872541
Si Si4 0.964941 0.810325 0.699306
Si Si5 0.312655 0.190300 0.601507
O O1 0.352648 0.500000 0.007112
O O2 0.421112 0.255312 0.930768
O O3 0.250000 0.250000 0.000000
O O4 0.401216 0.250119 0.084852
O O5 0.092776 0.500000 0.577859
O O6 0.217888 0.284898 0.606651
O O7 0.131564 0.261414 0.482060
O O8 0.044105 0.215977 0.629466
O O9 0.998766 0.748920 0.782719
O O10 0.011584 0.000000 0.871492
O O11 0.875220 0.723347 0.672691
O O12 0.944636 0.000000 0.707568
O O13 0.292281 0.000000 0.595228
#
# Coordination Sequence:
#
# PCOD9206914 Si02
#       5
#     8   8   8   8   8
#     4   9  17  35  58  76 100 135 171 207 252 304
#     4  10  21  37  55  76 104 140 181 221 262 310
#     4   8  18  35  53  75 105 138 169 204 252 313
#     4  11  21  34  54  80 109 140 174 215 265 313
#     4  10  21  37  55  76 104 140 181 221 262 310
#
# _framework density 19.577037000000001
#
# number of rings (size 3 to 8) (size 9 to 14) (size 15 to 20)
#    0.000    2.400    0.000    3.600    0.000    6.400 
#    0.000   10.000    0.000    0.000    0.000    0.000 
#    0.000    0.000    0.000    0.000    0.000    0.000 
#
# Total GULP energy -111640.369585 kJ/mol
# GULP energy per Si atom -5582.018479 kJ/mol
# Density = 1.953248 g / cm^3
# Si number density = 19.577037 Si / 1000 Ang^3
#
#
#
# Elastic Constant Matrix: (Units=GPa)
#
#
# Indices 1 2 3 4 5 6 
#
# 1 100.4076 0.2085 43.4752 0.0000 27.8223 0.0000
# 2 0.2085 12.7738 7.1856 0.0000 1.5337 0.0000
# 3 43.4752 7.1856 57.8903 0.0000 31.2355 0.0000
# 4 0.0000 0.0000 0.0000 16.8411 0.0000 4.9122
# 5 27.8223 1.5337 31.2355 0.0000 23.1307 0.0000
# 6 0.0000 0.0000 0.0000 4.9122 0.0000 32.5233
#
#
#
# Elastic Compliance Matrix: (Units=1/GPa)
#
#
# Indices 1 2 3 4 5 6 
#
# 1 0.015730 0.005085 -0.007567 0.000000 -0.009039 0.000000
# 2 0.005085 0.092495 -0.032024 0.000000 0.030995 0.000000
# 3 -0.007567 -0.032024 0.076923 0.000000 -0.092651 0.000000
# 4 0.000000 0.000000 0.000000 0.062115 0.000000 -0.009382
# 5 -0.009039 0.030995 -0.092651 0.000000 0.177165 0.000000
# 6 0.000000 0.000000 0.000000 -0.009382 0.000000 0.032164
#
#
# Mechanical properties :
#
#
# Convention : Reuss Voigt Hill
#
# Bulk Modulus (GPa) = 8.61055 30.31226 19.46140
# Shear Modulus (GPa) = 8.86030 22.51250 15.68640
#
# Velocity S-wave (km/s) = 2.12972 3.39476 2.83373
# Velocity P-wave (km/s) = 3.23348 5.55725 4.54634
#
# Compressibility (1/GPa) = 0.11613665
#
# Stress axis : x y z
#
# Youngs Moduli (GPa) = 63.57283 10.81141 13.00005
#
# Poissons Ratio (x) = -0.05498 0.09837
# Poissons Ratio (y) = -0.32328 0.41631
# Poissons Ratio (z) = 0.48107 0.34622
#
# Static dielectric constant tensor:
#      x y z
#    x 1.664260 0.000000 0.017500 
#    y 0.000000 1.677970 0.000000 
#    z 0.017500 0.000000 1.693040 
# 
# From -- ./inp_files/211336.got.cif
#   From: 2010.05.17/outbox.cif.g08.bks.cpg/sg12_106_cif.got.tgz:211336.got - 2010.06.03 13:09:07.
