data_PCOD9206002
_publ_section_title
;
Structure prediction by ZEFSAII (Michael W. Deem and Ramdas Pophale) SiO2 
 PCOD9206002
Probable space group: C 2/M
;
_chemical_formula_sum "Si O2"
_cell_formula_units_Z 56
_cell_length_a 15.061923
_cell_length_b 8.993534
_cell_length_c 21.792267
_cell_angle_alpha 90.000000
_cell_angle_beta 67.102456
_cell_angle_gamma 90.000000
_cell_volume 2719.368905
_symmetry_space_group_name_H-M "C 2/M"
_symmetry_group_IT_number 12
_symmetry_cell_setting 'monoclinic'
loop_
_space_group_symop_operation_xyz
x,y,z
-x,y,-z
-x,-y,-z
x,-y,z
1/2+x,1/2+y,z
1/2-x,1/2+y,-z
1/2-x,1/2-y,-z
1/2+x,1/2-y,z
loop_
_atom_site_type_symbol
_atom_site_label
_atom_site_fract_x
_atom_site_fract_y
_atom_site_fract_z
Si Si1 0.489102 0.321142 0.072575
Si Si2 0.150171 0.667117 0.456105
Si Si3 0.796974 0.677955 0.177212
Si Si4 0.334120 0.322061 0.677675
Si Si5 0.494194 0.176482 0.291197
Si Si6 0.624696 0.333549 0.580703
Si Si7 0.396940 0.678104 0.843942
O O1 0.481102 0.500000 0.073227
O O2 0.392910 0.257594 0.129381
O O3 0.580310 0.285194 0.091683
O O4 0.500000 0.266711 0.000000
O O5 0.114878 0.500000 0.451919
O O6 0.158754 0.767623 0.393633
O O7 0.260383 0.651957 0.449368
O O8 0.094929 0.744403 0.527501
O O9 0.810115 0.500000 0.169872
O O10 0.761654 0.712212 0.256262
O O11 0.706882 0.719120 0.156534
O O12 0.347240 0.500000 0.678338
O O13 0.417898 0.234254 0.690384
O O14 0.403959 0.246122 0.350465
O O15 0.520477 0.242924 0.218306
O O16 0.487610 0.000000 0.290659
O O17 0.582757 0.500000 0.592154
O O18 0.405808 0.500000 0.833228
#
# Coordination Sequence:
#
# PCOD9206002 Si02
#       7
#     8   8   8   8   8   8   8
#     4  10  22  39  61  90 121 155 196 238 288 352
#     4  10  21  36  55  81 111 146 192 239 284 340
#     4   9  20  38  59  85 118 156 196 241 291 350
#     4  10  21  38  58  81 113 149 187 234 294 348
#     4  11  22  36  57  84 111 143 193 242 283 341
#     4  10  21  37  55  78 112 151 188 233 293 344
#     4   9  20  40  60  83 120 160 194 238 300 356
#
# _framework density 20.593014
#
# number of rings (size 3 to 8) (size 9 to 14) (size 15 to 20)
#    0.000    2.143    0.000    3.429    2.000    6.571 
#    0.000    2.857    0.000    0.000    0.000    0.000 
#    0.000    0.000    0.000    0.000    0.000    0.000 
#
# Total GULP energy -156319.334919 kJ/mol
# GULP energy per Si atom -5582.833390 kJ/mol
# Density = 2.054614 g / cm^3
# Si number density = 20.593014 Si / 1000 Ang^3
#
#
#
# Elastic Constant Matrix: (Units=GPa)
#
#
# Indices 1 2 3 4 5 6 
#
# 1 41.1682 6.1583 25.6078 0.0000 7.0971 0.0000
# 2 6.1583 45.8432 8.1354 0.0000 3.3998 0.0000
# 3 25.6078 8.1354 68.5459 0.0000 16.9954 0.0000
# 4 0.0000 0.0000 0.0000 149.4353 0.0000 -125.6513
# 5 7.0971 3.3998 16.9954 0.0000 34.4298 0.0000
# 6 0.0000 0.0000 0.0000 -125.6513 0.0000 146.7215
#
#
#
# Elastic Compliance Matrix: (Units=1/GPa)
#
#
# Indices 1 2 3 4 5 6 
#
# 1 0.031877 -0.002194 -0.011478 0.000000 -0.000689 0.000000
# 2 -0.002194 0.022465 -0.001605 0.000000 -0.000974 0.000000
# 3 -0.011478 -0.001605 0.021013 0.000000 -0.007848 0.000000
# 4 0.000000 0.000000 0.000000 0.023907 0.000000 0.020474
# 5 -0.000689 -0.000974 -0.007848 0.000000 0.033157 0.000000
# 6 0.000000 0.000000 0.000000 0.020474 0.000000 0.024349
#
#
# Mechanical properties :
#
#
# Convention : Reuss Voigt Hill
#
# Bulk Modulus (GPa) = 22.32080 26.15114 24.23597
# Shear Modulus (GPa) = 24.72112 73.82773 49.27442
#
# Velocity S-wave (km/s) = 3.46853 5.99405 4.89691
# Velocity P-wave (km/s) = 5.18685 7.78662 6.61570
#
# Compressibility (1/GPa) = 0.04480126
#
# Stress axis : x y z
#
# Youngs Moduli (GPa) = 31.37067 44.51305 47.58961
#
# Poissons Ratio (x) = 0.09767 0.54621
# Poissons Ratio (y) = 0.06883 0.07639
# Poissons Ratio (z) = 0.36006 0.07145
#
# Static dielectric constant tensor:
#      x y z
#    x 1.795660 0.000000 0.000110 
#    y 0.000000 1.710060 0.000000 
#    z 0.000110 0.000000 1.740060 
# 
# From -- ./inp_files/338471.got.cif
#   From: 2010.05.17/outbox.cif.g08.bks.cpg/sg12_170_cif.got.tgz:338471.got - 2010.06.03 13:09:07.
