data_PCOD9206174
_publ_section_title
;
Structure prediction by ZEFSAII (Michael W. Deem and Ramdas Pophale) SiO2 
 PCOD9206174
Probable space group: C 2/M
;
_chemical_formula_sum "Si O2"
_cell_formula_units_Z 40
_cell_length_a 10.647786
_cell_length_b 9.117259
_cell_length_c 18.704117
_cell_angle_alpha 90.000000
_cell_angle_beta 93.864459
_cell_angle_gamma 90.000000
_cell_volume 1811.641361
_symmetry_space_group_name_H-M "C 2/M"
_symmetry_group_IT_number 12
_symmetry_cell_setting 'monoclinic'
loop_
_space_group_symop_operation_xyz
x,y,z
-x,y,-z
-x,-y,-z
x,-y,z
1/2+x,1/2+y,z
1/2-x,1/2+y,-z
1/2-x,1/2-y,-z
1/2+x,1/2-y,z
loop_
_atom_site_type_symbol
_atom_site_label
_atom_site_fract_x
_atom_site_fract_y
_atom_site_fract_z
Si Si1 0.415324 0.674048 0.277901
Si Si2 0.637649 0.324184 0.041025
Si Si3 0.862222 0.325176 0.803801
Si Si4 0.277277 0.840790 0.387789
Si Si5 0.101224 0.663419 0.457115
O O1 0.435770 0.500000 0.289551
O O2 0.279463 0.692462 0.232954
O O3 0.528892 0.745457 0.237983
O O4 0.387772 0.759536 0.350660
O O5 0.658475 0.500000 0.047268
O O6 0.636028 0.248431 0.118272
O O7 0.500000 0.302492 0.000000
O O8 0.750000 0.250000 0.000000
O O9 0.887508 0.500000 0.807939
O O10 0.159075 0.734326 0.389721
O O11 0.302806 0.860885 0.473212
O O12 0.252887 0.000000 0.354713
O O13 0.052359 0.500000 0.435638
O O14 0.000000 0.752483 0.500000
#
# Coordination Sequence:
#
# PCOD9206174 Si02
#       5
#     8   8   8   8   8
#     4  11  25  43  64  91 129 169 209 261 317 372
#     4  11  24  42  67  99 133 168 209 257 310 366
#     4  11  25  44  66  95 129 168 213 258 309 371
#     4  10  21  36  56  85 115 154 205 254 311 374
#     4   9  19  36  57  80 113 152 197 255 313 368
#
# _framework density 22.079423999999999
#
# number of rings (size 3 to 8) (size 9 to 14) (size 15 to 20)
#    0.000    1.600    0.000    3.600    2.800   10.800 
#    0.000    0.000    0.000    0.000    0.000    0.000 
#    0.000    0.000    0.000    0.000    0.000    0.000 
#
# Total GULP energy -111573.865542 kJ/mol
# GULP energy per Si atom -5578.693277 kJ/mol
# Density = 2.202917 g / cm^3
# Si number density = 22.079424 Si / 1000 Ang^3
#
#
#
# Elastic Constant Matrix: (Units=GPa)
#
#
# Indices 1 2 3 4 5 6 
#
# 1 143.2572 78.8009 58.2175 0.0000 -37.9065 0.0000
# 2 78.8009 166.4790 69.3590 0.0000 -27.3034 0.0000
# 3 58.2175 69.3590 122.0073 0.0000 -34.2064 0.0000
# 4 0.0000 0.0000 0.0000 636.0097 0.0000 200.8170
# 5 -37.9065 -27.3034 -34.2064 0.0000 53.5356 0.0000
# 6 0.0000 0.0000 0.0000 200.8170 0.0000 111.1176
#
#
#
# Elastic Compliance Matrix: (Units=1/GPa)
#
#
# Indices 1 2 3 4 5 6 
#
# 1 0.010996 -0.003662 -0.001834 0.000000 0.004746 0.000000
# 2 -0.003662 0.009179 -0.003515 0.000000 -0.000158 0.000000
# 3 -0.001834 -0.003515 0.012429 0.000000 0.004850 0.000000
# 4 0.000000 0.000000 0.000000 0.003662 0.000000 -0.006618
# 5 0.004746 -0.000158 0.004850 0.000000 0.025058 0.000000
# 6 0.000000 0.000000 0.000000 -0.006618 0.000000 0.020960
#
#
# Mechanical properties :
#
#
# Convention : Reuss Voigt Hill
#
# Bulk Modulus (GPa) = 68.57891 93.83313 81.20602
# Shear Modulus (GPa) = 47.54310 175.15698 111.35004
#
# Velocity S-wave (km/s) = 4.64537 8.91642 7.10922
# Velocity P-wave (km/s) = 7.73952 12.18990 10.21014
#
# Compressibility (1/GPa) = 0.01458174
#
# Stress axis : x y z
#
# Youngs Moduli (GPa) = 90.93958 108.94803 80.45438
#
# Poissons Ratio (x) = 0.39900 0.14759
# Poissons Ratio (y) = 0.33305 0.28276
# Poissons Ratio (z) = 0.16682 0.38291
#
# Static dielectric constant tensor:
#      x y z
#    x 1.908070 0.000000 0.104150 
#    y 0.000000 1.908500 0.000000 
#    z 0.104150 0.000000 1.824010 
# 
# From -- ./inp_files/261027.got.cif
#   From: 2010.05.17/outbox.cif.g08.bks.cpg/sg12_131_cif.got.tgz:261027.got - 2010.06.03 13:09:07.
