data_PCOD9206203
_publ_section_title
;
Structure prediction by ZEFSAII (Michael W. Deem and Ramdas Pophale) SiO2 
 PCOD9206203
Probable space group: C 2/M
;
_chemical_formula_sum "Si O2"
_cell_formula_units_Z 40
_cell_length_a 21.461963
_cell_length_b 20.358232
_cell_length_c 8.332888
_cell_angle_alpha 90.000000
_cell_angle_beta 32.552982
_cell_angle_gamma 90.000000
_cell_volume 1959.076105
_symmetry_space_group_name_H-M "C 2/M"
_symmetry_group_IT_number 12
_symmetry_cell_setting 'monoclinic'
loop_
_space_group_symop_operation_xyz
x,y,z
-x,y,-z
-x,-y,-z
x,-y,z
1/2+x,1/2+y,z
1/2-x,1/2+y,-z
1/2-x,1/2-y,-z
1/2+x,1/2-y,z
loop_
_atom_site_type_symbol
_atom_site_label
_atom_site_fract_x
_atom_site_fract_y
_atom_site_fract_z
Si Si1 0.876988 0.923083 0.549696
Si Si2 0.118703 0.719720 0.283849
Si Si3 0.355061 0.423073 0.977931
Si Si4 0.300920 0.825811 0.208287
Si Si5 0.320081 0.182836 0.514007
O O1 0.803598 0.876882 0.592979
O O2 0.854641 0.000000 0.565740
O O3 0.848408 0.910758 0.800207
O O4 0.014487 0.911898 0.243536
O O5 0.102578 0.690242 0.495428
O O6 0.000000 0.760218 0.500000
O O7 0.250000 0.750000 0.000000
O O8 0.128795 0.671173 0.110539
O O9 0.328430 0.500000 0.060247
O O10 0.270179 0.374287 0.249967
O O11 0.365608 0.832874 0.237287
O O12 0.246264 0.752900 0.341872
#
# Coordination Sequence:
#
# PCOD9206203 Si02
#       5
#     8   8   8   8   8
#     4   9  18  34  59  92 128 166 211 265 322 378
#     4  10  22  40  61  88 123 165 207 255 313 370
#     4   9  18  34  59  92 128 166 211 265 322 378
#     4  10  21  36  56  86 123 163 206 252 307 373
#     4  10  21  36  56  86 123 163 206 252 307 373
#
# _framework density 20.417787000000001
#
# number of rings (size 3 to 8) (size 9 to 14) (size 15 to 20)
#    0.000    2.400    2.000    1.200    0.000    8.800 
#    0.000   10.000    0.000    2.400    0.000    2.800 
#    0.000    0.000    0.000    0.000    0.000    0.000 
#
# Total GULP energy -111352.161189 kJ/mol
# GULP energy per Si atom -5567.608059 kJ/mol
# Density = 2.037131 g / cm^3
# Si number density = 20.417787 Si / 1000 Ang^3
#
#
#
# Elastic Constant Matrix: (Units=GPa)
#
#
# Indices 1 2 3 4 5 6 
#
# 1 177.7743 47.1399 61.6925 0.0000 13.1616 0.0000
# 2 47.1399 68.8585 18.9240 0.0000 -11.1436 0.0000
# 3 61.6925 18.9240 37.4086 -0.0001 -4.2267 -0.0001
# 4 0.0000 0.0000 -0.0001 -300.3892 0.0000 -503.3585
# 5 13.1616 -11.1436 -4.2267 0.0000 40.2467 0.0000
# 6 0.0000 0.0000 -0.0001 -503.3585 0.0000 -782.6679
#
#
#
# Elastic Compliance Matrix: (Units=1/GPa)
#
#
# Indices 1 2 3 4 5 6 
#
# 1 0.017091 -0.006118 -0.026226 0.000000 -0.010037 0.000000
# 2 -0.006118 0.019658 0.000997 0.000000 0.007548 0.000000
# 3 -0.026226 0.000997 0.071324 0.000000 0.016343 0.000000
# 4 0.000000 0.000000 0.000000 0.042851 0.000000 -0.027559
# 5 -0.010037 0.007548 0.016343 0.000000 0.031936 0.000000
# 6 0.000000 0.000000 0.000000 -0.027559 0.000000 0.016446
#
#
# Mechanical properties :
#
#
# Convention : Reuss Voigt Hill
#
# Bulk Modulus (GPa) = 22.03548 59.95046 40.99297
# Shear Modulus (GPa) = 18.04230 -198.14311 -90.05040
#
# Velocity S-wave (km/s) = 2.97586 -9.86180 -6.64828
# Velocity P-wave (km/s) = 4.75640 10.01238 6.22994
#
# Compressibility (1/GPa) = 0.04538136
#
# Stress axis : x y z
#
# Youngs Moduli (GPa) = 58.50871 50.86964 14.02049
#
# Poissons Ratio (x) = 0.31120 0.36770
# Poissons Ratio (y) = 0.35793 -0.01398
# Poissons Ratio (z) = 1.53444 -0.05073
#
# Static dielectric constant tensor:
#      x y z
#    x 1.786820 0.000000 0.020310 
#    y 0.000000 1.711050 0.000000 
#    z 0.020310 0.000000 1.774030 
# 
# From -- ./inp_files/98985.got.cif
#   From: 2010.05.17/outbox.cif.g08.bks.cpg/sg12_50_cif.got.tgz:98985.got - 2010.06.03 13:09:07.
