data_PCOD9206962
_publ_section_title
;
Structure prediction by ZEFSAII (Michael W. Deem and Ramdas Pophale) SiO2 
 PCOD9206962
Probable space group: C 2/M
;
_chemical_formula_sum "Si O2"
_cell_formula_units_Z 48
_cell_length_a 10.543197
_cell_length_b 20.305347
_cell_length_c 10.894964
_cell_angle_alpha 90.000000
_cell_angle_beta 84.411727
_cell_angle_gamma 90.000000
_cell_volume 2321.344342
_symmetry_space_group_name_H-M "C 2/M"
_symmetry_group_IT_number 12
_symmetry_cell_setting 'monoclinic'
loop_
_space_group_symop_operation_xyz
x,y,z
-x,y,-z
-x,-y,-z
x,-y,z
1/2+x,1/2+y,z
1/2-x,1/2+y,-z
1/2-x,1/2-y,-z
1/2+x,1/2-y,z
loop_
_atom_site_type_symbol
_atom_site_label
_atom_site_fract_x
_atom_site_fract_y
_atom_site_fract_z
Si Si1 0.552560 0.425517 0.798712
Si Si2 0.437867 0.329517 0.630966
Si Si3 0.070793 0.314097 0.301520
Si Si4 0.694804 0.823193 0.537975
Si Si5 0.211711 0.925174 0.028179
Si Si6 0.360667 0.805038 0.974446
O O1 0.576602 0.500000 0.753475
O O2 0.539294 0.373704 0.691444
O O3 0.650673 0.411095 0.899085
O O4 0.411539 0.423359 0.872474
O O5 0.500000 0.303943 0.500000
O O6 0.403696 0.264773 0.709775
O O7 0.307485 0.362062 0.595875
O O8 0.147517 0.345751 0.408242
O O9 0.113364 0.334915 0.163709
O O10 0.924070 0.320033 0.357670
O O11 0.750000 0.750000 0.500000
O O12 0.310747 0.868629 0.053470
O O13 0.261851 0.000000 0.023971
O O14 0.500000 0.778674 0.000000
O O15 0.250000 0.750000 0.000000
#
# Coordination Sequence:
#
# PCOD9206962 Si02
#       6
#     8   8   8   8   8   8
#     4   9  20  37  62  88 115 157 207 262 308 366
#     4  11  20  30  59  84 119 157 194 251 305 374
#     4  10  21  37  55  80 123 157 201 239 309 371
#     4   9  18  35  54  79 107 163 201 231 293 377
#     4   9  21  44  65  84 120 172 213 246 314 383
#     4  12  29  39  62 101 131 161 201 272 320 365
#
# _framework density 20.677674
#
# number of rings (size 3 to 8) (size 9 to 14) (size 15 to 20)
#    0.000    2.000    3.333    2.000   14.000    0.667 
#    0.000    0.000    0.000    0.000    0.000    2.333 
#    0.000    0.000    0.000    0.000    0.000    0.000 
#
# Total GULP energy -133717.316570 kJ/mol
# GULP energy per Si atom -5571.554857 kJ/mol
# Density = 2.063061 g / cm^3
# Si number density = 20.677674 Si / 1000 Ang^3
#
#
#
# Elastic Constant Matrix: (Units=GPa)
#
#
# Indices 1 2 3 4 5 6 
#
# 1 103.6772 15.1798 2.6105 0.0000 -12.9212 0.0000
# 2 15.1798 43.2187 -7.7513 0.0000 -1.2275 0.0000
# 3 2.6105 -7.7513 46.9188 0.0000 -12.7442 0.0000
# 4 0.0000 0.0000 0.0000 18.0927 0.0000 4.3937
# 5 -12.9212 -1.2275 -12.7442 0.0000 19.9208 0.0000
# 6 0.0000 0.0000 0.0000 4.3937 0.0000 22.7962
#
#
#
# Elastic Compliance Matrix: (Units=1/GPa)
#
#
# Indices 1 2 3 4 5 6 
#
# 1 0.011076 -0.003526 0.000839 0.000000 0.007504 0.000000
# 2 -0.003526 0.025357 0.005070 0.000000 0.002518 0.000000
# 3 0.000839 0.005070 0.027035 0.000000 0.018152 0.000000
# 4 0.000000 0.000000 0.000000 0.057985 0.000000 -0.011176
# 5 0.007504 0.002518 0.018152 0.000000 0.066834 0.000000
# 6 0.000000 0.000000 0.000000 -0.011176 0.000000 0.046021
#
#
# Mechanical properties :
#
#
# Convention : Reuss Voigt Hill
#
# Bulk Modulus (GPa) = 14.65572 23.76584 19.21078
# Shear Modulus (GPa) = 19.81865 24.41364 22.11614
#
# Velocity S-wave (km/s) = 3.09925 3.43982 3.27397
# Velocity P-wave (km/s) = 4.46209 5.22446 4.85825
#
# Compressibility (1/GPa) = 0.06823273
#
# Stress axis : x y z
#
# Youngs Moduli (GPa) = 90.28790 39.43607 36.98934
#
# Poissons Ratio (x) = 0.13907 -0.03105
# Poissons Ratio (y) = 0.31840 -0.18752
# Poissons Ratio (z) = -0.07578 -0.19992
#
# Static dielectric constant tensor:
#      x y z
#    x 1.827680 0.000000 0.036290 
#    y 0.000000 1.730080 0.000000 
#    z 0.036290 0.000000 1.775060 
# 
# From -- ./inp_files/132505.got.cif
#   From: 2010.05.17/outbox.cif.g08.bks.cpg/sg12_67_cif.got.tgz:132505.got - 2010.06.03 13:09:07.
