data_PCOD9206277
_publ_section_title
;
Structure prediction by ZEFSAII (Michael W. Deem and Ramdas Pophale) SiO2 
 PCOD9206277
Probable space group: C 2/M
;
_chemical_formula_sum "Si O2"
_cell_formula_units_Z 60
_cell_length_a 22.457364
_cell_length_b 26.914221
_cell_length_c 9.829318
_cell_angle_alpha 90.000000
_cell_angle_beta 144.119931
_cell_angle_gamma 90.000000
_cell_volume 3481.999376
_symmetry_space_group_name_H-M "C 2/M"
_symmetry_group_IT_number 12
_symmetry_cell_setting 'monoclinic'
loop_
_space_group_symop_operation_xyz
x,y,z
-x,y,-z
-x,-y,-z
x,-y,z
1/2+x,1/2+y,z
1/2-x,1/2+y,-z
1/2-x,1/2-y,-z
1/2+x,1/2-y,z
loop_
_atom_site_type_symbol
_atom_site_label
_atom_site_fract_x
_atom_site_fract_y
_atom_site_fract_z
Si Si1 0.217820 0.854534 0.425247
Si Si2 0.097025 0.944314 0.778682
Si Si3 0.838779 0.169218 0.128875
Si Si4 0.179243 0.295225 0.609632
Si Si5 0.465681 0.754573 0.224719
Si Si6 0.500000 0.297071 0.000000
Si Si7 0.899528 0.943401 0.893768
Si Si8 0.764779 0.308317 0.783713
O O1 0.303067 0.830800 0.485573
O O2 0.107114 0.827086 0.206775
O O3 0.192166 0.908638 0.320550
O O4 0.254260 0.849331 0.647854
O O5 0.146785 0.890222 0.847135
O O6 0.000000 0.944441 0.500000
O O7 0.146037 0.000000 0.848659
O O8 0.075288 0.941709 0.899729
O O9 0.928761 0.205740 0.240625
O O10 0.809205 0.182316 0.227181
O O11 0.747786 0.184038 0.858772
O O12 0.227587 0.243296 0.649777
O O13 0.067759 0.282503 0.457230
O O14 0.489434 0.735035 0.116742
O O15 0.374857 0.794423 0.046167
O O16 0.877536 0.000000 0.815839
O O17 0.000000 0.927496 0.000000
#
# Coordination Sequence:
#
# PCOD9206277 Si02
#       8
#     8   8   8   8   8   4   8   8
#     4  12  21  36  56  82 111 155 187 226 279 339
#     4  10  22  39  59  84 112 147 187 231 285 342
#     4  11  24  38  54  85 117 150 187 228 287 335
#     4  11  21  38  56  78 110 154 196 222 276 341
#     4  11  22  36  56  81 114 155 189 235 271 328
#     4  12  18  32  57  76 110 148 187 226 276 322
#     4  10  21  36  57  85 110 141 187 236 285 337
#     4  11  24  35  52  83 115 147 193 227 275 340
#
# _framework density 17.231477999999999
#
# number of rings (size 3 to 8) (size 9 to 14) (size 15 to 20)
#    0.000    1.067    6.000    2.800    3.733    1.600 
#    0.000    0.000    0.000    0.000    0.000    5.600 
#    0.000    0.000    0.000    0.000    0.000    0.000 
#
# Total GULP energy -167239.304102 kJ/mol
# GULP energy per Si atom -5574.643470 kJ/mol
# Density = 1.719226 g / cm^3
# Si number density = 17.231478 Si / 1000 Ang^3
#
#
#
# Elastic Constant Matrix: (Units=GPa)
#
#
# Indices 1 2 3 4 5 6 
#
# 1 79.1490 45.7341 28.9105 0.0000 -6.0364 0.0000
# 2 45.7341 102.5154 39.0898 0.0000 3.3600 0.0000
# 3 28.9105 39.0898 70.1625 0.0000 4.5043 0.0000
# 4 0.0000 0.0000 0.0000 3.6616 0.0000 -6.1455
# 5 -6.0364 3.3600 4.5043 0.0000 37.7380 0.0000
# 6 0.0000 0.0000 0.0000 -6.1455 0.0000 15.1188
#
#
#
# Elastic Compliance Matrix: (Units=1/GPa)
#
#
# Indices 1 2 3 4 5 6 
#
# 1 0.018326 -0.006767 -0.004039 0.000000 0.004016 0.000000
# 2 -0.006767 0.014888 -0.005393 0.000000 -0.001764 0.000000
# 3 -0.004039 -0.005393 0.019078 0.000000 -0.002443 0.000000
# 4 0.000000 0.000000 0.000000 0.859427 0.000000 0.349339
# 5 0.004016 -0.001764 -0.002443 0.000000 0.027590 0.000000
# 6 0.000000 0.000000 0.000000 0.349339 0.000000 0.208141
#
#
# Mechanical properties :
#
#
# Convention : Reuss Voigt Hill
#
# Bulk Modulus (GPa) = 50.26546 53.25508 51.76027
# Shear Modulus (GPa) = 4.21415 20.50986 12.36200
#
# Velocity S-wave (km/s) = 1.56554 3.45375 2.68135
# Velocity P-wave (km/s) = 5.70105 6.84670 6.29997
#
# Compressibility (1/GPa) = 0.01989438
#
# Stress axis : x y z
#
# Youngs Moduli (GPa) = 54.56659 67.16940 52.41591
#
# Poissons Ratio (x) = 0.45455 0.21170
# Poissons Ratio (y) = 0.36927 0.28266
# Poissons Ratio (z) = 0.22039 0.36223
#
# Static dielectric constant tensor:
#      x y z
#    x 1.594930 0.000000 0.002250 
#    y 0.000000 1.612310 0.000000 
#    z 0.002250 0.000000 1.625630 
# 
# From -- ./inp_files/91258.got.cif
#   From: 2010.05.17/outbox.cif.g08.bks.cpg/sg12_46_cif.got.tgz:91258.got - 2010.06.03 13:09:07.
