data_PCOD9206392
_publ_section_title
;
Structure prediction by ZEFSAII (Michael W. Deem and Ramdas Pophale) SiO2 
 PCOD9206392
Probable space group: C 2/M
;
_chemical_formula_sum "Si O2"
_cell_formula_units_Z 48
_cell_length_a 18.993049
_cell_length_b 21.097879
_cell_length_c 9.403861
_cell_angle_alpha 90.000000
_cell_angle_beta 135.237836
_cell_angle_gamma 90.000000
_cell_volume 2653.471452
_symmetry_space_group_name_H-M "C 2/M"
_symmetry_group_IT_number 12
_symmetry_cell_setting 'monoclinic'
loop_
_space_group_symop_operation_xyz
x,y,z
-x,y,-z
-x,-y,-z
x,-y,z
1/2+x,1/2+y,z
1/2-x,1/2+y,-z
1/2-x,1/2-y,-z
1/2+x,1/2-y,z
loop_
_atom_site_type_symbol
_atom_site_label
_atom_site_fract_x
_atom_site_fract_y
_atom_site_fract_z
Si Si1 0.880793 0.840307 0.336326
Si Si2 0.167353 0.799435 0.031063
Si Si3 0.476785 0.182430 0.127558
Si Si4 0.322128 0.755518 0.469095
Si Si5 0.082389 0.426640 0.740981
Si Si6 0.816966 0.071077 0.028046
O O1 0.844944 0.813407 0.434171
O O2 0.848113 0.909319 0.234246
O O3 0.000000 0.833859 0.500000
O O4 0.168101 0.797344 0.859964
O O5 0.266799 0.793310 0.264775
O O6 0.097321 0.742844 0.982663
O O7 0.133766 0.873268 0.996067
O O8 0.577078 0.209159 0.343487
O O9 0.432707 0.125474 0.158212
O O10 0.500000 0.162162 0.000000
O O11 0.250000 0.750000 0.500000
O O12 0.068599 0.500000 0.769672
O O13 0.000000 0.415014 0.500000
O O14 0.196579 0.422510 0.848901
O O15 0.845885 0.000000 0.034643
#
# Coordination Sequence:
#
# PCOD9206392 Si02
#       6
#     8   8   8   8   8   8
#     4  10  21  36  58  85 112 146 191 239 287 339
#     4  10  22  36  57  86 111 149 193 238 284 339
#     4  12  24  36  56  87 118 154 190 239 291 343
#     4  12  22  35  56  86 120 149 184 244 292 339
#     4  10  22  38  59  85 115 151 192 235 288 350
#     4   9  20  36  59  83 111 145 191 240 283 337
#
# _framework density 18.089511000000002
#
# number of rings (size 3 to 8) (size 9 to 14) (size 15 to 20)
#    1.000    0.500    3.333    2.500    4.667    0.667 
#    0.000    0.000    0.000    1.500    0.000    0.000 
#    0.000    0.000    0.000    0.000    0.000    0.000 
#
# Total GULP energy -133610.176625 kJ/mol
# GULP energy per Si atom -5567.090693 kJ/mol
# Density = 1.804834 g / cm^3
# Si number density = 18.089511 Si / 1000 Ang^3
#
#
#
# Elastic Constant Matrix: (Units=GPa)
#
#
# Indices 1 2 3 4 5 6 
#
# 1 25.7850 24.1943 -1.2111 0.0000 -7.5526 0.0000
# 2 24.1943 129.2809 18.0417 0.0000 -4.7498 0.0000
# 3 -1.2111 18.0417 100.7458 0.0000 6.5932 0.0000
# 4 0.0000 0.0000 0.0000 18.1057 0.0000 10.3159
# 5 -7.5526 -4.7498 6.5932 0.0000 19.6674 0.0000
# 6 0.0000 0.0000 0.0000 10.3159 0.0000 14.2895
#
#
#
# Elastic Compliance Matrix: (Units=1/GPa)
#
#
# Indices 1 2 3 4 5 6 
#
# 1 0.052819 -0.009400 0.001165 0.000000 0.017623 0.000000
# 2 -0.009400 0.009723 -0.001811 0.000000 -0.000654 0.000000
# 3 0.001165 -0.001811 0.010494 0.000000 -0.003508 0.000000
# 4 0.000000 0.000000 0.000000 0.093823 0.000000 -0.067733
# 5 0.017623 -0.000654 -0.003508 0.000000 0.058631 0.000000
# 6 0.000000 0.000000 0.000000 -0.067733 0.000000 0.118879
#
#
# Mechanical properties :
#
#
# Convention : Reuss Voigt Hill
#
# Bulk Modulus (GPa) = 18.88820 37.54019 28.21419
# Shear Modulus (GPa) = 13.08528 24.73165 18.90846
#
# Velocity S-wave (km/s) = 2.69246 3.70155 3.23657
# Velocity P-wave (km/s) = 4.48664 6.25029 5.44041
#
# Compressibility (1/GPa) = 0.05294311
#
# Stress axis : x y z
#
# Youngs Moduli (GPa) = 18.93267 102.84902 95.29312
#
# Poissons Ratio (x) = 0.96677 -0.11102
# Poissons Ratio (y) = 0.17797 0.17261
# Poissons Ratio (z) = -0.02206 0.18630
#
# Static dielectric constant tensor:
#      x y z
#    x 1.622080 0.000000 0.010120 
#    y 0.000000 1.650690 0.000000 
#    z 0.010120 0.000000 1.638800 
# 
# From -- ./inp_files/89718.got.cif
#   From: 2010.05.17/outbox.cif.g08.bks.cpg/sg12_45_cif.got.tgz:89718.got - 2010.06.03 13:09:07.
