data_PCOD9206210
_publ_section_title
;
Structure prediction by ZEFSAII (Michael W. Deem and Ramdas Pophale) SiO2 
 PCOD9206210
Probable space group: C 2/M
;
_chemical_formula_sum "Si O2"
_cell_formula_units_Z 44
_cell_length_a 14.181908
_cell_length_b 9.716622
_cell_length_c 13.498821
_cell_angle_alpha 90.000000
_cell_angle_beta 92.702583
_cell_angle_gamma 90.000000
_cell_volume 1858.071823
_symmetry_space_group_name_H-M "C 2/M"
_symmetry_group_IT_number 12
_symmetry_cell_setting 'monoclinic'
loop_
_space_group_symop_operation_xyz
x,y,z
-x,y,-z
-x,-y,-z
x,-y,z
1/2+x,1/2+y,z
1/2-x,1/2+y,-z
1/2-x,1/2-y,-z
1/2+x,1/2-y,z
loop_
_atom_site_type_symbol
_atom_site_label
_atom_site_fract_x
_atom_site_fract_y
_atom_site_fract_z
Si Si1 0.746127 0.348331 0.733777
Si Si2 0.521303 0.339059 0.701754
Si Si3 0.632429 0.236972 0.446010
Si Si4 0.740003 0.847628 0.905651
Si Si5 0.484023 0.154905 0.111757
Si Si6 0.228932 0.500000 0.530971
O O1 0.755457 0.500000 0.780906
O O2 0.635274 0.333057 0.702546
O O3 0.810100 0.340758 0.640353
O O4 0.776128 0.230029 0.810602
O O5 0.495639 0.500000 0.708448
O O6 0.468365 0.274785 0.605132
O O7 0.489524 0.256333 0.798520
O O8 0.688552 0.378442 0.466465
O O9 0.647419 0.123094 0.530672
O O10 0.628262 0.859689 0.884109
O O11 0.780500 0.000000 0.921868
O O12 0.750000 0.750000 0.000000
O O13 0.526064 0.000000 0.122001
O O14 0.500000 0.205390 0.000000
#
# Coordination Sequence:
#
# PCOD9206210 Si02
#       6
#     8   8   8   8   8   4
#     4  10  22  41  64  89 123 170 207 246 309 374
#     4  10  22  40  63  91 123 164 207 248 305 372
#     4  11  22  44  65  95 125 163 197 265 314 373
#     4  10  21  36  56  87 125 160 206 254 296 360
#     4   9  20  37  56  84 121 158 205 249 294 357
#     4  10  24  42  66  94 128 152 208 258 318 380
#
# _framework density 23.680461999999999
#
# number of rings (size 3 to 8) (size 9 to 14) (size 15 to 20)
#    0.000    2.000    1.818    0.545    5.091    1.091 
#    0.000    5.455    0.000    0.000    0.000    0.000 
#    0.000    0.000    0.000    0.000    0.000    0.000 
#
# Total GULP energy -122480.802446 kJ/mol
# GULP energy per Si atom -5567.309202 kJ/mol
# Density = 2.362656 g / cm^3
# Si number density = 23.680462 Si / 1000 Ang^3
#
#
#
# Elastic Constant Matrix: (Units=GPa)
#
#
# Indices 1 2 3 4 5 6 
#
# 1 77.2332 26.0517 8.2287 0.0000 17.4996 0.0000
# 2 26.0517 216.2316 43.0876 0.0000 21.5222 0.0000
# 3 8.2287 43.0876 70.7791 0.0000 2.9693 0.0000
# 4 0.0000 0.0000 0.0000 199.6798 0.0000 -142.1881
# 5 17.4996 21.5222 2.9693 0.0000 40.4574 0.0000
# 6 0.0000 0.0000 0.0000 -142.1881 0.0000 139.5238
#
#
#
# Elastic Compliance Matrix: (Units=1/GPa)
#
#
# Indices 1 2 3 4 5 6 
#
# 1 0.014686 -0.001031 -0.000839 0.000000 -0.005742 0.000000
# 2 -0.001031 0.005617 -0.003203 0.000000 -0.002307 0.000000
# 3 -0.000839 -0.003203 0.016139 0.000000 0.000882 0.000000
# 4 0.000000 0.000000 0.000000 0.018256 0.000000 0.018605
# 5 -0.005742 -0.002307 0.000882 0.000000 0.028364 0.000000
# 6 0.000000 0.000000 0.000000 0.018605 0.000000 0.026127
#
#
# Mechanical properties :
#
#
# Convention : Reuss Voigt Hill
#
# Bulk Modulus (GPa) = 38.02759 57.66442 47.84601
# Shear Modulus (GPa) = 39.03257 95.05726 67.04491
#
# Velocity S-wave (km/s) = 4.06433 6.34262 5.32671
# Velocity P-wave (km/s) = 6.17402 8.83416 7.62105
#
# Compressibility (1/GPa) = 0.02629669
#
# Stress axis : x y z
#
# Youngs Moduli (GPa) = 68.09221 178.04255 61.96314
#
# Poissons Ratio (x) = 0.18349 0.05199
# Poissons Ratio (y) = 0.07018 0.19844
# Poissons Ratio (z) = 0.05713 0.57020
#
# Static dielectric constant tensor:
#      x y z
#    x 1.766900 0.000000 0.766430 
#    y 0.000000 1.868860 0.000000 
#    z 0.766430 0.000000 -1.287600 
# 
# From -- ./inp_files/220746.got.cif
#   From: 2010.05.17/outbox.cif.g08.bks.cpg/sg12_111_cif.got.tgz:220746.got - 2010.06.03 13:09:07.
