data_PCOD9206142
_publ_section_title
;
Structure prediction by ZEFSAII (Michael W. Deem and Ramdas Pophale) SiO2 
 PCOD9206142
Probable space group: C 2/M
;
_chemical_formula_sum "Si O2"
_cell_formula_units_Z 56
_cell_length_a 24.486530
_cell_length_b 7.589104
_cell_length_c 16.975940
_cell_angle_alpha 90.000000
_cell_angle_beta 49.534699
_cell_angle_gamma 90.000000
_cell_volume 2400.057210
_symmetry_space_group_name_H-M "C 2/M"
_symmetry_group_IT_number 12
_symmetry_cell_setting 'monoclinic'
loop_
_space_group_symop_operation_xyz
x,y,z
-x,y,-z
-x,-y,-z
x,-y,z
1/2+x,1/2+y,z
1/2-x,1/2+y,-z
1/2-x,1/2-y,-z
1/2+x,1/2-y,z
loop_
_atom_site_type_symbol
_atom_site_label
_atom_site_fract_x
_atom_site_fract_y
_atom_site_fract_z
Si Si1 0.330894 0.701327 0.337291
Si Si2 0.431379 0.799723 0.108063
Si Si3 0.802661 0.714249 0.819622
Si Si4 0.645833 0.292820 0.970291
Si Si5 0.063988 0.286553 0.200475
Si Si6 0.694016 0.216559 0.365986
Si Si7 0.085610 0.297606 0.592013
O O1 0.315000 0.500000 0.373360
O O2 0.397943 0.707846 0.214484
O O3 0.263631 0.774064 0.350988
O O4 0.355289 0.794821 0.393864
O O5 0.372855 0.800251 0.093618
O O6 0.450038 0.000000 0.114301
O O7 0.500000 0.718549 0.000000
O O8 0.806031 0.500000 0.818102
O O9 0.724422 0.766420 0.925705
O O10 0.870377 0.776280 0.806232
O O11 0.805429 0.769115 0.725542
O O12 0.650345 0.500000 0.947771
O O13 0.585147 0.264077 0.092141
O O14 0.061923 0.500000 0.203005
O O15 0.987836 0.219974 0.304453
O O16 0.623701 0.277723 0.479141
O O17 0.695982 0.000000 0.364532
O O18 0.068670 0.500000 0.588207
#
# Coordination Sequence:
#
# PCOD9206142 Si02
#       7
#     8   8   8   8   8   8   8
#     4  11  21  36  58  82 112 148 185 227 276 331
#     4  11  23  37  55  81 114 147 182 228 277 329
#     4   9  18  35  58  83 111 143 187 235 276 324
#     4  11  21  36  58  82 112 148 185 227 276 331
#     4  10  21  36  56  83 114 148 186 230 278 327
#     4   9  18  35  58  83 111 143 187 235 276 324
#     4  10  21  36  56  83 114 148 186 230 278 327
#
# _framework density 23.332777
#
# number of rings (size 3 to 8) (size 9 to 14) (size 15 to 20)
#    0.000    1.857    1.429    3.000    0.000    5.714 
#    0.000    4.286    0.000    0.000    0.000    2.000 
#    0.000    0.000    0.000    0.000    0.000    0.000 
#
# Total GULP energy -156544.139417 kJ/mol
# GULP energy per Si atom -5590.862122 kJ/mol
# Density = 2.327967 g / cm^3
# Si number density = 23.332777 Si / 1000 Ang^3
#
#
#
# Elastic Constant Matrix: (Units=GPa)
#
#
# Indices 1 2 3 4 5 6 
#
# 1 47.8039 -6.9251 -0.7258 0.0014 -4.5640 -0.0009
# 2 -6.9251 58.1501 -2.8310 -0.0019 -5.4896 -0.0049
# 3 -0.7258 -2.8310 125.7020 -0.0027 -4.1901 -0.0014
# 4 0.0014 -0.0019 -0.0027 4.2386 0.0013 1.1987
# 5 -4.5640 -5.4896 -4.1901 0.0013 22.2007 -0.0004
# 6 -0.0009 -0.0049 -0.0014 1.1987 -0.0004 16.1483
#
#
#
# Elastic Compliance Matrix: (Units=1/GPa)
#
#
# Indices 1 2 3 4 5 6 
#
# 1 0.021888 0.003129 0.000375 -0.000008 0.005344 0.000003
# 2 0.003129 0.018093 0.000600 0.000004 0.005230 0.000006
# 3 0.000375 0.000600 0.008029 0.000005 0.001741 0.000001
# 4 -0.000008 0.000004 0.000005 0.240985 -0.000015 -0.017888
# 5 0.005344 0.005230 0.001741 -0.000015 0.047764 0.000004
# 6 0.000003 0.000006 0.000001 -0.017888 0.000004 0.063254
#
#
# Mechanical properties :
#
#
# Convention : Reuss Voigt Hill
#
# Bulk Modulus (GPa) = 17.78779 23.41023 20.59901
# Shear Modulus (GPa) = 12.17899 24.66005 18.41952
#
# Velocity S-wave (km/s) = 2.28714 3.25450 2.81272
# Velocity P-wave (km/s) = 3.82293 4.91705 4.40410
#
# Compressibility (1/GPa) = 0.05621834
#
# Stress axis : x y z
#
# Youngs Moduli (GPa) = 45.68694 55.27146 124.54806
#
# Poissons Ratio (x) = -0.17297 -0.04671
# Poissons Ratio (y) = -0.14297 -0.07471
# Poissons Ratio (z) = -0.01713 -0.03316
#
# Static dielectric constant tensor:
#      x y z
#    x 1.865490 0.000000 -0.048360 
#    y 0.000000 1.903570 0.000000 
#    z -0.048360 0.000000 1.864120 
# 
# From -- ./inp_files/75899.got.cif
#   From: 2010.05.17/outbox.cif.g08.bks.cpg/sg12_38_cif.got.tgz:75899.got - 2010.06.03 13:09:07.
