data_PCOD9206706
_publ_section_title
;
Structure prediction by ZEFSAII (Michael W. Deem and Ramdas Pophale) SiO2 
 PCOD9206706
Probable space group: C 2/M
;
_chemical_formula_sum "Si O2"
_cell_formula_units_Z 64
_cell_length_a 26.029085
_cell_length_b 13.294999
_cell_length_c 16.221562
_cell_angle_alpha 90.000000
_cell_angle_beta 33.166210
_cell_angle_gamma 90.000000
_cell_volume 3071.018996
_symmetry_space_group_name_H-M "C 2/M"
_symmetry_group_IT_number 12
_symmetry_cell_setting 'monoclinic'
loop_
_space_group_symop_operation_xyz
x,y,z
-x,y,-z
-x,-y,-z
x,-y,z
1/2+x,1/2+y,z
1/2-x,1/2+y,-z
1/2-x,1/2-y,-z
1/2+x,1/2-y,z
loop_
_atom_site_type_symbol
_atom_site_label
_atom_site_fract_x
_atom_site_fract_y
_atom_site_fract_z
Si Si1 0.020329 0.117788 0.704236
Si Si2 0.582529 0.114584 0.039207
Si Si3 0.576337 0.729381 0.465655
Si Si4 0.894552 0.227918 0.137748
Si Si5 0.294015 0.117986 0.608356
Si Si6 0.725581 0.326679 0.143391
Si Si7 0.387945 0.791382 0.330402
Si Si8 0.806900 0.114252 0.997606
O O1 0.027516 0.167345 0.604363
O O2 0.093385 0.179109 0.661448
O O3 0.914502 0.130603 0.881201
O O4 0.039990 0.000000 0.674061
O O5 0.600271 0.187119 0.938547
O O6 0.673081 0.126587 0.974838
O O7 0.571907 0.000000 0.026847
O O8 0.486791 0.150700 0.210295
O O9 0.500000 0.761667 0.500000
O O10 0.633058 0.819336 0.433519
O O11 0.652378 0.660689 0.315535
O O12 0.811884 0.151068 0.228322
O O13 0.871286 0.282030 0.255817
O O14 0.000000 0.183124 0.000000
O O15 0.313706 0.153155 0.487678
O O16 0.307177 0.000000 0.599577
O O17 0.690655 0.372202 0.104689
O O18 0.741774 0.205720 0.114317
O O19 0.777966 0.000000 0.057532
#
# Coordination Sequence:
#
# PCOD9206706 Si02
#       8
#     8   8   8   8   8   8   8   8
#     4  10  21  38  62  90 121 162 206 252 309 362
#     4  11  22  39  64  94 124 162 207 258 317 368
#     4  11  23  41  62  91 130 164 205 259 305 369
#     4  10  23  43  65  93 125 159 209 266 309 364
#     4  11  24  42  65  92 125 170 208 249 314 375
#     4  11  21  39  59  90 130 159 206 260 305 371
#     4  10  22  42  63  91 128 160 205 261 305 375
#     4  10  21  36  61  89 118 163 207 250 309 367
#
# _framework density 20.839988000000002
#
# number of rings (size 3 to 8) (size 9 to 14) (size 15 to 20)
#    0.000    1.500    3.750    1.125    0.000    5.500 
#    0.000    3.125    0.000    0.000    0.000    0.000 
#    0.000    0.000    0.000    0.000    0.000    0.000 
#
# Total GULP energy -178869.066911 kJ/mol
# GULP energy per Si atom -5589.658341 kJ/mol
# Density = 2.079256 g / cm^3
# Si number density = 20.839988 Si / 1000 Ang^3
#
#
#
# Elastic Constant Matrix: (Units=GPa)
#
#
# Indices 1 2 3 4 5 6 
#
# 1 28.3330 15.7160 12.8670 0.0000 -4.1329 0.0000
# 2 15.7160 99.5341 17.7061 0.0000 -12.0050 0.0000
# 3 12.8670 17.7061 80.4709 0.0000 -5.8220 0.0000
# 4 0.0000 0.0000 0.0000 15.0845 0.0000 0.1175
# 5 -4.1329 -12.0050 -5.8220 0.0000 35.5078 0.0000
# 6 0.0000 0.0000 0.0000 0.1175 0.0000 2.8941
#
#
#
# Elastic Compliance Matrix: (Units=1/GPa)
#
#
# Indices 1 2 3 4 5 6 
#
# 1 0.040902 -0.005273 -0.005227 0.000000 0.002121 0.000000
# 2 -0.005273 0.011507 -0.001469 0.000000 0.003036 0.000000
# 3 -0.005227 -0.001469 0.013668 0.000000 0.001136 0.000000
# 4 0.000000 0.000000 0.000000 0.066314 0.000000 -0.002692
# 5 0.002121 0.003036 0.001136 0.000000 0.029622 0.000000
# 6 0.000000 0.000000 0.000000 -0.002692 0.000000 0.345640
#
#
# Mechanical properties :
#
#
# Convention : Reuss Voigt Hill
#
# Bulk Modulus (GPa) = 23.73022 33.43514 28.58268
# Shear Modulus (GPa) = 9.16359 21.50053 15.33206
#
# Velocity S-wave (km/s) = 2.09921 3.21549 2.71533
# Velocity P-wave (km/s) = 4.15778 5.46483 4.85549
#
# Compressibility (1/GPa) = 0.04214037
#
# Stress axis : x y z
#
# Youngs Moduli (GPa) = 24.44853 86.90476 73.16363
#
# Poissons Ratio (x) = 0.45822 0.38239
# Poissons Ratio (y) = 0.12891 0.10749
# Poissons Ratio (z) = 0.12778 0.12767
#
# Static dielectric constant tensor:
#      x y z
#    x 1.765700 0.000000 -0.007560 
#    y 0.000000 1.700420 0.000000 
#    z -0.007560 0.000000 1.751670 
# 
# From -- ./inp_files/296439.got.cif
#   From: 2010.05.17/outbox.cif.g08.bks.cpg/sg12_149_cif.got.tgz:296439.got - 2010.06.03 13:09:07.
