data_PCOD9206247
_publ_section_title
;
Structure prediction by ZEFSAII (Michael W. Deem and Ramdas Pophale) SiO2 
 PCOD9206247
Probable space group: C 2/M
;
_chemical_formula_sum "Si O2"
_cell_formula_units_Z 32
_cell_length_a 35.898459
_cell_length_b 8.439610
_cell_length_c 4.985699
_cell_angle_alpha 90.000000
_cell_angle_beta 105.879810
_cell_angle_gamma 90.000000
_cell_volume 1452.867721
_symmetry_space_group_name_H-M "C 2/M"
_symmetry_group_IT_number 12
_symmetry_cell_setting 'monoclinic'
loop_
_space_group_symop_operation_xyz
x,y,z
-x,y,-z
-x,-y,-z
x,-y,z
1/2+x,1/2+y,z
1/2-x,1/2+y,-z
1/2-x,1/2-y,-z
1/2+x,1/2-y,z
loop_
_atom_site_type_symbol
_atom_site_label
_atom_site_fract_x
_atom_site_fract_y
_atom_site_fract_z
Si Si1 0.161714 0.691620 0.721401
Si Si2 0.540073 0.812920 0.216531
Si Si3 0.209031 0.690128 0.315737
Si Si4 0.418183 0.684862 0.196976
O O1 0.157051 0.500000 0.716749
O O2 0.175148 0.741745 0.453366
O O3 0.122591 0.766717 0.753271
O O4 0.196425 0.736159 0.993012
O O5 0.449491 0.726029 0.488523
O O6 0.537529 0.000000 0.269295
O O7 0.500000 0.760536 0.000000
O O8 0.572509 0.781127 0.054529
O O9 0.210245 0.500000 0.327693
O O10 0.250000 0.750000 0.500000
O O11 0.419069 0.500000 0.133894
#
# Coordination Sequence:
#
# PCOD9206247 Si02
#       4
#     8   8   8   8
#     4  10  21  38  58  82 115 157 199 238 291 361
#     4  11  24  43  66  90 121 165 208 245 298 371
#     4  10  21  36  57  83 112 150 195 244 295 349
#     4  12  25  40  63  95 126 158 201 258 311 351
#
# _framework density 22.025406
#
# number of rings (size 3 to 8) (size 9 to 14) (size 15 to 20)
#    0.000    1.250    0.000    6.000    0.000    9.000 
#    0.000    0.000    0.000    0.000    0.000    0.000 
#    0.000    0.000    0.000    0.000    0.000    0.000 
#
# Total GULP energy -89568.219492 kJ/mol
# GULP energy per Si atom -5598.013718 kJ/mol
# Density = 2.197528 g / cm^3
# Si number density = 22.025406 Si / 1000 Ang^3
#
#
#
# Elastic Constant Matrix: (Units=GPa)
#
#
# Indices 1 2 3 4 5 6 
#
# 1 60.2767 -3.6053 -18.6191 0.0000 2.6754 0.0000
# 2 -3.6053 18.2597 -1.9872 0.0000 8.8507 0.0000
# 3 -18.6191 -1.9872 64.6484 0.0000 -2.9018 0.0000
# 4 0.0000 0.0000 0.0000 14.2971 0.0000 16.6710
# 5 2.6754 8.8507 -2.9018 0.0000 38.2253 0.0000
# 6 0.0000 0.0000 0.0000 16.6710 0.0000 19.9159
#
#
#
# Elastic Compliance Matrix: (Units=1/GPa)
#
#
# Indices 1 2 3 4 5 6 
#
# 1 0.018685 0.005312 0.005449 0.000000 -0.002124 0.000000
# 2 0.005312 0.063301 0.002811 0.000000 -0.014815 0.000000
# 3 0.005449 0.002811 0.017136 0.000000 0.000269 0.000000
# 4 0.000000 0.000000 0.000000 2.921134 0.000000 -2.445187
# 5 -0.002124 -0.014815 0.000269 0.000000 0.029760 0.000000
# 6 0.000000 0.000000 0.000000 -2.445187 0.000000 2.096999
#
#
# Mechanical properties :
#
#
# Convention : Reuss Voigt Hill
#
# Bulk Modulus (GPa) = 7.91970 10.52906 9.22438
# Shear Modulus (GPa) = 0.96862 25.64740 13.30801
#
# Velocity S-wave (km/s) = 0.66388 3.41610 2.46074
# Velocity P-wave (km/s) = 2.04723 4.51115 3.50297
#
# Compressibility (1/GPa) = 0.12626740
#
# Stress axis : x y z
#
# Youngs Moduli (GPa) = 53.51753 15.79743 58.35592
#
# Poissons Ratio (x) = -0.08392 -0.31801
# Poissons Ratio (y) = -0.28429 -0.16402
# Poissons Ratio (z) = -0.29164 -0.04440
#
# Static dielectric constant tensor:
#      x y z
#    x 1.810670 0.000000 0.012080 
#    y 0.000000 1.750950 0.000000 
#    z 0.012080 0.000000 1.782050 
# 
# From -- ./inp_files/30064.got.cif
#   From: 2010.05.17/outbox.cif.g08.bks.cpg/sg12_16_cif.got.tgz:30064.got - 2010.06.03 13:09:07.
