data_PCOD9206932
_publ_section_title
;
Structure prediction by ZEFSAII (Michael W. Deem and Ramdas Pophale) SiO2 
 PCOD9206932
Probable space group: C 2/M
;
_chemical_formula_sum "Si O2"
_cell_formula_units_Z 44
_cell_length_a 8.485612
_cell_length_b 13.230584
_cell_length_c 17.594651
_cell_angle_alpha 90.000000
_cell_angle_beta 77.303113
_cell_angle_gamma 90.000000
_cell_volume 1927.040360
_symmetry_space_group_name_H-M "C 2/M"
_symmetry_group_IT_number 12
_symmetry_cell_setting 'monoclinic'
loop_
_space_group_symop_operation_xyz
x,y,z
-x,y,-z
-x,-y,-z
x,-y,z
1/2+x,1/2+y,z
1/2-x,1/2+y,-z
1/2-x,1/2-y,-z
1/2+x,1/2-y,z
loop_
_atom_site_type_symbol
_atom_site_label
_atom_site_fract_x
_atom_site_fract_y
_atom_site_fract_z
Si Si1 0.500000 0.685666 0.500000
Si Si2 0.315522 0.123116 0.024097
Si Si3 0.908918 0.120062 0.812203
Si Si4 0.579344 0.195773 0.283259
Si Si5 0.231163 0.120446 0.867487
Si Si6 0.796515 0.798899 0.388990
O O1 0.642183 0.752880 0.448500
O O2 0.593161 0.638949 0.563029
O O3 0.228358 0.146104 0.112069
O O4 0.313984 0.000000 0.022125
O O5 0.500000 0.155545 0.000000
O O6 0.230706 0.156101 0.954648
O O7 0.883932 0.186475 0.740216
O O8 0.075710 0.153049 0.835529
O O9 0.911096 0.000000 0.798135
O O10 0.607900 0.145460 0.198238
O O11 0.712532 0.148718 0.325690
O O12 0.408416 0.207856 0.343366
O O13 0.218531 0.000000 0.872749
#
# Coordination Sequence:
#
# PCOD9206932 Si02
#       6
#     4   8   8   8   8   8
#     4   8  16  34  56  84 110 148 176 214 260 342
#     4   9  19  34  53  76 106 148 198 234 269 321
#     4  10  21  37  55  77 111 153 189 229 277 322
#     4  11  20  34  54  89 114 140 180 237 270 330
#     4  10  21  37  55  77 111 153 189 229 277 322
#     4   9  18  32  56  85 114 138 184 217 268 332
#
# _framework density 22.832941999999999
#
# number of rings (size 3 to 8) (size 9 to 14) (size 15 to 20)
#    0.000    2.364    1.818    0.545    2.545    2.909 
#    0.000    0.000    0.000    0.000    0.000   89.091 
#    0.000    0.000    0.000    0.000    0.000    0.000 
#
# Total GULP energy -122644.200827 kJ/mol
# GULP energy per Si atom -5574.736401 kJ/mol
# Density = 2.278097 g / cm^3
# Si number density = 22.832942 Si / 1000 Ang^3
#
#
#
# Elastic Constant Matrix: (Units=GPa)
#
#
# Indices 1 2 3 4 5 6 
#
# 1 102.4513 13.3840 51.9793 0.0000 -8.6351 0.0000
# 2 13.3840 46.0009 2.1679 0.0000 11.1163 0.0000
# 3 51.9793 2.1679 128.2936 0.0000 -9.5784 0.0000
# 4 0.0000 0.0000 0.0000 1.1530 0.0000 -2.2451
# 5 -8.6351 11.1163 -9.5784 0.0000 46.2998 0.0000
# 6 0.0000 0.0000 0.0000 -2.2451 0.0000 17.8127
#
#
#
# Elastic Compliance Matrix: (Units=1/GPa)
#
#
# Indices 1 2 3 4 5 6 
#
# 1 0.013062 -0.004139 -0.005044 0.000000 0.002386 0.000000
# 2 -0.004139 0.024474 0.000779 0.000000 -0.006487 0.000000
# 3 -0.005044 0.000779 0.009894 0.000000 0.000919 0.000000
# 4 0.000000 0.000000 0.000000 1.149348 0.000000 0.144861
# 5 0.002386 -0.006487 0.000919 0.000000 0.023791 0.000000
# 6 0.000000 0.000000 0.000000 0.144861 0.000000 0.074398
#
#
# Mechanical properties :
#
#
# Convention : Reuss Voigt Hill
#
# Bulk Modulus (GPa) = 32.65717 45.75650 39.20684
# Shear Modulus (GPa) = 3.78220 27.00074 15.39147
#
# Velocity S-wave (km/s) = 1.28843 3.44253 2.59914
# Velocity P-wave (km/s) = 4.06782 5.99037 5.12014
#
# Compressibility (1/GPa) = 0.03062114
#
# Stress axis : x y z
#
# Youngs Moduli (GPa) = 76.55970 40.85993 101.07476
#
# Poissons Ratio (x) = 0.16913 0.50982
# Poissons Ratio (y) = 0.31690 -0.07876
# Poissons Ratio (z) = 0.38616 -0.03184
#
# Static dielectric constant tensor:
#      x y z
#    x 1.899950 0.000000 0.044940 
#    y 0.000000 1.861460 0.000000 
#    z 0.044940 0.000000 1.911350 
# 
# From -- ./inp_files/255290.got.cif
#   From: 2010.05.17/outbox.cif.g08.bks.cpg/sg12_128_cif.got.tgz:255290.got - 2010.06.03 13:09:07.
