data_PCOD9206430
_publ_section_title
;
Structure prediction by ZEFSAII (Michael W. Deem and Ramdas Pophale) SiO2 
 PCOD9206430
Probable space group: C 2/M
;
_chemical_formula_sum "Si O2"
_cell_formula_units_Z 56
_cell_length_a 29.086554
_cell_length_b 17.123111
_cell_length_c 5.199423
_cell_angle_alpha 90.000000
_cell_angle_beta 63.544256
_cell_angle_gamma 90.000000
_cell_volume 2318.399999
_symmetry_space_group_name_H-M "C 2/M"
_symmetry_group_IT_number 12
_symmetry_cell_setting 'monoclinic'
loop_
_space_group_symop_operation_xyz
x,y,z
-x,y,-z
-x,-y,-z
x,-y,z
1/2+x,1/2+y,z
1/2-x,1/2+y,-z
1/2-x,1/2-y,-z
1/2+x,1/2-y,z
loop_
_atom_site_type_symbol
_atom_site_label
_atom_site_fract_x
_atom_site_fract_y
_atom_site_fract_z
Si Si1 0.542565 0.789995 0.562425
Si Si2 0.906480 0.414955 0.250583
Si Si3 0.694128 0.912094 0.138463
Si Si4 0.862188 0.700044 0.023562
Si Si5 0.856678 0.154866 0.420955
Si Si6 0.028653 0.116463 0.688136
Si Si7 0.194632 0.089324 0.962707
O O1 0.500000 0.832199 0.500000
O O2 0.556657 0.847275 0.751565
O O3 0.518011 0.709211 0.705624
O O4 0.594570 0.767342 0.277509
O O5 0.929245 0.500000 0.189323
O O6 0.856902 0.413759 0.560452
O O7 0.885558 0.385042 0.034256
O O8 0.699084 0.000000 0.001931
O O9 0.689568 0.832915 0.977832
O O10 0.743880 0.904964 0.196415
O O11 0.859611 0.758853 0.274363
O O12 0.910905 0.117724 0.384594
O O13 0.823097 0.146656 0.762864
O O14 0.831744 0.107830 0.243835
O O15 0.000000 0.087696 0.500000
O O16 0.000000 0.081691 0.000000
O O17 0.181254 0.000000 0.069870
#
# Coordination Sequence:
#
# PCOD9206430 Si02
#       7
#     8   8   8   8   8   8   8
#     4  10  21  36  58  87 128 171 219 270 315 374
#     4  10  21  37  59  85 127 177 221 270 316 374
#     4   9  22  42  62  88 129 184 225 257 320 394
#     4  11  22  38  62  93 131 167 225 273 318 373
#     4  12  24  42  70 102 132 163 215 277 322 376
#     4  11  22  40  69  98 130 171 211 257 326 400
#     4  11  26  46  69  96 131 172 212 265 335 402
#
# _framework density 24.154589999999999
#
# number of rings (size 3 to 8) (size 9 to 14) (size 15 to 20)
#    0.000    1.429    1.429    4.286    4.000    2.000 
#    0.000    0.714    0.000    8.571    0.000    0.000 
#    0.000    0.000    0.000    0.000    0.000    0.000 
#
# Total GULP energy -156171.060440 kJ/mol
# GULP energy per Si atom -5577.537873 kJ/mol
# Density = 2.409961 g / cm^3
# Si number density = 24.154590 Si / 1000 Ang^3
#
#
#
# Elastic Constant Matrix: (Units=GPa)
#
#
# Indices 1 2 3 4 5 6 
#
# 1 168.3375 34.4554 32.8306 0.0000 22.6606 0.0000
# 2 34.4554 118.6696 11.6243 0.0000 9.0565 0.0000
# 3 32.8306 11.6243 72.9895 0.0000 25.0468 0.0000
# 4 0.0000 0.0000 0.0000 25.9387 0.0000 -4.3238
# 5 22.6606 9.0565 25.0468 0.0000 30.1372 0.0000
# 6 0.0000 0.0000 0.0000 -4.3238 0.0000 174.3840
#
#
#
# Elastic Compliance Matrix: (Units=1/GPa)
#
#
# Indices 1 2 3 4 5 6 
#
# 1 0.007070 -0.001623 -0.001769 0.000000 -0.003358 0.000000
# 2 -0.001623 0.009021 -0.000273 0.000000 -0.001264 0.000000
# 3 -0.001769 -0.000273 0.019663 0.000000 -0.014929 0.000000
# 4 0.000000 0.000000 0.000000 0.038712 0.000000 0.000960
# 5 -0.003358 -0.001264 -0.014929 0.000000 0.048494 0.000000
# 6 0.000000 0.000000 0.000000 0.000960 0.000000 0.005758
#
#
# Mechanical properties :
#
#
# Convention : Reuss Voigt Hill
#
# Bulk Modulus (GPa) = 35.18256 57.53522 46.35889
# Shear Modulus (GPa) = 34.35870 64.83108 49.59489
#
# Velocity S-wave (km/s) = 3.77563 5.18636 4.53617
# Velocity P-wave (km/s) = 5.79693 7.72889 6.83155
#
# Compressibility (1/GPa) = 0.02842317
#
# Stress axis : x y z
#
# Youngs Moduli (GPa) = 141.44863 110.84998 50.85682
#
# Poissons Ratio (x) = 0.17992 0.08998
# Poissons Ratio (y) = 0.22959 0.01388
# Poissons Ratio (z) = 0.25026 0.03026
#
# Static dielectric constant tensor:
#      x y z
#    x 2.046980 0.000000 0.029610 
#    y 0.000000 1.956000 0.000000 
#    z 0.029610 0.000000 1.935970 
# 
# From -- ./inp_files/31993.got.cif
#   From: 2010.05.17/outbox.cif.g08.bks.cpg/sg12_16_cif.got.tgz:31993.got - 2010.06.03 13:09:07.
