data_PCOD9206175
_publ_section_title
;
Structure prediction by ZEFSAII (Michael W. Deem and Ramdas Pophale) SiO2 
 PCOD9206175
Probable space group: C 2/M
;
_chemical_formula_sum "Si O2"
_cell_formula_units_Z 64
_cell_length_a 14.954601
_cell_length_b 8.806016
_cell_length_c 25.077061
_cell_angle_alpha 90.000000
_cell_angle_beta 111.015706
_cell_angle_gamma 90.000000
_cell_volume 3082.740421
_symmetry_space_group_name_H-M "C 2/M"
_symmetry_group_IT_number 12
_symmetry_cell_setting 'monoclinic'
loop_
_space_group_symop_operation_xyz
x,y,z
-x,y,-z
-x,-y,-z
x,-y,z
1/2+x,1/2+y,z
1/2-x,1/2+y,-z
1/2-x,1/2-y,-z
1/2+x,1/2-y,z
loop_
_atom_site_type_symbol
_atom_site_label
_atom_site_fract_x
_atom_site_fract_y
_atom_site_fract_z
Si Si1 0.334812 0.181136 0.599438
Si Si2 0.694531 0.822219 0.752058
Si Si3 0.824739 0.681124 0.369388
Si Si4 0.428839 0.183711 0.938294
Si Si5 0.490777 0.681778 0.153243
Si Si6 0.275059 0.681759 0.130995
Si Si7 0.018766 0.822532 0.441318
Si Si8 0.032110 0.322415 0.271953
O O1 0.230971 0.237786 0.594866
O O2 0.380144 0.260435 0.557744
O O3 0.402445 0.225432 0.664422
O O4 0.336761 0.000000 0.593689
O O5 0.716344 0.768422 0.696966
O O6 0.738514 0.733138 0.810760
O O7 0.579311 0.810129 0.734656
O O8 0.720090 0.000000 0.761845
O O9 0.814908 0.500000 0.370942
O O10 0.935520 0.726397 0.395317
O O11 0.463733 0.244604 0.888982
O O12 0.318033 0.232098 0.921767
O O13 0.431082 0.000000 0.937830
O O14 0.500000 0.236371 0.000000
O O15 0.492948 0.500000 0.149376
O O16 0.379480 0.735666 0.134306
O O17 0.541689 0.730306 0.219236
O O18 0.278724 0.500000 0.130542
O O19 0.000000 0.805794 0.500000
O O20 0.009884 0.000000 0.425672
O O21 0.051853 0.500000 0.265516
#
# Coordination Sequence:
#
# PCOD9206175 Si02
#       8
#     8   8   8   8   8   8   8   8
#     4  11  23  40  63  93 125 163 205 251 306 363
#     4   9  18  35  58  86 119 153 193 240 294 354
#     4  11  23  40  62  93 127 162 204 251 304 366
#     4  10  22  40  59  80 112 156 201 241 289 355
#     4  10  21  36  56  85 116 148 190 243 297 348
#     4   9  20  37  56  82 114 151 192 237 293 352
#     4  11  25  45  67  91 122 163 210 257 306 362
#     4   9  18  36  59  85 119 156 195 237 292 360
#
# _framework density 20.760749000000001
#
# number of rings (size 3 to 8) (size 9 to 14) (size 15 to 20)
#    0.000    2.000    1.250    1.500    1.750    5.250 
#    0.000    0.000    0.000    0.000    0.000    0.000 
#    0.000    0.000    0.000    0.000    0.000    0.000 
#
# Total GULP energy -178809.791689 kJ/mol
# GULP energy per Si atom -5587.805990 kJ/mol
# Density = 2.071350 g / cm^3
# Si number density = 20.760749 Si / 1000 Ang^3
#
#
#
# Elastic Constant Matrix: (Units=GPa)
#
#
# Indices 1 2 3 4 5 6 
#
# 1 57.6803 -0.4794 -2.7657 0.0000 -11.9678 0.0000
# 2 -0.4794 12.3231 8.9873 0.0000 -6.0045 0.0000
# 3 -2.7657 8.9873 33.9391 0.0000 -1.7407 0.0000
# 4 0.0000 0.0000 0.0000 24.0824 0.0000 -4.5668
# 5 -11.9678 -6.0045 -1.7407 0.0000 30.3527 0.0000
# 6 0.0000 0.0000 0.0000 -4.5668 0.0000 22.4214
#
#
#
# Elastic Compliance Matrix: (Units=1/GPa)
#
#
# Indices 1 2 3 4 5 6 
#
# 1 0.019166 0.004219 0.000878 0.000000 0.008442 0.000000
# 2 0.004219 0.112939 -0.028416 0.000000 0.022376 0.000000
# 3 0.000878 -0.028416 0.036899 0.000000 -0.003159 0.000000
# 4 0.000000 0.000000 0.000000 0.043192 0.000000 0.008797
# 5 0.008442 0.022376 -0.003159 0.000000 0.040520 0.000000
# 6 0.000000 0.000000 0.000000 0.008797 0.000000 0.046392
#
#
# Mechanical properties :
#
#
# Convention : Reuss Voigt Hill
#
# Bulk Modulus (GPa) = 8.17229 12.82522 10.49876
# Shear Modulus (GPa) = 12.93548 21.91800 17.42674
#
# Velocity S-wave (km/s) = 2.49885 3.25274 2.90040
# Velocity P-wave (km/s) = 3.50295 4.50535 4.03539
#
# Compressibility (1/GPa) = 0.12236472
#
# Stress axis : x y z
#
# Youngs Moduli (GPa) = 52.17671 8.85436 27.10120
#
# Poissons Ratio (x) = -0.03736 -0.02378
# Poissons Ratio (y) = -0.22013 0.77010
# Poissons Ratio (z) = -0.04579 0.25160
#
# Static dielectric constant tensor:
#      x y z
#    x 1.767070 0.000000 0.025390 
#    y 0.000000 1.688320 0.000000 
#    z 0.025390 0.000000 1.738230 
# 
# From -- ./inp_files/359932.got.cif
#   From: 2010.05.17/outbox.cif.g08.bks.cpg/sg12_180_cif.got.tgz:359932.got - 2010.06.03 13:09:07.
