data_PCOD9206054
_publ_section_title
;
Structure prediction by ZEFSAII (Michael W. Deem and Ramdas Pophale) SiO2 
 PCOD9206054
Probable space group: C 2/M
;
_chemical_formula_sum "Si O2"
_cell_formula_units_Z 48
_cell_length_a 31.467447
_cell_length_b 8.942767
_cell_length_c 9.412840
_cell_angle_alpha 90.000000
_cell_angle_beta 89.974137
_cell_angle_gamma 90.000000
_cell_volume 2648.829822
_symmetry_space_group_name_H-M "C 2/M"
_symmetry_group_IT_number 12
_symmetry_cell_setting 'monoclinic'
loop_
_space_group_symop_operation_xyz
x,y,z
-x,y,-z
-x,-y,-z
x,-y,z
1/2+x,1/2+y,z
1/2-x,1/2+y,-z
1/2-x,1/2-y,-z
1/2+x,1/2-y,z
loop_
_atom_site_type_symbol
_atom_site_label
_atom_site_fract_x
_atom_site_fract_y
_atom_site_fract_z
Si Si1 0.134362 0.177244 0.582139
Si Si2 0.710189 0.820248 0.082505
Si Si3 0.958447 0.322010 0.089683
Si Si4 0.461594 0.677295 0.393099
Si Si5 0.631451 0.678639 0.919256
Si Si6 0.289081 0.821601 0.584616
O O1 0.085207 0.208485 0.543991
O O2 0.138661 0.210370 0.750842
O O3 0.167672 0.267040 0.489087
O O4 0.142201 0.000000 0.563912
O O5 0.712065 0.779665 0.249149
O O6 0.711463 0.000000 0.071043
O O7 0.750000 0.750000 0.000000
O O8 0.667472 0.757515 0.011362
O O9 0.952110 0.500000 0.079386
O O10 0.966275 0.273252 0.251603
O O11 0.915349 0.239072 0.043381
O O12 0.000000 0.280386 0.000000
O O13 0.500000 0.704261 0.500000
O O14 0.461405 0.500000 0.354755
O O15 0.633242 0.500000 0.937196
O O16 0.250000 0.750000 0.500000
O O17 0.285869 0.000000 0.575838
#
# Coordination Sequence:
#
# PCOD9206054 Si02
#       6
#     8   8   8   8   8   8
#     4   9  19  36  57  82 111 142 182 228 272 323
#     4  11  24  40  58  84 115 146 184 228 274 328
#     4  10  21  36  55  82 115 149 186 230 279 331
#     4   9  19  36  57  82 112 147 188 231 273 324
#     4  10  21  38  60  84 110 145 188 231 277 330
#     4  11  24  39  57  82 111 143 181 224 271 326
#
# _framework density 18.121209
#
# number of rings (size 3 to 8) (size 9 to 14) (size 15 to 20)
#    0.000    2.000    0.000    4.000    0.000   13.000 
#    0.000    3.333    0.000    0.000    0.000    0.000 
#    0.000    0.000    0.000    0.000    0.000    0.000 
#
# Total GULP energy -134058.636864 kJ/mol
# GULP energy per Si atom -5585.776536 kJ/mol
# Density = 1.807996 g / cm^3
# Si number density = 18.121209 Si / 1000 Ang^3
#
#
#
# Elastic Constant Matrix: (Units=GPa)
#
#
# Indices 1 2 3 4 5 6 
#
# 1 160.7579 67.8170 99.9253 0.0000 -0.9880 0.0000
# 2 67.8170 59.3740 62.9406 0.0000 -3.1997 0.0000
# 3 99.9253 62.9406 105.5149 0.0000 -1.9820 0.0000
# 4 0.0000 0.0000 0.0000 31.2488 0.0000 -1.4612
# 5 -0.9880 -3.1997 -1.9820 0.0000 37.2779 0.0000
# 6 0.0000 0.0000 0.0000 -1.4612 0.0000 37.3807
#
#
#
# Elastic Compliance Matrix: (Units=1/GPa)
#
#
# Indices 1 2 3 4 5 6 
#
# 1 0.015882 -0.006039 -0.011452 0.000000 -0.000706 0.000000
# 2 -0.006039 0.048337 -0.023062 0.000000 0.002763 0.000000
# 3 -0.011452 -0.023062 0.034070 0.000000 -0.000472 0.000000
# 4 0.000000 0.000000 0.000000 0.032060 0.000000 0.001253
# 5 -0.000706 0.002763 -0.000472 0.000000 0.027019 0.000000
# 6 0.000000 0.000000 0.000000 0.001253 0.000000 0.026801
#
#
# Mechanical properties :
#
#
# Convention : Reuss Voigt Hill
#
# Bulk Modulus (GPa) = 58.19647 87.44585 72.82116
# Shear Modulus (GPa) = 18.45008 27.51241 22.98124
#
# Velocity S-wave (km/s) = 3.19431 3.90069 3.56504
# Velocity P-wave (km/s) = 6.76680 8.28541 7.56431
#
# Compressibility (1/GPa) = 0.01718317
#
# Stress axis : x y z
#
# Youngs Moduli (GPa) = 62.96459 20.68829 29.35110
#
# Poissons Ratio (x) = 0.12493 0.33612
# Poissons Ratio (y) = 0.38024 0.67690
# Poissons Ratio (z) = 0.72105 0.47712
#
# Static dielectric constant tensor:
#      x y z
#    x 1.606850 0.000000 0.001940 
#    y 0.000000 1.606730 0.000000 
#    z 0.001940 0.000000 1.597190 
# 
# From -- ./inp_files/108714.got.cif
#   From: 2010.05.17/outbox.cif.g08.bks.cpg/sg12_55_cif.got.tgz:108714.got - 2010.06.03 13:09:07.
