data_PCOD9206586
_publ_section_title
;
Structure prediction by ZEFSAII (Michael W. Deem and Ramdas Pophale) SiO2 
 PCOD9206586
Probable space group: C 2/M
;
_chemical_formula_sum "Si O2"
_cell_formula_units_Z 44
_cell_length_a 9.826570
_cell_length_b 9.438766
_cell_length_c 22.159562
_cell_angle_alpha 90.000000
_cell_angle_beta 89.371962
_cell_angle_gamma 90.000000
_cell_volume 2055.191300
_symmetry_space_group_name_H-M "C 2/M"
_symmetry_group_IT_number 12
_symmetry_cell_setting 'monoclinic'
loop_
_space_group_symop_operation_xyz
x,y,z
-x,y,-z
-x,-y,-z
x,-y,z
1/2+x,1/2+y,z
1/2-x,1/2+y,-z
1/2-x,1/2-y,-z
1/2+x,1/2-y,z
loop_
_atom_site_type_symbol
_atom_site_label
_atom_site_fract_x
_atom_site_fract_y
_atom_site_fract_z
Si Si1 0.207752 0.500000 0.517124
Si Si2 0.904581 0.772282 0.553120
Si Si3 0.316007 0.667464 0.739575
Si Si4 0.548227 0.330193 0.066199
Si Si5 0.042113 0.330344 0.672777
Si Si6 0.818530 0.667259 0.129384
O O1 0.145621 0.623411 0.472970
O O2 0.278305 0.376699 0.559226
O O3 0.992378 0.745777 0.612072
O O4 0.000000 0.837290 0.500000
O O5 0.352810 0.500000 0.735082
O O6 0.442334 0.767635 0.724413
O O7 0.250463 0.691132 0.805466
O O8 0.195838 0.698258 0.692352
O O9 0.534632 0.500000 0.070757
O O10 0.703941 0.295544 0.080361
O O11 0.451209 0.257709 0.115554
O O12 0.500000 0.285276 0.000000
O O13 0.025775 0.500000 0.666305
O O14 0.850172 0.500000 0.124947
#
# Coordination Sequence:
#
# PCOD9206586 Si02
#       6
#     4   8   8   8   8   8
#     4  10  24  40  62  86 116 150 192 228 310 354
#     4  11  24  40  62  86 117 151 189 243 299 358
#     4  10  24  43  62  87 118 161 200 248 298 347
#     4  10  21  36  59  92 126 160 199 246 297 350
#     4  11  25  40  62  89 118 151 203 245 295 362
#     4  10  21  39  61  86 122 159 204 246 294 352
#
# _framework density 21.409199999999998
#
# number of rings (size 3 to 8) (size 9 to 14) (size 15 to 20)
#    0.000    1.636    0.909    2.182    6.364    2.545 
#    0.000    0.000    0.000    0.000    0.000    0.000 
#    0.000    0.000    0.000    0.000    0.000    0.000 
#
# Total GULP energy -122568.241809 kJ/mol
# GULP energy per Si atom -5571.283719 kJ/mol
# Density = 2.136047 g / cm^3
# Si number density = 21.409200 Si / 1000 Ang^3
#
#
#
# Elastic Constant Matrix: (Units=GPa)
#
#
# Indices 1 2 3 4 5 6 
#
# 1 39.5964 9.6963 -7.1925 0.0000 -4.6125 0.0000
# 2 9.6963 52.4090 0.6368 0.0000 0.7320 0.0000
# 3 -7.1925 0.6368 63.8965 0.0000 11.4874 0.0000
# 4 0.0000 0.0000 0.0000 148.4363 0.0000 37.1665
# 5 -4.6125 0.7320 11.4874 0.0000 32.5015 0.0000
# 6 0.0000 0.0000 0.0000 37.1665 0.0000 11.7609
#
#
#
# Elastic Compliance Matrix: (Units=1/GPa)
#
#
# Indices 1 2 3 4 5 6 
#
# 1 0.027339 -0.005132 0.002574 0.000000 0.003086 0.000000
# 2 -0.005132 0.020051 -0.000604 0.000000 -0.000967 0.000000
# 3 0.002574 -0.000604 0.016955 0.000000 -0.005614 0.000000
# 4 0.000000 0.000000 0.000000 0.032275 0.000000 -0.101996
# 5 0.003086 -0.000967 -0.005614 0.000000 0.033212 0.000000
# 6 0.000000 0.000000 0.000000 -0.101996 0.000000 0.407353
#
#
# Mechanical properties :
#
#
# Convention : Reuss Voigt Hill
#
# Bulk Modulus (GPa) = 17.23536 18.02034 17.62785
# Shear Modulus (GPa) = 8.88336 48.72381 28.80358
#
# Velocity S-wave (km/s) = 2.03920 4.77575 3.67193
# Velocity P-wave (km/s) = 3.68949 6.23263 5.12143
#
# Compressibility (1/GPa) = 0.05802026
#
# Stress axis : x y z
#
# Youngs Moduli (GPa) = 36.57831 49.87259 58.97854
#
# Poissons Ratio (x) = 0.25596 -0.15180
# Poissons Ratio (y) = 0.18773 0.03561
# Poissons Ratio (z) = -0.09414 0.03011
#
# Static dielectric constant tensor:
#      x y z
#    x 1.818040 0.000000 -0.029610 
#    y 0.000000 1.714290 0.000000 
#    z -0.029610 0.000000 1.811570 
# 
# From -- ./inp_files/303655.got.cif
#   From: 2010.05.17/outbox.cif.g08.bks.cpg/sg12_152_cif.got.tgz:303655.got - 2010.06.03 13:09:07.
