data_PCOD9206710
_publ_section_title
;
Structure prediction by ZEFSAII (Michael W. Deem and Ramdas Pophale) SiO2 
 PCOD9206710
Probable space group: C 2/M
;
_chemical_formula_sum "Si O2"
_cell_formula_units_Z 56
_cell_length_a 20.628981
_cell_length_b 14.337734
_cell_length_c 11.891164
_cell_angle_alpha 90.000000
_cell_angle_beta 116.738387
_cell_angle_gamma 90.000000
_cell_volume 3141.002188
_symmetry_space_group_name_H-M "C 2/M"
_symmetry_group_IT_number 12
_symmetry_cell_setting 'monoclinic'
loop_
_space_group_symop_operation_xyz
x,y,z
-x,y,-z
-x,-y,-z
x,-y,z
1/2+x,1/2+y,z
1/2-x,1/2+y,-z
1/2-x,1/2-y,-z
1/2+x,1/2-y,z
loop_
_atom_site_type_symbol
_atom_site_label
_atom_site_fract_x
_atom_site_fract_y
_atom_site_fract_z
Si Si1 0.388307 0.500000 0.331592
Si Si2 0.658552 0.703967 0.675036
Si Si3 0.554973 0.235014 0.786726
Si Si4 0.896837 0.201102 0.624179
Si Si5 0.677709 0.738835 0.207351
Si Si6 0.080360 0.608397 0.010317
Si Si7 0.075594 0.109609 0.991025
Si Si8 0.452743 0.500000 0.634774
O O1 0.343724 0.595395 0.287777
O O2 0.421393 0.500000 0.483655
O O3 0.460324 0.500000 0.310490
O O4 0.600683 0.755324 0.709176
O O5 0.633667 0.706948 0.525631
O O6 0.737689 0.747792 0.748432
O O7 0.469625 0.237918 0.693607
O O8 0.576512 0.147962 0.880890
O O9 0.571475 0.325102 0.878326
O O10 0.839959 0.229927 0.674576
O O11 0.923294 0.094399 0.666417
O O12 0.640956 0.650625 0.116893
O O13 0.635056 0.827687 0.123505
O O14 0.099369 0.500000 0.029384
O O15 0.000000 0.621151 0.000000
O O16 0.083759 0.000000 0.975296
O O17 0.000000 0.123507 0.000000
#
# Coordination Sequence:
#
# PCOD9206710 Si02
#       8
#     4   8   8   8   8   8   8   4
#     4   9  18  34  50  87 121 152 193 229 291 343
#     4  11  24  35  56  89 129 155 187 239 300 362
#     4  11  20  37  61  88 113 151 197 243 296 345
#     4  11  20  37  60  87 121 158 195 237 292 358
#     4  11  22  39  58  87 118 157 194 238 300 352
#     4  10  21  40  63  82 103 149 207 250 278 331
#     4  10  21  36  61  90 116 152 197 249 297 349
#     4   9  18  30  58  86 113 155 194 237 279 345
#
# _framework density 17.828704999999999
#
# number of rings (size 3 to 8) (size 9 to 14) (size 15 to 20)
#    0.000    1.571    4.286    1.714    4.000    2.286 
#    0.000    2.143    0.000    3.429    0.000    0.000 
#    0.000    0.000    0.000    0.000    0.000    0.000 
#
# Total GULP energy -156375.466041 kJ/mol
# GULP energy per Si atom -5584.838073 kJ/mol
# Density = 1.778813 g / cm^3
# Si number density = 17.828705 Si / 1000 Ang^3
#
#
#
# Elastic Constant Matrix: (Units=GPa)
#
#
# Indices 1 2 3 4 5 6 
#
# 1 63.8291 6.7004 3.2352 0.0000 12.3421 0.0000
# 2 6.7004 60.7985 9.8014 0.0000 0.7158 0.0000
# 3 3.2352 9.8014 55.6056 0.0000 0.7131 0.0000
# 4 0.0000 0.0000 0.0000 16.7626 0.0000 -2.5302
# 5 12.3421 0.7158 0.7131 0.0000 16.5907 0.0000
# 6 0.0000 0.0000 0.0000 -2.5302 0.0000 17.8977
#
#
#
# Elastic Compliance Matrix: (Units=1/GPa)
#
#
# Indices 1 2 3 4 5 6 
#
# 1 0.018530 -0.001786 -0.000588 0.000000 -0.013682 0.000000
# 2 -0.001786 0.017107 -0.002921 0.000000 0.000716 0.000000
# 3 -0.000588 -0.002921 0.018536 0.000000 -0.000234 0.000000
# 4 0.000000 0.000000 0.000000 0.060957 0.000000 0.008618
# 5 -0.013682 0.000716 -0.000234 0.000000 0.070432 0.000000
# 6 0.000000 0.000000 0.000000 0.008618 0.000000 0.057091
#
#
# Mechanical properties :
#
#
# Convention : Reuss Voigt Hill
#
# Bulk Modulus (GPa) = 22.94458 24.41191 23.67825
# Shear Modulus (GPa) = 18.67269 20.94995 19.81132
#
# Velocity S-wave (km/s) = 3.23977 3.43165 3.33709
# Velocity P-wave (km/s) = 5.18577 5.42437 5.30641
#
# Compressibility (1/GPa) = 0.04358327
#
# Stress axis : x y z
#
# Youngs Moduli (GPa) = 53.96713 58.45543 53.94961
#
# Poissons Ratio (x) = 0.10442 0.03171
# Poissons Ratio (y) = 0.09640 0.15757
# Poissons Ratio (z) = 0.03172 0.17073
#
# Static dielectric constant tensor:
#      x y z
#    x 1.583500 0.000000 -0.013850 
#    y 0.000000 1.607290 0.000000 
#    z -0.013850 0.000000 1.620060 
# 
# From -- ./inp_files/156579.got.cif
#   From: 2010.05.17/outbox.cif.g08.bks.cpg/sg12_79_cif.got.tgz:156579.got - 2010.06.03 13:09:07.
