data_PCOD9206111
_publ_section_title
;
Structure prediction by ZEFSAII (Michael W. Deem and Ramdas Pophale) SiO2 
 PCOD9206111
Probable space group: C 2/M
;
_chemical_formula_sum "Si O2"
_cell_formula_units_Z 48
_cell_length_a 11.887633
_cell_length_b 23.081996
_cell_length_c 13.665719
_cell_angle_alpha 90.000000
_cell_angle_beta 31.816039
_cell_angle_gamma 90.000000
_cell_volume 1976.839629
_symmetry_space_group_name_H-M "C 2/M"
_symmetry_group_IT_number 12
_symmetry_cell_setting 'monoclinic'
loop_
_space_group_symop_operation_xyz
x,y,z
-x,y,-z
-x,-y,-z
x,-y,z
1/2+x,1/2+y,z
1/2-x,1/2+y,-z
1/2-x,1/2-y,-z
1/2+x,1/2-y,z
loop_
_atom_site_type_symbol
_atom_site_label
_atom_site_fract_x
_atom_site_fract_y
_atom_site_fract_z
Si Si1 0.827039 0.635496 0.816351
Si Si2 0.690307 0.346596 0.279276
Si Si3 0.146801 0.850702 0.741693
Si Si4 0.564948 0.744876 0.216495
Si Si5 0.940810 0.936276 0.352708
Si Si6 0.072480 0.435535 0.778775
O O1 0.799906 0.641206 0.720355
O O2 0.984844 0.688678 0.724819
O O3 0.910234 0.579149 0.811092
O O4 0.591379 0.644511 0.035971
O O5 0.500000 0.341086 0.500000
O O6 0.673756 0.287200 0.229641
O O7 0.631989 0.394719 0.240909
O O8 0.892903 0.377549 0.181082
O O9 0.182672 0.903281 0.640925
O O10 0.124823 0.792012 0.693130
O O11 0.750000 0.750000 0.000000
O O12 0.797497 0.940071 0.555301
O O13 0.007496 0.000000 0.273545
O O14 0.034420 0.500000 0.850728
#
# Coordination Sequence:
#
# PCOD9206111 Si02
#       6
#     8   8   8   8   8   8
#     4  10  21  36  56  81 116 150 191 243 287 345
#     4   9  18  36  59  88 114 149 195 239 293 345
#     4   9  20  38  54  79 109 154 200 226 291 348
#     4   9  19  37  58  80 112 154 193 238 286 348
#     4   9  18  36  59  80 111 153 193 235 285 347
#     4  10  21  36  57  88 119 148 190 244 292 335
#
# _framework density 24.281182000000001
#
# number of rings (size 3 to 8) (size 9 to 14) (size 15 to 20)
#    0.000    2.667    0.000    0.500    2.333    4.000 
#    6.000    8.333    0.000   10.000    0.000    0.000 
#    0.000    0.000    0.000    0.000    0.000    0.000 
#
# Total GULP energy -133921.258887 kJ/mol
# GULP energy per Si atom -5580.052454 kJ/mol
# Density = 2.422592 g / cm^3
# Si number density = 24.281182 Si / 1000 Ang^3
#
#
#
# Elastic Constant Matrix: (Units=GPa)
#
#
# Indices 1 2 3 4 5 6 
#
# 1 129.1900 35.7103 7.3518 -0.0021 16.6530 -0.0016
# 2 35.7103 109.5416 1.0909 -0.0004 15.9536 -0.0033
# 3 7.3518 1.0909 73.4143 -0.0008 10.5550 0.0026
# 4 -0.0021 -0.0004 -0.0008 14.6123 0.0031 1.8590
# 5 16.6530 15.9536 10.5550 0.0031 30.2505 -0.0036
# 6 -0.0016 -0.0033 0.0026 1.8590 -0.0036 6.7066
#
#
#
# Elastic Compliance Matrix: (Units=1/GPa)
#
#
# Indices 1 2 3 4 5 6 
#
# 1 0.008870 -0.002377 -0.000349 0.000002 -0.003507 -0.000001
# 2 -0.002377 0.010554 0.000730 0.000001 -0.004512 0.000002
# 3 -0.000349 0.000730 0.014395 0.000003 -0.005216 -0.000009
# 4 0.000002 0.000001 0.000003 0.070937 -0.000012 -0.019663
# 5 -0.003507 -0.004512 -0.005216 -0.000012 0.039188 0.000024
# 6 -0.000001 0.000002 -0.000009 -0.019663 0.000024 0.154557
#
#
# Mechanical properties :
#
#
# Convention : Reuss Voigt Hill
#
# Bulk Modulus (GPa) = 33.52680 44.49465 39.01072
# Shear Modulus (GPa) = 16.00334 28.18007 22.09170
#
# Velocity S-wave (km/s) = 2.57005 3.41041 3.01961
# Velocity P-wave (km/s) = 4.75863 5.82000 5.31587
#
# Compressibility (1/GPa) = 0.02982689
#
# Stress axis : x y z
#
# Youngs Moduli (GPa) = 112.74482 94.75311 69.46718
#
# Poissons Ratio (x) = 0.22524 0.02422
# Poissons Ratio (y) = 0.26801 -0.05071
# Poissons Ratio (z) = 0.03930 -0.06916
#
# Static dielectric constant tensor:
#      x y z
#    x 1.991720 0.000000 -0.002500 
#    y 0.000000 1.930940 0.000010 
#    z -0.002500 0.000010 2.050770 
# 
# From -- ./inp_files/50605.got.cif
#   From: 2010.05.17/outbox.cif.g08.bks.cpg/sg12_26_cif.got.tgz:50605.got - 2010.06.03 13:09:07.
