data_PCOD9206822
_publ_section_title
;
Structure prediction by ZEFSAII (Michael W. Deem and Ramdas Pophale) SiO2 
 PCOD9206822
Probable space group: C 2/M
;
_chemical_formula_sum "Si O2"
_cell_formula_units_Z 44
_cell_length_a 27.336068
_cell_length_b 14.090012
_cell_length_c 17.859883
_cell_angle_alpha 90.000000
_cell_angle_beta 19.183897
_cell_angle_gamma 90.000000
_cell_volume 2260.451459
_symmetry_space_group_name_H-M "C 2/M"
_symmetry_group_IT_number 12
_symmetry_cell_setting 'monoclinic'
loop_
_space_group_symop_operation_xyz
x,y,z
-x,y,-z
-x,-y,-z
x,-y,z
1/2+x,1/2+y,z
1/2-x,1/2+y,-z
1/2-x,1/2-y,-z
1/2+x,1/2-y,z
loop_
_atom_site_type_symbol
_atom_site_label
_atom_site_fract_x
_atom_site_fract_y
_atom_site_fract_z
Si Si1 0.084104 0.292575 0.239926
Si Si2 0.565656 0.299089 0.683324
Si Si3 0.007035 0.500000 0.080298
Si Si4 0.032216 0.000000 0.239626
Si Si5 0.000000 0.166001 0.500000
Si Si6 0.335432 0.500000 0.673656
Si Si7 0.609077 0.000000 0.269355
Si Si8 0.086330 0.296983 0.797820
O O1 0.006923 0.232323 0.417695
O O2 0.080202 0.403045 0.265918
O O3 0.010393 0.268278 0.267570
O O4 0.250000 0.250000 0.000000
O O5 0.529162 0.405532 0.710899
O O6 0.741911 0.281040 0.431228
O O7 0.518332 0.275322 0.836167
O O8 0.929558 0.402136 0.214898
O O9 0.176528 0.500000 0.863672
O O10 0.000000 0.500000 0.000000
O O11 0.963447 0.000000 0.423509
O O12 0.211772 0.000000 0.975066
O O13 0.136729 0.093206 0.316281
O O14 0.500000 0.000000 0.500000
O O15 0.000000 0.294043 0.000000
#
# Coordination Sequence:
#
# PCOD9206822 Si02
#       8
#     8   8   4   4   4   4   4   8
#     4  12  25  43  67  95 132 177 219 273 327 395
#     4  11  24  41  67  92 127 173 216 270 328 395
#     4  10  21  36  67  94 127 156 214 279 330 381
#     4  12  21  42  64  91 130 169 222 266 325 386
#     4  11  24  39  64  96 136 171 222 265 338 386
#     4  11  22  38  65 102 128 173 222 281 329 394
#     4  12  26  42  63  99 137 180 223 258 332 406
#     4  10  23  42  64  96 126 164 214 271 333 391
#
# _framework density 19.465139000000001
#
# number of rings (size 3 to 8) (size 9 to 14) (size 15 to 20)
#    0.000    0.909    4.545    2.727    2.545    2.909 
#    0.000    1.364    0.000    0.000    0.000    0.000 
#    0.000    0.000    0.000    0.000    0.000    0.000 
#
# Total GULP energy -122902.498336 kJ/mol
# GULP energy per Si atom -5586.477197 kJ/mol
# Density = 1.942084 g / cm^3
# Si number density = 19.465139 Si / 1000 Ang^3
#
#
#
# Elastic Constant Matrix: (Units=GPa)
#
#
# Indices 1 2 3 4 5 6 
#
# 1 142.6797 67.2259 44.0110 0.0000 -20.1517 0.0000
# 2 67.2259 151.8007 10.1920 -0.0001 -2.8357 -0.0003
# 3 44.0110 10.1920 59.9710 -0.0001 -14.0771 -0.0001
# 4 0.0000 -0.0001 -0.0001 25.0277 0.0000 19.6101
# 5 -20.1517 -2.8357 -14.0771 0.0000 38.7421 0.0000
# 6 0.0000 -0.0003 -0.0001 19.6101 0.0000 122.7286
#
#
#
# Elastic Compliance Matrix: (Units=1/GPa)
#
#
# Indices 1 2 3 4 5 6 
#
# 1 0.011909 -0.004732 -0.007175 0.000000 0.003241 0.000000
# 2 -0.004732 0.008544 0.001738 0.000000 -0.001204 0.000000
# 3 -0.007175 0.001738 0.022738 0.000000 0.004657 0.000000
# 4 0.000000 0.000000 0.000000 0.045674 0.000000 -0.007298
# 5 0.003241 -0.001204 0.004657 0.000000 0.029102 0.000000
# 6 0.000000 0.000000 0.000000 -0.007298 0.000000 0.009314
#
#
# Mechanical properties :
#
#
# Convention : Reuss Voigt Hill
#
# Bulk Modulus (GPa) = 43.75716 66.36768 55.06242
# Shear Modulus (GPa) = 32.20905 52.83451 42.52178
#
# Velocity S-wave (km/s) = 4.07222 5.21556 4.67894
# Velocity P-wave (km/s) = 6.68126 8.39280 7.58546
#
# Compressibility (1/GPa) = 0.02285340
#
# Stress axis : x y z
#
# Youngs Moduli (GPa) = 83.96979 117.04265 43.97936
#
# Poissons Ratio (x) = 0.55382 0.31554
# Poissons Ratio (y) = 0.39732 -0.07642
# Poissons Ratio (z) = 0.60246 -0.20339
#
# Static dielectric constant tensor:
#      x y z
#    x 1.671550 0.000000 0.036060 
#    y 0.000000 1.708040 0.000000 
#    z 0.036060 0.000000 1.736100 
# 
# From -- ./inp_files/293605.got.cif
#   From: 2010.05.17/outbox.cif.g08.bks.cpg/sg12_147_cif.got.tgz:293605.got - 2010.06.03 13:09:07.
