data_PCOD9206677
_publ_section_title
;
Structure prediction by ZEFSAII (Michael W. Deem and Ramdas Pophale) SiO2 
 PCOD9206677
Probable space group: C 2/M
;
_chemical_formula_sum "Si O2"
_cell_formula_units_Z 48
_cell_length_a 17.935398
_cell_length_b 14.369494
_cell_length_c 9.279093
_cell_angle_alpha 90.000000
_cell_angle_beta 87.045424
_cell_angle_gamma 90.000000
_cell_volume 2388.253018
_symmetry_space_group_name_H-M "C 2/M"
_symmetry_group_IT_number 12
_symmetry_cell_setting 'monoclinic'
loop_
_space_group_symop_operation_xyz
x,y,z
-x,y,-z
-x,-y,-z
x,-y,z
1/2+x,1/2+y,z
1/2-x,1/2+y,-z
1/2-x,1/2-y,-z
1/2+x,1/2-y,z
loop_
_atom_site_type_symbol
_atom_site_label
_atom_site_fract_x
_atom_site_fract_y
_atom_site_fract_z
Si Si1 0.958002 0.224471 0.652191
Si Si2 0.513026 0.897309 0.167369
Si Si3 0.650403 0.103018 0.676477
Si Si4 0.686867 0.210471 0.402304
Si Si5 0.056253 0.890042 0.859828
Si Si6 0.289455 0.274632 0.145834
O O1 0.871956 0.206322 0.622628
O O2 0.000000 0.247854 0.500000
O O3 0.947160 0.312874 0.758480
O O4 0.009563 0.150835 0.729497
O O5 0.433124 0.899791 0.253431
O O6 0.548059 0.000000 0.176481
O O7 0.500000 0.878283 0.000000
O O8 0.648611 0.134423 0.509793
O O9 0.690962 0.179048 0.771865
O O10 0.683536 0.000000 0.685796
O O11 0.750000 0.250000 0.500000
O O12 0.728874 0.175976 0.255748
O O13 0.133382 0.832881 0.872958
O O14 0.071463 0.000000 0.841949
O O15 0.000000 0.877386 0.000000
O O16 0.250000 0.250000 0.000000
#
# Coordination Sequence:
#
# PCOD9206677 Si02
#       6
#     8   8   8   8   8   8
#     4  12  21  39  67  93 124 167 215 269 320 382
#     4  10  21  36  60  93 126 159 206 261 314 380
#     4  10  21  40  61  90 128 168 209 257 321 389
#     4  10  22  40  59  90 130 168 208 262 325 385
#     4  11  25  45  67  94 127 170 224 274 319 384
#     4  11  23  41  67  97 130 169 214 271 330 388
#
# _framework density 20.098372000000001
#
# number of rings (size 3 to 8) (size 9 to 14) (size 15 to 20)
#    0.000    1.333    3.333    2.500    2.333    2.667 
#    0.000    5.000    0.000    0.000    0.000    0.000 
#    0.000    0.000    0.000    0.000    0.000    0.000 
#
# Total GULP energy -133856.635104 kJ/mol
# GULP energy per Si atom -5577.359796 kJ/mol
# Density = 2.005263 g / cm^3
# Si number density = 20.098372 Si / 1000 Ang^3
#
#
#
# Elastic Constant Matrix: (Units=GPa)
#
#
# Indices 1 2 3 4 5 6 
#
# 1 135.8145 40.0481 55.8632 0.0000 2.8076 0.0000
# 2 40.0481 112.3827 54.9647 0.0000 6.8330 0.0000
# 3 55.8632 54.9647 142.3138 0.0000 -7.9394 0.0000
# 4 0.0000 0.0000 0.0000 16.0240 0.0000 -3.1847
# 5 2.8076 6.8330 -7.9394 0.0000 38.2182 0.0000
# 6 0.0000 0.0000 0.0000 -3.1847 0.0000 8.5082
#
#
#
# Elastic Compliance Matrix: (Units=1/GPa)
#
#
# Indices 1 2 3 4 5 6 
#
# 1 0.009114 -0.001741 -0.002959 0.000000 -0.000973 0.000000
# 2 -0.001741 0.011624 -0.003961 0.000000 -0.002773 0.000000
# 3 -0.002959 -0.003961 0.009884 0.000000 0.002979 0.000000
# 4 0.000000 0.000000 0.000000 0.067422 0.000000 0.025236
# 5 -0.000973 -0.002773 0.002979 0.000000 0.027352 0.000000
# 6 0.000000 0.000000 0.000000 0.025236 0.000000 0.126979
#
#
# Mechanical properties :
#
#
# Convention : Reuss Voigt Hill
#
# Bulk Modulus (GPa) = 75.18885 76.91812 76.05348
# Shear Modulus (GPa) = 18.23944 28.52575 23.38260
#
# Velocity S-wave (km/s) = 3.01576 3.77146 3.41458
# Velocity P-wave (km/s) = 7.04401 7.57094 7.31222
#
# Compressibility (1/GPa) = 0.01329984
#
# Stress axis : x y z
#
# Youngs Moduli (GPa) = 109.72442 86.02544 101.17075
#
# Poissons Ratio (x) = 0.14979 0.29939
# Poissons Ratio (y) = 0.19106 0.40072
# Poissons Ratio (z) = 0.32470 0.34073
#
# Static dielectric constant tensor:
#      x y z
#    x 1.669870 0.000000 0.031020 
#    y 0.000000 1.785120 0.000000 
#    z 0.031020 0.000000 1.732990 
# 
# From -- ./inp_files/73620.got.cif
#   From: 2010.05.17/outbox.cif.g08.bks.cpg/sg12_37_cif.got.tgz:73620.got - 2010.06.03 13:09:07.
