data_PCOD9206001
_publ_section_title
;
Structure prediction by ZEFSAII (Michael W. Deem and Ramdas Pophale) SiO2 
 PCOD9206001
Probable space group: C 2/M
;
_chemical_formula_sum "Si O2"
_cell_formula_units_Z 64
_cell_length_a 14.693990
_cell_length_b 9.100070
_cell_length_c 30.416195
_cell_angle_alpha 90.000000
_cell_angle_beta 128.807382
_cell_angle_gamma 90.000000
_cell_volume 3169.349950
_symmetry_space_group_name_H-M "C 2/M"
_symmetry_group_IT_number 12
_symmetry_cell_setting 'monoclinic'
loop_
_space_group_symop_operation_xyz
x,y,z
-x,y,-z
-x,-y,-z
x,-y,z
1/2+x,1/2+y,z
1/2-x,1/2+y,-z
1/2-x,1/2-y,-z
1/2+x,1/2-y,z
loop_
_atom_site_type_symbol
_atom_site_label
_atom_site_fract_x
_atom_site_fract_y
_atom_site_fract_z
Si Si1 0.936572 0.671430 0.298531
Si Si2 0.150125 0.827640 0.913872
Si Si3 0.869875 0.174903 0.587730
Si Si4 0.922207 0.325624 0.875907
Si Si5 0.817998 0.171307 0.760825
Si Si6 0.397165 0.176646 0.502065
Si Si7 0.449892 0.667700 0.215734
Si Si8 0.135680 0.171500 0.054020
O O1 0.965047 0.500000 0.308762
O O2 0.817466 0.695725 0.289958
O O3 0.043150 0.764113 0.349404
O O4 0.909536 0.720794 0.240552
O O5 0.051277 0.744389 0.911378
O O6 0.275647 0.751111 0.952141
O O7 0.105876 0.815995 0.849526
O O8 0.154567 0.000000 0.926880
O O9 0.733408 0.210509 0.554976
O O10 0.904749 0.247302 0.551773
O O11 0.879838 0.000000 0.587712
O O12 0.927187 0.500000 0.882195
O O13 0.857981 0.277942 0.811848
O O14 0.857032 0.252949 0.897129
O O15 0.911054 0.187364 0.750071
O O16 0.830321 0.000000 0.779824
O O17 0.500000 0.221246 0.500000
O O18 0.404855 0.000000 0.510327
O O19 0.426505 0.500000 0.223097
O O20 0.166672 0.000000 0.066904
O O21 0.000000 0.182462 0.000000
#
# Coordination Sequence:
#
# PCOD9206001 Si02
#       8
#     8   8   8   8   8   8   8   8
#     4  11  22  35  54  80 113 149 181 221 271 323
#     4  10  21  39  62  85 112 147 187 232 279 334
#     4  10  21  36  55  81 111 141 178 226 272 318
#     4  11  22  37  60  86 113 147 185 229 281 337
#     4   9  20  38  57  78 109 149 187 223 268 326
#     4   9  19  38  61  80 103 141 184 223 269 325
#     4   9  19  36  56  79 107 141 181 222 267 319
#     4  11  24  40  58  82 112 146 186 233 284 337
#
# _framework density 20.193415999999999
#
# number of rings (size 3 to 8) (size 9 to 14) (size 15 to 20)
#    0.000    2.000    0.000    4.125    0.000    8.750 
#    0.000    5.000    0.000    0.000    0.000    0.000 
#    0.000    0.000    0.000    0.000    0.000    0.000 
#
# Total GULP energy -178824.937630 kJ/mol
# GULP energy per Si atom -5588.279301 kJ/mol
# Density = 2.014745 g / cm^3
# Si number density = 20.193416 Si / 1000 Ang^3
#
#
#
# Elastic Constant Matrix: (Units=GPa)
#
#
# Indices 1 2 3 4 5 6 
#
# 1 107.1166 37.2869 13.0049 0.0000 14.8879 0.0000
# 2 37.2869 79.4360 25.8760 0.0000 11.8953 0.0000
# 3 13.0049 25.8760 43.3770 0.0000 10.4940 0.0000
# 4 0.0000 0.0000 0.0000 25.6336 0.0000 1.5991
# 5 14.8879 11.8953 10.4940 0.0000 15.9151 0.0000
# 6 0.0000 0.0000 0.0000 1.5991 0.0000 28.8872
#
#
#
# Elastic Compliance Matrix: (Units=1/GPa)
#
#
# Indices 1 2 3 4 5 6 
#
# 1 0.012033 -0.004800 0.001322 0.000000 -0.008540 0.000000
# 2 -0.004800 0.018142 -0.008553 0.000000 -0.003429 0.000000
# 3 0.001322 -0.008553 0.031544 0.000000 -0.015643 0.000000
# 4 0.000000 0.000000 0.000000 0.039147 0.000000 -0.002167
# 5 -0.008540 -0.003429 -0.015643 0.000000 0.083700 0.000000
# 6 0.000000 0.000000 0.000000 -0.002167 0.000000 0.034737
#
#
# Mechanical properties :
#
#
# Convention : Reuss Voigt Hill
#
# Bulk Modulus (GPa) = 26.55638 42.47392 34.51515
# Shear Modulus (GPa) = 19.53756 24.33798 21.93777
#
# Velocity S-wave (km/s) = 3.11387 3.47543 3.29961
# Velocity P-wave (km/s) = 5.10958 6.09787 5.62547
#
# Compressibility (1/GPa) = 0.03765573
#
# Stress axis : x y z
#
# Youngs Moduli (GPa) = 83.10503 55.12191 31.70157
#
# Poissons Ratio (x) = 0.26458 -0.04190
# Poissons Ratio (y) = 0.39890 0.27116
# Poissons Ratio (z) = -0.10985 0.47148
#
# Static dielectric constant tensor:
#      x y z
#    x 1.736460 0.000000 0.018660 
#    y 0.000000 1.673410 0.000000 
#    z 0.018660 0.000000 1.739510 
# 
# From -- ./inp_files/375553.got.cif
#   From: 2010.05.17/outbox.cif.g08.bks.cpg/sg12_188_cif.got.tgz:375553.got - 2010.06.03 13:09:07.
