data_PCOD9206073
_publ_section_title
;
Structure prediction by ZEFSAII (Michael W. Deem and Ramdas Pophale) SiO2 
 PCOD9206073
Probable space group: C 2/M
;
_chemical_formula_sum "Si O2"
_cell_formula_units_Z 44
_cell_length_a 32.259809
_cell_length_b 9.213621
_cell_length_c 26.870324
_cell_angle_alpha 90.000000
_cell_angle_beta 17.296443
_cell_angle_gamma 90.000000
_cell_volume 2374.557752
_symmetry_space_group_name_H-M "C 2/M"
_symmetry_group_IT_number 12
_symmetry_cell_setting 'monoclinic'
loop_
_space_group_symop_operation_xyz
x,y,z
-x,y,-z
-x,-y,-z
x,-y,z
1/2+x,1/2+y,z
1/2-x,1/2+y,-z
1/2-x,1/2-y,-z
1/2+x,1/2-y,z
loop_
_atom_site_type_symbol
_atom_site_label
_atom_site_fract_x
_atom_site_fract_y
_atom_site_fract_z
Si Si1 0.698825 0.325940 0.608810
Si Si2 0.384871 0.672762 0.000797
Si Si3 0.665870 0.324911 0.451133
Si Si4 0.291712 0.837995 0.202881
Si Si5 0.000000 0.249571 0.500000
Si Si6 0.399087 0.836338 0.719558
O O1 0.721486 0.500000 0.581661
O O2 0.750000 0.250000 0.500000
O O3 0.534287 0.299416 0.805719
O O4 0.776467 0.252705 0.566302
O O5 0.366294 0.500000 0.027953
O O6 0.372660 0.742961 0.069606
O O7 0.257897 0.720553 0.110026
O O8 0.666489 0.500000 0.453931
O O9 0.764528 0.285007 0.290392
O O10 0.508984 0.266951 0.621018
O O11 0.134491 0.841379 0.361185
O O12 0.350677 0.000000 0.136717
O O13 0.041684 0.341775 0.404549
O O14 0.397183 0.000000 0.742769
#
# Coordination Sequence:
#
# PCOD9206073 Si02
#       6
#     8   8   8   8   4   8
#     4  11  24  43  62  79 103 141 186 233 281 329
#     4   9  20  36  56  83 114 145 181 224 272 325
#     4  10  21  36  55  84 117 148 182 222 266 320
#     4   9  17  29  50  80 115 149 181 217 262 316
#     4   8  14  24  44  76 114 150 180 214 258 316
#     4   9  16  30  53  81 111 144 180 220 267 321
#
# _framework density 18.529765999999999
#
# number of rings (size 3 to 8) (size 9 to 14) (size 15 to 20)
#    0.000    2.545    0.000    1.636    0.000   11.636 
#    0.000    4.545    0.000    0.000    0.000    0.000 
#    0.000    0.000    0.000    0.000    0.000    0.000 
#
# Total GULP energy -122597.645195 kJ/mol
# GULP energy per Si atom -5572.620236 kJ/mol
# Density = 1.848759 g / cm^3
# Si number density = 18.529766 Si / 1000 Ang^3
#
#
#
# Elastic Constant Matrix: (Units=GPa)
#
#
# Indices 1 2 3 4 5 6 
#
# 1 998.9258 241.8937 -182.4606 -0.0660 -8.6888 0.0165
# 2 241.8937 119.4322 8.7477 -0.0111 -0.0863 0.0035
# 3 -182.4606 8.7477 197.1437 0.0203 5.3823 -0.0048
# 4 -0.0660 -0.0111 0.0203 18.5764 0.0006 6.8184
# 5 -8.6888 -0.0863 5.3823 0.0006 26.9676 -0.0003
# 6 0.0165 0.0035 -0.0048 6.8184 -0.0003 17.9128
#
#
#
# Elastic Compliance Matrix: (Units=1/GPa)
#
#
# Indices 1 2 3 4 5 6 
#
# 1 0.003281 -0.006890 0.003333 0.000005 0.000370 -0.000003
# 2 -0.006890 0.022867 -0.007373 -0.000003 -0.000675 0.000001
# 3 0.003333 -0.007373 0.008502 -0.000002 -0.000647 0.000002
# 4 0.000005 -0.000003 -0.000002 0.062574 0.000000 -0.023819
# 5 0.000370 -0.000675 -0.000647 0.000000 0.037328 0.000000
# 6 -0.000003 0.000001 0.000002 -0.023819 0.000000 0.064892
#
#
# Mechanical properties :
#
#
# Convention : Reuss Voigt Hill
#
# Bulk Modulus (GPa) = 78.18807 161.31815 119.75311
# Shear Modulus (GPa) = 22.16616 95.84608 59.00612
#
# Velocity S-wave (km/s) = 3.46243 7.19984 5.64917
# Velocity P-wave (km/s) = 7.63362 12.50460 10.35947
#
# Compressibility (1/GPa) = 0.01278967
#
# Stress axis : x y z
#
# Youngs Moduli (GPa) = 304.74046 43.73056 117.62296
#
# Poissons Ratio (x) = 0.30130 -0.39200
# Poissons Ratio (y) = 2.09967 0.86725
# Poissons Ratio (z) = -1.01561 0.32243
#
# Static dielectric constant tensor:
#      x y z
#    x 1.642420 0.000000 -0.030370 
#    y 0.000000 1.646880 0.000000 
#    z -0.030370 0.000000 1.654590 
# 
# From -- ./inp_files/353189.got.cif
#   From: 2010.05.17/outbox.cif.g08.bks.cpg/sg12_177_cif.got.tgz:353189.got - 2010.06.03 13:09:07.
