data_PCOD9206304
_publ_section_title
;
Structure prediction by ZEFSAII (Michael W. Deem and Ramdas Pophale) SiO2 
 PCOD9206304
Probable space group: C 2/M
;
_chemical_formula_sum "Si O2"
_cell_formula_units_Z 56
_cell_length_a 8.998268
_cell_length_b 22.238186
_cell_length_c 17.284829
_cell_angle_alpha 90.000000
_cell_angle_beta 61.879098
_cell_angle_gamma 90.000000
_cell_volume 3050.491263
_symmetry_space_group_name_H-M "C 2/M"
_symmetry_group_IT_number 12
_symmetry_cell_setting 'monoclinic'
loop_
_space_group_symop_operation_xyz
x,y,z
-x,y,-z
-x,-y,-z
x,-y,z
1/2+x,1/2+y,z
1/2-x,1/2+y,-z
1/2-x,1/2-y,-z
1/2+x,1/2-y,z
loop_
_atom_site_type_symbol
_atom_site_label
_atom_site_fract_x
_atom_site_fract_y
_atom_site_fract_z
Si Si1 0.932114 0.770994 0.430977
Si Si2 0.497189 0.072394 0.195978
Si Si3 0.497448 0.140475 0.643526
Si Si4 0.682109 0.566531 0.491680
Si Si5 0.825758 0.071976 0.833857
Si Si6 0.135385 0.884628 0.660922
Si Si7 0.180745 0.072861 0.987897
O O1 0.750000 0.750000 0.500000
O O2 0.919626 0.825316 0.373825
O O3 0.000000 0.786521 0.500000
O O4 0.008682 0.712161 0.370268
O O5 0.490764 0.114432 0.272771
O O6 0.332792 0.082868 0.183315
O O7 0.663722 0.087944 0.105736
O O8 0.502676 0.000000 0.213418
O O9 0.665007 0.112373 0.562114
O O10 0.320944 0.119054 0.651143
O O11 0.500000 0.581160 0.500000
O O12 0.731597 0.500000 0.450858
O O13 0.647289 0.565966 0.591175
O O14 0.993870 0.100960 0.758201
O O15 0.850950 0.000000 0.829553
O O16 0.792790 0.092302 0.929929
O O17 0.176036 0.000000 0.990129
O O18 0.000000 0.093769 0.000000
#
# Coordination Sequence:
#
# PCOD9206304 Si02
#       7
#     8   8   8   8   8   8   8
#     4  12  24  43  62  82 109 150 199 245 291 341
#     4  10  21  36  57  86 120 155 191 232 283 343
#     4  12  24  38  57  84 111 147 193 239 286 339
#     4  11  23  37  54  78 112 150 184 229 288 343
#     4  10  21  36  57  87 120 155 191 229 284 344
#     4  12  24  37  58  83 112 148 191 240 285 340
#     4   9  17  33  57  84 117 153 189 233 280 336
#
# _framework density 18.357697999999999
#
# number of rings (size 3 to 8) (size 9 to 14) (size 15 to 20)
#    0.000    1.143    2.857    3.857    2.000    8.000 
#    0.000    0.000    0.000    0.857    0.000    0.000 
#    0.000    0.000    0.000    0.000    0.000    0.000 
#
# Total GULP energy -156199.294832 kJ/mol
# GULP energy per Si atom -5578.546244 kJ/mol
# Density = 1.831592 g / cm^3
# Si number density = 18.357698 Si / 1000 Ang^3
#
#
#
# Elastic Constant Matrix: (Units=GPa)
#
#
# Indices 1 2 3 4 5 6 
#
# 1 84.5564 26.4203 5.5546 0.0000 2.3257 0.0000
# 2 26.4203 79.7447 21.2538 0.0000 6.8647 0.0000
# 3 5.5546 21.2538 93.0118 0.0000 4.9855 0.0000
# 4 0.0000 0.0000 0.0000 13.6430 0.0000 6.7337
# 5 2.3257 6.8647 4.9855 0.0000 39.0021 0.0000
# 6 0.0000 0.0000 0.0000 6.7337 0.0000 13.2012
#
#
#
# Elastic Compliance Matrix: (Units=1/GPa)
#
#
# Indices 1 2 3 4 5 6 
#
# 1 0.013197 -0.004429 0.000226 0.000000 -0.000036 0.000000
# 2 -0.004429 0.014993 -0.003055 0.000000 -0.001984 0.000000
# 3 0.000226 -0.003055 0.011487 0.000000 -0.000944 0.000000
# 4 0.000000 0.000000 0.000000 0.097961 0.000000 -0.049968
# 5 -0.000036 -0.001984 -0.000944 0.000000 0.026112 0.000000
# 6 0.000000 0.000000 0.000000 -0.049968 0.000000 0.101238
#
#
# Mechanical properties :
#
#
# Convention : Reuss Voigt Hill
#
# Bulk Modulus (GPa) = 39.74730 40.41892 40.08311
# Shear Modulus (GPa) = 17.36778 26.77487 22.07133
#
# Velocity S-wave (km/s) = 3.07917 3.82319 3.47117
# Velocity P-wave (km/s) = 5.86006 6.44626 6.16014
#
# Compressibility (1/GPa) = 0.02515894
#
# Stress axis : x y z
#
# Youngs Moduli (GPa) = 75.77749 66.69998 87.05860
#
# Poissons Ratio (x) = 0.29543 -0.01967
# Poissons Ratio (y) = 0.33564 0.26597
# Poissons Ratio (z) = -0.01712 0.20377
#
# Static dielectric constant tensor:
#      x y z
#    x 1.642830 0.000000 -0.010270 
#    y 0.000000 1.274310 0.000000 
#    z -0.010270 0.000000 1.613130 
# 
# From -- ./inp_files/258877.got.cif
#   From: 2010.05.17/outbox.cif.g08.bks.cpg/sg12_130_cif.got.tgz:258877.got - 2010.06.03 13:09:07.
