data_PCOD9206084
_publ_section_title
;
Structure prediction by ZEFSAII (Michael W. Deem and Ramdas Pophale) SiO2 
 PCOD9206084
Probable space group: C 2/M
;
_chemical_formula_sum "Si O2"
_cell_formula_units_Z 48
_cell_length_a 26.042137
_cell_length_b 13.253509
_cell_length_c 12.277811
_cell_angle_alpha 90.000000
_cell_angle_beta 150.704841
_cell_angle_gamma 90.000000
_cell_volume 2073.535323
_symmetry_space_group_name_H-M "C 2/M"
_symmetry_group_IT_number 12
_symmetry_cell_setting 'monoclinic'
loop_
_space_group_symop_operation_xyz
x,y,z
-x,y,-z
-x,-y,-z
x,-y,z
1/2+x,1/2+y,z
1/2-x,1/2+y,-z
1/2-x,1/2-y,-z
1/2+x,1/2-y,z
loop_
_atom_site_type_symbol
_atom_site_label
_atom_site_fract_x
_atom_site_fract_y
_atom_site_fract_z
Si Si1 0.491471 0.886025 0.866583
Si Si2 0.550532 0.882654 0.443312
Si Si3 0.880096 0.880409 0.663701
Si Si4 0.789664 0.326234 0.821645
Si Si5 0.369689 0.379075 0.891621
Si Si6 0.332951 0.835682 0.129713
O O1 0.426740 0.852995 0.639581
O O2 0.452830 0.000000 0.814818
O O3 0.500000 0.834284 0.000000
O O4 0.610824 0.880758 0.048030
O O5 0.451003 0.817632 0.300481
O O6 0.638723 0.880722 0.699615
O O7 0.514256 0.000000 0.372645
O O8 0.809696 0.839035 0.437655
O O9 0.842100 0.851155 0.715009
O O10 0.867367 0.000000 0.640316
O O11 0.003952 0.864265 0.872591
O O12 0.819283 0.206067 0.875853
O O13 0.779383 0.378022 0.920789
O O14 0.347402 0.500000 0.870037
O O15 0.250000 0.750000 0.000000
#
# Coordination Sequence:
#
# PCOD9206084 Si02
#       6
#     8   8   8   8   8   8
#     4   9  19  35  58  94 129 152 188 248 308 360
#     4   9  19  40  65  84 116 161 196 238 301 362
#     4   9  19  36  58  82 113 154 193 236 290 361
#     4  11  21  34  61  87 115 154 201 246 297 347
#     4   9  20  39  56  79 118 158 197 236 292 359
#     4  10  21  36  55  86 116 150 200 246 284 341
#
# _framework density 23.148869999999999
#
# number of rings (size 3 to 8) (size 9 to 14) (size 15 to 20)
#    0.000    2.500    0.000    3.000    2.333    6.000 
#    3.000    1.667    0.000    1.000    0.000   21.000 
#    0.000    0.000    0.000    0.000    0.000    0.000 
#
# Total GULP energy -133652.674559 kJ/mol
# GULP energy per Si atom -5568.861440 kJ/mol
# Density = 2.309618 g / cm^3
# Si number density = 23.148870 Si / 1000 Ang^3
#
#
#
# Elastic Constant Matrix: (Units=GPa)
#
#
# Indices 1 2 3 4 5 6 
#
# 1 99.6667 22.5497 47.5771 0.0000 -46.4261 0.0000
# 2 22.5497 79.3925 41.6425 0.0000 -9.7727 0.0000
# 3 47.5771 41.6425 156.5875 0.0000 -56.6406 0.0000
# 4 0.0000 0.0000 0.0000 24.3550 0.0000 -8.6141
# 5 -46.4261 -9.7727 -56.6406 0.0000 47.8551 0.0000
# 6 0.0000 0.0000 0.0000 -8.6141 0.0000 -2.1625
#
#
#
# Elastic Compliance Matrix: (Units=1/GPa)
#
#
# Indices 1 2 3 4 5 6 
#
# 1 0.019830 -0.004581 0.003171 0.000000 0.022055 0.000000
# 2 -0.004581 0.015918 -0.005723 0.000000 -0.007967 0.000000
# 3 0.003171 -0.005723 0.013350 0.000000 0.017709 0.000000
# 4 0.000000 0.000000 0.000000 0.017045 0.000000 -0.067897
# 5 0.022055 -0.007967 0.017709 0.000000 0.061626 0.000000
# 6 0.000000 0.000000 0.000000 -0.067897 0.000000 -0.191969
#
#
# Mechanical properties :
#
#
# Convention : Reuss Voigt Hill
#
# Bulk Modulus (GPa) = 28.70904 62.13170 45.42037
# Shear Modulus (GPa) = -130.46903 28.93468 -50.76717
#
# Velocity S-wave (km/s) = -7.51553 3.53928 -4.68811
# Velocity P-wave (km/s) = 7.92982 6.60306 3.10498
#
# Compressibility (1/GPa) = 0.03483223
#
# Stress axis : x y z
#
# Youngs Moduli (GPa) = 50.42921 62.82240 74.90431
#
# Poissons Ratio (x) = 0.28776 -0.23751
# Poissons Ratio (y) = 0.23099 0.42870
# Poissons Ratio (z) = -0.15991 0.35955
#
# Static dielectric constant tensor:
#      x y z
#    x 1.926490 0.000000 -0.031600 
#    y 0.000000 1.939980 0.000000 
#    z -0.031600 0.000000 1.926610 
# 
# From -- ./inp_files/183895.got.cif
#   From: 2010.05.17/outbox.cif.g08.bks.cpg/sg12_92_cif.got.tgz:183895.got - 2010.06.03 13:09:07.
