data_PCOD9206721
_publ_section_title
;
Structure prediction by ZEFSAII (Michael W. Deem and Ramdas Pophale) SiO2 
 PCOD9206721
Probable space group: C 2/M
;
_chemical_formula_sum "Si O2"
_cell_formula_units_Z 48
_cell_length_a 8.129915
_cell_length_b 31.101061
_cell_length_c 14.887283
_cell_angle_alpha 90.000000
_cell_angle_beta 37.478168
_cell_angle_gamma 90.000000
_cell_volume 2290.382593
_symmetry_space_group_name_H-M "C 2/M"
_symmetry_group_IT_number 12
_symmetry_cell_setting 'monoclinic'
loop_
_space_group_symop_operation_xyz
x,y,z
-x,y,-z
-x,-y,-z
x,-y,z
1/2+x,1/2+y,z
1/2-x,1/2+y,-z
1/2-x,1/2-y,-z
1/2+x,1/2-y,z
loop_
_atom_site_type_symbol
_atom_site_label
_atom_site_fract_x
_atom_site_fract_y
_atom_site_fract_z
Si Si1 0.370963 0.048581 0.926510
Si Si2 0.265503 0.623136 0.730475
Si Si3 0.370810 0.123634 0.422704
Si Si4 0.347144 0.786616 0.654088
Si Si5 0.233263 0.211800 0.170733
Si Si6 0.762385 0.048602 0.230360
O O1 0.592579 0.084705 0.848052
O O2 0.308570 0.048787 0.845982
O O3 0.459813 0.000000 0.910113
O O4 0.082263 0.057288 0.097654
O O5 0.587223 0.616706 0.595453
O O6 0.190808 0.623936 0.657238
O O7 0.200231 0.669003 0.802043
O O8 0.495938 0.169706 0.391330
O O9 0.579620 0.085457 0.351680
O O10 0.500000 0.768608 0.500000
O O11 0.351251 0.750949 0.728796
O O12 0.033284 0.797116 0.772225
O O13 0.500000 0.223734 0.000000
O O14 0.708666 0.000000 0.286175
#
# Coordination Sequence:
#
# PCOD9206721 Si02
#       6
#     8   8   8   8   8   8
#     4   8  15  30  54  85 122 161 199 246 298 350
#     4  10  21  37  59  90 125 158 203 251 301 354
#     4  10  21  36  61  91 120 162 204 249 299 357
#     4  12  25  45  67  88 121 164 203 248 310 370
#     4  12  27  44  64  92 123 157 204 256 306 365
#     4   8  15  30  54  86 121 158 202 248 295 349
#
# _framework density 20.957196
#
# number of rings (size 3 to 8) (size 9 to 14) (size 15 to 20)
#    0.000    2.000    1.667    3.000    4.667    0.667 
#    3.000    3.333    0.000    2.000    0.000    0.000 
#    0.000    0.000    0.000    0.000    0.000    0.000 
#
# Total GULP energy -134197.096708 kJ/mol
# GULP energy per Si atom -5591.545696 kJ/mol
# Density = 2.090950 g / cm^3
# Si number density = 20.957196 Si / 1000 Ang^3
#
#
#
# Elastic Constant Matrix: (Units=GPa)
#
#
# Indices 1 2 3 4 5 6 
#
# 1 52.6492 38.3856 35.5617 0.0000 -16.1130 0.0000
# 2 38.3856 181.7557 96.7075 0.0000 -24.7436 0.0000
# 3 35.5617 96.7075 140.6390 0.0000 -19.9721 0.0000
# 4 0.0000 0.0000 0.0000 34.4054 0.0000 -12.6453
# 5 -16.1130 -24.7436 -19.9721 0.0000 28.1625 0.0000
# 6 0.0000 0.0000 0.0000 -12.6453 0.0000 25.2449
#
#
#
# Elastic Compliance Matrix: (Units=1/GPa)
#
#
# Indices 1 2 3 4 5 6 
#
# 1 0.026266 -0.002169 -0.003655 0.000000 0.010531 0.000000
# 2 -0.002169 0.009231 -0.005364 0.000000 0.003066 0.000000
# 3 -0.003655 -0.005364 0.011961 0.000000 0.001679 0.000000
# 4 0.000000 0.000000 0.000000 0.035624 0.000000 0.017844
# 5 0.010531 0.003066 0.001679 0.000000 0.045417 0.000000
# 6 0.000000 0.000000 0.000000 0.017844 0.000000 0.048550
#
#
# Mechanical properties :
#
#
# Convention : Reuss Voigt Hill
#
# Bulk Modulus (GPa) = 39.86654 79.59486 59.73070
# Shear Modulus (GPa) = 24.06307 31.18848 27.62577
#
# Velocity S-wave (km/s) = 3.39219 3.86190 3.63464
# Velocity P-wave (km/s) = 5.86572 7.61235 6.79539
#
# Compressibility (1/GPa) = 0.02508369
#
# Stress axis : x y z
#
# Youngs Moduli (GPa) = 38.07133 108.32657 83.60283
#
# Poissons Ratio (x) = 0.23498 0.30554
# Poissons Ratio (y) = 0.08258 0.44844
# Poissons Ratio (z) = 0.13914 0.58105
#
# Static dielectric constant tensor:
#      x y z
#    x 1.810570 0.000000 0.019250 
#    y 0.000000 1.707580 0.000000 
#    z 0.019250 0.000000 1.723370 
# 
# From -- ./inp_files/260230.got.cif
#   From: 2010.05.17/outbox.cif.g08.bks.cpg/sg12_131_cif.got.tgz:260230.got - 2010.06.03 13:09:07.
