data_PCOD9206572
_publ_section_title
;
Structure prediction by ZEFSAII (Michael W. Deem and Ramdas Pophale) SiO2 
 PCOD9206572
Probable space group: C 2/M
;
_chemical_formula_sum "Si O2"
_cell_formula_units_Z 44
_cell_length_a 10.016274
_cell_length_b 9.520243
_cell_length_c 22.681430
_cell_angle_alpha 90.000000
_cell_angle_beta 89.744694
_cell_angle_gamma 90.000000
_cell_volume 2162.819869
_symmetry_space_group_name_H-M "C 2/M"
_symmetry_group_IT_number 12
_symmetry_cell_setting 'monoclinic'
loop_
_space_group_symop_operation_xyz
x,y,z
-x,y,-z
-x,-y,-z
x,-y,z
1/2+x,1/2+y,z
1/2-x,1/2+y,-z
1/2-x,1/2-y,-z
1/2+x,1/2-y,z
loop_
_atom_site_type_symbol
_atom_site_label
_atom_site_fract_x
_atom_site_fract_y
_atom_site_fract_z
Si Si1 0.955133 0.334981 0.333704
Si Si2 0.303403 0.167149 0.868759
Si Si3 0.904421 0.230109 0.550487
Si Si4 0.732406 0.836021 0.266661
Si Si5 0.709767 0.000000 0.519163
Si Si6 0.530318 0.332233 0.932686
O O1 0.932300 0.500000 0.346326
O O2 0.007931 0.260465 0.392579
O O3 0.079768 0.324900 0.288348
O O4 0.828137 0.259638 0.305802
O O5 0.260762 0.202337 0.802158
O O6 0.431001 0.252461 0.889462
O O7 0.181432 0.197435 0.913095
O O8 0.330846 0.000000 0.869932
O O9 0.783082 0.124012 0.558448
O O10 0.852687 0.376932 0.524223
O O11 0.000000 0.165003 0.500000
O O12 0.772280 0.000000 0.273369
O O13 0.509642 0.500000 0.927722
O O14 0.500000 0.290489 0.000000
#
# Coordination Sequence:
#
# PCOD9206572 Si02
#       6
#     8   8   8   8   4   8
#     4  11  25  40  61  88 118 148 200 244 287 353
#     4  10  21  39  60  84 121 157 198 240 288 344
#     4  11  24  39  61  85 114 149 187 238 295 351
#     4  10  24  42  60  86 117 158 197 242 289 342
#     4  10  24  40  60  84 116 146 188 228 304 346
#     4  10  21  36  59  91 122 154 195 242 289 343
#
# _framework density 20.343813000000001
#
# number of rings (size 3 to 8) (size 9 to 14) (size 15 to 20)
#    0.000    1.636    0.909    2.182    6.364    2.545 
#    0.000    0.000    0.000    0.000    0.000    0.000 
#    0.000    0.000    0.000    0.000    0.000    0.000 
#
# Total GULP energy -122547.469703 kJ/mol
# GULP energy per Si atom -5570.339532 kJ/mol
# Density = 2.029751 g / cm^3
# Si number density = 20.343813 Si / 1000 Ang^3
#
#
#
# Elastic Constant Matrix: (Units=GPa)
#
#
# Indices 1 2 3 4 5 6 
#
# 1 48.2914 18.3290 -3.9467 0.0000 8.5726 0.0000
# 2 18.3290 63.4214 4.7230 0.0000 15.3134 0.0000
# 3 -3.9467 4.7230 56.0572 0.0000 -2.1633 0.0000
# 4 0.0000 0.0000 0.0000 -1.5758 0.0000 -2.9959
# 5 8.5726 15.3134 -2.1633 0.0000 39.9052 0.0000
# 6 0.0000 0.0000 0.0000 -2.9959 0.0000 11.4415
#
#
#
# Elastic Compliance Matrix: (Units=1/GPa)
#
#
# Indices 1 2 3 4 5 6 
#
# 1 0.023764 -0.006415 0.002116 0.000000 -0.002529 0.000000
# 2 -0.006415 0.019277 -0.002313 0.000000 -0.006145 0.000000
# 3 0.002116 -0.002313 0.018238 0.000000 0.001422 0.000000
# 4 0.000000 0.000000 0.000000 -0.423684 0.000000 -0.110938
# 5 -0.002529 -0.006145 0.001422 0.000000 0.028038 0.000000
# 6 0.000000 0.000000 0.000000 -0.110938 0.000000 0.058353
#
#
# Mechanical properties :
#
#
# Convention : Reuss Voigt Hill
#
# Bulk Modulus (GPa) = 20.80929 22.88675 21.84802
# Shear Modulus (GPa) = -20.26164 19.86515 -0.19824
#
# Velocity S-wave (km/s) = -3.15931 3.12824 -0.31250
# Velocity P-wave (km/s) = 1.74851 4.93176 3.26075
#
# Compressibility (1/GPa) = 0.04805546
#
# Stress axis : x y z
#
# Youngs Moduli (GPa) = 42.08007 51.87403 54.83168
#
# Poissons Ratio (x) = 0.33277 -0.11602
# Poissons Ratio (y) = 0.26994 0.12682
# Poissons Ratio (z) = -0.08904 0.11998
#
# Static dielectric constant tensor:
#      x y z
#    x 1.766330 0.000000 -0.061670 
#    y 0.000000 1.682050 0.000000 
#    z -0.061670 0.000000 1.710250 
# 
# From -- ./inp_files/303583.got.cif
#   From: 2010.05.17/outbox.cif.g08.bks.cpg/sg12_152_cif.got.tgz:303583.got - 2010.06.03 13:09:07.
