data_PCOD9206833
_publ_section_title
;
Structure prediction by ZEFSAII (Michael W. Deem and Ramdas Pophale) SiO2 
 PCOD9206833
Probable space group: C 2/M
;
_chemical_formula_sum "Si O2"
_cell_formula_units_Z 44
_cell_length_a 27.871400
_cell_length_b 13.417297
_cell_length_c 17.948773
_cell_angle_alpha 90.000000
_cell_angle_beta 158.650877
_cell_angle_gamma 90.000000
_cell_volume 2443.540190
_symmetry_space_group_name_H-M "C 2/M"
_symmetry_group_IT_number 12
_symmetry_cell_setting 'monoclinic'
loop_
_space_group_symop_operation_xyz
x,y,z
-x,y,-z
-x,-y,-z
x,-y,z
1/2+x,1/2+y,z
1/2-x,1/2+y,-z
1/2-x,1/2-y,-z
1/2+x,1/2-y,z
loop_
_atom_site_type_symbol
_atom_site_label
_atom_site_fract_x
_atom_site_fract_y
_atom_site_fract_z
Si Si1 0.099430 0.500000 0.810123
Si Si2 0.594045 0.828966 0.440204
Si Si3 0.030063 0.000000 0.922159
Si Si4 0.641947 0.724619 0.663823
Si Si5 0.379639 0.500000 0.171155
Si Si6 0.092469 0.825867 0.897631
Si Si7 0.214723 0.000000 0.333668
Si Si8 0.313052 0.500000 0.238215
O O1 0.012657 0.403044 0.677501
O O2 0.221455 0.500000 0.931206
O O3 0.167146 0.500000 0.989703
O O4 0.648057 0.769151 0.589414
O O5 0.516918 0.758500 0.271444
O O6 0.696349 0.901350 0.546663
O O7 0.065275 0.098145 0.925678
O O8 0.878639 0.000000 0.729498
O O9 0.120292 0.000000 0.125351
O O10 0.500000 0.740416 0.500000
O O11 0.666931 0.605855 0.694814
O O12 0.763151 0.775574 0.884936
O O13 0.423358 0.398020 0.196969
O O14 0.401845 0.500000 0.291181
#
# Coordination Sequence:
#
# PCOD9206833 Si02
#       8
#     4   8   4   8   4   8   4   4
#     4   9  19  35  53  76 116 156 188 228 267 321
#     4  11  22  37  61  85 114 152 196 232 287 340
#     4  10  22  42  64  84 116 136 193 250 299 337
#     4  12  23  34  57  87 120 159 197 224 276 334
#     4   9  19  33  55  77 120 159 182 226 276 316
#     4  11  21  38  58  89 115 152 190 242 280 336
#     4  10  22  43  63  87 107 146 191 249 293 350
#     4  10  21  37  51  79 124 163 183 225 277 318
#
# _framework density 18.006661000000001
#
# number of rings (size 3 to 8) (size 9 to 14) (size 15 to 20)
#    0.545    0.909    3.636    2.455    0.000    4.364 
#    0.000    2.727    0.000    0.000    0.000    2.545 
#    0.000    0.000    0.000    0.000    0.000    0.000 
#
# Total GULP energy -122674.566823 kJ/mol
# GULP energy per Si atom -5576.116674 kJ/mol
# Density = 1.796568 g / cm^3
# Si number density = 18.006661 Si / 1000 Ang^3
#
#
#
# Elastic Constant Matrix: (Units=GPa)
#
#
# Indices 1 2 3 4 5 6 
#
# 1 48.4508 38.7288 17.2273 0.0000 12.8159 0.0000
# 2 38.7288 150.4721 55.6178 0.0000 7.1171 0.0000
# 3 17.2273 55.6178 85.8967 0.0000 5.1329 0.0000
# 4 0.0000 0.0000 0.0000 12.1140 0.0000 -3.2495
# 5 12.8159 7.1171 5.1329 0.0000 27.9370 0.0000
# 6 0.0000 0.0000 0.0000 -3.2495 0.0000 5.8222
#
#
#
# Elastic Compliance Matrix: (Units=1/GPa)
#
#
# Indices 1 2 3 4 5 6 
#
# 1 0.029364 -0.006689 -0.000864 0.000000 -0.011608 0.000000
# 2 -0.006689 0.010300 -0.005414 0.000000 0.001439 0.000000
# 3 -0.000864 -0.005414 0.015384 0.000000 -0.001051 0.000000
# 4 0.000000 0.000000 0.000000 0.097083 0.000000 0.054183
# 5 -0.011608 0.001439 -0.001051 0.000000 0.040946 0.000000
# 6 0.000000 0.000000 0.000000 0.054183 0.000000 0.201997
#
#
# Mechanical properties :
#
#
# Convention : Reuss Voigt Hill
#
# Bulk Modulus (GPa) = 34.34876 56.44083 45.39479
# Shear Modulus (GPa) = 11.60863 20.72436 16.16650
#
# Velocity S-wave (km/s) = 2.54182 3.39621 2.99959
# Velocity P-wave (km/s) = 5.26607 6.84043 6.10422
#
# Compressibility (1/GPa) = 0.02911313
#
# Stress axis : x y z
#
# Youngs Moduli (GPa) = 34.05502 97.08274 65.00458
#
# Poissons Ratio (x) = 0.64942 0.05618
# Poissons Ratio (y) = 0.22781 0.35193
# Poissons Ratio (z) = 0.02943 0.52560
#
# Static dielectric constant tensor:
#      x y z
#    x 1.596290 0.000000 -0.001640 
#    y 0.000000 1.596890 0.000000 
#    z -0.001640 0.000000 1.656680 
# 
# From -- ./inp_files/262767.got.cif
#   From: 2010.05.17/outbox.cif.g08.bks.cpg/sg12_132_cif.got.tgz:262767.got - 2010.06.03 13:09:07.
