data_PCOD9206614
_publ_section_title
;
Structure prediction by ZEFSAII (Michael W. Deem and Ramdas Pophale) SiO2 
 PCOD9206614
Probable space group: C 2/M
;
_chemical_formula_sum "Si O2"
_cell_formula_units_Z 60
_cell_length_a 24.331352
_cell_length_b 22.201457
_cell_length_c 11.877389
_cell_angle_alpha 90.000000
_cell_angle_beta 153.044948
_cell_angle_gamma 90.000000
_cell_volume 2908.346541
_symmetry_space_group_name_H-M "C 2/M"
_symmetry_group_IT_number 12
_symmetry_cell_setting 'monoclinic'
loop_
_space_group_symop_operation_xyz
x,y,z
-x,y,-z
-x,-y,-z
x,-y,z
1/2+x,1/2+y,z
1/2-x,1/2+y,-z
1/2-x,1/2-y,-z
1/2+x,1/2-y,z
loop_
_atom_site_type_symbol
_atom_site_label
_atom_site_fract_x
_atom_site_fract_y
_atom_site_fract_z
Si Si1 0.841471 0.779301 0.381887
Si Si2 0.888293 0.265289 0.714970
Si Si3 0.796031 0.603914 0.820856
Si Si4 0.500000 0.641600 0.500000
Si Si5 0.629286 0.092452 0.279420
Si Si6 0.780539 0.068088 0.092580
Si Si7 0.370372 0.164075 0.308307
Si Si8 0.934797 0.433435 0.609730
O O1 0.899507 0.756328 0.605530
O O2 0.734124 0.825361 0.219204
O O3 0.801938 0.721917 0.234004
O O4 0.933556 0.817373 0.471654
O O5 0.750000 0.250000 0.500000
O O6 0.891284 0.337398 0.729674
O O7 0.000000 0.243378 0.000000
O O8 0.781639 0.587289 0.663608
O O9 0.714148 0.569466 0.761922
O O10 0.932898 0.586808 0.104766
O O11 0.403129 0.596172 0.268163
O O12 0.653483 0.064180 0.443899
O O13 0.500000 0.067963 0.000000
O O14 0.753431 0.000000 0.006222
O O15 0.687026 0.121358 0.891204
O O16 0.500000 0.185901 0.500000
O O17 0.390099 0.116632 0.443686
O O18 0.946525 0.500000 0.580144
#
# Coordination Sequence:
#
# PCOD9206614 Si02
#       8
#     8   8   8   4   8   8   8   8
#     4  11  23  41  62  93 128 161 209 255 318 378
#     4  11  22  38  65  93 129 172 205 262 319 389
#     4  10  21  36  60  86 121 159 200 250 306 369
#     4  10  25  44  62  88 119 168 210 260 302 364
#     4   9  19  35  55  86 118 155 197 245 309 370
#     4  11  24  42  63  86 119 165 213 252 298 367
#     4  12  24  37  61  90 125 158 195 256 316 374
#     4  11  22  37  58  89 126 162 202 253 316 376
#
# _framework density 20.630279999999999
#
# number of rings (size 3 to 8) (size 9 to 14) (size 15 to 20)
#    0.000    1.333    4.667    1.000    0.000    7.733 
#    0.000    0.000    0.000    0.000    0.000    0.000 
#    0.000   11.200    0.000    0.000    0.000    0.000 
#
# Total GULP energy -167222.573083 kJ/mol
# GULP energy per Si atom -5574.085769 kJ/mol
# Density = 2.058332 g / cm^3
# Si number density = 20.630280 Si / 1000 Ang^3
#
#
#
# Elastic Constant Matrix: (Units=GPa)
#
#
# Indices 1 2 3 4 5 6 
#
# 1 107.5262 27.2670 10.7091 0.0000 -10.2685 0.0000
# 2 27.2670 125.6920 18.7389 0.0000 3.1286 0.0000
# 3 10.7091 18.7389 37.3383 0.0000 -0.4251 0.0000
# 4 0.0000 0.0000 0.0000 -985.1395 0.0000 44.4132
# 5 -10.2685 3.1286 -0.4251 0.0000 27.2437 0.0000
# 6 0.0000 0.0000 0.0000 44.4132 0.0000 0.8708
#
#
#
# Elastic Compliance Matrix: (Units=1/GPa)
#
#
# Indices 1 2 3 4 5 6 
#
# 1 0.010411 -0.002079 -0.001896 0.000000 0.004133 0.000000
# 2 -0.002079 0.009045 -0.003965 0.000000 -0.001884 0.000000
# 3 -0.001896 -0.003965 0.029318 0.000000 0.000198 0.000000
# 4 0.000000 0.000000 0.000000 -0.000308 0.000000 0.015691
# 5 0.004133 -0.001884 0.000198 0.000000 0.038483 0.000000
# 6 0.000000 0.000000 0.000000 0.015691 0.000000 0.348054
#
#
# Mechanical properties :
#
#
# Convention : Reuss Voigt Hill
#
# Bulk Modulus (GPa) = 30.39926 42.66515 36.53220
# Shear Modulus (GPa) = 10.82612 -177.14890 -83.16139
#
# Velocity S-wave (km/s) = 2.29327 -9.27657 -6.35593
# Velocity P-wave (km/s) = 4.66684 9.69608 6.00977
#
# Compressibility (1/GPa) = 0.03289554
#
# Stress axis : x y z
#
# Youngs Moduli (GPa) = 96.05524 110.56012 34.10898
#
# Poissons Ratio (x) = 0.22982 0.06466
# Poissons Ratio (y) = 0.19967 0.13523
# Poissons Ratio (z) = 0.18208 0.43832
#
# Static dielectric constant tensor:
#      x y z
#    x 1.851720 0.000000 0.012070 
#    y 0.000000 1.766260 0.000000 
#    z 0.012070 0.000000 1.796360 
# 
# From -- ./inp_files/178036.got.cif
#   From: 2010.05.17/outbox.cif.g08.bks.cpg/sg12_90_cif.got.tgz:178036.got - 2010.06.03 13:09:07.
