data_PCOD9206580
_publ_section_title
;
Structure prediction by ZEFSAII (Michael W. Deem and Ramdas Pophale) SiO2 
 PCOD9206580
Probable space group: C 2/M
;
_chemical_formula_sum "Si O2"
_cell_formula_units_Z 64
_cell_length_a 28.481749
_cell_length_b 18.727888
_cell_length_c 5.499497
_cell_angle_alpha 90.000000
_cell_angle_beta 103.672200
_cell_angle_gamma 90.000000
_cell_volume 2850.325803
_symmetry_space_group_name_H-M "C 2/M"
_symmetry_group_IT_number 12
_symmetry_cell_setting 'monoclinic'
loop_
_space_group_symop_operation_xyz
x,y,z
-x,y,-z
-x,-y,-z
x,-y,z
1/2+x,1/2+y,z
1/2-x,1/2+y,-z
1/2-x,1/2-y,-z
1/2+x,1/2-y,z
loop_
_atom_site_type_symbol
_atom_site_label
_atom_site_fract_x
_atom_site_fract_y
_atom_site_fract_z
Si Si1 0.058316 0.918967 0.105705
Si Si2 0.273498 0.341640 0.775174
Si Si3 0.970047 0.781117 0.709856
Si Si4 0.249556 0.420837 0.247790
Si Si5 0.826556 0.284764 0.371343
Si Si6 0.644261 0.079398 0.928074
Si Si7 0.599299 0.185389 0.160928
Si Si8 0.123466 0.818132 0.907881
O O1 0.061590 0.854352 0.305883
O O2 0.088740 0.885937 0.914921
O O3 0.074744 0.000000 0.183132
O O4 0.000000 0.924443 0.000000
O O5 0.263299 0.382952 0.513749
O O6 0.231424 0.281133 0.722440
O O7 0.329957 0.325983 0.861260
O O8 0.264693 0.385299 0.012628
O O9 0.938411 0.708911 0.680417
O O10 0.000000 0.785377 0.500000
O O11 0.000000 0.779262 0.000000
O O12 0.270810 0.500000 0.279914
O O13 0.191718 0.426273 0.153668
O O14 0.847932 0.303086 0.658326
O O15 0.842891 0.355189 0.237309
O O16 0.851316 0.212260 0.304810
O O17 0.599983 0.109194 0.035017
O O18 0.636531 0.000000 0.812400
O O19 0.593951 0.248460 0.958109
#
# Coordination Sequence:
#
# PCOD9206580 Si02
#       8
#     8   8   8   8   8   8   8   8
#     4   9  20  41  65  90 122 163 214 266 320 375
#     4  11  22  38  58  88 123 164 207 255 314 372
#     4  10  23  40  67  95 124 161 205 262 322 375
#     4  10  21  37  56  83 121 162 203 250 302 368
#     4  10  21  36  59  92 121 163 208 259 304 379
#     4   9  19  36  57  87 121 160 205 250 299 359
#     4  10  21  37  62  88 121 158 207 253 310 375
#     4  10  23  37  60  86 125 162 205 260 319 378
#
# _framework density 22.453576000000002
#
# number of rings (size 3 to 8) (size 9 to 14) (size 15 to 20)
#    0.000    2.125    1.250    0.750    8.750    2.750 
#    0.000    0.000    0.000    0.750    0.000    0.000 
#    0.000    0.000    0.000    0.000    0.000    0.000 
#
# Total GULP energy -178241.462302 kJ/mol
# GULP energy per Si atom -5570.045697 kJ/mol
# Density = 2.240247 g / cm^3
# Si number density = 22.453576 Si / 1000 Ang^3
#
#
#
# Elastic Constant Matrix: (Units=GPa)
#
#
# Indices 1 2 3 4 5 6 
#
# 1 87.5659 52.3079 24.2137 0.0000 -12.2171 0.0000
# 2 52.3079 123.8666 37.7156 0.0000 -19.7948 0.0000
# 3 24.2137 37.7156 100.3037 0.0000 -10.9305 0.0000
# 4 0.0000 0.0000 0.0000 14.2599 0.0000 6.6785
# 5 -12.2171 -19.7948 -10.9305 0.0000 37.2628 0.0000
# 6 0.0000 0.0000 0.0000 6.6785 0.0000 15.2577
#
#
#
# Elastic Compliance Matrix: (Units=1/GPa)
#
#
# Indices 1 2 3 4 5 6 
#
# 1 0.015537 -0.005897 -0.001363 0.000000 0.001562 0.000000
# 2 -0.005897 0.011959 -0.002677 0.000000 0.003634 0.000000
# 3 -0.001363 -0.002677 0.011468 0.000000 0.001495 0.000000
# 4 0.000000 0.000000 0.000000 0.088210 0.000000 -0.038610
# 5 0.001562 0.003634 0.001495 0.000000 0.029718 0.000000
# 6 0.000000 0.000000 0.000000 -0.038610 0.000000 0.082441
#
#
# Mechanical properties :
#
#
# Convention : Reuss Voigt Hill
#
# Bulk Modulus (GPa) = 52.38225 60.02339 56.20282
# Shear Modulus (GPa) = 18.82737 26.52268 22.67502
#
# Velocity S-wave (km/s) = 2.89883 3.44062 3.18128
# Velocity P-wave (km/s) = 5.88082 6.52488 6.21121
#
# Compressibility (1/GPa) = 0.01909044
#
# Stress axis : x y z
#
# Youngs Moduli (GPa) = 64.36173 83.61716 87.19562
#
# Poissons Ratio (x) = 0.49305 0.11888
# Poissons Ratio (y) = 0.37951 0.23345
# Poissons Ratio (z) = 0.08775 0.22387
#
# Static dielectric constant tensor:
#      x y z
#    x 1.951440 0.000000 -0.019890 
#    y 0.000000 1.877360 0.000000 
#    z -0.019890 0.000000 1.883120 
# 
# From -- ./inp_files/32046.got.cif
#   From: 2010.05.17/outbox.cif.g08.bks.cpg/sg12_17_cif.got.tgz:32046.got - 2010.06.03 13:09:07.
