data_PCOD9206656
_publ_section_title
;
Structure prediction by ZEFSAII (Michael W. Deem and Ramdas Pophale) SiO2 
 PCOD9206656
Probable space group: C 2/M
;
_chemical_formula_sum "Si O2"
_cell_formula_units_Z 42
_cell_length_a 8.677412
_cell_length_b 15.321183
_cell_length_c 16.751288
_cell_angle_alpha 90.000000
_cell_angle_beta 66.195055
_cell_angle_gamma 90.000000
_cell_volume 2037.586902
_symmetry_space_group_name_H-M "C 2/M"
_symmetry_group_IT_number 12
_symmetry_cell_setting 'monoclinic'
loop_
_space_group_symop_operation_xyz
x,y,z
-x,y,-z
-x,-y,-z
x,-y,z
1/2+x,1/2+y,z
1/2-x,1/2+y,-z
1/2-x,1/2-y,-z
1/2+x,1/2-y,z
loop_
_atom_site_type_symbol
_atom_site_label
_atom_site_fract_x
_atom_site_fract_y
_atom_site_fract_z
Si Si1 0.108669 0.816640 0.557139
Si Si2 0.195747 0.354372 0.208007
Si Si3 0.303515 0.500000 0.060934
Si Si4 0.821130 0.000000 0.489059
Si Si5 0.941215 0.500000 0.316133
Si Si6 0.234221 0.000000 0.198799
Si Si7 0.975477 0.820605 0.757142
Si Si8 0.500000 0.000000 0.000000
O O1 0.250000 0.750000 0.500000
O O2 0.000000 0.824366 0.500000
O O3 0.003756 0.795744 0.657989
O O4 0.183538 0.912027 0.560039
O O5 0.263059 0.415450 0.123097
O O6 0.120993 0.264185 0.189821
O O7 0.346733 0.331844 0.236451
O O8 0.055516 0.414055 0.281113
O O9 0.500000 0.500000 0.000000
O O10 0.182696 0.500000 0.009724
O O11 0.000000 0.000000 0.500000
O O12 0.665552 0.000000 0.581466
O O13 0.804986 0.500000 0.273767
O O14 0.126018 0.911180 0.211974
O O15 0.396146 0.000000 0.107516
#
# Coordination Sequence:
#
# PCOD9206656 Si02
#       8
#     8   8   4   4   4   4   8   2
#     4  11  22  39  60  94 132 174 230 286 337 397
#     4  11  24  43  68 100 134 183 231 277 353 418
#     4  11  25  51  74 108 144 176 227 298 350 433
#     4  10  21  36  60  91 126 177 225 278 336 401
#     4  11  21  43  66  94 136 178 230 283 346 419
#     4  12  23  43  70  96 137 180 229 283 353 423
#     4  12  24  42  68  99 138 188 231 285 348 417
#     4  12  24  46  78 102 138 176 232 282 370 400
#
# _framework density 20.612617
#
# number of rings (size 3 to 8) (size 9 to 14) (size 15 to 20)
#    0.000    0.762    1.905    8.571    0.000    0.000 
#    1.714    3.333    0.000    0.000    0.000    0.000 
#    0.000    0.000    0.000    0.000    0.000    0.000 
#
# Total GULP energy -117148.252570 kJ/mol
# GULP energy per Si atom -5578.488218 kJ/mol
# Density = 2.056570 g / cm^3
# Si number density = 20.612617 Si / 1000 Ang^3
#
#
#
# Elastic Constant Matrix: (Units=GPa)
#
#
# Indices 1 2 3 4 5 6 
#
# 1 112.0454 42.3088 -9.3521 0.0000 -5.1400 0.0000
# 2 42.3088 170.7689 6.2491 0.0000 -22.6164 0.0000
# 3 -9.3521 6.2491 57.9483 0.0000 -14.3254 0.0000
# 4 0.0000 0.0000 0.0000 0.2827 0.0000 -3.1789
# 5 -5.1400 -22.6164 -14.3254 0.0000 45.1830 0.0000
# 6 0.0000 0.0000 0.0000 -3.1789 0.0000 32.5427
#
#
#
# Elastic Compliance Matrix: (Units=1/GPa)
#
#
# Indices 1 2 3 4 5 6 
#
# 1 0.010061 -0.002496 0.002026 0.000000 0.000538 0.000000
# 2 -0.002496 0.006891 -0.000394 0.000000 0.003041 0.000000
# 3 0.002026 -0.000394 0.019134 0.000000 0.006100 0.000000
# 4 0.000000 0.000000 0.000000-35.977008 0.000000 -3.514349
# 5 0.000538 0.003041 0.006100 0.000000 0.025649 0.000000
# 6 0.000000 0.000000 0.000000 -3.514349 0.000000 -0.312564
#
#
# Mechanical properties :
#
#
# Convention : Reuss Voigt Hill
#
# Bulk Modulus (GPa) = 29.10510 46.57491 37.84001
# Shear Modulus (GPa) = -0.13807 35.70548 17.78371
#
# Velocity S-wave (km/s) = -0.25909 4.16650 2.94046
# Velocity P-wave (km/s) = 3.74983 6.76688 5.47046
#
# Compressibility (1/GPa) = 0.03435824
#
# Stress axis : x y z
#
# Youngs Moduli (GPa) = 99.39321 145.11102 52.26270
#
# Poissons Ratio (x) = 0.36214 -0.10587
# Poissons Ratio (y) = 0.24805 0.02060
# Poissons Ratio (z) = -0.20135 0.05721
#
# Static dielectric constant tensor:
#      x y z
#    x 1.718880 0.000000 0.004330 
#    y 0.000000 1.794070 0.000000 
#    z 0.004330 0.000000 1.711270 
# 
# From -- ./inp_files/255333.got.cif
#   From: 2010.05.17/outbox.cif.g08.bks.cpg/sg12_128_cif.got.tgz:255333.got - 2010.06.03 13:09:07.
