data_PCOD9206024
_publ_section_title
;
Structure prediction by ZEFSAII (Michael W. Deem and Ramdas Pophale) SiO2 
 PCOD9206024
Probable space group: C 2/M
;
_chemical_formula_sum "Si O2"
_cell_formula_units_Z 48
_cell_length_a 19.529910
_cell_length_b 7.972424
_cell_length_c 12.087690
_cell_angle_alpha 90.000000
_cell_angle_beta 95.130836
_cell_angle_gamma 90.000000
_cell_volume 1874.520801
_symmetry_space_group_name_H-M "C 2/M"
_symmetry_group_IT_number 12
_symmetry_cell_setting 'monoclinic'
loop_
_space_group_symop_operation_xyz
x,y,z
-x,y,-z
-x,-y,-z
x,-y,z
1/2+x,1/2+y,z
1/2-x,1/2+y,-z
1/2-x,1/2-y,-z
1/2+x,1/2-y,z
loop_
_atom_site_type_symbol
_atom_site_label
_atom_site_fract_x
_atom_site_fract_y
_atom_site_fract_z
Si Si1 0.738420 0.701049 0.124015
Si Si2 0.505144 0.201393 0.374605
Si Si3 0.657934 0.795737 0.415598
Si Si4 0.696840 0.193518 0.657616
Si Si5 0.411821 0.812207 0.913822
Si Si6 0.946770 0.813266 0.145586
O O1 0.737098 0.500000 0.132707
O O2 0.795659 0.767636 0.218531
O O3 0.663130 0.771070 0.141019
O O4 0.750000 0.750000 0.000000
O O5 0.500000 0.262845 0.500000
O O6 0.584012 0.240926 0.353325
O O7 0.451933 0.264010 0.274892
O O8 0.498612 0.000000 0.376853
O O9 0.656495 0.741269 0.545098
O O10 0.723561 0.707074 0.372244
O O11 0.668308 0.000000 0.414191
O O12 0.675474 0.000000 0.665765
O O13 0.473060 0.695385 0.881632
O O14 0.431919 0.000000 0.883863
O O15 0.410341 0.800372 0.047873
O O16 0.920135 0.000000 0.127816
#
# Coordination Sequence:
#
# PCOD9206024 Si02
#       6
#     8   8   8   8   8   8
#     4  11  23  38  56  83 118 153 189 231 282 338
#     4  10  21  36  55  81 114 151 189 228 276 337
#     4   9  18  34  56  80 105 138 182 227 271 323
#     4   9  19  35  55  79 107 141 181 226 273 322
#     4  11  22  39  62  85 111 147 192 238 288 344
#     4  11  22  38  60  86 115 146 188 240 290 342
#
# _framework density 25.606542000000001
#
# number of rings (size 3 to 8) (size 9 to 14) (size 15 to 20)
#    0.000    1.833    0.000    5.500    0.000    6.333 
#    0.000    3.333    0.000    0.000    0.000    0.000 
#    0.000    0.000    0.000    0.000    0.000    0.000 
#
# Total GULP energy -134295.120141 kJ/mol
# GULP energy per Si atom -5595.630006 kJ/mol
# Density = 2.554826 g / cm^3
# Si number density = 25.606542 Si / 1000 Ang^3
#
#
#
# Elastic Constant Matrix: (Units=GPa)
#
#
# Indices 1 2 3 4 5 6 
#
# 1 78.7406 0.3620 7.2957 0.0000 21.6272 0.0000
# 2 0.3620 68.4282 -4.2349 0.0000 4.4123 0.0000
# 3 7.2957 -4.2349 167.9536 0.0000 21.2666 0.0000
# 4 0.0000 0.0000 0.0000 28.3558 0.0000 -2.5104
# 5 21.6272 4.4123 21.2666 0.0000 57.2347 0.0000
# 6 0.0000 0.0000 0.0000 -2.5104 0.0000 20.4585
#
#
#
# Elastic Compliance Matrix: (Units=1/GPa)
#
#
# Indices 1 2 3 4 5 6 
#
# 1 0.014177 0.000278 0.000076 0.000000 -0.005406 0.000000
# 2 0.000278 0.014739 0.000542 0.000000 -0.001443 0.000000
# 3 0.000076 0.000542 0.006268 0.000000 -0.002400 0.000000
# 4 0.000000 0.000000 0.000000 0.035653 0.000000 0.004375
# 5 -0.005406 -0.001443 -0.002400 0.000000 0.020518 0.000000
# 6 0.000000 0.000000 0.000000 0.004375 0.000000 0.049416
#
#
# Mechanical properties :
#
#
# Convention : Reuss Voigt Hill
#
# Bulk Modulus (GPa) = 27.04421 35.77422 31.40921
# Shear Modulus (GPa) = 33.04602 41.98975 37.51788
#
# Velocity S-wave (km/s) = 3.59629 4.05384 3.83190
# Velocity P-wave (km/s) = 5.27530 5.99271 5.64541
#
# Compressibility (1/GPa) = 0.03697650
#
# Stress axis : x y z
#
# Youngs Moduli (GPa) = 70.53882 67.84729 159.53444
#
# Poissons Ratio (x) = -0.01888 -0.01209
# Poissons Ratio (y) = -0.01963 -0.08651
# Poissons Ratio (z) = -0.00535 -0.03679
#
# Static dielectric constant tensor:
#      x y z
#    x 2.027010 0.000000 -0.072640 
#    y 0.000000 1.937260 0.000000 
#    z -0.072640 0.000000 2.101200 
# 
# From -- ./inp_files/172381.got.cif
#   From: 2010.05.17/outbox.cif.g08.bks.cpg/sg12_87_cif.got.tgz:172381.got - 2010.06.03 13:09:07.
