data_PCOD9206489
_publ_section_title
;
Structure prediction by ZEFSAII (Michael W. Deem and Ramdas Pophale) SiO2 
 PCOD9206489
Probable space group: C 2/M
;
_chemical_formula_sum "Si O2"
_cell_formula_units_Z 48
_cell_length_a 8.359601
_cell_length_b 28.578864
_cell_length_c 12.478199
_cell_angle_alpha 90.000000
_cell_angle_beta 49.255462
_cell_angle_gamma 90.000000
_cell_volume 2258.593018
_symmetry_space_group_name_H-M "C 2/M"
_symmetry_group_IT_number 12
_symmetry_cell_setting 'monoclinic'
loop_
_space_group_symop_operation_xyz
x,y,z
-x,y,-z
-x,-y,-z
x,-y,z
1/2+x,1/2+y,z
1/2-x,1/2+y,-z
1/2-x,1/2-y,-z
1/2+x,1/2-y,z
loop_
_atom_site_type_symbol
_atom_site_label
_atom_site_fract_x
_atom_site_fract_y
_atom_site_fract_z
Si Si1 0.588668 0.642601 0.344750
Si Si2 0.777680 0.815289 0.157985
Si Si3 0.244816 0.417369 0.411686
Si Si4 0.823197 0.448912 0.318722
Si Si5 0.086640 0.277717 0.840736
Si Si6 0.289861 0.424247 0.163397
O O1 0.500000 0.655350 0.500000
O O2 0.390719 0.627964 0.360403
O O3 0.725938 0.595057 0.298988
O O4 0.730109 0.684076 0.240803
O O5 0.823507 0.774116 0.223330
O O6 0.596031 0.794700 0.159727
O O7 0.729832 0.869037 0.205608
O O8 0.000000 0.819982 0.000000
O O9 0.250162 0.442937 0.524710
O O10 0.320272 0.443064 0.270954
O O11 0.000000 0.406774 0.500000
O O12 0.755915 0.500000 0.308980
O O13 0.077706 0.445767 0.206519
O O14 0.000000 0.276433 0.000000
O O15 0.500000 0.429360 0.000000
#
# Coordination Sequence:
#
# PCOD9206489 Si02
#       6
#     8   8   8   8   8   8
#     4  10  22  39  58  89 121 155 199 248 300 347
#     4  10  21  36  58  92 123 158 200 239 289 358
#     4   9  21  37  60  85 113 157 196 239 293 360
#     4  10  21  42  63  85 118 159 202 245 296 361
#     4  11  22  37  62  89 122 161 202 241 292 359
#     4  10  21  37  61  91 123 154 198 248 296 345
#
# _framework density 21.252168999999999
#
# number of rings (size 3 to 8) (size 9 to 14) (size 15 to 20)
#    0.000    2.000    1.667    2.000    7.000    6.333 
#    0.000    3.333    0.000    3.500    0.000    0.000 
#    0.000    0.000    0.000    0.000    0.000    0.000 
#
# Total GULP energy -133941.292536 kJ/mol
# GULP energy per Si atom -5580.887189 kJ/mol
# Density = 2.120380 g / cm^3
# Si number density = 21.252169 Si / 1000 Ang^3
#
#
#
# Elastic Constant Matrix: (Units=GPa)
#
#
# Indices 1 2 3 4 5 6 
#
# 1 50.0979 -1.1925 6.0336 0.0000 -1.8175 0.0000
# 2 -1.1925 136.5036 19.7565 0.0000 -6.2599 0.0000
# 3 6.0336 19.7565 94.5721 0.0000 -7.9008 0.0000
# 4 0.0000 0.0000 0.0000 14.0744 0.0000 -9.9683
# 5 -1.8175 -6.2599 -7.9008 0.0000 19.3686 0.0000
# 6 0.0000 0.0000 0.0000 -9.9683 0.0000 1.3036
#
#
#
# Elastic Compliance Matrix: (Units=1/GPa)
#
#
# Indices 1 2 3 4 5 6 
#
# 1 0.020177 0.000427 -0.001249 0.000000 0.001522 0.000000
# 2 0.000427 0.007629 -0.001461 0.000000 0.001909 0.000000
# 3 -0.001249 -0.001461 0.011295 0.000000 0.004018 0.000000
# 4 0.000000 0.000000 0.000000 -0.016091 0.000000 -0.123037
# 5 0.001522 0.001909 0.004018 0.000000 0.054029 0.000000
# 6 0.000000 0.000000 0.000000 -0.123037 0.000000 -0.173718
#
#
# Mechanical properties :
#
#
# Convention : Reuss Voigt Hill
#
# Bulk Modulus (GPa) = 28.95837 36.70764 32.83301
# Shear Modulus (GPa) = -62.03369 24.05440 -18.98965
#
# Velocity S-wave (km/s) = -5.40858 3.36796 -2.99246
# Velocity P-wave (km/s) = 5.03468 5.69509 1.88230
#
# Compressibility (1/GPa) = 0.03453233
#
# Stress axis : x y z
#
# Youngs Moduli (GPa) = 49.56205 131.08538 88.53805
#
# Poissons Ratio (x) = -0.05596 0.11061
# Poissons Ratio (y) = -0.02116 0.12939
# Poissons Ratio (z) = 0.06192 0.19156
#
# Static dielectric constant tensor:
#      x y z
#    x 1.805020 0.000000 0.022210 
#    y 0.000000 1.790240 0.000000 
#    z 0.022210 0.000000 1.756610 
# 
# From -- ./inp_files/170793.got.cif
#   From: 2010.05.17/outbox.cif.g08.bks.cpg/sg12_86_cif.got.tgz:170793.got - 2010.06.03 13:09:07.
