data_PCOD9206688
_publ_section_title
;
Structure prediction by ZEFSAII (Michael W. Deem and Ramdas Pophale) SiO2 
 PCOD9206688
Probable space group: C 2/M
;
_chemical_formula_sum "Si O2"
_cell_formula_units_Z 44
_cell_length_a 19.830412
_cell_length_b 18.193806
_cell_length_c 5.110311
_cell_angle_alpha 90.000000
_cell_angle_beta 79.001559
_cell_angle_gamma 90.000000
_cell_volume 1809.887169
_symmetry_space_group_name_H-M "C 2/M"
_symmetry_group_IT_number 12
_symmetry_cell_setting 'monoclinic'
loop_
_space_group_symop_operation_xyz
x,y,z
-x,y,-z
-x,-y,-z
x,-y,z
1/2+x,1/2+y,z
1/2-x,1/2+y,-z
1/2-x,1/2-y,-z
1/2+x,1/2-y,z
loop_
_atom_site_type_symbol
_atom_site_label
_atom_site_fract_x
_atom_site_fract_y
_atom_site_fract_z
Si Si1 0.129973 0.164732 0.496891
Si Si2 0.077966 0.086396 0.019585
Si Si3 0.803178 0.274882 0.181499
Si Si4 0.500000 0.113865 0.000000
Si Si5 0.420428 0.198690 0.682720
Si Si6 0.643746 0.083152 0.655771
O O1 0.119388 0.123016 0.229654
O O2 0.074893 0.230249 0.501511
O O3 0.118679 0.105025 0.726867
O O4 0.189520 0.218080 0.578357
O O5 0.072328 0.000000 0.078587
O O6 0.000000 0.112618 0.000000
O O7 0.875571 0.273213 0.966425
O O8 0.750000 0.250000 0.000000
O O9 0.801142 0.362002 0.252926
O O10 0.486533 0.163655 0.761509
O O11 0.573000 0.076855 0.880145
O O12 0.378525 0.132031 0.577600
O O13 0.666593 0.000000 0.583375
#
# Coordination Sequence:
#
# PCOD9206688 Si02
#       6
#     8   8   8   4   8   8
#     4  11  22  41  64  94 127 169 222 276 326 399
#     4  11  24  40  63  94 134 175 214 269 338 400
#     4  10  23  45  70  90 126 175 231 280 335 386
#     4  10  21  36  60  96 137 178 216 260 327 404
#     4  10  22  38  62  97 125 173 220 265 330 397
#     4  10  22  38  60  95 137 174 217 268 333 400
#
# _framework density 24.310905999999999
#
# number of rings (size 3 to 8) (size 9 to 14) (size 15 to 20)
#    0.000    1.636    1.818    1.909    1.273   13.091 
#    0.000    1.818    0.000    0.000    0.000    0.000 
#    0.000    0.000    0.000    0.000    0.000    0.000 
#
# Total GULP energy -122604.326584 kJ/mol
# GULP energy per Si atom -5572.923936 kJ/mol
# Density = 2.425557 g / cm^3
# Si number density = 24.310906 Si / 1000 Ang^3
#
#
#
# Elastic Constant Matrix: (Units=GPa)
#
#
# Indices 1 2 3 4 5 6 
#
# 1 55.1869 23.4150 9.2262 0.0000 27.0416 0.0000
# 2 23.4150 144.6378 56.1180 0.0000 19.7381 0.0000
# 3 9.2262 56.1180 174.2561 0.0000 34.5520 0.0000
# 4 0.0000 0.0000 0.0000 24.3222 0.0000 -6.3873
# 5 27.0416 19.7381 34.5520 0.0000 41.4029 0.0000
# 6 0.0000 0.0000 0.0000 -6.3873 0.0000 19.7999
#
#
#
# Elastic Compliance Matrix: (Units=1/GPa)
#
#
# Indices 1 2 3 4 5 6 
#
# 1 0.028827 -0.003281 0.003539 0.000000 -0.020217 0.000000
# 2 -0.003281 0.008411 -0.002594 0.000000 0.000298 0.000000
# 3 0.003539 -0.002594 0.007908 0.000000 -0.007675 0.000000
# 4 0.000000 0.000000 0.000000 0.044920 0.000000 0.014491
# 5 -0.020217 0.000298 -0.007675 0.000000 0.043620 0.000000
# 6 0.000000 0.000000 0.000000 0.014491 0.000000 0.055180
#
#
# Mechanical properties :
#
#
# Convention : Reuss Voigt Hill
#
# Bulk Modulus (GPa) = 24.70688 61.28878 42.99783
# Shear Modulus (GPa) = 24.15114 36.12644 30.13879
#
# Velocity S-wave (km/s) = 3.15529 3.85907 3.52479
# Velocity P-wave (km/s) = 4.84349 6.71727 5.85581
#
# Compressibility (1/GPa) = 0.04047456
#
# Stress axis : x y z
#
# Youngs Moduli (GPa) = 34.68965 118.89566 126.44728
#
# Poissons Ratio (x) = 0.39008 -0.44750
# Poissons Ratio (y) = 0.11381 0.32800
# Poissons Ratio (z) = -0.12277 0.30841
#
# Static dielectric constant tensor:
#      x y z
#    x 2.237420 0.000000 -0.148610 
#    y 0.000000 1.898860 0.000000 
#    z -0.148610 0.000000 2.004370 
# 
# From -- ./inp_files/24877.got.cif
#   From: 2010.05.17/outbox.cif.g08.bks.cpg/sg12_13_cif.got.tgz:24877.got - 2010.06.03 13:09:07.
