data_PCOD9206208
_publ_section_title
;
Structure prediction by ZEFSAII (Michael W. Deem and Ramdas Pophale) SiO2 
 PCOD9206208
Probable space group: C 2/M
;
_chemical_formula_sum "Si O2"
_cell_formula_units_Z 36
_cell_length_a 9.861383
_cell_length_b 27.310360
_cell_length_c 11.023429
_cell_angle_alpha 90.000000
_cell_angle_beta 37.916574
_cell_angle_gamma 90.000000
_cell_volume 1824.371763
_symmetry_space_group_name_H-M "C 2/M"
_symmetry_group_IT_number 12
_symmetry_cell_setting 'monoclinic'
loop_
_space_group_symop_operation_xyz
x,y,z
-x,y,-z
-x,-y,-z
x,-y,z
1/2+x,1/2+y,z
1/2-x,1/2+y,-z
1/2-x,1/2-y,-z
1/2+x,1/2-y,z
loop_
_atom_site_type_symbol
_atom_site_label
_atom_site_fract_x
_atom_site_fract_y
_atom_site_fract_z
Si Si1 0.000000 0.368240 0.000000
Si Si2 0.189071 0.806837 0.040946
Si Si3 0.741615 0.055723 0.653944
Si Si4 0.251329 0.446789 0.362685
Si Si5 0.250922 0.844644 0.724949
O O1 0.821185 0.335445 0.053152
O O2 0.117327 0.404015 0.820345
O O3 0.250473 0.828689 0.865148
O O4 0.250000 0.750000 0.000000
O O5 0.923467 0.812996 0.229624
O O6 0.734299 0.065585 0.516208
O O7 0.000000 0.056133 0.500000
O O8 0.656863 0.000000 0.735569
O O9 0.364040 0.500000 0.267973
O O10 0.337882 0.400176 0.229860
O O11 0.000000 0.451923 0.500000
O O12 0.500000 0.841880 0.500000
#
# Coordination Sequence:
#
# PCOD9206208 Si02
#       5
#     4   8   8   8   8
#     4  12  21  36  62  86 118 160 193 234 302 356
#     4  11  25  42  59  86 120 151 198 257 293 334
#     4  10  21  36  56  87 123 154 189 234 285 351
#     4   9  17  33  58  86 116 148 186 233 280 338
#     4  10  21  42  65  86 116 156 197 237 292 352
#
# _framework density 19.732821000000001
#
# number of rings (size 3 to 8) (size 9 to 14) (size 15 to 20)
#    0.000    1.778    0.000    5.667    0.000    0.889 
#    0.000    8.889    0.000    0.000    0.000    0.000 
#    0.000    0.000    0.000    0.000    0.000    0.000 
#
# Total GULP energy -100427.178065 kJ/mol
# GULP energy per Si atom -5579.287670 kJ/mol
# Density = 1.968791 g / cm^3
# Si number density = 19.732821 Si / 1000 Ang^3
#
#
#
# Elastic Constant Matrix: (Units=GPa)
#
#
# Indices 1 2 3 4 5 6 
#
# 1 172.6319 62.4289 42.4907 0.0000 8.1639 0.0000
# 2 62.4289 182.1493 49.7543 0.0000 15.7621 0.0000
# 3 42.4907 49.7543 78.5599 0.0000 -4.8022 0.0000
# 4 0.0000 0.0000 0.0000 26.6109 0.0000 -1.5713
# 5 8.1639 15.7621 -4.8022 0.0000 29.1261 0.0000
# 6 0.0000 0.0000 0.0000 -1.5713 0.0000 33.0831
#
#
#
# Elastic Compliance Matrix: (Units=1/GPa)
#
#
# Indices 1 2 3 4 5 6 
#
# 1 0.007155 -0.001474 -0.003041 0.000000 -0.001709 0.000000
# 2 -0.001474 0.007530 -0.004239 0.000000 -0.004361 0.000000
# 3 -0.003041 -0.004239 0.017426 0.000000 0.006019 0.000000
# 4 0.000000 0.000000 0.000000 0.037684 0.000000 0.001790
# 5 -0.001709 -0.004361 0.006019 0.000000 0.038165 0.000000
# 6 0.000000 0.000000 0.000000 0.001790 0.000000 0.030312
#
#
# Mechanical properties :
#
#
# Convention : Reuss Voigt Hill
#
# Bulk Modulus (GPa) = 68.47058 82.52101 75.49580
# Shear Modulus (GPa) = 31.12397 36.34182 33.73289
#
# Velocity S-wave (km/s) = 3.97579 4.29615 4.13907
# Velocity P-wave (km/s) = 7.47329 8.15593 7.82206
#
# Compressibility (1/GPa) = 0.01460481
#
# Stress axis : x y z
#
# Youngs Moduli (GPa) = 139.76350 132.79802 57.38423
#
# Poissons Ratio (x) = 0.19570 0.17451
# Poissons Ratio (y) = 0.20596 0.24323
# Poissons Ratio (z) = 0.42503 0.56288
#
# Static dielectric constant tensor:
#      x y z
#    x 1.650930 0.000000 -0.026290 
#    y 0.000000 1.760490 0.000000 
#    z -0.026290 0.000000 1.664800 
# 
# From -- ./inp_files/123338.got.cif
#   From: 2010.05.17/outbox.cif.g08.bks.cpg/sg12_62_cif.got.tgz:123338.got - 2010.06.03 13:09:07.
