data_PCOD9206293
_publ_section_title
;
Structure prediction by ZEFSAII (Michael W. Deem and Ramdas Pophale) SiO2 
 PCOD9206293
Probable space group: C 2/M
;
_chemical_formula_sum "Si O2"
_cell_formula_units_Z 48
_cell_length_a 21.670962
_cell_length_b 9.298747
_cell_length_c 21.674210
_cell_angle_alpha 90.000000
_cell_angle_beta 33.164821
_cell_angle_gamma 90.000000
_cell_volume 2389.309501
_symmetry_space_group_name_H-M "C 2/M"
_symmetry_group_IT_number 12
_symmetry_cell_setting 'monoclinic'
loop_
_space_group_symop_operation_xyz
x,y,z
-x,y,-z
-x,-y,-z
x,-y,z
1/2+x,1/2+y,z
1/2-x,1/2+y,-z
1/2-x,1/2-y,-z
1/2+x,1/2-y,z
loop_
_atom_site_type_symbol
_atom_site_label
_atom_site_fract_x
_atom_site_fract_y
_atom_site_fract_z
Si Si1 0.334252 0.168671 0.749852
Si Si2 0.398729 0.331621 0.129636
Si Si3 0.413299 0.337139 0.334223
Si Si4 0.445351 0.330871 0.454496
Si Si5 0.802827 0.328791 0.321736
Si Si6 0.174293 0.831277 0.112838
O O1 0.219832 0.180956 0.806885
O O2 0.443811 0.238350 0.625692
O O3 0.317078 0.254107 0.828190
O O4 0.355381 0.000000 0.744451
O O5 0.417690 0.500000 0.128847
O O6 0.385358 0.241574 0.202908
O O7 0.500000 0.284973 0.000000
O O8 0.373372 0.500000 0.355541
O O9 0.420974 0.317738 0.401310
O O10 0.337829 0.227294 0.359742
O O11 0.542826 0.323933 0.203895
O O12 0.467618 0.500000 0.448356
O O13 0.327056 0.286882 0.583682
O O14 0.808270 0.500000 0.315370
O O15 0.203900 0.000000 0.093287
O O16 0.250000 0.750000 0.000000
#
# Coordination Sequence:
#
# PCOD9206293 Si02
#       6
#     8   8   8   8   8   8
#     4  10  21  38  61  86 112 150 200 245 287 344
#     4  10  24  44  61  80 114 158 198 240 294 351
#     4   9  19  36  57  83 119 158 190 229 289 350
#     4   9  20  39  60  87 122 155 187 237 301 351
#     4  11  23  37  59  90 119 152 197 243 291 346
#     4  10  21  36  57  85 118 155 192 237 292 345
#
# _framework density 20.089486000000001
#
# number of rings (size 3 to 8) (size 9 to 14) (size 15 to 20)
#    0.000    2.167    0.000    3.000    2.333    7.000 
#    0.000    3.333    0.000    0.000    0.000    0.000 
#    0.000    0.000    0.000    0.000    0.000    0.000 
#
# Total GULP energy -134087.703626 kJ/mol
# GULP energy per Si atom -5586.987651 kJ/mol
# Density = 2.004376 g / cm^3
# Si number density = 20.089486 Si / 1000 Ang^3
#
#
#
# Elastic Constant Matrix: (Units=GPa)
#
#
# Indices 1 2 3 4 5 6 
#
# 1 47.5419 30.3342 8.8968 0.0000 -3.1008 0.0000
# 2 30.3342 75.0315 37.3278 -0.0001 -8.1052 0.0001
# 3 8.8968 37.3278 107.3779 -0.0001 -1.6805 0.0000
# 4 0.0000 -0.0001 -0.0001 31.1947 0.0000 -7.3029
# 5 -3.1008 -8.1052 -1.6805 0.0000 17.9676 0.0000
# 6 0.0000 0.0001 0.0000 -7.3029 0.0000 16.0351
#
#
#
# Elastic Compliance Matrix: (Units=1/GPa)
#
#
# Indices 1 2 3 4 5 6 
#
# 1 0.028703 -0.012670 0.002017 0.000000 -0.000573 0.000000
# 2 -0.012670 0.022570 -0.006681 0.000000 0.007370 0.000000
# 3 0.002017 -0.006681 0.011443 0.000000 -0.001595 0.000000
# 4 0.000000 0.000000 0.000000 0.035882 0.000000 0.016342
# 5 -0.000573 0.007370 -0.001595 0.000000 0.058732 0.000000
# 6 0.000000 0.000000 0.000000 0.016342 0.000000 0.069806
#
#
# Mechanical properties :
#
#
# Convention : Reuss Voigt Hill
#
# Bulk Modulus (GPa) = 35.65132 42.56318 39.10725
# Shear Modulus (GPa) = 18.43976 23.26566 20.85271
#
# Velocity S-wave (km/s) = 3.03294 3.40678 3.22528
# Velocity P-wave (km/s) = 5.48177 6.05868 5.77743
#
# Compressibility (1/GPa) = 0.02804946
#
# Stress axis : x y z
#
# Youngs Moduli (GPa) = 34.83933 44.30706 87.38768
#
# Poissons Ratio (x) = 0.56136 -0.17628
# Poissons Ratio (y) = 0.44141 0.58382
# Poissons Ratio (z) = -0.07028 0.29601
#
# Static dielectric constant tensor:
#      x y z
#    x 1.708820 0.000000 0.005360 
#    y 0.000000 1.671950 0.000000 
#    z 0.005360 0.000000 1.720250 
# 
# From -- ./inp_files/172903.got.cif
#   From: 2010.05.17/outbox.cif.g08.bks.cpg/sg12_87_cif.got.tgz:172903.got - 2010.06.03 13:09:07.
