data_PCOD9206420
_publ_section_title
;
Structure prediction by ZEFSAII (Michael W. Deem and Ramdas Pophale) SiO2 
 PCOD9206420
Probable space group: C 2/M
;
_chemical_formula_sum "Si O2"
_cell_formula_units_Z 52
_cell_length_a 15.752246
_cell_length_b 16.406951
_cell_length_c 19.356283
_cell_angle_alpha 90.000000
_cell_angle_beta 147.626662
_cell_angle_gamma 90.000000
_cell_volume 2678.540044
_symmetry_space_group_name_H-M "C 2/M"
_symmetry_group_IT_number 12
_symmetry_cell_setting 'monoclinic'
loop_
_space_group_symop_operation_xyz
x,y,z
-x,y,-z
-x,-y,-z
x,-y,z
1/2+x,1/2+y,z
1/2-x,1/2+y,-z
1/2-x,1/2-y,-z
1/2+x,1/2-y,z
loop_
_atom_site_type_symbol
_atom_site_label
_atom_site_fract_x
_atom_site_fract_y
_atom_site_fract_z
Si Si1 0.182666 0.348732 0.846525
Si Si2 0.580289 0.247723 0.419751
Si Si3 0.197710 0.089790 0.214167
Si Si4 0.405283 0.589932 0.506633
Si Si5 0.500000 0.850971 0.500000
Si Si6 0.013821 0.246956 0.927281
Si Si7 0.447166 0.091798 0.794168
O O1 0.269172 0.398935 0.845003
O O2 0.046075 0.297777 0.714104
O O3 0.093365 0.402120 0.841607
O O4 0.309579 0.285985 0.964969
O O5 0.750000 0.250000 0.500000
O O6 0.532877 0.340508 0.401195
O O7 0.577835 0.204227 0.493087
O O8 0.363807 0.097576 0.368852
O O9 0.097564 0.169315 0.166793
O O10 0.127657 0.000000 0.178628
O O11 0.500000 0.594310 0.500000
O O12 0.425446 0.500000 0.550161
O O13 0.219710 0.601836 0.361127
O O14 0.966487 0.330153 0.856944
O O15 0.000000 0.260316 0.000000
O O16 0.442703 0.000000 0.822142
#
# Coordination Sequence:
#
# PCOD9206420 Si02
#       7
#     8   8   8   8   4   8   8
#     4  10  22  37  60  85 115 152 199 239 284 357
#     4  11  20  36  62  85 117 158 191 243 300 347
#     4  10  21  38  61  87 119 155 193 240 292 349
#     4  10  21  36  58  87 116 152 199 243 291 350
#     4  10  21  36  59  90 120 152 201 238 296 354
#     4  10  23  39  58  87 115 152 197 238 289 352
#     4  11  22  39  61  84 116 154 194 243 294 347
#
# _framework density 19.413561999999999
#
# number of rings (size 3 to 8) (size 9 to 14) (size 15 to 20)
#    0.000    1.692    2.308    2.077    4.308    3.692 
#    0.000    1.538    0.000    0.000    0.000    0.000 
#    0.000    0.000    0.000    0.000    0.000    0.000 
#
# Total GULP energy -145121.517224 kJ/mol
# GULP energy per Si atom -5581.596816 kJ/mol
# Density = 1.936938 g / cm^3
# Si number density = 19.413562 Si / 1000 Ang^3
#
#
#
# Elastic Constant Matrix: (Units=GPa)
#
#
# Indices 1 2 3 4 5 6 
#
# 1 70.2386 26.6132 6.7761 0.0010 8.5708 0.0001
# 2 26.6132 165.9878 32.2651 0.0020 -12.1513 0.0003
# 3 6.7761 32.2651 41.8105 0.0028 -1.0256 0.0003
# 4 0.0010 0.0020 0.0028 14.2810 0.0011 5.1242
# 5 8.5708 -12.1513 -1.0256 0.0011 21.5031 0.0000
# 6 0.0001 0.0003 0.0003 5.1242 0.0000 23.0469
#
#
#
# Elastic Compliance Matrix: (Units=1/GPa)
#
#
# Indices 1 2 3 4 5 6 
#
# 1 0.016507 -0.003178 -0.000429 0.000000 -0.008396 0.000000
# 2 -0.003178 0.008015 -0.005534 0.000000 0.005532 0.000000
# 3 -0.000429 -0.005534 0.028218 -0.000005 -0.001611 0.000001
# 4 0.000000 0.000000 -0.000005 0.076094 -0.000004 -0.016919
# 5 -0.008396 0.005532 -0.001611 -0.000004 0.052901 0.000001
# 6 0.000000 0.000000 0.000001 -0.016919 0.000001 0.047151
#
#
# Mechanical properties :
#
#
# Convention : Reuss Voigt Hill
#
# Bulk Modulus (GPa) = 29.02069 45.48286 37.25177
# Shear Modulus (GPa) = 19.33083 25.92502 22.62793
#
# Velocity S-wave (km/s) = 3.15896 3.65829 3.41775
# Velocity P-wave (km/s) = 5.31850 6.42832 5.89957
#
# Compressibility (1/GPa) = 0.03445818
#
# Stress axis : x y z
#
# Youngs Moduli (GPa) = 60.57983 124.76931 35.43808
#
# Poissons Ratio (x) = 0.39650 0.01520
# Poissons Ratio (y) = 0.19252 0.19612
# Poissons Ratio (z) = 0.02598 0.69051
#
# Static dielectric constant tensor:
#      x y z
#    x 1.736200 0.000000 0.019200 
#    y 0.000000 1.693360 0.000000 
#    z 0.019200 0.000000 1.667670 
# 
# From -- ./inp_files/270591.got.cif
#   From: 2010.05.17/outbox.cif.g08.bks.cpg/sg12_136_cif.got.tgz:270591.got - 2010.06.03 13:09:07.
