data_PCOD9206771
_publ_section_title
;
Structure prediction by ZEFSAII (Michael W. Deem and Ramdas Pophale) SiO2 
 PCOD9206771
Probable space group: C 2/M
;
_chemical_formula_sum "Si O2"
_cell_formula_units_Z 40
_cell_length_a 6.796292
_cell_length_b 14.250652
_cell_length_c 19.448990
_cell_angle_alpha 90.000000
_cell_angle_beta 129.604948
_cell_angle_gamma 90.000000
_cell_volume 1451.285631
_symmetry_space_group_name_H-M "C 2/M"
_symmetry_group_IT_number 12
_symmetry_cell_setting 'monoclinic'
loop_
_space_group_symop_operation_xyz
x,y,z
-x,y,-z
-x,-y,-z
x,-y,z
1/2+x,1/2+y,z
1/2-x,1/2+y,-z
1/2-x,1/2-y,-z
1/2+x,1/2-y,z
loop_
_atom_site_type_symbol
_atom_site_label
_atom_site_fract_x
_atom_site_fract_y
_atom_site_fract_z
Si Si1 0.795506 0.891355 0.017402
Si Si2 0.428843 0.350778 0.405401
Si Si3 0.632730 0.772165 0.145131
Si Si4 0.893414 0.402744 0.236654
Si Si5 0.853661 0.155168 0.678657
O O1 0.523299 0.852003 0.930787
O O2 0.780708 0.000000 0.036819
O O3 0.000000 0.887694 0.000000
O O4 0.909639 0.811594 0.094551
O O5 0.500000 0.361711 0.500000
O O6 0.639197 0.383041 0.397156
O O7 0.171437 0.403194 0.330061
O O8 0.345787 0.242040 0.372726
O O9 0.853823 0.687608 0.179560
O O10 0.843088 0.824112 0.240538
O O11 0.839800 0.500000 0.187238
O O12 0.726222 0.394272 0.268825
#
# Coordination Sequence:
#
# PCOD9206771 Si02
#       5
#     8   8   8   8   8
#     4  10  21  36  62  95 129 172 222 276 331 396
#     4  11  23  41  70  99 130 176 233 280 338 400
#     4  10  21  40  61  94 136 175 222 279 331 401
#     4  11  25  42  65  98 136 179 227 279 337 400
#     4  11  22  40  69  97 129 180 225 282 334 404
#
# _framework density 27.561768000000001
#
# number of rings (size 3 to 8) (size 9 to 14) (size 15 to 20)
#    0.000    1.400    4.000    2.400    2.800    2.000 
#    0.000    1.000    0.000    6.600    0.000    0.000 
#    0.000    0.000    0.000    0.000    0.000    0.000 
#
# Total GULP energy -111438.190852 kJ/mol
# GULP energy per Si atom -5571.909543 kJ/mol
# Density = 2.749904 g / cm^3
# Si number density = 27.561768 Si / 1000 Ang^3
#
#
#
# Elastic Constant Matrix: (Units=GPa)
#
#
# Indices 1 2 3 4 5 6 
#
# 1 112.2825 4.8627 23.1930 0.0001 -10.9487 0.0001
# 2 4.8627 198.2821 57.1277 0.0000 -18.6844 0.0000
# 3 23.1930 57.1277 128.2408 0.0003 -32.8267 0.0002
# 4 0.0001 0.0000 0.0003 -26.0909 0.0001 -46.5647
# 5 -10.9487 -18.6844 -32.8267 0.0001 51.8840 0.0001
# 6 0.0001 0.0000 0.0002 -46.5647 0.0001 -23.5868
#
#
#
# Elastic Compliance Matrix: (Units=1/GPa)
#
#
# Indices 1 2 3 4 5 6 
#
# 1 0.009319 0.000321 -0.001546 0.000000 0.001104 0.000000
# 2 0.000321 0.005810 -0.002498 0.000000 0.000580 0.000000
# 3 -0.001546 -0.002498 0.010592 0.000000 0.005476 0.000000
# 4 0.000000 0.000000 0.000000 0.015189 0.000000 -0.029986
# 5 0.001104 0.000580 0.005476 0.000000 0.023180 0.000000
# 6 0.000000 0.000000 0.000000 -0.029986 0.000000 0.016802
#
#
# Mechanical properties :
#
#
# Convention : Reuss Voigt Hill
#
# Bulk Modulus (GPa) = 54.71849 67.68580 61.20214
# Shear Modulus (GPa) = 52.95029 24.01606 38.48317
#
# Velocity S-wave (km/s) = 4.38785 2.95507 3.74070
# Velocity P-wave (km/s) = 6.75034 6.02117 6.39615
#
# Compressibility (1/GPa) = 0.01827536
#
# Stress axis : x y z
#
# Youngs Moduli (GPa) = 107.30585 172.12615 94.41372
#
# Poissons Ratio (x) = -0.05522 0.14594
# Poissons Ratio (y) = -0.03443 0.23582
# Poissons Ratio (z) = 0.16586 0.42992
#
# Static dielectric constant tensor:
#      x y z
#    x 3.065280 0.000000 0.041730 
#    y 0.000000 2.171920 0.000000 
#    z 0.041730 0.000000 2.077810 
# 
# From -- ./inp_files/332770.got.cif
#   From: 2010.05.17/outbox.cif.g08.bks.cpg/sg12_167_cif.got.tgz:332770.got - 2010.06.03 13:09:07.
