data_PCOD9206787
_publ_section_title
;
Structure prediction by ZEFSAII (Michael W. Deem and Ramdas Pophale) SiO2 
 PCOD9206787
Probable space group: C 2/M
;
_chemical_formula_sum "Si O2"
_cell_formula_units_Z 58
_cell_length_a 7.742096
_cell_length_b 30.774756
_cell_length_c 12.421313
_cell_angle_alpha 90.000000
_cell_angle_beta 94.716070
_cell_angle_gamma 90.000000
_cell_volume 2949.496051
_symmetry_space_group_name_H-M "C 2/M"
_symmetry_group_IT_number 12
_symmetry_cell_setting 'monoclinic'
loop_
_space_group_symop_operation_xyz
x,y,z
-x,y,-z
-x,-y,-z
x,-y,z
1/2+x,1/2+y,z
1/2-x,1/2+y,-z
1/2-x,1/2-y,-z
1/2+x,1/2-y,z
loop_
_atom_site_type_symbol
_atom_site_label
_atom_site_fract_x
_atom_site_fract_y
_atom_site_fract_z
Si Si1 0.504031 0.924232 0.680463
Si Si2 0.188228 0.862587 0.646137
Si Si3 0.689705 0.139984 0.965102
Si Si4 0.500000 0.000000 0.500000
Si Si5 0.278647 0.354218 0.603182
Si Si6 0.241399 0.203231 0.209867
Si Si7 0.153927 0.451869 0.919935
Si Si8 0.836199 0.801120 0.161689
O O1 0.313157 0.902739 0.680508
O O2 0.495771 0.962354 0.593771
O O3 0.641051 0.889033 0.640239
O O4 0.571032 0.941162 0.799165
O O5 0.231565 0.849858 0.525625
O O6 0.230276 0.825650 0.735316
O O7 0.978399 0.869092 0.639021
O O8 0.665797 0.165737 0.852937
O O9 0.765799 0.091524 0.953542
O O10 0.500000 0.132353 0.000000
O O11 0.776845 0.172903 0.053447
O O12 0.241352 0.309145 0.664054
O O13 0.290119 0.250672 0.171462
O O14 0.041618 0.196747 0.172509
O O15 0.237971 0.500000 0.921150
O O16 0.000000 0.454900 0.000000
#
# Coordination Sequence:
#
# PCOD9206787 Si02
#       8
#     8   8   8   2   8   8   8   8
#     4  12  21  42  65  93 131 162 211 260 313 371
#     4  10  22  40  61  89 125 169 204 254 314 374
#     4  11  21  38  61  86 119 163 201 255 318 364
#     4  12  24  36  72 108 112 174 220 258 310 372
#     4  10  22  40  62  88 126 169 205 251 319 369
#     4  11  23  39  60  89 123 159 208 261 306 377
#     4  10  21  36  63  93 120 161 210 256 311 378
#     4  11  24  38  60  90 121 159 211 255 310 378
#
# _framework density 19.664375
#
# number of rings (size 3 to 8) (size 9 to 14) (size 15 to 20)
#    0.000    1.241    3.448    3.310    1.931    0.552 
#    0.000    1.379    0.000    1.655    0.000    0.000 
#    0.000    0.000    0.000    0.000    0.000    0.000 
#
# Total GULP energy -161506.316710 kJ/mol
# GULP energy per Si atom -5569.183335 kJ/mol
# Density = 1.961962 g / cm^3
# Si number density = 19.664375 Si / 1000 Ang^3
#
#
#
# Elastic Constant Matrix: (Units=GPa)
#
#
# Indices 1 2 3 4 5 6 
#
# 1 32.5735 17.5618 16.4172 0.0000 -6.4067 0.0000
# 2 17.5618 156.0779 43.3370 0.0000 -4.1736 0.0000
# 3 16.4172 43.3370 95.0449 0.0000 -19.5251 0.0000
# 4 0.0000 0.0000 0.0000 42.2752 0.0000 -0.5996
# 5 -6.4067 -4.1736 -19.5251 0.0000 11.9758 0.0000
# 6 0.0000 0.0000 0.0000 -0.5996 0.0000 -7.5151
#
#
#
# Elastic Compliance Matrix: (Units=1/GPa)
#
#
# Indices 1 2 3 4 5 6 
#
# 1 0.036330 -0.003232 -0.001564 0.000000 0.015759 0.000000
# 2 -0.003232 0.007778 -0.004190 0.000000 -0.005849 0.000000
# 3 -0.001564 -0.004190 0.018389 0.000000 0.027684 0.000000
# 4 0.000000 0.000000 0.000000 0.023628 0.000000 -0.001885
# 5 0.015759 -0.005849 0.027684 0.000000 0.135030 0.000000
# 6 0.000000 0.000000 0.000000 -0.001885 0.000000 -0.132915
#
#
# Mechanical properties :
#
#
# Convention : Reuss Voigt Hill
#
# Bulk Modulus (GPa) = 22.45932 48.70314 35.58123
# Shear Modulus (GPa) = 41.30431 23.10586 32.20508
#
# Velocity S-wave (km/s) = 4.58805 3.43156 4.05129
# Velocity P-wave (km/s) = 6.28594 6.36567 6.32593
#
# Compressibility (1/GPa) = 0.04452495
#
# Stress axis : x y z
#
# Youngs Moduli (GPa) = 27.52517 128.57386 54.38032
#
# Poissons Ratio (x) = 0.41557 0.08506
# Poissons Ratio (y) = 0.08897 0.22783
# Poissons Ratio (z) = 0.04306 0.53868
#
# Static dielectric constant tensor:
#      x y z
#    x 1.707530 0.000000 -0.015930 
#    y 0.000000 1.562600 0.000000 
#    z -0.015930 0.000000 1.719650 
# 
# From -- ./inp_files/124303.got.cif
#   From: 2010.05.17/outbox.cif.g08.bks.cpg/sg12_63_cif.got.tgz:124303.got - 2010.06.03 13:09:07.
