data_PCOD9206654
_publ_section_title
;
Structure prediction by ZEFSAII (Michael W. Deem and Ramdas Pophale) SiO2 
 PCOD9206654
Probable space group: C 2/M
;
_chemical_formula_sum "Si O2"
_cell_formula_units_Z 48
_cell_length_a 29.008985
_cell_length_b 13.859075
_cell_length_c 5.311889
_cell_angle_alpha 90.000000
_cell_angle_beta 90.419516
_cell_angle_gamma 90.000000
_cell_volume 2135.522385
_symmetry_space_group_name_H-M "C 2/M"
_symmetry_group_IT_number 12
_symmetry_cell_setting 'monoclinic'
loop_
_space_group_symop_operation_xyz
x,y,z
-x,y,-z
-x,-y,-z
x,-y,z
1/2+x,1/2+y,z
1/2-x,1/2+y,-z
1/2-x,1/2-y,-z
1/2+x,1/2-y,z
loop_
_atom_site_type_symbol
_atom_site_label
_atom_site_fract_x
_atom_site_fract_y
_atom_site_fract_z
Si Si1 0.256082 0.395584 0.933323
Si Si2 0.402552 0.274256 0.937948
Si Si3 0.968845 0.389269 0.746598
Si Si4 0.188126 0.253811 0.780314
Si Si5 0.969605 0.111356 0.253471
Si Si6 0.152081 0.104809 0.396372
O O1 0.244456 0.500000 0.036970
O O2 0.214908 0.353712 0.762945
O O3 0.302989 0.402476 0.777197
O O4 0.270523 0.320622 0.148880
O O5 0.430719 0.192597 0.792377
O O6 0.392482 0.369740 0.771052
O O7 0.351928 0.236519 0.013044
O O8 0.429733 0.312624 0.184902
O O9 0.950732 0.500000 0.724161
O O10 0.000000 0.371884 0.500000
O O11 0.000000 0.386010 0.000000
O O12 0.162290 0.198848 0.559340
O O13 0.000000 0.135371 0.500000
O O14 0.953905 0.000000 0.283016
O O15 0.000000 0.115251 0.000000
O O16 0.147888 0.000000 0.527029
#
# Coordination Sequence:
#
# PCOD9206654 Si02
#       6
#     8   8   8   8   8   8
#     4   9  19  38  59  87 125 167 216 262 320 393
#     4  11  24  38  63  95 128 164 218 275 331 396
#     4  10  24  46  71  94 125 172 223 275 335 396
#     4  10  21  36  60  91 124 171 211 266 328 394
#     4  10  23  41  61  90 129 174 219 266 327 398
#     4  10  21  37  60  91 130 171 210 260 326 399
#
# _framework density 22.476935999999998
#
# number of rings (size 3 to 8) (size 9 to 14) (size 15 to 20)
#    0.000    2.000    0.000    2.000    4.667    4.000 
#    0.000    0.833    0.000    0.500    0.000    0.000 
#    0.000    0.000    0.000    0.000    0.000    0.000 
#
# Total GULP energy -133989.986661 kJ/mol
# GULP energy per Si atom -5582.916111 kJ/mol
# Density = 2.242578 g / cm^3
# Si number density = 22.476936 Si / 1000 Ang^3
#
#
#
# Elastic Constant Matrix: (Units=GPa)
#
#
# Indices 1 2 3 4 5 6 
#
# 1 87.6100 57.5869 21.6432 0.0000 18.1622 0.0000
# 2 57.5869 120.6787 16.5155 0.0000 7.6196 0.0000
# 3 21.6432 16.5155 89.4274 0.0000 21.3086 0.0000
# 4 0.0000 0.0000 0.0000 21.7543 0.0000 -4.2008
# 5 18.1622 7.6196 21.3086 0.0000 18.6591 0.0000
# 6 0.0000 0.0000 0.0000 -4.2008 0.0000 -11.1883
#
#
#
# Elastic Compliance Matrix: (Units=1/GPa)
#
#
# Indices 1 2 3 4 5 6 
#
# 1 0.020648 -0.008863 0.000778 0.000000 -0.017367 0.000000
# 2 -0.008863 0.012379 -0.001363 0.000000 0.005129 0.000000
# 3 0.000778 -0.001363 0.015515 0.000000 -0.017919 0.000000
# 4 0.000000 0.000000 0.000000 0.042860 0.000000 -0.016093
# 5 -0.017367 0.005129 -0.017919 0.000000 0.088867 0.000000
# 6 0.000000 0.000000 0.000000 -0.016093 0.000000 -0.083337
#
#
# Mechanical properties :
#
#
# Convention : Reuss Voigt Hill
#
# Bulk Modulus (GPa) = 33.73188 54.35636 44.04412
# Shear Modulus (GPa) = 39.77342 19.30971 29.54156
#
# Velocity S-wave (km/s) = 4.21113 2.93420 3.62927
# Velocity P-wave (km/s) = 6.21971 5.97621 6.09917
#
# Compressibility (1/GPa) = 0.02964555
#
# Stress axis : x y z
#
# Youngs Moduli (GPa) = 48.43031 80.78479 64.45174
#
# Poissons Ratio (x) = 0.71600 -0.05013
# Poissons Ratio (y) = 0.42924 0.08786
# Poissons Ratio (z) = -0.03767 0.11012
#
# Static dielectric constant tensor:
#      x y z
#    x 1.847800 0.000000 0.010930 
#    y 0.000000 1.917630 0.000000 
#    z 0.010930 0.000000 1.915270 
# 
# From -- ./inp_files/28154.got.cif
#   From: 2010.05.17/outbox.cif.g08.bks.cpg/sg12_15_cif.got.tgz:28154.got - 2010.06.03 13:09:07.
