data_PCOD9206917
_publ_section_title
;
Structure prediction by ZEFSAII (Michael W. Deem and Ramdas Pophale) SiO2 
 PCOD9206917
Probable space group: C 2/M
;
_chemical_formula_sum "Si O2"
_cell_formula_units_Z 40
_cell_length_a 22.616082
_cell_length_b 7.369607
_cell_length_c 30.151655
_cell_angle_alpha 90.000000
_cell_angle_beta 161.218552
_cell_angle_gamma 90.000000
_cell_volume 1617.981826
_symmetry_space_group_name_H-M "C 2/M"
_symmetry_group_IT_number 12
_symmetry_cell_setting 'monoclinic'
loop_
_space_group_symop_operation_xyz
x,y,z
-x,y,-z
-x,-y,-z
x,-y,z
1/2+x,1/2+y,z
1/2-x,1/2+y,-z
1/2-x,1/2-y,-z
1/2+x,1/2-y,z
loop_
_atom_site_type_symbol
_atom_site_label
_atom_site_fract_x
_atom_site_fract_y
_atom_site_fract_z
Si Si1 0.632093 0.706189 0.706154
Si Si2 0.585145 0.215900 0.916582
Si Si3 0.666589 0.277450 0.830573
Si Si4 0.728264 0.285936 0.431882
Si Si5 0.197097 0.777616 0.656784
O O1 0.699755 0.500000 0.757314
O O2 0.664111 0.786264 0.777780
O O3 0.411033 0.702752 0.540937
O O4 0.717991 0.783143 0.722712
O O5 0.379808 0.282439 0.760563
O O6 0.568744 0.000000 0.908108
O O7 0.750000 0.250000 0.000000
O O8 0.660521 0.279418 0.017836
O O9 0.657828 0.500000 0.823096
O O10 0.479168 0.220072 0.722963
O O11 0.737363 0.500000 0.429983
O O12 0.750000 0.250000 0.500000
O O13 0.000000 0.713990 0.500000
O O14 0.189484 0.000000 0.650974
#
# Coordination Sequence:
#
# PCOD9206917 Si02
#       5
#     8   8   8   8   8
#     4   9  17  31  52  76 104 136 173 217 262 309
#     4  10  21  37  55  76 106 140 177 219 263 317
#     4   8  16  30  49  75 103 132 170 215 258 303
#     4   9  16  28  47  75 107 136 169 209 257 310
#     4   9  19  34  53  79 107 137 177 221 265 314
#
# _framework density 24.722156999999999
#
# number of rings (size 3 to 8) (size 9 to 14) (size 15 to 20)
#    0.000    3.000    0.000    1.800    2.800    0.800 
#    0.000    9.000    0.000    1.200    0.000    7.000 
#    0.000    0.000    0.000    0.000    0.000    0.000 
#
# Total GULP energy -111630.096432 kJ/mol
# GULP energy per Si atom -5581.504822 kJ/mol
# Density = 2.466589 g / cm^3
# Si number density = 24.722157 Si / 1000 Ang^3
#
#
#
# Elastic Constant Matrix: (Units=GPa)
#
#
# Indices 1 2 3 4 5 6 
#
# 1 119.4572 -3.5184 64.2266 -0.0034 15.7820 0.0038
# 2 -3.5184 93.6369 0.7114 0.0078 -4.9669 0.0035
# 3 64.2266 0.7114 186.0212 0.0350 11.1484 -0.0229
# 4 -0.0034 0.0078 0.0350 7.0577 -0.0081 4.5062
# 5 15.7820 -4.9669 11.1484 -0.0081 33.8458 0.0014
# 6 0.0038 0.0035 -0.0229 4.5062 0.0014 1.8973
#
#
#
# Elastic Compliance Matrix: (Units=1/GPa)
#
#
# Indices 1 2 3 4 5 6 
#
# 1 0.010759 0.000227 -0.003486 -0.000110 -0.003835 0.000201
# 2 0.000227 0.010772 -0.000212 -0.000012 0.001545 0.000005
# 3 -0.003486 -0.000212 0.006615 0.000176 -0.000585 -0.000330
# 4 -0.000110 -0.000012 0.000176 -0.274353 -0.000102 0.651611
# 5 -0.003835 0.001545 -0.000585 -0.000102 0.031753 0.000215
# 6 0.000201 0.000005 -0.000330 0.651611 0.000215 -1.020560
#
#
# Mechanical properties :
#
#
# Convention : Reuss Voigt Hill
#
# Bulk Modulus (GPa) = 47.16045 57.99495 52.57770
# Shear Modulus (GPa) = -4.09499 31.07320 13.48911
#
# Velocity S-wave (km/s) = -1.28841 3.54912 2.33840
# Velocity P-wave (km/s) = 4.11148 6.34859 5.34831
#
# Compressibility (1/GPa) = 0.02120421
#
# Stress axis : x y z
#
# Youngs Moduli (GPa) = 92.94905 92.83636 151.17286
#
# Poissons Ratio (x) = -0.02110 0.52692
# Poissons Ratio (y) = -0.02113 0.03208
# Poissons Ratio (z) = 0.32398 0.01970
#
# Static dielectric constant tensor:
#      x y z
#    x 1.951820 -0.000060 0.007660 
#    y -0.000060 1.878510 -0.000160 
#    z 0.007660 -0.000160 2.001620 
# 
# From -- ./inp_files/380880.got.cif
#   From: 2010.05.17/outbox.cif.g08.bks.cpg/sg12_191_cif.got.tgz:380880.got - 2010.06.03 13:09:07.
