data_PCOD9206582
_publ_section_title
;
Structure prediction by ZEFSAII (Michael W. Deem and Ramdas Pophale) SiO2 
 PCOD9206582
Probable space group: C 2/M
;
_chemical_formula_sum "Si O2"
_cell_formula_units_Z 56
_cell_length_a 15.285700
_cell_length_b 9.300767
_cell_length_c 23.989420
_cell_angle_alpha 90.000000
_cell_angle_beta 117.501806
_cell_angle_gamma 90.000000
_cell_volume 3025.141142
_symmetry_space_group_name_H-M "C 2/M"
_symmetry_group_IT_number 12
_symmetry_cell_setting 'monoclinic'
loop_
_space_group_symop_operation_xyz
x,y,z
-x,y,-z
-x,-y,-z
x,-y,z
1/2+x,1/2+y,z
1/2-x,1/2+y,-z
1/2-x,1/2-y,-z
1/2+x,1/2-y,z
loop_
_atom_site_type_symbol
_atom_site_label
_atom_site_fract_x
_atom_site_fract_y
_atom_site_fract_z
Si Si1 0.647395 0.334537 0.802512
Si Si2 0.320434 0.668266 0.817052
Si Si3 0.913693 0.167772 0.723431
Si Si4 0.831862 0.830792 0.060352
Si Si5 0.323922 0.828801 0.593257
Si Si6 0.099260 0.827453 0.493861
Si Si7 0.480217 0.166970 0.928350
O O1 0.669815 0.500000 0.793364
O O2 0.709106 0.223146 0.784744
O O3 0.531042 0.312510 0.762285
O O4 0.678099 0.316318 0.876183
O O5 0.328355 0.500000 0.832794
O O6 0.368935 0.693385 0.771305
O O7 0.378482 0.762485 0.879541
O O8 0.866056 0.267886 0.663094
O O9 0.895207 0.000000 0.703627
O O10 0.935559 0.760203 0.075690
O O11 0.830342 0.000000 0.046630
O O12 0.750000 0.750000 0.000000
O O13 0.205471 0.799338 0.554918
O O14 0.383328 0.752728 0.559964
O O15 0.336261 0.000000 0.592399
O O16 0.000000 0.786718 0.500000
O O17 0.092306 0.000000 0.482428
O O18 0.484239 0.000000 0.912608
O O19 0.500000 0.173308 0.000000
#
# Coordination Sequence:
#
# PCOD9206582 Si02
#       7
#     8   8   8   8   8   8   8
#     4  10  22  41  60  81 114 154 194 241 298 364
#     4  11  23  40  61  87 115 151 198 248 300 359
#     4  10  22  42  61  81 120 164 198 240 300 359
#     4  11  22  38  58  83 114 148 193 245 303 366
#     4  10  21  36  59  92 122 154 202 250 290 341
#     4   9  19  38  62  88 123 164 201 238 290 352
#     4  11  23  38  57  83 114 150 192 243 304 365
#
# _framework density 18.511531999999999
#
# number of rings (size 3 to 8) (size 9 to 14) (size 15 to 20)
#    0.000    1.714    1.429    2.571    0.000    9.429 
#    0.000    4.286    0.000    0.000    0.000    0.000 
#    0.000    0.000    0.000    0.000    0.000    0.000 
#
# Total GULP energy -156335.903885 kJ/mol
# GULP energy per Si atom -5583.425139 kJ/mol
# Density = 1.846940 g / cm^3
# Si number density = 18.511532 Si / 1000 Ang^3
#
#
#
# Elastic Constant Matrix: (Units=GPa)
#
#
# Indices 1 2 3 4 5 6 
#
# 1 121.3128 64.1302 22.5429 0.0000 3.2252 0.0000
# 2 64.1302 88.0748 56.6238 0.0000 2.3701 0.0000
# 3 22.5429 56.6238 76.9492 0.0000 8.5471 0.0000
# 4 0.0000 0.0000 0.0000 34.5627 0.0000 2.0307
# 5 3.2252 2.3701 8.5471 0.0000 7.4670 0.0000
# 6 0.0000 0.0000 0.0000 2.0307 0.0000 33.4674
#
#
#
# Elastic Compliance Matrix: (Units=1/GPa)
#
#
# Indices 1 2 3 4 5 6 
#
# 1 0.016031 -0.017459 0.009514 0.000000 -0.012273 0.000000
# 2 -0.017459 0.041716 -0.028583 0.000000 0.027018 0.000000
# 3 0.009514 -0.028583 0.035161 0.000000 -0.035283 0.000000
# 4 0.000000 0.000000 0.000000 0.029036 0.000000 -0.001762
# 5 -0.012273 0.027018 -0.035283 0.000000 0.171035 0.000000
# 6 0.000000 0.000000 0.000000 -0.001762 0.000000 0.029987
#
#
# Mechanical properties :
#
#
# Convention : Reuss Voigt Hill
#
# Bulk Modulus (GPa) = 50.37442 63.65894 57.01668
# Shear Modulus (GPa) = 12.41807 24.63541 18.52674
#
# Velocity S-wave (km/s) = 2.59285 3.65199 3.16701
# Velocity P-wave (km/s) = 6.01958 7.22815 6.65137
#
# Compressibility (1/GPa) = 0.01985135
#
# Stress axis : x y z
#
# Youngs Moduli (GPa) = 62.37888 23.97165 28.44097
#
# Poissons Ratio (x) = 0.41853 -0.27060
# Poissons Ratio (y) = 1.08910 0.81293
# Poissons Ratio (z) = -0.59350 0.68519
#
# Static dielectric constant tensor:
#      x y z
#    x 1.666030 0.000000 0.025570 
#    y 0.000000 1.617060 0.000000 
#    z 0.025570 0.000000 1.640800 
# 
# From -- ./inp_files/339019.got.cif
#   From: 2010.05.17/outbox.cif.g08.bks.cpg/sg12_170_cif.got.tgz:339019.got - 2010.06.03 13:09:07.
