data_PCOD9206303
_publ_section_title
;
Structure prediction by ZEFSAII (Michael W. Deem and Ramdas Pophale) SiO2 
 PCOD9206303
Probable space group: C 2/M
;
_chemical_formula_sum "Si O2"
_cell_formula_units_Z 48
_cell_length_a 10.129921
_cell_length_b 10.116899
_cell_length_c 26.357420
_cell_angle_alpha 90.000000
_cell_angle_beta 85.792161
_cell_angle_gamma 90.000000
_cell_volume 2693.916471
_symmetry_space_group_name_H-M "C 2/M"
_symmetry_group_IT_number 12
_symmetry_cell_setting 'monoclinic'
loop_
_space_group_symop_operation_xyz
x,y,z
-x,y,-z
-x,-y,-z
x,-y,z
1/2+x,1/2+y,z
1/2-x,1/2+y,-z
1/2-x,1/2-y,-z
1/2+x,1/2-y,z
loop_
_atom_site_type_symbol
_atom_site_label
_atom_site_fract_x
_atom_site_fract_y
_atom_site_fract_z
Si Si1 0.298508 0.763170 0.376939
Si Si2 0.852400 0.845279 0.024985
Si Si3 0.320196 0.500000 0.555054
Si Si4 0.462020 0.156072 0.803529
Si Si5 0.167207 0.845291 0.853972
Si Si6 0.364229 0.500000 0.436766
Si Si7 0.569921 0.156668 0.314649
O O1 0.321284 0.628857 0.407200
O O2 0.435314 0.809200 0.347924
O O3 0.189745 0.736194 0.336652
O O4 0.244683 0.873075 0.416908
O O5 0.848346 0.823465 0.085496
O O6 0.819504 0.000000 0.016629
O O7 0.750000 0.750000 0.000000
O O8 0.000000 0.821999 0.000000
O O9 0.303854 0.500000 0.494947
O O10 0.476968 0.500000 0.561823
O O11 0.319097 0.176518 0.833444
O O12 0.570688 0.248724 0.826242
O O13 0.447887 0.186417 0.744244
O O14 0.496146 0.000000 0.807722
O O15 0.135835 0.000000 0.844187
O O16 0.597070 0.000000 0.318516
#
# Coordination Sequence:
#
# PCOD9206303 Si02
#       7
#     8   8   4   8   8   4   8
#     4  12  22  42  62  88 117 156 187 243 289 343
#     4  10  21  36  57  86 119 155 195 242 289 346
#     4  11  24  41  61  93 121 149 197 237 283 353
#     4  10  22  39  58  84 113 155 192 243 287 348
#     4  10  21  39  58  85 120 151 197 243 292 342
#     4  11  24  41  63  89 121 155 189 237 293 342
#     4  11  23  39  61  86 119 147 196 238 293 345
#
# _framework density 17.817923
#
# number of rings (size 3 to 8) (size 9 to 14) (size 15 to 20)
#    0.000    1.333    3.333    2.500    0.000    1.667 
#    3.000    0.833    0.000    0.000    0.000    0.000 
#    0.000    0.000    0.000    0.000    0.000    0.000 
#
# Total GULP energy -134134.267414 kJ/mol
# GULP energy per Si atom -5588.927809 kJ/mol
# Density = 1.777737 g / cm^3
# Si number density = 17.817923 Si / 1000 Ang^3
#
#
#
# Elastic Constant Matrix: (Units=GPa)
#
#
# Indices 1 2 3 4 5 6 
#
# 1 46.3966 14.8126 -1.9897 0.0000 10.7125 0.0000
# 2 14.8126 66.1673 24.5485 0.0000 7.8575 0.0000
# 3 -1.9897 24.5485 55.7400 0.0000 1.7963 0.0000
# 4 0.0000 0.0000 0.0000 16.1405 0.0000 25.1191
# 5 10.7125 7.8575 1.7963 0.0000 23.4762 0.0000
# 6 0.0000 0.0000 0.0000 25.1191 0.0000 13.9159
#
#
#
# Elastic Compliance Matrix: (Units=1/GPa)
#
#
# Indices 1 2 3 4 5 6 
#
# 1 0.026001 -0.006076 0.003930 0.000000 -0.010132 0.000000
# 2 -0.006076 0.020208 -0.009011 0.000000 -0.003302 0.000000
# 3 0.003930 -0.009011 0.022064 0.000000 -0.000466 0.000000
# 4 0.000000 0.000000 0.000000 -0.034245 0.000000 0.061815
# 5 -0.010132 -0.003302 -0.000466 0.000000 0.048360 0.000000
# 6 0.000000 0.000000 0.000000 0.061815 0.000000 -0.039720
#
#
# Mechanical properties :
#
#
# Convention : Reuss Voigt Hill
#
# Bulk Modulus (GPa) = 21.75719 27.00521 24.38120
# Shear Modulus (GPa) = 62.26560 19.43535 40.85047
#
# Velocity S-wave (km/s) = 5.91788 3.30627 4.79337
# Velocity P-wave (km/s) = 7.67675 5.45567 6.65946
#
# Compressibility (1/GPa) = 0.04596183
#
# Stress axis : x y z
#
# Youngs Moduli (GPa) = 38.46011 49.48424 45.32256
#
# Poissons Ratio (x) = 0.30066 -0.17814
# Poissons Ratio (y) = 0.23368 0.40838
# Poissons Ratio (z) = -0.15117 0.44588
#
# Static dielectric constant tensor:
#      x y z
#    x 1.569520 0.000000 -0.004710 
#    y 0.000000 1.593700 0.000000 
#    z -0.004710 0.000000 1.584010 
# 
# From -- ./inp_files/334794.got.cif
#   From: 2010.05.17/outbox.cif.g08.bks.cpg/sg12_168_cif.got.tgz:334794.got - 2010.06.03 13:09:07.
