data_PCOD9206818
_publ_section_title
;
Structure prediction by ZEFSAII (Michael W. Deem and Ramdas Pophale) SiO2 
 PCOD9206818
Probable space group: C 2/M
;
_chemical_formula_sum "Si O2"
_cell_formula_units_Z 44
_cell_length_a 16.462621
_cell_length_b 29.285238
_cell_length_c 11.186516
_cell_angle_alpha 90.000000
_cell_angle_beta 158.239621
_cell_angle_gamma 90.000000
_cell_volume 1999.379617
_symmetry_space_group_name_H-M "C 2/M"
_symmetry_group_IT_number 12
_symmetry_cell_setting 'monoclinic'
loop_
_space_group_symop_operation_xyz
x,y,z
-x,y,-z
-x,-y,-z
x,-y,z
1/2+x,1/2+y,z
1/2-x,1/2+y,-z
1/2-x,1/2-y,-z
1/2+x,1/2-y,z
loop_
_atom_site_type_symbol
_atom_site_label
_atom_site_fract_x
_atom_site_fract_y
_atom_site_fract_z
Si Si1 0.116668 0.689296 0.402072
Si Si2 0.245068 0.051698 0.679751
Si Si3 0.047183 0.107572 0.195625
Si Si4 0.769638 0.164267 0.965742
Si Si5 0.500000 0.380202 0.500000
Si Si6 0.253624 0.253239 0.215058
O O1 0.286647 0.651640 0.586007
O O2 0.230429 0.731394 0.630111
O O3 0.969310 0.666955 0.305258
O O4 0.929348 0.707734 0.054505
O O5 0.132694 0.071336 0.407094
O O6 0.189146 0.086224 0.710674
O O7 0.173713 0.000000 0.608813
O O8 0.500000 0.051771 0.000000
O O9 0.820536 0.127010 0.936755
O O10 0.000000 0.089486 0.000000
O O11 0.927516 0.149901 0.289494
O O12 0.821365 0.212800 0.977361
O O13 0.500000 0.263056 0.500000
#
# Coordination Sequence:
#
# PCOD9206818 Si02
#       6
#     8   8   8   8   4   8
#     4  11  23  40  59  86 128 167 213 266 300 355
#     4  10  22  43  67  96 125 156 200 254 318 381
#     4  11  23  42  62  92 124 164 207 254 316 370
#     4  10  21  37  61  84 122 165 212 247 309 353
#     4  10  21  36  66  96 120 162 200 256 299 380
#     4  10  21  38  60  84 119 175 214 259 303 351
#
# _framework density 22.006827000000001
#
# number of rings (size 3 to 8) (size 9 to 14) (size 15 to 20)
#    0.000    1.636    1.818    3.545    3.818    1.091 
#    0.000    0.000    0.000    0.000    0.000   10.182 
#    0.000    0.000    0.000    0.000    0.000    0.000 
#
# Total GULP energy -122979.555572 kJ/mol
# GULP energy per Si atom -5589.979799 kJ/mol
# Density = 2.195674 g / cm^3
# Si number density = 22.006827 Si / 1000 Ang^3
#
#
#
# Elastic Constant Matrix: (Units=GPa)
#
#
# Indices 1 2 3 4 5 6 
#
# 1 51.8710 -3.3271 -11.1567 0.0009 3.5002 0.0001
# 2 -3.3271 68.4233 16.6192 0.0000 1.2505 -0.0001
# 3 -11.1567 16.6192 64.0664 0.0023 0.4872 0.0004
# 4 0.0009 0.0000 0.0023 -78.4923 0.0019 4.9607
# 5 3.5002 1.2505 0.4872 0.0019 35.5616 0.0004
# 6 0.0001 -0.0001 0.0004 4.9607 0.0004 0.8727
#
#
#
# Elastic Compliance Matrix: (Units=1/GPa)
#
#
# Indices 1 2 3 4 5 6 
#
# 1 0.020177 0.000172 0.003485 0.000000 -0.002040 -0.000003
# 2 0.000172 0.015608 -0.004015 0.000000 -0.000511 0.000004
# 3 0.003485 -0.004015 0.017260 0.000000 -0.000438 -0.000009
# 4 0.000000 0.000000 0.000000 -0.009373 0.000000 0.053278
# 5 -0.002040 -0.000511 -0.000438 0.000000 0.028345 -0.000012
# 6 -0.000003 0.000004 -0.000009 0.053278 -0.000012 0.843008
#
#
# Mechanical properties :
#
#
# Convention : Reuss Voigt Hill
#
# Bulk Modulus (GPa) = 19.11014 20.95905 20.03460
# Shear Modulus (GPa) = 5.35800 3.73675 4.54737
#
# Velocity S-wave (km/s) = 1.56204 1.30448 1.43904
# Velocity P-wave (km/s) = 3.45773 3.43707 3.44742
#
# Compressibility (1/GPa) = 0.05232825
#
# Stress axis : x y z
#
# Youngs Moduli (GPa) = 49.56199 64.07063 57.93591
#
# Poissons Ratio (x) = -0.01102 -0.20188
# Poissons Ratio (y) = -0.00853 0.23261
# Poissons Ratio (z) = -0.17270 0.25724
#
# Static dielectric constant tensor:
#      x y z
#    x 1.844840 0.000000 -0.025620 
#    y 0.000000 1.809250 0.000000 
#    z -0.025620 0.000000 1.848460 
# 
# From -- ./inp_files/161277.got.cif
#   From: 2010.05.17/outbox.cif.g08.bks.cpg/sg12_81_cif.got.tgz:161277.got - 2010.06.03 13:09:07.
