data_PCOD9206350
_publ_section_title
;
Structure prediction by ZEFSAII (Michael W. Deem and Ramdas Pophale) SiO2 
 PCOD9206350
Probable space group: C 2/M
;
_chemical_formula_sum "Si O2"
_cell_formula_units_Z 48
_cell_length_a 20.323984
_cell_length_b 21.960236
_cell_length_c 5.693585
_cell_angle_alpha 90.000000
_cell_angle_beta 62.002208
_cell_angle_gamma 90.000000
_cell_volume 2243.755246
_symmetry_space_group_name_H-M "C 2/M"
_symmetry_group_IT_number 12
_symmetry_cell_setting 'monoclinic'
loop_
_space_group_symop_operation_xyz
x,y,z
-x,y,-z
-x,-y,-z
x,-y,z
1/2+x,1/2+y,z
1/2-x,1/2+y,-z
1/2-x,1/2-y,-z
1/2+x,1/2-y,z
loop_
_atom_site_type_symbol
_atom_site_label
_atom_site_fract_x
_atom_site_fract_y
_atom_site_fract_z
Si Si1 0.914424 0.171569 0.708639
Si Si2 0.586539 0.074165 0.861632
Si Si3 0.158278 0.426783 0.243443
Si Si4 0.686833 0.756828 0.908058
Si Si5 0.821075 0.071104 0.103322
Si Si6 0.288091 0.344510 0.531638
O O1 0.857658 0.164875 0.586708
O O2 0.000000 0.167793 0.500000
O O3 0.892549 0.237399 0.855580
O O4 0.888822 0.114912 0.916360
O O5 0.625170 0.095807 0.550206
O O6 0.591487 0.000000 0.843597
O O7 0.500000 0.091902 0.000000
O O8 0.615773 0.089658 0.075550
O O9 0.155677 0.500000 0.262005
O O10 0.246621 0.411830 0.081034
O O11 0.700407 0.703601 0.698121
O O12 0.709193 0.820967 0.760757
O O13 0.750000 0.750000 0.000000
O O14 0.795058 0.088657 0.410359
O O15 0.837450 0.000000 0.050818
#
# Coordination Sequence:
#
# PCOD9206350 Si02
#       6
#     8   8   8   8   8   8
#     4  10  21  36  57  89 123 156 202 258 312 371
#     4   9  16  28  48  74 100 135 194 265 320 356
#     4   9  18  30  47  74 107 149 204 255 300 362
#     4   8  16  34  59  89 111 137 190 256 318 376
#     4  10  22  35  51  82 122 171 219 251 292 369
#     4   9  18  35  60  84 114 155 200 254 313 371
#
# _framework density 21.392707000000001
#
# number of rings (size 3 to 8) (size 9 to 14) (size 15 to 20)
#    0.000    2.833    0.000    0.500    2.333    5.667 
#    0.000    0.833    0.000    0.000   26.000    0.000 
#    0.000    0.667    0.000    0.000    0.000    0.000 
#
# Total GULP energy -133668.795038 kJ/mol
# GULP energy per Si atom -5569.533127 kJ/mol
# Density = 2.134402 g / cm^3
# Si number density = 21.392707 Si / 1000 Ang^3
#
#
#
# Elastic Constant Matrix: (Units=GPa)
#
#
# Indices 1 2 3 4 5 6 
#
# 1 102.2032 38.0983 68.9351 0.0000 -25.6931 0.0000
# 2 38.0983 68.9919 52.4752 0.0000 -15.7782 0.0000
# 3 68.9351 52.4752 118.2503 0.0000 -25.8647 0.0000
# 4 0.0000 0.0000 0.0000 37.1616 0.0000 -0.8932
# 5 -25.6931 -15.7782 -25.8647 0.0000 46.3639 0.0000
# 6 0.0000 0.0000 0.0000 -0.8932 0.0000 21.9167
#
#
#
# Elastic Compliance Matrix: (Units=1/GPa)
#
#
# Indices 1 2 3 4 5 6 
#
# 1 0.017139 -0.002419 -0.007996 0.000000 0.004214 0.000000
# 2 -0.002419 0.022440 -0.008168 0.000000 0.001740 0.000000
# 3 -0.007996 -0.008168 0.017273 0.000000 0.002425 0.000000
# 4 0.000000 0.000000 0.000000 0.026936 0.000000 0.001098
# 5 0.004214 0.001740 0.002425 0.000000 0.025849 0.000000
# 6 0.000000 0.000000 0.000000 0.001098 0.000000 0.045672
#
#
# Mechanical properties :
#
#
# Convention : Reuss Voigt Hill
#
# Bulk Modulus (GPa) = 50.79471 67.60697 59.20084
# Shear Modulus (GPa) = 25.12109 29.75089 27.43599
#
# Velocity S-wave (km/s) = 3.43050 3.73326 3.58508
# Velocity P-wave (km/s) = 6.28383 7.08903 6.69854
#
# Compressibility (1/GPa) = 0.01968709
#
# Stress axis : x y z
#
# Youngs Moduli (GPa) = 58.34756 44.56276 57.89369
#
# Poissons Ratio (x) = 0.10778 0.46293
# Poissons Ratio (y) = 0.14112 0.47285
# Poissons Ratio (z) = 0.46656 0.36397
#
# Static dielectric constant tensor:
#      x y z
#    x 1.742420 0.000000 0.027870 
#    y 0.000000 1.777810 0.000000 
#    z 0.027870 0.000000 1.886690 
# 
# From -- ./inp_files/16901.got.cif
#   From: 2010.05.17/outbox.cif.g08.bks.cpg/sg12_9_cif.got.tgz:16901.got - 2010.06.03 13:09:07.
