data_PCOD9206025
_publ_section_title
;
Structure prediction by ZEFSAII (Michael W. Deem and Ramdas Pophale) SiO2 
 PCOD9206025
Probable space group: C 2/M
;
_chemical_formula_sum "Si O2"
_cell_formula_units_Z 64
_cell_length_a 9.090999
_cell_length_b 15.393771
_cell_length_c 32.189430
_cell_angle_alpha 90.000000
_cell_angle_beta 45.855134
_cell_angle_gamma 90.000000
_cell_volume 3232.517850
_symmetry_space_group_name_H-M "C 2/M"
_symmetry_group_IT_number 12
_symmetry_cell_setting 'monoclinic'
loop_
_space_group_symop_operation_xyz
x,y,z
-x,y,-z
-x,-y,-z
x,-y,z
1/2+x,1/2+y,z
1/2-x,1/2+y,-z
1/2-x,1/2-y,-z
1/2+x,1/2-y,z
loop_
_atom_site_type_symbol
_atom_site_label
_atom_site_fract_x
_atom_site_fract_y
_atom_site_fract_z
Si Si1 0.988361 0.255833 0.088928
Si Si2 0.040646 0.750967 0.169413
Si Si3 0.176023 0.102965 0.000914
Si Si4 0.326371 0.345594 0.498522
Si Si5 0.307323 0.594008 0.250825
Si Si6 0.644895 0.342434 0.373161
Si Si7 0.007891 0.347460 0.623669
Si Si8 0.038273 0.596072 0.753250
O O1 0.919364 0.251988 0.150255
O O2 0.092573 0.165045 0.054446
O O3 0.772800 0.262038 0.107866
O O4 0.129311 0.340025 0.052898
O O5 0.965674 0.829731 0.212443
O O6 0.002837 0.665177 0.203213
O O7 0.215355 0.000000 0.002644
O O8 0.000000 0.104181 0.000000
O O9 0.500000 0.337223 0.500000
O O10 0.250000 0.250000 0.500000
O O11 0.446906 0.384022 0.435183
O O12 0.130584 0.387019 0.560192
O O13 0.406870 0.500000 0.228685
O O14 0.179314 0.602605 0.318498
O O15 0.139082 0.600861 0.246958
O O16 0.821988 0.336959 0.373455
O O17 0.577359 0.246528 0.372533
O O18 0.749808 0.387958 0.313326
O O19 0.036045 0.500000 0.771643
#
# Coordination Sequence:
#
# PCOD9206025 Si02
#       8
#     8   8   8   8   8   8   8   8
#     4  11  24  40  65  96 120 154 191 231 276 328
#     4  12  22  39  61  86 123 154 194 236 275 328
#     4  10  22  43  69  95 124 155 187 228 276 329
#     4   8  14  24  43  73  98 132 179 234 287 342
#     4  10  21  36  55  81 114 153 193 238 291 340
#     4   9  16  29  50  73 104 139 185 237 289 340
#     4   9  16  29  50  72 104 141 185 232 290 346
#     4  10  21  36  56  81 112 155 196 235 288 345
#
# _framework density 19.798807
#
# number of rings (size 3 to 8) (size 9 to 14) (size 15 to 20)
#    0.000    2.125    3.750    0.000    0.000    2.000 
#    0.000    1.250    0.000    3.750    0.000    0.000 
#    0.000   10.000    0.000    0.000    0.000    0.000 
#
# Total GULP energy -178247.158945 kJ/mol
# GULP energy per Si atom -5570.223717 kJ/mol
# Density = 1.975374 g / cm^3
# Si number density = 19.798807 Si / 1000 Ang^3
#
#
#
# Elastic Constant Matrix: (Units=GPa)
#
#
# Indices 1 2 3 4 5 6 
#
# 1 8.2850 17.6732 13.5218 -0.0009 0.2459 0.0006
# 2 17.6732 152.9555 65.9920 -0.0004 -6.9654 0.0002
# 3 13.5218 65.9920 103.5043 -0.0022 -7.0029 0.0015
# 4 -0.0009 -0.0004 -0.0022 -37.7005 0.0014 14.1190
# 5 0.2459 -6.9654 -7.0029 0.0014 25.6987 -0.0008
# 6 0.0006 0.0002 0.0015 14.1190 -0.0008 15.6754
#
#
#
# Elastic Compliance Matrix: (Units=1/GPa)
#
#
# Indices 1 2 3 4 5 6 
#
# 1 0.175269 -0.014523 -0.014281 -0.000004 -0.009505 -0.000001
# 2 -0.014523 0.010242 -0.004519 0.000001 0.001684 0.000000
# 3 -0.014281 -0.004519 0.014604 0.000000 0.002891 0.000000
# 4 -0.000004 0.000001 0.000000 -0.019834 0.000002 0.017865
# 5 -0.009505 0.001684 0.002891 0.000002 0.040248 0.000000
# 6 -0.000001 0.000000 0.000000 0.017865 0.000000 0.047703
#
#
# Mechanical properties :
#
#
# Convention : Reuss Voigt Hill
#
# Bulk Modulus (GPa) = 7.49232 51.01320 29.25276
# Shear Modulus (GPa) = 13.17984 11.90525 12.54255
#
# Velocity S-wave (km/s) = 2.58289 2.45483 2.51967
# Velocity P-wave (km/s) = 3.56196 5.81864 4.82412
#
# Compressibility (1/GPa) = 0.13346992
#
# Stress axis : x y z
#
# Youngs Moduli (GPa) = 5.70551 97.63434 68.47458
#
# Poissons Ratio (x) = 1.41793 0.97787
# Poissons Ratio (y) = 0.08286 0.30944
# Poissons Ratio (z) = 0.08148 0.44122
#
# Static dielectric constant tensor:
#      x y z
#    x 1.675580 0.000000 -0.011100 
#    y 0.000000 1.683690 0.000000 
#    z -0.011100 0.000000 1.741180 
# 
# From -- ./inp_files/372551.got.cif
#   From: 2010.05.17/outbox.cif.g08.bks.cpg/sg12_187_cif.got.tgz:372551.got - 2010.06.03 13:09:07.
