data_PCOD9206799
_publ_section_title
;
Structure prediction by ZEFSAII (Michael W. Deem and Ramdas Pophale) SiO2 
 PCOD9206799
Probable space group: C 2/M
;
_chemical_formula_sum "Si O2"
_cell_formula_units_Z 56
_cell_length_a 19.537448
_cell_length_b 28.624896
_cell_length_c 8.961988
_cell_angle_alpha 90.000000
_cell_angle_beta 149.843287
_cell_angle_gamma 90.000000
_cell_volume 2517.891885
_symmetry_space_group_name_H-M "C 2/M"
_symmetry_group_IT_number 12
_symmetry_cell_setting 'monoclinic'
loop_
_space_group_symop_operation_xyz
x,y,z
-x,y,-z
-x,-y,-z
x,-y,z
1/2+x,1/2+y,z
1/2-x,1/2+y,-z
1/2-x,1/2-y,-z
1/2+x,1/2-y,z
loop_
_atom_site_type_symbol
_atom_site_label
_atom_site_fract_x
_atom_site_fract_y
_atom_site_fract_z
Si Si1 0.059300 0.588731 0.270251
Si Si2 0.904406 0.219994 0.674442
Si Si3 0.874556 0.366696 0.169161
Si Si4 0.970402 0.946145 0.768204
Si Si5 0.237419 0.450408 0.839764
Si Si6 0.145108 0.317439 0.354896
Si Si7 0.405512 0.357577 0.462729
O O1 0.134215 0.550069 0.506470
O O2 0.169374 0.631211 0.463568
O O3 0.941043 0.611181 0.147619
O O4 0.000000 0.574130 0.000000
O O5 0.874716 0.273471 0.571975
O O6 0.762724 0.197807 0.464135
O O7 0.967881 0.184602 0.676471
O O8 0.000000 0.222611 0.000000
O O9 0.812127 0.408603 0.150398
O O10 0.000000 0.345358 0.500000
O O11 0.741135 0.338889 0.870166
O O12 0.888686 0.903727 0.535530
O O13 0.916254 0.000000 0.654057
O O14 0.112889 0.945219 0.946506
O O15 0.000000 0.937465 0.000000
O O16 0.230468 0.500000 0.908312
O O17 0.000000 0.323102 0.000000
O O18 0.500000 0.368889 0.500000
#
# Coordination Sequence:
#
# PCOD9206799 Si02
#       7
#     8   8   8   8   8   8   8
#     4  10  21  36  64  89 118 161 210 253 301 360
#     4  10  22  37  64  95 123 158 204 258 303 365
#     4  10  23  41  59  83 120 166 200 245 305 369
#     4  10  23  40  61  89 124 163 204 256 313 369
#     4  10  22  41  59  85 124 163 204 252 310 363
#     4   9  19  39  61  90 125 162 202 243 314 369
#     4  12  23  38  63  93 124 159 209 255 309 367
#
# _framework density 22.240828
#
# number of rings (size 3 to 8) (size 9 to 14) (size 15 to 20)
#    0.000    1.857    1.429    2.143    6.000    3.714 
#    0.000    2.143    0.000   12.000    0.000    0.000 
#    0.000    0.000    0.000    0.000    0.000    0.000 
#
# Total GULP energy -156265.963300 kJ/mol
# GULP energy per Si atom -5580.927261 kJ/mol
# Density = 2.219021 g / cm^3
# Si number density = 22.240828 Si / 1000 Ang^3
#
#
#
# Elastic Constant Matrix: (Units=GPa)
#
#
# Indices 1 2 3 4 5 6 
#
# 1 58.3550 7.0689 6.4424 0.0000 -15.0352 0.0000
# 2 7.0689 86.5434 -10.3366 0.0000 -17.8198 0.0000
# 3 6.4424 -10.3366 65.0056 0.0000 -1.3650 0.0000
# 4 0.0000 0.0000 0.0000 11.0993 0.0000 -0.9316
# 5 -15.0352 -17.8198 -1.3650 0.0000 35.9988 0.0000
# 6 0.0000 0.0000 0.0000 -0.9316 0.0000 25.9270
#
#
#
# Elastic Compliance Matrix: (Units=1/GPa)
#
#
# Indices 1 2 3 4 5 6 
#
# 1 0.019403 -0.000159 -0.001781 0.000000 0.007957 0.000000
# 2 -0.000159 0.013184 0.002250 0.000000 0.006545 0.000000
# 3 -0.001781 0.002250 0.015938 0.000000 0.000974 0.000000
# 4 0.000000 0.000000 0.000000 0.090369 0.000000 0.003247
# 5 0.007957 0.006545 0.000974 0.000000 0.034379 0.000000
# 6 0.000000 0.000000 0.000000 0.003247 0.000000 0.038687
#
#
# Mechanical properties :
#
#
# Convention : Reuss Voigt Hill
#
# Bulk Modulus (GPa) = 20.34842 24.02813 22.18828
# Shear Modulus (GPa) = 21.95666 28.38698 25.17182
#
# Velocity S-wave (km/s) = 3.14542 3.57647 3.36785
# Velocity P-wave (km/s) = 4.72869 5.28034 5.01211
#
# Compressibility (1/GPa) = 0.04914387
#
# Stress axis : x y z
#
# Youngs Moduli (GPa) = 51.53940 75.84785 62.74325
#
# Poissons Ratio (x) = 0.01206 0.11175
# Poissons Ratio (y) = 0.00820 -0.14115
# Poissons Ratio (z) = 0.09180 -0.17063
#
# Static dielectric constant tensor:
#      x y z
#    x 1.812390 0.000000 -0.014670 
#    y 0.000000 1.847650 0.000000 
#    z -0.014670 0.000000 1.852500 
# 
# From -- ./inp_files/91626.got.cif
#   From: 2010.05.17/outbox.cif.g08.bks.cpg/sg12_46_cif.got.tgz:91626.got - 2010.06.03 13:09:07.
