data_PCOD9206929
_publ_section_title
;
Structure prediction by ZEFSAII (Michael W. Deem and Ramdas Pophale) SiO2 
 PCOD9206929
Probable space group: C 2/M
;
_chemical_formula_sum "Si O2"
_cell_formula_units_Z 56
_cell_length_a 10.930822
_cell_length_b 18.940565
_cell_length_c 15.268672
_cell_angle_alpha 90.000000
_cell_angle_beta 73.833370
_cell_angle_gamma 90.000000
_cell_volume 3036.158901
_symmetry_space_group_name_H-M "C 2/M"
_symmetry_group_IT_number 12
_symmetry_cell_setting 'monoclinic'
loop_
_space_group_symop_operation_xyz
x,y,z
-x,y,-z
-x,-y,-z
x,-y,z
1/2+x,1/2+y,z
1/2-x,1/2+y,-z
1/2-x,1/2-y,-z
1/2+x,1/2-y,z
loop_
_atom_site_type_symbol
_atom_site_label
_atom_site_fract_x
_atom_site_fract_y
_atom_site_fract_z
Si Si1 0.097339 0.691917 0.296425
Si Si2 0.570595 0.213238 0.104272
Si Si3 0.510779 0.582557 0.598782
Si Si4 0.842778 0.690616 0.437959
Si Si5 0.194580 0.418173 0.407244
Si Si6 0.219886 0.161211 0.281483
Si Si7 0.309258 0.813878 0.087183
O O1 0.056921 0.682447 0.204093
O O2 0.152389 0.621395 0.327837
O O3 0.200538 0.754268 0.277943
O O4 0.979030 0.719185 0.379029
O O5 0.429534 0.233438 0.098156
O O6 0.675206 0.275488 0.093255
O O7 0.634210 0.162454 0.017918
O O8 0.500000 0.608693 0.500000
O O9 0.473293 0.500000 0.604258
O O10 0.653867 0.587228 0.605576
O O11 0.415363 0.624324 0.679564
O O12 0.750000 0.750000 0.500000
O O13 0.861632 0.628837 0.503659
O O14 0.788224 0.654037 0.361024
O O15 0.158269 0.500000 0.416658
O O16 0.283532 0.137878 0.177384
#
# Coordination Sequence:
#
# PCOD9206929 Si02
#       7
#     8   8   8   8   8   8   8
#     4  11  23  34  54  82 112 150 186 227 281 330
#     4   9  18  34  54  79 115 146 186 237 283 344
#     4  10  21  37  55  77 109 147 184 225 274 333
#     4  12  22  34  50  81 116 149 181 227 272 327
#     4  11  24  39  55  77 113 154 190 227 274 335
#     4  11  21  32  57  83 110 143 182 227 278 333
#     4   9  18  33  54  83 112 147 186 233 291 335
#
# _framework density 18.444357
#
# number of rings (size 3 to 8) (size 9 to 14) (size 15 to 20)
#    0.000    1.571    4.286    1.286    0.000    2.286 
#    0.000    0.000    0.000    0.857    0.000    4.000 
#    0.000    0.000    0.000    0.000    0.000    0.000 
#
# Total GULP energy -155910.262337 kJ/mol
# GULP energy per Si atom -5568.223655 kJ/mol
# Density = 1.840238 g / cm^3
# Si number density = 18.444357 Si / 1000 Ang^3
#
#
#
# Elastic Constant Matrix: (Units=GPa)
#
#
# Indices 1 2 3 4 5 6 
#
# 1 71.8299 10.5008 13.6690 0.0000 -1.6650 0.0000
# 2 10.5008 52.4536 25.5876 0.0000 -0.6801 0.0000
# 3 13.6690 25.5876 118.2125 0.0000 -4.0568 0.0000
# 4 0.0000 0.0000 0.0000 8.7862 0.0000 1.9070
# 5 -1.6650 -0.6801 -4.0568 0.0000 35.9567 0.0000
# 6 0.0000 0.0000 0.0000 1.9070 0.0000 21.9802
#
#
#
# Elastic Compliance Matrix: (Units=1/GPa)
#
#
# Indices 1 2 3 4 5 6 
#
# 1 0.014494 -0.002332 -0.001154 0.000000 0.000497 0.000000
# 2 -0.002332 0.021691 -0.004432 0.000000 -0.000198 0.000000
# 3 -0.001154 -0.004432 0.009585 0.000000 0.000944 0.000000
# 4 0.000000 0.000000 0.000000 0.116000 0.000000 -0.010064
# 5 0.000497 -0.000198 0.000944 0.000000 0.027937 0.000000
# 6 0.000000 0.000000 0.000000 -0.010064 0.000000 0.046369
#
#
# Mechanical properties :
#
#
# Convention : Reuss Voigt Hill
#
# Bulk Modulus (GPa) = 33.40861 38.00122 35.70492
# Shear Modulus (GPa) = 19.09205 26.19384 22.64294
#
# Velocity S-wave (km/s) = 3.22081 3.77258 3.50756
# Velocity P-wave (km/s) = 5.65544 6.29479 5.98366
#
# Compressibility (1/GPa) = 0.02993241
#
# Stress axis : x y z
#
# Youngs Moduli (GPa) = 68.99480 46.10236 104.33450
#
# Poissons Ratio (x) = 0.10752 0.12041
# Poissons Ratio (y) = 0.16091 0.46243
# Poissons Ratio (z) = 0.07963 0.20434
#
# Static dielectric constant tensor:
#      x y z
#    x 1.702000 0.000000 -0.003210 
#    y 0.000000 1.607620 0.000000 
#    z -0.003210 0.000000 1.715190 
# 
# From -- ./inp_files/206093.got.cif
#   From: 2010.05.17/outbox.cif.g08.bks.cpg/sg12_104_cif.got.tgz:206093.got - 2010.06.03 13:09:07.
