data_PCOD9206063
_publ_section_title
;
Structure prediction by ZEFSAII (Michael W. Deem and Ramdas Pophale) SiO2 
 PCOD9206063
Probable space group: C 2/M
;
_chemical_formula_sum "Si O2"
_cell_formula_units_Z 56
_cell_length_a 20.970216
_cell_length_b 8.619320
_cell_length_c 31.499484
_cell_angle_alpha 90.000000
_cell_angle_beta 30.052798
_cell_angle_gamma 90.000000
_cell_volume 2851.292591
_symmetry_space_group_name_H-M "C 2/M"
_symmetry_group_IT_number 12
_symmetry_cell_setting 'monoclinic'
loop_
_space_group_symop_operation_xyz
x,y,z
-x,y,-z
-x,-y,-z
x,-y,z
1/2+x,1/2+y,z
1/2-x,1/2+y,-z
1/2-x,1/2-y,-z
1/2+x,1/2-y,z
loop_
_atom_site_type_symbol
_atom_site_label
_atom_site_fract_x
_atom_site_fract_y
_atom_site_fract_z
Si Si1 0.080534 0.815838 0.558270
Si Si2 0.542863 0.812089 0.202016
Si Si3 0.862840 0.315240 0.232885
Si Si4 0.854553 0.185324 0.381989
Si Si5 0.091241 0.187059 0.885781
Si Si6 0.314731 0.688859 0.077953
Si Si7 0.097844 0.315601 0.407215
O O1 0.089786 0.781454 0.603076
O O2 0.215052 0.761551 0.461051
O O3 0.967733 0.728237 0.599489
O O4 0.065092 0.000000 0.561690
O O5 0.484706 0.763519 0.190285
O O6 0.447957 0.750822 0.292775
O O7 0.685688 0.757853 0.130009
O O8 0.542315 0.000000 0.203662
O O9 0.863346 0.500000 0.230287
O O10 0.863905 0.249151 0.184969
O O11 0.735463 0.261132 0.330125
O O12 0.840518 0.000000 0.385733
O O13 0.173432 0.236755 0.879487
O O14 0.093997 0.000000 0.883021
O O15 0.945411 0.236012 0.979555
O O16 0.314261 0.500000 0.078029
O O17 0.112456 0.500000 0.402555
O O18 0.000000 0.261785 0.500000
#
# Coordination Sequence:
#
# PCOD9206063 Si02
#       7
#     8   8   8   8   8   8   8
#     4  10  21  37  57  82 112 149 189 237 294 345
#     4  10  21  37  57  82 115 157 194 236 290 346
#     4  11  24  38  55  84 122 156 193 240 294 350
#     4  10  21  36  55  83 116 147 190 240 284 341
#     4   9  18  37  63  88 114 148 195 245 288 346
#     4   8  17  36  62  88 113 148 195 242 291 346
#     4  11  24  40  59  82 111 151 199 244 287 340
#
# _framework density 19.640215000000001
#
# number of rings (size 3 to 8) (size 9 to 14) (size 15 to 20)
#    0.000    2.143    0.000    3.429    2.000    6.857 
#    0.000    2.143    0.000    0.000    0.000    0.000 
#    0.000    0.000    0.000    0.000    0.000    0.000 
#
# Total GULP energy -156414.774526 kJ/mol
# GULP energy per Si atom -5586.241947 kJ/mol
# Density = 1.959551 g / cm^3
# Si number density = 19.640215 Si / 1000 Ang^3
#
#
#
# Elastic Constant Matrix: (Units=GPa)
#
#
# Indices 1 2 3 4 5 6 
#
# 1 97.9924 17.8283 47.3359 -0.0014 -14.4819 0.0084
# 2 17.8283 11.6125 11.5919 -0.0026 2.8241 0.0121
# 3 47.3359 11.5919 68.1924 -0.0009 1.1342 0.0048
# 4 -0.0014 -0.0026 -0.0009 6.6673 -0.0001 -2.4909
# 5 -14.4819 2.8241 1.1342 -0.0001 27.9882 -0.0004
# 6 0.0084 0.0121 0.0048 -2.4909 -0.0004 16.9002
#
#
#
# Elastic Compliance Matrix: (Units=1/GPa)
#
#
# Indices 1 2 3 4 5 6 
#
# 1 0.023040 -0.027513 -0.011569 -0.000003 0.015167 0.000011
# 2 -0.027513 0.139300 -0.004113 0.000017 -0.028125 -0.000083
# 3 -0.011569 -0.004113 0.023503 0.000000 -0.006523 0.000002
# 4 -0.000003 0.000017 0.000000 0.158725 -0.000002 0.023394
# 5 0.015167 -0.028125 -0.006523 -0.000002 0.046679 0.000015
# 6 0.000011 -0.000083 0.000002 0.023394 0.000015 0.062619
#
#
# Mechanical properties :
#
#
# Convention : Reuss Voigt Hill
#
# Bulk Modulus (GPa) = 10.05507 36.81217 23.43362
# Shear Modulus (GPa) = 8.71981 17.04724 12.88352
#
# Velocity S-wave (km/s) = 2.10936 2.94934 2.56398
# Velocity P-wave (km/s) = 3.32615 5.51200 4.55222
#
# Compressibility (1/GPa) = 0.09945231
#
# Stress axis : x y z
#
# Youngs Moduli (GPa) = 43.40226 7.17875 42.54847
#
# Poissons Ratio (x) = 0.19751 0.49223
# Poissons Ratio (y) = 1.19413 0.17502
# Poissons Ratio (z) = 0.50211 0.02953
#
# Static dielectric constant tensor:
#      x y z
#    x 1.706080 0.000000 -0.007560 
#    y 0.000000 1.660970 0.000000 
#    z -0.007560 0.000000 1.663030 
# 
# From -- ./inp_files/380636.got.cif
#   From: 2010.05.17/outbox.cif.g08.bks.cpg/sg12_191_cif.got.tgz:380636.got - 2010.06.03 13:09:07.
