data_PCOD9206598
_publ_section_title
;
Structure prediction by ZEFSAII (Michael W. Deem and Ramdas Pophale) SiO2 
 PCOD9206598
Probable space group: C 2/M
;
_chemical_formula_sum "Si O2"
_cell_formula_units_Z 32
_cell_length_a 10.127416
_cell_length_b 15.044573
_cell_length_c 13.398265
_cell_angle_alpha 90.000000
_cell_angle_beta 105.732238
_cell_angle_gamma 90.000000
_cell_volume 1964.923138
_symmetry_space_group_name_H-M "C 2/M"
_symmetry_group_IT_number 12
_symmetry_cell_setting 'monoclinic'
loop_
_space_group_symop_operation_xyz
x,y,z
-x,y,-z
-x,-y,-z
x,-y,z
1/2+x,1/2+y,z
1/2-x,1/2+y,-z
1/2-x,1/2-y,-z
1/2+x,1/2-y,z
loop_
_atom_site_type_symbol
_atom_site_label
_atom_site_fract_x
_atom_site_fract_y
_atom_site_fract_z
Si Si1 0.787124 0.163118 0.686913
Si Si2 0.910875 0.820186 0.289827
Si Si3 0.163043 0.500000 0.538337
Si Si4 0.366086 0.500000 0.401916
Si Si5 0.501463 0.605015 0.115371
O O1 0.683528 0.241435 0.691562
O O2 0.717798 0.086497 0.608010
O O3 0.926141 0.197023 0.660343
O O4 0.851340 0.121141 0.801442
O O5 0.902559 0.839710 0.169060
O O6 0.874351 0.911894 0.336984
O O7 0.233210 0.500000 0.444390
O O8 0.000000 0.500000 0.500000
O O9 0.500000 0.500000 0.500000
O O10 0.469352 0.500000 0.114739
O O11 0.500000 0.631963 0.000000
#
# Coordination Sequence:
#
# PCOD9206598 Si02
#       5
#     8   8   4   4   8
#     4  10  21  40  53  87 117 144 193 230 282 341
#     4  10  21  36  60  81 118 149 184 238 280 331
#     4  12  26  38  58  81 114 153 190 240 284 331
#     4  12  20  42  58  75 114 151 200 236 278 339
#     4   9  17  36  63  83 111 152 189 227 282 341
#
# _framework density 16.285623999999999
#
# number of rings (size 3 to 8) (size 9 to 14) (size 15 to 20)
#    1.500    0.250    5.000    0.000    3.500    3.000 
#    0.000    0.000    0.000    0.000    0.000    7.000 
#    0.000    0.000    0.000    0.000    0.000    0.000 
#
# Total GULP energy -89071.184300 kJ/mol
# GULP energy per Si atom -5566.949019 kJ/mol
# Density = 1.624856 g / cm^3
# Si number density = 16.285624 Si / 1000 Ang^3
#
#
#
# Elastic Constant Matrix: (Units=GPa)
#
#
# Indices 1 2 3 4 5 6 
#
# 1 142.7355 60.6527 46.8012 0.0000 -19.1571 0.0000
# 2 60.6527 99.1664 29.8970 0.0000 -28.1005 0.0000
# 3 46.8012 29.8970 80.3525 0.0000 -21.8132 0.0000
# 4 0.0000 0.0000 0.0000 -5.9754 0.0000 -5.1916
# 5 -19.1571 -28.1005 -21.8132 0.0000 24.1652 0.0000
# 6 0.0000 0.0000 0.0000 -5.1916 0.0000 36.1676
#
#
#
# Elastic Compliance Matrix: (Units=1/GPa)
#
#
# Indices 1 2 3 4 5 6 
#
# 1 0.010705 -0.005853 -0.004770 0.000000 -0.002626 0.000000
# 2 -0.005853 0.018318 0.001479 0.000000 0.017995 0.000000
# 3 -0.004770 0.001479 0.018695 0.000000 0.014813 0.000000
# 4 0.000000 0.000000 0.000000 -0.148796 0.000000 -0.021359
# 5 -0.002626 0.017995 0.014813 0.000000 0.073597 0.000000
# 6 0.000000 0.000000 0.000000 -0.021359 0.000000 0.024583
#
#
# Mechanical properties :
#
#
# Convention : Reuss Voigt Hill
#
# Bulk Modulus (GPa) = 33.98115 66.32845 50.15480
# Shear Modulus (GPa) = 198.41115 23.19837 110.80476
#
# Velocity S-wave (km/s) = 11.04973 3.77831 8.25749
# Velocity P-wave (km/s) = 13.55384 7.73633 11.03534
#
# Compressibility (1/GPa) = 0.02942808
#
# Stress axis : x y z
#
# Youngs Moduli (GPa) = 93.41576 54.59257 53.49147
#
# Poissons Ratio (x) = 0.31955 0.25516
# Poissons Ratio (y) = 0.54680 -0.07911
# Poissons Ratio (z) = 0.44559 -0.08074
#
# Static dielectric constant tensor:
#      x y z
#    x 1.543530 0.000000 -0.010520 
#    y 0.000000 1.517860 0.000000 
#    z -0.010520 0.000000 1.556310 
# 
# From -- ./inp_files/118242.got.cif
#   From: 2010.05.17/outbox.cif.g08.bks.cpg/sg12_60_cif.got.tgz:118242.got - 2010.06.03 13:09:07.
