data_PCOD9206996
_publ_section_title
;
Structure prediction by ZEFSAII (Michael W. Deem and Ramdas Pophale) SiO2 
 PCOD9206996
Probable space group: C 2/M
;
_chemical_formula_sum "Si O2"
_cell_formula_units_Z 48
_cell_length_a 9.075263
_cell_length_b 13.024685
_cell_length_c 19.670365
_cell_angle_alpha 90.000000
_cell_angle_beta 78.357759
_cell_angle_gamma 90.000000
_cell_volume 2277.250593
_symmetry_space_group_name_H-M "C 2/M"
_symmetry_group_IT_number 12
_symmetry_cell_setting 'monoclinic'
loop_
_space_group_symop_operation_xyz
x,y,z
-x,y,-z
-x,-y,-z
x,-y,z
1/2+x,1/2+y,z
1/2-x,1/2+y,-z
1/2-x,1/2-y,-z
1/2+x,1/2-y,z
loop_
_atom_site_type_symbol
_atom_site_label
_atom_site_fract_x
_atom_site_fract_y
_atom_site_fract_z
Si Si1 0.883836 0.805904 0.752369
Si Si2 0.328674 0.375046 0.019865
Si Si3 0.536672 0.879923 0.416694
Si Si4 0.103423 0.621510 0.159530
Si Si5 0.306397 0.121059 0.109000
Si Si6 0.324948 0.256962 0.341604
O O1 0.885039 0.685647 0.773232
O O2 0.830315 0.861839 0.825662
O O3 0.759942 0.815354 0.705338
O O4 0.049501 0.825553 0.708814
O O5 0.333433 0.500000 0.014303
O O6 0.246628 0.356289 0.098753
O O7 0.500000 0.338833 0.000000
O O8 0.233227 0.341587 0.962683
O O9 0.500000 0.874035 0.500000
O O10 0.414639 0.813491 0.386392
O O11 0.697581 0.827405 0.386971
O O12 0.535478 0.000000 0.396756
O O13 0.091744 0.500000 0.172137
O O14 0.957414 0.660181 0.131214
O O15 0.333758 0.000000 0.099176
#
# Coordination Sequence:
#
# PCOD9206996 Si02
#       6
#     8   8   8   8   8   8
#     4  11  22  38  57  89 125 162 205 252 315 382
#     4   9  19  34  54  82 109 146 206 274 327 372
#     4  10  22  44  74 102 132 175 216 255 313 374
#     4  10  21  38  59  78 110 160 210 262 321 385
#     4  10  21  37  56  78 113 157 205 259 320 382
#     4  10  23  40  63  97 138 166 207 266 310 378
#
# _framework density 21.078050000000001
#
# number of rings (size 3 to 8) (size 9 to 14) (size 15 to 20)
#    0.000    2.000    1.667    1.000    2.333    6.667 
#    0.000    2.500    0.000    9.000    0.000    0.000 
#    0.000    0.000    0.000    0.000    0.000    0.000 
#
# Total GULP energy -134167.784947 kJ/mol
# GULP energy per Si atom -5590.324373 kJ/mol
# Density = 2.103008 g / cm^3
# Si number density = 21.078050 Si / 1000 Ang^3
#
#
#
# Elastic Constant Matrix: (Units=GPa)
#
#
# Indices 1 2 3 4 5 6 
#
# 1 137.8314 26.6504 47.0477 0.0000 -8.0468 0.0000
# 2 26.6504 67.0994 21.0598 0.0000 11.4746 0.0000
# 3 47.0477 21.0598 88.9096 0.0000 -4.3725 0.0000
# 4 0.0000 0.0000 0.0000 25.7149 0.0000 -2.9975
# 5 -8.0468 11.4746 -4.3725 0.0000 27.3526 0.0000
# 6 0.0000 0.0000 0.0000 -2.9975 0.0000 23.6889
#
#
#
# Elastic Compliance Matrix: (Units=1/GPa)
#
#
# Indices 1 2 3 4 5 6 
#
# 1 0.009445 -0.003042 -0.004110 0.000000 0.003398 0.000000
# 2 -0.003042 0.018728 -0.003282 0.000000 -0.009276 0.000000
# 3 -0.004110 -0.003282 0.014321 0.000000 0.002457 0.000000
# 4 0.000000 0.000000 0.000000 0.039470 0.000000 0.004994
# 5 0.003398 -0.009276 0.002457 0.000000 0.041843 0.000000
# 6 0.000000 0.000000 0.000000 0.004994 0.000000 0.042846
#
#
# Mechanical properties :
#
#
# Convention : Reuss Voigt Hill
#
# Bulk Modulus (GPa) = 46.24512 53.70623 49.97568
# Shear Modulus (GPa) = 25.67650 28.62346 27.14998
#
# Velocity S-wave (km/s) = 3.49401 3.68907 3.59286
# Velocity P-wave (km/s) = 6.18587 6.60913 6.40100
#
# Compressibility (1/GPa) = 0.02162390
#
# Stress axis : x y z
#
# Youngs Moduli (GPa) = 105.87830 53.39560 69.82933
#
# Poissons Ratio (x) = 0.16245 0.28701
# Poissons Ratio (y) = 0.32212 0.22921
# Poissons Ratio (z) = 0.43517 0.17527
#
# Static dielectric constant tensor:
#      x y z
#    x 1.755930 0.000000 0.005520 
#    y 0.000000 1.792330 0.000000 
#    z 0.005520 0.000000 1.740060 
# 
# From -- ./inp_files/255779.got.cif
#   From: 2010.05.17/outbox.cif.g08.bks.cpg/sg12_128_cif.got.tgz:255779.got - 2010.06.03 13:09:07.
