data_PCOD9206774
_publ_section_title
;
Structure prediction by ZEFSAII (Michael W. Deem and Ramdas Pophale) SiO2 
 PCOD9206774
Probable space group: C 2/M
;
_chemical_formula_sum "Si O2"
_cell_formula_units_Z 48
_cell_length_a 19.489747
_cell_length_b 11.193175
_cell_length_c 11.646185
_cell_angle_alpha 90.000000
_cell_angle_beta 66.454089
_cell_angle_gamma 90.000000
_cell_volume 2329.107242
_symmetry_space_group_name_H-M "C 2/M"
_symmetry_group_IT_number 12
_symmetry_cell_setting 'monoclinic'
loop_
_space_group_symop_operation_xyz
x,y,z
-x,y,-z
-x,-y,-z
x,-y,z
1/2+x,1/2+y,z
1/2-x,1/2+y,-z
1/2-x,1/2-y,-z
1/2+x,1/2-y,z
loop_
_atom_site_type_symbol
_atom_site_label
_atom_site_fract_x
_atom_site_fract_y
_atom_site_fract_z
Si Si1 0.664308 0.359009 0.253719
Si Si2 0.564490 0.366430 0.732053
Si Si3 0.590084 0.359564 0.052279
Si Si4 0.323800 0.241861 0.203719
Si Si5 0.575348 0.212684 0.498753
Si Si6 0.795341 0.626833 0.449036
O O1 0.679606 0.500000 0.263900
O O2 0.630494 0.349099 0.148999
O O3 0.739325 0.279987 0.219214
O O4 0.606668 0.307044 0.385254
O O5 0.552396 0.500000 0.699952
O O6 0.644399 0.351703 0.740941
O O7 0.557775 0.281917 0.627989
O O8 0.497811 0.339500 0.865791
O O9 0.599284 0.500000 0.008439
O O10 0.626709 0.263213 0.942595
O O11 0.331920 0.140298 0.297199
O O12 0.500000 0.156359 0.500000
O O13 0.642542 0.128405 0.493494
O O14 0.753547 0.500000 0.479077
O O15 0.750000 0.750000 0.500000
#
# Coordination Sequence:
#
# PCOD9206774 Si02
#       6
#     8   8   8   8   8   8
#     4  11  22  38  61  93 132 173 219 275 328 390
#     4  10  21  36  62  96 129 171 224 280 327 383
#     4  10  21  38  62  93 129 172 224 275 323 381
#     4  11  22  37  59  90 131 168 212 262 333 387
#     4  11  22  40  66  95 127 169 215 274 337 398
#     4  11  25  44  69  98 132 171 216 272 332 395
#
# _framework density 20.608756
#
# number of rings (size 3 to 8) (size 9 to 14) (size 15 to 20)
#    0.000    1.333    3.333    2.500    0.000    5.667 
#    0.000    0.000    0.000   20.000    0.000    0.000 
#    0.000    0.000    0.000    0.000    0.000    0.000 
#
# Total GULP energy -133704.615733 kJ/mol
# GULP energy per Si atom -5571.025656 kJ/mol
# Density = 2.056185 g / cm^3
# Si number density = 20.608756 Si / 1000 Ang^3
#
#
#
# Elastic Constant Matrix: (Units=GPa)
#
#
# Indices 1 2 3 4 5 6 
#
# 1 122.2509 38.3169 21.4909 0.0000 10.7004 0.0000
# 2 38.3169 99.1211 44.9911 0.0000 -9.8078 0.0000
# 3 21.4909 44.9911 99.3879 0.0000 0.2846 0.0000
# 4 0.0000 0.0000 0.0000 0.0800 0.0000 -1.8221
# 5 10.7004 -9.8078 0.2846 0.0000 36.1750 0.0000
# 6 0.0000 0.0000 0.0000 -1.8221 0.0000 22.4840
#
#
#
# Elastic Compliance Matrix: (Units=1/GPa)
#
#
# Indices 1 2 3 4 5 6 
#
# 1 0.009861 -0.004087 -0.000271 0.000000 -0.004023 0.000000
# 2 -0.004087 0.014848 -0.005853 0.000000 0.005280 0.000000
# 3 -0.000271 -0.005853 0.012774 0.000000 -0.001607 0.000000
# 4 0.000000 0.000000 0.000000-14.770131 0.000000 -1.196978
# 5 -0.004023 0.005280 -0.001607 0.000000 0.030278 0.000000
# 6 0.000000 0.000000 0.000000 -1.196978 0.000000 -0.052528
#
#
# Mechanical properties :
#
#
# Convention : Reuss Voigt Hill
#
# Bulk Modulus (GPa) = 58.61020 58.92865 58.76942
# Shear Modulus (GPa) = -0.33947 26.14519 12.90286
#
# Velocity S-wave (km/s) = -0.40630 3.56567 2.50489
# Velocity P-wave (km/s) = 5.31800 6.75337 6.07820
#
# Compressibility (1/GPa) = 0.01706188
#
# Stress axis : x y z
#
# Youngs Moduli (GPa) = 101.41447 67.35124 78.28368
#
# Poissons Ratio (x) = 0.27526 0.02118
# Poissons Ratio (y) = 0.41448 0.45816
# Poissons Ratio (z) = 0.02744 0.39418
#
# Static dielectric constant tensor:
#      x y z
#    x 1.785310 0.000000 -0.004270 
#    y 0.000000 1.734440 0.000000 
#    z -0.004270 0.000000 1.766470 
# 
# From -- ./inp_files/164188.got.cif
#   From: 2010.05.17/outbox.cif.g08.bks.cpg/sg12_83_cif.got.tgz:164188.got - 2010.06.03 13:09:07.
