data_PCOD9206269
_publ_section_title
;
Structure prediction by ZEFSAII (Michael W. Deem and Ramdas Pophale) SiO2 
 PCOD9206269
Probable space group: C 2/M
;
_chemical_formula_sum "Si O2"
_cell_formula_units_Z 56
_cell_length_a 19.494004
_cell_length_b 8.359946
_cell_length_c 19.913835
_cell_angle_alpha 90.000000
_cell_angle_beta 114.283919
_cell_angle_gamma 90.000000
_cell_volume 2958.182944
_symmetry_space_group_name_H-M "C 2/M"
_symmetry_group_IT_number 12
_symmetry_cell_setting 'monoclinic'
loop_
_space_group_symop_operation_xyz
x,y,z
-x,y,-z
-x,-y,-z
x,-y,z
1/2+x,1/2+y,z
1/2-x,1/2+y,-z
1/2-x,1/2-y,-z
1/2+x,1/2-y,z
loop_
_atom_site_type_symbol
_atom_site_label
_atom_site_fract_x
_atom_site_fract_y
_atom_site_fract_z
Si Si1 0.049908 0.193230 0.581182
Si Si2 0.790515 0.192398 0.311062
Si Si3 0.666987 0.180039 0.813208
Si Si4 0.928077 0.188597 0.927875
Si Si5 0.212162 0.319179 0.050779
Si Si6 0.884657 0.690300 0.760807
Si Si7 0.513259 0.689769 0.718685
O O1 0.139584 0.225888 0.610861
O O2 0.019846 0.242406 0.643149
O O3 0.000000 0.257515 0.500000
O O4 0.042925 0.000000 0.577817
O O5 0.812862 0.297391 0.256149
O O6 0.703221 0.227701 0.289261
O O7 0.794660 0.000000 0.297830
O O8 0.719720 0.307766 0.869724
O O9 0.579750 0.220958 0.785307
O O10 0.683741 0.000000 0.843076
O O11 0.855855 0.218492 0.945810
O O12 0.909597 0.262258 0.846994
O O13 0.939544 0.000000 0.921216
O O14 0.000000 0.249606 0.000000
O O15 0.186089 0.500000 0.030527
O O16 0.250000 0.250000 0.000000
O O17 0.893746 0.500000 0.758892
O O18 0.936654 0.773499 0.726275
O O19 0.528471 0.500000 0.726184
#
# Coordination Sequence:
#
# PCOD9206269 Si02
#       7
#     8   8   8   8   8   8   8
#     4   8  15  32  59  87 114 149 193 237 286 344
#     4   9  18  34  57  84 112 148 189 233 283 339
#     4  11  21  36  58  82 109 145 191 239 288 341
#     4  11  25  43  61  84 116 153 196 245 296 345
#     4  12  25  41  60  83 114 148 192 240 290 345
#     4  11  22  37  58  83 117 155 196 242 289 347
#     4  10  21  36  57  84 116 151 194 241 288 343
#
# _framework density 18.930541000000002
#
# number of rings (size 3 to 8) (size 9 to 14) (size 15 to 20)
#    0.000    1.714    1.429    4.714    2.000    1.714 
#    0.000    0.714    0.000   10.714    0.000    0.000 
#    0.000    0.000    0.000    0.000    0.000    0.000 
#
# Total GULP energy -156106.728841 kJ/mol
# GULP energy per Si atom -5575.240316 kJ/mol
# Density = 1.888745 g / cm^3
# Si number density = 18.930541 Si / 1000 Ang^3
#
#
#
# Elastic Constant Matrix: (Units=GPa)
#
#
# Indices 1 2 3 4 5 6 
#
# 1 130.7687 6.1446 51.9080 0.0000 12.1422 0.0000
# 2 6.1446 34.8889 -1.7776 0.0000 3.1522 0.0000
# 3 51.9080 -1.7776 92.0712 0.0000 21.2976 0.0000
# 4 0.0000 0.0000 0.0000 13.2783 0.0000 3.2898
# 5 12.1422 3.1522 21.2976 0.0000 24.8864 0.0000
# 6 0.0000 0.0000 0.0000 3.2898 0.0000 18.7405
#
#
#
# Elastic Compliance Matrix: (Units=1/GPa)
#
#
# Indices 1 2 3 4 5 6 
#
# 1 0.009998 -0.002081 -0.005747 0.000000 0.000304 0.000000
# 2 -0.002081 0.029657 0.002967 0.000000 -0.005281 0.000000
# 3 -0.005747 0.002967 0.016953 0.000000 -0.012080 0.000000
# 4 0.000000 0.000000 0.000000 0.078735 0.000000 -0.013821
# 5 0.000304 -0.005281 -0.012080 0.000000 0.051041 0.000000
# 6 0.000000 0.000000 0.000000 -0.013821 0.000000 0.055787
#
#
# Mechanical properties :
#
#
# Convention : Reuss Voigt Hill
#
# Bulk Modulus (GPa) = 21.32816 41.14209 31.23513
# Shear Modulus (GPa) = 18.69009 24.81130 21.75069
#
# Velocity S-wave (km/s) = 3.14554 3.62422 3.39333
# Velocity P-wave (km/s) = 4.94809 6.26846 5.64700
#
# Compressibility (1/GPa) = 0.04688636
#
# Stress axis : x y z
#
# Youngs Moduli (GPa) = 100.02041 33.71854 58.98698
#
# Poissons Ratio (x) = 0.07017 0.33901
# Poissons Ratio (y) = 0.20815 -0.17504
# Poissons Ratio (z) = 0.57483 -0.10006
#
# Static dielectric constant tensor:
#      x y z
#    x 1.645550 0.000000 0.069300 
#    y 0.000000 1.649130 0.000000 
#    z 0.069300 0.000000 1.582110 
# 
# From -- ./inp_files/275572.got.cif
#   From: 2010.05.17/outbox.cif.g08.bks.cpg/sg12_138_cif.got.tgz:275572.got - 2010.06.03 13:09:07.
