data_PCOD9206166
_publ_section_title
;
Structure prediction by ZEFSAII (Michael W. Deem and Ramdas Pophale) SiO2 
 PCOD9206166
Probable space group: C 2/M
;
_chemical_formula_sum "Si O2"
_cell_formula_units_Z 28
_cell_length_a 18.401124
_cell_length_b 10.522391
_cell_length_c 5.225489
_cell_angle_alpha 90.000000
_cell_angle_beta 87.500901
_cell_angle_gamma 90.000000
_cell_volume 1010.816854
_symmetry_space_group_name_H-M "C 2/M"
_symmetry_group_IT_number 12
_symmetry_cell_setting 'monoclinic'
loop_
_space_group_symop_operation_xyz
x,y,z
-x,y,-z
-x,-y,-z
x,-y,z
1/2+x,1/2+y,z
1/2-x,1/2+y,-z
1/2-x,1/2-y,-z
1/2+x,1/2-y,z
loop_
_atom_site_type_symbol
_atom_site_label
_atom_site_fract_x
_atom_site_fract_y
_atom_site_fract_z
Si Si1 0.833544 0.224432 0.412727
Si Si2 0.948320 0.218126 0.760232
Si Si3 0.786597 0.000000 0.130919
Si Si4 0.314206 0.000000 0.346012
Si Si5 0.048333 0.500000 0.238248
O O1 0.750000 0.250000 0.500000
O O2 0.876953 0.157185 0.637541
O O3 0.858001 0.367008 0.328735
O O4 0.833428 0.126479 0.177473
O O5 0.000000 0.214121 0.500000
O O6 0.917076 0.361571 0.792399
O O7 0.000000 0.185814 0.000000
O O8 0.728373 0.000000 0.376318
O O9 0.741246 0.000000 0.880466
O O10 0.000000 0.500000 0.500000
O O11 0.000000 0.500000 0.000000
#
# Coordination Sequence:
#
# PCOD9206166 Si02
#       5
#     8   8   4   4   4
#     4  10  22  41  64  91 121 160 203 249 299 358
#     4  10  21  36  56  84 118 154 194 242 296 352
#     4  10  22  38  59  90 122 155 201 250 297 352
#     4  10  21  38  62  90 120 155 197 250 302 352
#     4   8  15  30  51  78 110 144 184 232 287 346
#
# _framework density 27.700365999999999
#
# number of rings (size 3 to 8) (size 9 to 14) (size 15 to 20)
#    0.000    2.286    0.000    1.714    0.000    9.143 
#    0.000   10.000    0.000    0.000    0.000    0.000 
#    0.000    0.000    0.000    0.000    0.000    0.000 
#
# Total GULP energy -78097.364898 kJ/mol
# GULP energy per Si atom -5578.383207 kJ/mol
# Density = 2.763732 g / cm^3
# Si number density = 27.700366 Si / 1000 Ang^3
#
#
#
# Elastic Constant Matrix: (Units=GPa)
#
#
# Indices 1 2 3 4 5 6 
#
# 1 100.3233 -0.2063 81.5344 0.0000 29.6375 0.0000
# 2 -0.2063 142.8941 24.3552 0.0000 24.8998 0.0000
# 3 81.5344 24.3552 312.0096 0.0000 57.1286 0.0000
# 4 0.0000 0.0000 0.0000 25.2794 0.0000 10.3809
# 5 29.6375 24.8998 57.1286 0.0000 83.4858 0.0000
# 6 0.0000 0.0000 0.0000 10.3809 0.0000 2.6864
#
#
#
# Elastic Compliance Matrix: (Units=1/GPa)
#
#
# Indices 1 2 3 4 5 6 
#
# 1 0.013296 0.001051 -0.003012 0.000000 -0.002972 0.000000
# 2 0.001051 0.007476 -0.000436 0.000000 -0.002304 0.000000
# 3 -0.003012 -0.000436 0.004352 0.000000 -0.001778 0.000000
# 4 0.000000 0.000000 0.000000 -0.067410 0.000000 0.260486
# 5 -0.002972 -0.002304 -0.001778 0.000000 0.014937 0.000000
# 6 0.000000 0.000000 0.000000 0.260486 0.000000 -0.634330
#
#
# Mechanical properties :
#
#
# Convention : Reuss Voigt Hill
#
# Bulk Modulus (GPa) = 49.19429 85.17706 67.18567
# Shear Modulus (GPa) = -7.69104 52.25991 22.28443
#
# Velocity S-wave (km/s) = -1.66809 4.34823 2.83942
# Velocity P-wave (km/s) = 3.75339 7.48503 5.92088
#
# Compressibility (1/GPa) = 0.02032756
#
# Stress axis : x y z
#
# Youngs Moduli (GPa) = 75.20968 133.76960 229.78422
#
# Poissons Ratio (x) = -0.14053 0.69219
# Poissons Ratio (y) = -0.07901 0.10023
# Poissons Ratio (z) = 0.22656 0.05835
#
# Static dielectric constant tensor:
#      x y z
#    x 2.432970 0.000000 -0.068150 
#    y 0.000000 0.677570 0.000000 
#    z -0.068150 0.000000 2.135950 
# 
# From -- ./inp_files/18937.got.cif
#   From: 2010.05.17/outbox.cif.g08.bks.cpg/sg12_10_cif.got.tgz:18937.got - 2010.06.03 13:09:07.
