data_PCOD9206351
_publ_section_title
;
Structure prediction by ZEFSAII (Michael W. Deem and Ramdas Pophale) SiO2 
 PCOD9206351
Probable space group: C 2/M
;
_chemical_formula_sum "Si O2"
_cell_formula_units_Z 52
_cell_length_a 18.377537
_cell_length_b 22.068333
_cell_length_c 8.790856
_cell_angle_alpha 90.000000
_cell_angle_beta 45.423639
_cell_angle_gamma 90.000000
_cell_volume 2539.571848
_symmetry_space_group_name_H-M "C 2/M"
_symmetry_group_IT_number 12
_symmetry_cell_setting 'monoclinic'
loop_
_space_group_symop_operation_xyz
x,y,z
-x,y,-z
-x,-y,-z
x,-y,z
1/2+x,1/2+y,z
1/2-x,1/2+y,-z
1/2-x,1/2-y,-z
1/2+x,1/2-y,z
loop_
_atom_site_type_symbol
_atom_site_label
_atom_site_fract_x
_atom_site_fract_y
_atom_site_fract_z
Si Si1 0.000000 0.787625 0.000000
Si Si2 0.588791 0.222122 0.156973
Si Si3 0.678006 0.318415 0.239404
Si Si4 0.186626 0.431521 0.485045
Si Si5 0.753129 0.932947 0.032919
Si Si6 0.469079 0.087699 0.712089
Si Si7 0.698504 0.317420 0.556648
O O1 0.896642 0.822898 0.189094
O O2 0.025883 0.747726 0.108679
O O3 0.605177 0.270308 0.265707
O O4 0.537267 0.160117 0.282102
O O5 0.705134 0.206533 0.936458
O O6 0.656154 0.324936 0.448550
O O7 0.680003 0.379639 0.136841
O O8 0.221853 0.500000 0.474868
O O9 0.220191 0.421337 0.257636
O O10 0.227393 0.373738 0.517106
O O11 0.063441 0.430865 0.677039
O O12 0.646731 0.932840 0.093196
O O13 0.798905 0.000000 0.958176
O O14 0.500000 0.065409 0.500000
O O15 0.750000 0.250000 0.500000
#
# Coordination Sequence:
#
# PCOD9206351 Si02
#       7
#     4   8   8   8   8   8   8
#     4  12  24  38  61  90 127 154 214 256 328 372
#     4  10  21  36  57  89 123 163 200 262 305 374
#     4  10  22  38  59  85 125 165 210 251 317 371
#     4  10  21  39  61  90 128 168 207 260 323 382
#     4   9  18  35  59  87 122 164 210 259 314 385
#     4   9  18  30  58  89 123 159 205 249 310 379
#     4  12  25  40  62  91 125 168 211 266 315 374
#
# _framework density 20.475892000000002
#
# number of rings (size 3 to 8) (size 9 to 14) (size 15 to 20)
#    0.000    1.846    1.538    2.308    8.615    2.462 
#    0.000    0.385    0.000    3.692    0.000    4.308 
#    0.000    0.000    0.000    0.000    0.000    0.000 
#
# Total GULP energy -145113.762090 kJ/mol
# GULP energy per Si atom -5581.298542 kJ/mol
# Density = 2.042929 g / cm^3
# Si number density = 20.475892 Si / 1000 Ang^3
#
#
#
# Elastic Constant Matrix: (Units=GPa)
#
#
# Indices 1 2 3 4 5 6 
#
# 1 77.9742 48.1687 -4.7995 0.0000 10.2373 0.0000
# 2 48.1687 153.1743 15.6750 0.0000 8.3025 0.0000
# 3 -4.7995 15.6750 45.0452 0.0000 -1.7978 0.0000
# 4 0.0000 0.0000 0.0000 15.7631 0.0000 3.3277
# 5 10.2373 8.3025 -1.7978 0.0000 26.8864 0.0000
# 6 0.0000 0.0000 0.0000 3.3277 0.0000 17.1330
#
#
#
# Elastic Compliance Matrix: (Units=1/GPa)
#
#
# Indices 1 2 3 4 5 6 
#
# 1 0.017017 -0.005466 0.003533 0.000000 -0.004555 0.000000
# 2 -0.005466 0.008664 -0.003631 0.000000 -0.000837 0.000000
# 3 0.003533 -0.003631 0.023895 0.000000 0.001374 0.000000
# 4 0.000000 0.000000 0.000000 0.066152 0.000000 -0.012849
# 5 -0.004555 -0.000837 0.001374 0.000000 0.039278 0.000000
# 6 0.000000 0.000000 0.000000 -0.012849 0.000000 0.060862
#
#
# Mechanical properties :
#
#
# Convention : Reuss Voigt Hill
#
# Bulk Modulus (GPa) = 26.00843 43.80911 34.90877
# Shear Modulus (GPa) = 20.84970 26.43313 23.64142
#
# Velocity S-wave (km/s) = 3.19447 3.59686 3.40162
# Velocity P-wave (km/s) = 5.13184 6.22027 5.70209
#
# Compressibility (1/GPa) = 0.03844907
#
# Stress axis : x y z
#
# Youngs Moduli (GPa) = 58.76503 115.41573 41.85030
#
# Poissons Ratio (x) = 0.63086 -0.14787
# Poissons Ratio (y) = 0.32121 0.15195
# Poissons Ratio (z) = -0.20764 0.41906
#
# Static dielectric constant tensor:
#      x y z
#    x 1.727650 0.000000 -0.003010 
#    y 0.000000 1.743330 0.000000 
#    z -0.003010 0.000000 1.744760 
# 
# From -- ./inp_files/77939.got.cif
#   From: 2010.05.17/outbox.cif.g08.bks.cpg/sg12_39_cif.got.tgz:77939.got - 2010.06.03 13:09:07.
