data_PCOD9206272
_publ_section_title
;
Structure prediction by ZEFSAII (Michael W. Deem and Ramdas Pophale) SiO2 
 PCOD9206272
Probable space group: C 2/M
;
_chemical_formula_sum "Si O2"
_cell_formula_units_Z 44
_cell_length_a 8.342261
_cell_length_b 19.960656
_cell_length_c 13.569516
_cell_angle_alpha 90.000000
_cell_angle_beta 98.863294
_cell_angle_gamma 90.000000
_cell_volume 2232.573272
_symmetry_space_group_name_H-M "C 2/M"
_symmetry_group_IT_number 12
_symmetry_cell_setting 'monoclinic'
loop_
_space_group_symop_operation_xyz
x,y,z
-x,y,-z
-x,-y,-z
x,-y,z
1/2+x,1/2+y,z
1/2-x,1/2+y,-z
1/2-x,1/2-y,-z
1/2+x,1/2-y,z
loop_
_atom_site_type_symbol
_atom_site_label
_atom_site_fract_x
_atom_site_fract_y
_atom_site_fract_z
Si Si1 0.860381 0.694404 0.066176
Si Si2 0.865318 0.736482 0.293022
Si Si3 0.629128 0.574492 0.097289
Si Si4 0.446913 0.353035 0.719680
Si Si5 0.674479 0.421941 0.473051
Si Si6 0.000000 0.662968 0.500000
O O1 0.908552 0.718063 0.182297
O O2 0.768476 0.624853 0.076428
O O3 0.750000 0.750000 0.000000
O O4 0.000000 0.683495 0.000000
O O5 0.684660 0.707213 0.287934
O O6 0.891573 0.816303 0.301789
O O7 0.958885 0.705017 0.396748
O O8 0.686892 0.500000 0.131180
O O9 0.535171 0.612799 0.174695
O O10 0.500000 0.567940 0.000000
O O11 0.363571 0.409046 0.644869
O O12 0.500000 0.398727 0.500000
O O13 0.696317 0.500000 0.499897
O O14 0.838833 0.380891 0.508920
#
# Coordination Sequence:
#
# PCOD9206272 Si02
#       6
#     8   8   8   8   8   4
#     4  11  21  38  62  90 123 159 205 256 307 373
#     4  10  22  35  58  90 115 161 192 248 322 352
#     4  10  21  38  59  84 117 161 200 246 309 365
#     4  10  21  36  57  84 117 150 197 250 298 373
#     4  10  22  39  60  84 116 164 207 249 307 373
#     4  10  23  40  60  88 127 156 204 264 306 374
#
# _framework density 19.708199
#
# number of rings (size 3 to 8) (size 9 to 14) (size 15 to 20)
#    0.000    1.818    0.000    4.636    3.818    1.818 
#    0.000    0.909    0.000    0.000    0.000    0.000 
#    0.000    0.000    0.000    0.000    0.000    0.000 
#
# Total GULP energy -122512.436632 kJ/mol
# GULP energy per Si atom -5568.747120 kJ/mol
# Density = 1.966334 g / cm^3
# Si number density = 19.708199 Si / 1000 Ang^3
#
#
#
# Elastic Constant Matrix: (Units=GPa)
#
#
# Indices 1 2 3 4 5 6 
#
# 1 63.0831 38.1452 33.8703 0.0000 -2.9763 0.0000
# 2 38.1452 112.9492 34.6033 0.0000 3.9860 0.0000
# 3 33.8703 34.6033 123.7100 0.0000 12.1165 0.0000
# 4 0.0000 0.0000 0.0000 20.6762 0.0000 -2.9595
# 5 -2.9763 3.9860 12.1165 0.0000 25.0871 0.0000
# 6 0.0000 0.0000 0.0000 -2.9595 0.0000 -220.5556
#
#
#
# Elastic Compliance Matrix: (Units=1/GPa)
#
#
# Indices 1 2 3 4 5 6 
#
# 1 0.022674 -0.006330 -0.005037 0.000000 0.006129 0.000000
# 2 -0.006330 0.011452 -0.001279 0.000000 -0.001953 0.000000
# 3 -0.005037 -0.001279 0.010348 0.000000 -0.005393 0.000000
# 4 0.000000 0.000000 0.000000 0.048272 0.000000 -0.000648
# 5 0.006129 -0.001953 -0.005393 0.000000 0.043503 0.000000
# 6 0.000000 0.000000 0.000000 -0.000648 0.000000 -0.004525
#
#
# Mechanical properties :
#
#
# Convention : Reuss Voigt Hill
#
# Bulk Modulus (GPa) = 52.13455 56.99776 54.56615
# Shear Modulus (GPa) = 30.59766 -22.08356 4.25705
#
# Velocity S-wave (km/s) = 3.94450 -3.35106 1.47130
# Velocity P-wave (km/s) = 6.87430 3.74310 5.53475
#
# Compressibility (1/GPa) = 0.01918114
#
# Stress axis : x y z
#
# Youngs Moduli (GPa) = 44.10372 87.31975 96.63275
#
# Poissons Ratio (x) = 0.55277 0.48678
# Poissons Ratio (y) = 0.27920 0.12358
# Poissons Ratio (z) = 0.22217 0.11167
#
# Static dielectric constant tensor:
#      x y z
#    x 1.746450 0.000000 -0.028720 
#    y 0.000000 1.703000 0.000000 
#    z -0.028720 0.000000 1.740560 
# 
# From -- ./inp_files/120742.got.cif
#   From: 2010.05.17/outbox.cif.g08.bks.cpg/sg12_61_cif.got.tgz:120742.got - 2010.06.03 13:09:07.
