data_PCOD9206404
_publ_section_title
;
Structure prediction by ZEFSAII (Michael W. Deem and Ramdas Pophale) SiO2 
 PCOD9206404
Probable space group: C 2/M
;
_chemical_formula_sum "Si O2"
_cell_formula_units_Z 64
_cell_length_a 9.584563
_cell_length_b 27.841443
_cell_length_c 24.492897
_cell_angle_alpha 90.000000
_cell_angle_beta 150.526640
_cell_angle_gamma 90.000000
_cell_volume 3215.777092
_symmetry_space_group_name_H-M "C 2/M"
_symmetry_group_IT_number 12
_symmetry_cell_setting 'monoclinic'
loop_
_space_group_symop_operation_xyz
x,y,z
-x,y,-z
-x,-y,-z
x,-y,z
1/2+x,1/2+y,z
1/2-x,1/2+y,-z
1/2-x,1/2-y,-z
1/2+x,1/2-y,z
loop_
_atom_site_type_symbol
_atom_site_label
_atom_site_fract_x
_atom_site_fract_y
_atom_site_fract_z
Si Si1 0.399440 0.808223 0.363926
Si Si2 0.688949 0.945106 0.015924
Si Si3 0.825205 0.096802 0.884766
Si Si4 0.027567 0.279601 0.073530
Si Si5 0.367557 0.806616 0.228856
Si Si6 0.478958 0.698298 0.408083
Si Si7 0.597096 0.346149 0.733557
Si Si8 0.829363 0.554333 0.780836
O O1 0.280640 0.803986 0.262235
O O2 0.451692 0.755590 0.408223
O O3 0.726080 0.825190 0.473968
O O4 0.177774 0.838943 0.322584
O O5 0.987489 0.922088 0.101569
O O6 0.748255 0.000000 0.052822
O O7 0.500000 0.922691 0.000000
O O8 0.509907 0.946216 0.898875
O O9 0.778114 0.152284 0.855873
O O10 0.537261 0.068568 0.801444
O O11 0.000000 0.091764 0.000000
O O12 0.291002 0.243534 0.174379
O O13 0.118820 0.327281 0.138165
O O14 0.000000 0.289321 0.000000
O O15 0.750000 0.250000 0.000000
O O16 0.697125 0.820258 0.340378
O O17 0.441647 0.688565 0.331324
O O18 0.626419 0.400173 0.721409
O O19 0.717330 0.500000 0.735359
#
# Coordination Sequence:
#
# PCOD9206404 Si02
#       8
#     8   8   8   8   8   8   8   8
#     4  11  23  38  64  90 121 151 202 260 311 353
#     4   9  19  35  56  84 115 150 203 258 300 343
#     4  10  21  36  58  85 121 165 200 242 296 367
#     4  12  25  37  55  87 133 170 194 229 293 372
#     4  12  22  38  57  91 122 162 202 241 295 378
#     4  11  21  42  62  87 119 160 199 255 305 366
#     4  12  23  40  60  91 123 163 211 247 307 371
#     4  10  22  39  60  83 117 164 213 258 299 361
#
# _framework density 19.901878
#
# number of rings (size 3 to 8) (size 9 to 14) (size 15 to 20)
#    0.000    1.125    3.750    3.000    5.250    4.000 
#    0.000    0.000    0.000    1.500    0.000    0.875 
#    0.000    0.000    0.000    0.000    0.000    0.000 
#
# Total GULP energy -178588.294406 kJ/mol
# GULP energy per Si atom -5580.884200 kJ/mol
# Density = 1.985658 g / cm^3
# Si number density = 19.901878 Si / 1000 Ang^3
#
#
#
# Elastic Constant Matrix: (Units=GPa)
#
#
# Indices 1 2 3 4 5 6 
#
# 1 103.3045 5.5035 23.8822 0.0020 2.3730 -0.0004
# 2 5.5035 80.5171 8.1532 0.0002 9.4900 -0.0006
# 3 23.8822 8.1532 54.6831 0.0032 10.3650 -0.0011
# 4 0.0020 0.0002 0.0032 9.7138 0.0029 2.1298
# 5 2.3730 9.4900 10.3650 0.0029 33.8388 -0.0005
# 6 -0.0004 -0.0006 -0.0011 2.1298 -0.0005 24.0405
#
#
#
# Elastic Compliance Matrix: (Units=1/GPa)
#
#
# Indices 1 2 3 4 5 6 
#
# 1 0.010793 -0.000346 -0.004817 -0.000001 0.000816 0.000000
# 2 -0.000346 0.012944 -0.001163 0.000001 -0.003250 0.000000
# 3 -0.004817 -0.001163 0.021698 -0.000005 -0.005982 0.000001
# 4 -0.000001 0.000001 -0.000005 0.104986 -0.000008 -0.009301
# 5 0.000816 -0.003250 -0.005982 -0.000008 0.032238 0.000001
# 6 0.000000 0.000000 0.000001 -0.009301 0.000001 0.042420
#
#
# Mechanical properties :
#
#
# Convention : Reuss Voigt Hill
#
# Bulk Modulus (GPa) = 30.50258 34.84249 32.67253
# Shear Modulus (GPa) = 20.10777 26.91633 23.51205
#
# Velocity S-wave (km/s) = 3.18204 3.68156 3.44088
# Velocity P-wave (km/s) = 5.37218 5.96800 5.67791
#
# Compressibility (1/GPa) = 0.03278411
#
# Stress axis : x y z
#
# Youngs Moduli (GPa) = 92.64912 77.25496 46.08677
#
# Poissons Ratio (x) = 0.02674 0.22199
# Poissons Ratio (y) = 0.03207 0.05359
# Poissons Ratio (z) = 0.44628 0.08983
#
# Static dielectric constant tensor:
#      x y z
#    x 1.743790 0.000000 0.021210 
#    y 0.000000 1.711230 0.000000 
#    z 0.021210 0.000000 1.789560 
# 
# From -- ./inp_files/334331.got.cif
#   From: 2010.05.17/outbox.cif.g08.bks.cpg/sg12_168_cif.got.tgz:334331.got - 2010.06.03 13:09:07.
