data_PCOD9206910
_publ_section_title
;
Structure prediction by ZEFSAII (Michael W. Deem and Ramdas Pophale) SiO2 
 PCOD9206910
Probable space group: C 2/M
;
_chemical_formula_sum "Si O2"
_cell_formula_units_Z 56
_cell_length_a 10.310049
_cell_length_b 14.275428
_cell_length_c 21.689064
_cell_angle_alpha 90.000000
_cell_angle_beta 50.562743
_cell_angle_gamma 90.000000
_cell_volume 2465.405366
_symmetry_space_group_name_H-M "C 2/M"
_symmetry_group_IT_number 12
_symmetry_cell_setting 'monoclinic'
loop_
_space_group_symop_operation_xyz
x,y,z
-x,y,-z
-x,-y,-z
x,-y,z
1/2+x,1/2+y,z
1/2-x,1/2+y,-z
1/2-x,1/2-y,-z
1/2+x,1/2-y,z
loop_
_atom_site_type_symbol
_atom_site_label
_atom_site_fract_x
_atom_site_fract_y
_atom_site_fract_z
Si Si1 0.661748 0.385722 0.863141
Si Si2 0.900148 0.893212 0.341325
Si Si3 0.746586 0.113900 0.791296
Si Si4 0.134279 0.332495 0.512687
Si Si5 0.377460 0.114557 0.909784
Si Si6 0.654169 0.887153 0.312112
Si Si7 0.197214 0.886130 0.083259
O O1 0.654644 0.500000 0.867670
O O2 0.728141 0.354835 0.909533
O O3 0.800250 0.357582 0.770379
O O4 0.480539 0.356481 0.892559
O O5 0.771135 0.896534 0.436869
O O6 0.797285 0.848828 0.315715
O O7 0.086831 0.853936 0.295939
O O8 0.931347 0.000000 0.312290
O O9 0.559760 0.146658 0.831428
O O10 0.778803 0.140118 0.853041
O O11 0.735059 0.000000 0.789839
O O12 0.250000 0.250000 0.500000
O O13 0.000000 0.307964 0.500000
O O14 0.025132 0.366920 0.603240
O O15 0.376606 0.000000 0.909444
O O16 0.339336 0.142433 0.991483
O O17 0.667451 0.000000 0.308223
O O18 0.196885 0.000000 0.084559
#
# Coordination Sequence:
#
# PCOD9206910 Si02
#       7
#     8   8   8   8   8   8   8
#     4   9  15  24  38  60  91 124 159 194 230 279
#     4   9  16  30  53  75  95 126 167 202 235 282
#     4   9  15  24  38  60  91 124 159 194 230 279
#     4  10  21  37  55  75  99 124 158 202 246 294
#     4   9  16  22  32  57  93 130 156 185 237 283
#     4   9  16  30  53  75  95 126 167 202 235 282
#     4   9  14  22  36  55  87 128 162 191 227 277
#
# _framework density 22.714316
#
# number of rings (size 3 to 8) (size 9 to 14) (size 15 to 20)
#    0.000    2.857    1.429    1.286    0.000    5.143 
#    2.571    0.000    0.000    0.857    0.000    0.000 
#    0.000    6.857    0.000    0.000    0.000    0.000 
#
# Total GULP energy -156189.260247 kJ/mol
# GULP energy per Si atom -5578.187866 kJ/mol
# Density = 2.266262 g / cm^3
# Si number density = 22.714316 Si / 1000 Ang^3
#
#
#
# Elastic Constant Matrix: (Units=GPa)
#
#
# Indices 1 2 3 4 5 6 
#
# 1 65.5063 -2.4114 8.6550 0.0000 -23.6121 0.0000
# 2 -2.4114 48.1173 -10.1464 0.0000 -4.0739 0.0000
# 3 8.6550 -10.1464 82.4955 0.0000 -16.1039 0.0000
# 4 0.0000 0.0000 0.0000 9.2740 0.0000 -3.0937
# 5 -23.6121 -4.0739 -16.1039 0.0000 33.5658 0.0000
# 6 0.0000 0.0000 0.0000 -3.0937 0.0000 5.2392
#
#
#
# Elastic Compliance Matrix: (Units=1/GPa)
#
#
# Indices 1 2 3 4 5 6 
#
# 1 0.020796 0.002600 0.001164 0.000000 0.015503 0.000000
# 2 0.002600 0.022224 0.003690 0.000000 0.006297 0.000000
# 3 0.001164 0.003690 0.014013 0.000000 0.007990 0.000000
# 4 0.000000 0.000000 0.000000 0.134277 0.000000 0.079288
# 5 0.015503 0.006297 0.007990 0.000000 0.045296 0.000000
# 6 0.000000 0.000000 0.000000 0.079288 0.000000 0.237686
#
#
# Mechanical properties :
#
#
# Convention : Reuss Voigt Hill
#
# Bulk Modulus (GPa) = 13.90007 20.92374 17.41190
# Shear Modulus (GPa) = 10.34417 22.95061 16.64739
#
# Velocity S-wave (km/s) = 2.13633 3.18213 2.71016
# Velocity P-wave (km/s) = 3.49543 4.76791 4.18037
#
# Compressibility (1/GPa) = 0.07194208
#
# Stress axis : x y z
#
# Youngs Moduli (GPa) = 48.08667 44.99634 71.36088
#
# Poissons Ratio (x) = -0.11700 -0.08309
# Poissons Ratio (y) = -0.12504 -0.26331
# Poissons Ratio (z) = -0.05599 -0.16603
#
# Static dielectric constant tensor:
#      x y z
#    x 1.883050 0.000000 -0.214050 
#    y 0.000000 1.888840 0.000000 
#    z -0.214050 0.000000 2.485440 
# 
# From -- ./inp_files/300696.got.cif
#   From: 2010.05.17/outbox.cif.g08.bks.cpg/sg12_151_cif.got.tgz:300696.got - 2010.06.03 13:09:07.
