data_PCOD9206724
_publ_section_title
;
Structure prediction by ZEFSAII (Michael W. Deem and Ramdas Pophale) SiO2 
 PCOD9206724
Probable space group: C 2/M
;
_chemical_formula_sum "Si O2"
_cell_formula_units_Z 40
_cell_length_a 16.834332
_cell_length_b 8.417316
_cell_length_c 20.078979
_cell_angle_alpha 90.000000
_cell_angle_beta 38.442417
_cell_angle_gamma 90.000000
_cell_volume 1768.933170
_symmetry_space_group_name_H-M "C 2/M"
_symmetry_group_IT_number 12
_symmetry_cell_setting 'monoclinic'
loop_
_space_group_symop_operation_xyz
x,y,z
-x,y,-z
-x,-y,-z
x,-y,z
1/2+x,1/2+y,z
1/2-x,1/2+y,-z
1/2-x,1/2-y,-z
1/2+x,1/2-y,z
loop_
_atom_site_type_symbol
_atom_site_label
_atom_site_fract_x
_atom_site_fract_y
_atom_site_fract_z
Si Si1 0.924633 0.315853 0.114674
Si Si2 0.213941 0.244085 0.345543
Si Si3 0.613860 0.815374 0.113299
Si Si4 0.034908 0.000000 0.390606
Si Si5 0.702602 0.000000 0.455870
Si Si6 0.986996 0.000000 0.746918
Si Si7 0.724728 0.000000 0.595567
O O1 0.877861 0.500000 0.133726
O O2 0.808911 0.212639 0.222334
O O3 0.030196 0.324109 0.101998
O O4 0.000000 0.259057 0.000000
O O5 0.103091 0.145954 0.382619
O O6 0.157127 0.358124 0.438827
O O7 0.305823 0.144056 0.335632
O O8 0.559282 0.667784 0.192288
O O9 0.619225 0.000000 0.137127
O O10 0.750000 0.750000 0.000000
O O11 0.064630 0.000000 0.293897
O O12 0.119530 0.000000 0.507953
O O13 0.672085 0.000000 0.554975
O O14 0.857801 0.000000 0.352311
#
# Coordination Sequence:
#
# PCOD9206724 Si02
#       7
#     8   8   8   4   4   4   4
#     4  10  21  36  61  92 123 165 214 260 320 383
#     4  11  20  40  64  95 124 167 215 271 322 397
#     4  11  23  39  63  90 131 176 224 271 324 392
#     4  10  24  41  67  88 134 173 210 266 348 398
#     4  11  23  40  66  96 129 163 222 282 325 390
#     4  11  23  44  61  95 133 177 217 273 333 397
#     4  10  22  43  67  90 125 176 220 266 344 400
#
# _framework density 22.612500000000001
#
# number of rings (size 3 to 8) (size 9 to 14) (size 15 to 20)
#    0.000    1.400    5.000    1.800    2.800    0.000 
#    1.800    4.000    0.000    0.000    0.000    0.000 
#    0.000    0.000    0.000    0.000    0.000    0.000 
#
# Total GULP energy -111387.022807 kJ/mol
# GULP energy per Si atom -5569.351140 kJ/mol
# Density = 2.256103 g / cm^3
# Si number density = 22.612500 Si / 1000 Ang^3
#
#
#
# Elastic Constant Matrix: (Units=GPa)
#
#
# Indices 1 2 3 4 5 6 
#
# 1 117.1613 40.8445 57.2375 0.0000 18.0621 0.0000
# 2 40.8445 116.6057 35.1026 0.0000 25.5903 0.0000
# 3 57.2375 35.1026 146.8360 0.0000 28.6045 0.0000
# 4 0.0000 0.0000 0.0000 -33.3130 0.0000 -31.3351
# 5 18.0621 25.5903 28.6045 0.0000 52.3206 0.0000
# 6 0.0000 0.0000 0.0000 -31.3351 0.0000 15.2333
#
#
#
# Elastic Compliance Matrix: (Units=1/GPa)
#
#
# Indices 1 2 3 4 5 6 
#
# 1 0.011374 -0.002755 -0.003663 0.000000 -0.000577 0.000000
# 2 -0.002755 0.010599 -0.000711 0.000000 -0.003844 0.000000
# 3 -0.003663 -0.000711 0.009059 0.000000 -0.003340 0.000000
# 4 0.000000 0.000000 0.000000 -0.010228 0.000000 -0.021039
# 5 -0.000577 -0.003844 -0.003340 0.000000 0.023018 0.000000
# 6 0.000000 0.000000 0.000000 -0.021039 0.000000 0.022367
#
#
# Mechanical properties :
#
#
# Convention : Reuss Voigt Hill
#
# Bulk Modulus (GPa) = 59.61579 71.88580 65.75079
# Shear Modulus (GPa) = 58.11437 23.34277 40.72857
#
# Velocity S-wave (km/s) = 5.07503 3.21642 4.24860
# Velocity P-wave (km/s) = 7.79503 6.75671 7.29437
#
# Compressibility (1/GPa) = 0.01677408
#
# Stress axis : x y z
#
# Youngs Moduli (GPa) = 87.92069 94.35270 110.39056
#
# Poissons Ratio (x) = 0.25993 0.40433
# Poissons Ratio (y) = 0.24221 0.07848
# Poissons Ratio (z) = 0.32203 0.06708
#
# Static dielectric constant tensor:
#      x y z
#    x 1.796380 0.000000 -0.052350 
#    y 0.000000 13.297940 0.000000 
#    z -0.052350 0.000000 1.911960 
# 
# From -- ./inp_files/273989.got.cif
#   From: 2010.05.17/outbox.cif.g08.bks.cpg/sg12_137_cif.got.tgz:273989.got - 2010.06.03 13:09:07.
