data_PCOD9206093
_publ_section_title
;
Structure prediction by ZEFSAII (Michael W. Deem and Ramdas Pophale) SiO2 
 PCOD9206093
Probable space group: C 2/M
;
_chemical_formula_sum "Si O2"
_cell_formula_units_Z 56
_cell_length_a 20.816643
_cell_length_b 17.784189
_cell_length_c 7.989773
_cell_angle_alpha 90.000000
_cell_angle_beta 68.987220
_cell_angle_gamma 90.000000
_cell_volume 2761.173776
_symmetry_space_group_name_H-M "C 2/M"
_symmetry_group_IT_number 12
_symmetry_cell_setting 'monoclinic'
loop_
_space_group_symop_operation_xyz
x,y,z
-x,y,-z
-x,-y,-z
x,-y,z
1/2+x,1/2+y,z
1/2-x,1/2+y,-z
1/2-x,1/2-y,-z
1/2+x,1/2-y,z
loop_
_atom_site_type_symbol
_atom_site_label
_atom_site_fract_x
_atom_site_fract_y
_atom_site_fract_z
Si Si1 0.290516 0.332726 0.140554
Si Si2 0.052072 0.419849 0.298121
Si Si3 0.920032 0.412110 0.192780
Si Si4 0.791555 0.177191 0.752899
Si Si5 0.578264 0.251407 0.968449
Si Si6 0.922460 0.739272 0.644286
Si Si7 0.222453 0.412987 0.512886
O O1 0.251965 0.252774 0.179358
O O2 0.365017 0.309829 0.147669
O O3 0.251094 0.384037 0.309907
O O4 0.294252 0.357797 0.940254
O O5 0.088128 0.500000 0.240915
O O6 0.096549 0.348417 0.307120
O O7 0.000000 0.427187 0.500000
O O8 0.997007 0.406147 0.198689
O O9 0.913907 0.500000 0.136478
O O10 0.906721 0.336017 0.097180
O O11 0.860291 0.405947 0.388181
O O12 0.865151 0.208553 0.615430
O O13 0.755875 0.128884 0.641784
O O14 0.500000 0.266553 0.000000
O O15 0.579725 0.264552 0.163726
O O16 0.000000 0.742369 0.500000
O O17 0.239429 0.500000 0.512793
#
# Coordination Sequence:
#
# PCOD9206093 Si02
#       7
#     8   8   8   8   8   8   8
#     4  10  23  39  62  92 123 160 209 256 306 367
#     4   9  18  31  47  76 122 157 189 228 276 348
#     4  10  21  36  55  89 126 163 202 237 296 376
#     4  10  22  41  62  89 127 158 202 262 309 357
#     4  11  21  35  57  88 119 159 199 248 304 355
#     4  10  22  34  56  87 114 157 208 241 300 362
#     4  11  24  41  67  91 121 166 206 255 314 364
#
# _framework density 20.281230000000001
#
# number of rings (size 3 to 8) (size 9 to 14) (size 15 to 20)
#    0.000    1.857    2.857    0.429    6.000    1.429 
#    0.000    0.000    0.000    0.857    0.000    0.000 
#    0.000    0.000    0.000    0.000    0.000    0.000 
#
# Total GULP energy -155948.236654 kJ/mol
# GULP energy per Si atom -5569.579881 kJ/mol
# Density = 2.023507 g / cm^3
# Si number density = 20.281230 Si / 1000 Ang^3
#
#
#
# Elastic Constant Matrix: (Units=GPa)
#
#
# Indices 1 2 3 4 5 6 
#
# 1 68.6413 27.5067 16.2448 0.0000 -10.5527 0.0000
# 2 27.5067 58.1265 24.7695 0.0000 -1.1154 0.0000
# 3 16.2448 24.7695 79.5163 0.0000 -3.6317 0.0000
# 4 0.0000 0.0000 0.0000 14.6476 0.0000 -21.9093
# 5 -10.5527 -1.1154 -3.6317 0.0000 35.6681 0.0000
# 6 0.0000 0.0000 0.0000 -21.9093 0.0000 12.3798
#
#
#
# Elastic Compliance Matrix: (Units=1/GPa)
#
#
# Indices 1 2 3 4 5 6 
#
# 1 0.019007 -0.008465 -0.001006 0.000000 0.005256 0.000000
# 2 -0.008465 0.023607 -0.005732 0.000000 -0.002350 0.000000
# 3 -0.001006 -0.005732 0.014613 0.000000 0.001011 0.000000
# 4 0.000000 0.000000 0.000000 -0.041448 0.000000 -0.073353
# 5 0.005256 -0.002350 0.001011 0.000000 0.029621 0.000000
# 6 0.000000 0.000000 0.000000 -0.073353 0.000000 -0.049041
#
#
# Mechanical properties :
#
#
# Convention : Reuss Voigt Hill
#
# Bulk Modulus (GPa) = 37.28313 38.14734 37.71524
# Shear Modulus (GPa) = 140.03771 21.72331 80.88051
#
# Velocity S-wave (km/s) = 8.31852 3.27632 6.32187
# Velocity P-wave (km/s) = 10.52078 5.75868 8.48084
#
# Compressibility (1/GPa) = 0.02682178
#
# Stress axis : x y z
#
# Youngs Moduli (GPa) = 52.61281 42.36045 68.43151
#
# Poissons Ratio (x) = 0.35857 0.06885
# Poissons Ratio (y) = 0.44536 0.39222
# Poissons Ratio (z) = 0.05293 0.24279
#
# Static dielectric constant tensor:
#      x y z
#    x 1.426200 0.000000 0.085760 
#    y 0.000000 1.736200 0.000000 
#    z 0.085760 0.000000 1.797410 
# 
# From -- ./inp_files/96765.got.cif
#   From: 2010.05.17/outbox.cif.g08.bks.cpg/sg12_49_cif.got.tgz:96765.got - 2010.06.03 13:09:07.
