data_PCOD9206642
_publ_section_title
;
Structure prediction by ZEFSAII (Michael W. Deem and Ramdas Pophale) SiO2 
 PCOD9206642
Probable space group: C 2/M
;
_chemical_formula_sum "Si O2"
_cell_formula_units_Z 50
_cell_length_a 8.093961
_cell_length_b 19.665695
_cell_length_c 17.313642
_cell_angle_alpha 90.000000
_cell_angle_beta 59.432336
_cell_angle_gamma 90.000000
_cell_volume 2372.885096
_symmetry_space_group_name_H-M "C 2/M"
_symmetry_group_IT_number 12
_symmetry_cell_setting 'monoclinic'
loop_
_space_group_symop_operation_xyz
x,y,z
-x,y,-z
-x,-y,-z
x,-y,z
1/2+x,1/2+y,z
1/2-x,1/2+y,-z
1/2-x,1/2-y,-z
1/2+x,1/2-y,z
loop_
_atom_site_type_symbol
_atom_site_label
_atom_site_fract_x
_atom_site_fract_y
_atom_site_fract_z
Si Si1 0.782513 0.918153 0.041711
Si Si2 0.850307 0.166968 0.295774
Si Si3 0.785256 0.394919 0.519314
Si Si4 0.432658 0.922233 0.223121
Si Si5 0.655286 0.577422 0.142591
Si Si6 0.000000 0.000000 0.500000
Si Si7 0.917786 0.314965 0.349946
O O1 0.632657 0.893969 0.140994
O O2 0.779054 0.000000 0.052135
O O3 0.737438 0.905511 0.962689
O O4 0.000000 0.894106 0.000000
O O5 0.833682 0.119982 0.375281
O O6 0.641698 0.170495 0.308277
O O7 0.997261 0.132862 0.201748
O O8 0.895144 0.241739 0.317380
O O9 0.651627 0.442487 0.499001
O O10 0.000000 0.417064 0.500000
O O11 0.825521 0.328943 0.455693
O O12 0.297901 0.924993 0.180515
O O13 0.347751 0.872630 0.307061
O O14 0.452849 0.000000 0.248289
O O15 0.573854 0.500000 0.152216
#
# Coordination Sequence:
#
# PCOD9206642 Si02
#       7
#     8   8   8   8   8   2   8
#     4   9  17  33  56  85 120 159 198 247 313 367
#     4  11  24  42  63  88 124 165 210 256 308 375
#     4  10  26  44  65  98 131 166 210 259 313 374
#     4  10  21  36  60  90 122 158 205 254 308 371
#     4  10  21  36  60  90 122 158 205 254 308 371
#     4  12  26  40  76  94 132 162 212 260 320 362
#     4  11  24  42  63  88 124 165 210 256 308 375
#
# _framework density 21.071394999999999
#
# number of rings (size 3 to 8) (size 9 to 14) (size 15 to 20)
#    0.000    1.760    0.000    3.120    6.720    3.840 
#    0.000    0.800    0.000    0.000    0.000    0.000 
#    0.000    0.000    0.000    0.000    0.000    0.000 
#
# Total GULP energy -139254.184364 kJ/mol
# GULP energy per Si atom -5570.167375 kJ/mol
# Density = 2.102344 g / cm^3
# Si number density = 21.071395 Si / 1000 Ang^3
#
#
#
# Elastic Constant Matrix: (Units=GPa)
#
#
# Indices 1 2 3 4 5 6 
#
# 1 83.1930 22.4584 3.2677 0.0000 14.8048 0.0000
# 2 22.4584 66.3467 7.3328 0.0000 3.0870 0.0000
# 3 3.2677 7.3328 58.7415 0.0000 10.5816 0.0000
# 4 0.0000 0.0000 0.0000 14.4179 0.0000 2.7512
# 5 14.8048 3.0870 10.5816 0.0000 24.7701 0.0000
# 6 0.0000 0.0000 0.0000 2.7512 0.0000 26.5889
#
#
#
# Elastic Compliance Matrix: (Units=1/GPa)
#
#
# Indices 1 2 3 4 5 6 
#
# 1 0.014826 -0.004758 0.001364 0.000000 -0.008851 0.000000
# 2 -0.004758 0.016842 -0.002136 0.000000 0.001657 0.000000
# 3 0.001364 -0.002136 0.018757 0.000000 -0.008561 0.000000
# 4 0.000000 0.000000 0.000000 0.070755 0.000000 -0.007321
# 5 -0.008851 0.001657 -0.008561 0.000000 0.049112 0.000000
# 6 0.000000 0.000000 0.000000 -0.007321 0.000000 0.038367
#
#
# Mechanical properties :
#
#
# Convention : Reuss Voigt Hill
#
# Bulk Modulus (GPa) = 25.40379 30.48877 27.94628
# Shear Modulus (GPa) = 21.47384 24.83686 23.15535
#
# Velocity S-wave (km/s) = 3.19580 3.43695 3.31856
# Velocity P-wave (km/s) = 5.06949 5.50007 5.28916
#
# Compressibility (1/GPa) = 0.03936421
#
# Stress axis : x y z
#
# Youngs Moduli (GPa) = 67.44859 59.37621 53.31394
#
# Poissons Ratio (x) = 0.28248 -0.07270
# Poissons Ratio (y) = 0.32089 0.11389
# Poissons Ratio (z) = -0.09197 0.12684
#
# Static dielectric constant tensor:
#      x y z
#    x 1.794450 0.000000 0.003380 
#    y 0.000000 1.804260 0.000000 
#    z 0.003380 0.000000 1.753830 
# 
# From -- ./inp_files/256943.got.cif
#   From: 2010.05.17/outbox.cif.g08.bks.cpg/sg12_129_cif.got.tgz:256943.got - 2010.06.03 13:09:07.
