data_PCOD9206496
_publ_section_title
;
Structure prediction by ZEFSAII (Michael W. Deem and Ramdas Pophale) SiO2 
 PCOD9206496
Probable space group: C 2/M
;
_chemical_formula_sum "Si O2"
_cell_formula_units_Z 64
_cell_length_a 11.917684
_cell_length_b 14.978770
_cell_length_c 17.480717
_cell_angle_alpha 90.000000
_cell_angle_beta 88.590312
_cell_angle_gamma 90.000000
_cell_volume 3119.577637
_symmetry_space_group_name_H-M "C 2/M"
_symmetry_group_IT_number 12
_symmetry_cell_setting 'monoclinic'
loop_
_space_group_symop_operation_xyz
x,y,z
-x,y,-z
-x,-y,-z
x,-y,z
1/2+x,1/2+y,z
1/2-x,1/2+y,-z
1/2-x,1/2-y,-z
1/2+x,1/2-y,z
loop_
_atom_site_type_symbol
_atom_site_label
_atom_site_fract_x
_atom_site_fract_y
_atom_site_fract_z
Si Si1 0.607796 0.669889 0.283348
Si Si2 0.633237 0.603236 0.707323
Si Si3 0.294610 0.105224 0.387069
Si Si4 0.471816 0.805262 0.585391
Si Si5 0.238645 0.762881 0.827917
Si Si6 0.403269 0.899380 0.112599
Si Si7 0.662134 0.899573 0.064113
Si Si8 0.257633 0.394813 0.448721
O O1 0.499292 0.608783 0.275633
O O2 0.717094 0.622231 0.315946
O O3 0.572537 0.739284 0.349640
O O4 0.647038 0.719315 0.206215
O O5 0.670917 0.500000 0.713328
O O6 0.694769 0.668384 0.764794
O O7 0.663273 0.637754 0.621085
O O8 0.415598 0.150040 0.384298
O O9 0.231512 0.140872 0.465164
O O10 0.311343 0.000000 0.396436
O O11 0.500000 0.767824 0.500000
O O12 0.370854 0.875441 0.572441
O O13 0.151462 0.682602 0.842075
O O14 0.262300 0.821650 0.902568
O O15 0.537764 0.892234 0.103098
O O16 0.377414 0.000000 0.142512
O O17 0.355671 0.894118 0.026599
O O18 0.704868 0.000000 0.081072
O O19 0.279840 0.500000 0.452613
#
# Coordination Sequence:
#
# PCOD9206496 Si02
#       8
#     8   8   8   8   8   8   8   8
#     4  12  25  37  54  86 118 157 201 248 301 356
#     4  11  24  40  56  81 121 161 201 249 299 355
#     4  10  22  39  59  79 106 149 201 255 309 359
#     4  10  21  36  59  81 110 142 196 257 309 355
#     4  12  22  39  60  89 123 163 197 236 297 357
#     4   9  20  39  65  94 123 153 190 243 290 343
#     4   9  19  39  66  95 121 152 197 238 285 347
#     4   9  19  38  60  81 106 146 200 258 310 356
#
# _framework density 20.515597
#
# number of rings (size 3 to 8) (size 9 to 14) (size 15 to 20)
#    0.000    1.750    1.250    3.750    1.750    3.500 
#    0.000    3.125    0.000    0.000    0.000    7.875 
#    0.000    0.000    0.000    0.000    0.000    0.000 
#
# Total GULP energy -178754.383558 kJ/mol
# GULP energy per Si atom -5586.074486 kJ/mol
# Density = 2.046890 g / cm^3
# Si number density = 20.515597 Si / 1000 Ang^3
#
#
#
# Elastic Constant Matrix: (Units=GPa)
#
#
# Indices 1 2 3 4 5 6 
#
# 1 48.6155 9.0398 -5.7012 0.0000 -7.3376 0.0000
# 2 9.0398 77.7068 14.6894 0.0000 -7.0714 0.0000
# 3 -5.7012 14.6894 20.1648 0.0000 -9.0086 0.0000
# 4 0.0000 0.0000 0.0000 8.4121 0.0000 -18.2593
# 5 -7.3376 -7.0714 -9.0086 0.0000 26.0365 0.0000
# 6 0.0000 0.0000 0.0000 -18.2593 0.0000 -0.7533
#
#
#
# Elastic Compliance Matrix: (Units=1/GPa)
#
#
# Indices 1 2 3 4 5 6 
#
# 1 0.024965 -0.004831 0.015536 0.000000 0.011099 0.000000
# 2 -0.004831 0.015862 -0.013726 0.000000 -0.001803 0.000000
# 3 0.015536 -0.013726 0.076025 0.000000 0.026955 0.000000
# 4 0.000000 0.000000 0.000000 0.002217 0.000000 -0.053745
# 5 0.011099 -0.001803 0.026955 0.000000 0.050372 0.000000
# 6 0.000000 0.000000 0.000000 -0.053745 0.000000 -0.024761
#
#
# Mechanical properties :
#
#
# Convention : Reuss Voigt Hill
#
# Bulk Modulus (GPa) = 9.02444 20.28256 14.65350
# Shear Modulus (GPa) = 26.64408 15.30301 20.97355
#
# Velocity S-wave (km/s) = 3.60769 2.73412 3.20085
# Velocity P-wave (km/s) = 4.66500 4.45815 4.56275
#
# Compressibility (1/GPa) = 0.11081015
#
# Stress axis : x y z
#
# Youngs Moduli (GPa) = 40.05601 63.04558 13.15355
#
# Poissons Ratio (x) = 0.30458 -0.20436
# Poissons Ratio (y) = 0.19351 0.18054
# Poissons Ratio (z) = -0.62232 0.86536
#
# Static dielectric constant tensor:
#      x y z
#    x 1.710900 0.000000 -0.010760 
#    y 0.000000 1.739780 0.000000 
#    z -0.010760 0.000000 1.740630 
# 
# From -- ./inp_files/263351.got.cif
#   From: 2010.05.17/outbox.cif.g08.bks.cpg/sg12_132_cif.got.tgz:263351.got - 2010.06.03 13:09:07.
