data_PCOD9206139
_publ_section_title
;
Structure prediction by ZEFSAII (Michael W. Deem and Ramdas Pophale) SiO2 
 PCOD9206139
Probable space group: C 2/M
;
_chemical_formula_sum "Si O2"
_cell_formula_units_Z 64
_cell_length_a 26.800225
_cell_length_b 7.734532
_cell_length_c 17.211230
_cell_angle_alpha 90.000000
_cell_angle_beta 49.480669
_cell_angle_gamma 90.000000
_cell_volume 2712.093865
_symmetry_space_group_name_H-M "C 2/M"
_symmetry_group_IT_number 12
_symmetry_cell_setting 'monoclinic'
loop_
_space_group_symop_operation_xyz
x,y,z
-x,y,-z
-x,-y,-z
x,-y,z
1/2+x,1/2+y,z
1/2-x,1/2+y,-z
1/2-x,1/2-y,-z
1/2+x,1/2-y,z
loop_
_atom_site_type_symbol
_atom_site_label
_atom_site_fract_x
_atom_site_fract_y
_atom_site_fract_z
Si Si1 0.097904 0.794188 0.742499
Si Si2 0.222768 0.792976 0.186833
Si Si3 0.090798 0.200523 0.248135
Si Si4 0.847365 0.290552 0.481264
Si Si5 0.723609 0.708862 0.697928
Si Si6 0.151171 0.298963 0.025895
Si Si7 0.531038 0.708847 0.051897
Si Si8 0.032915 0.300367 0.543298
O O1 0.127829 0.764285 0.627856
O O2 0.151060 0.726203 0.750725
O O3 0.024268 0.730334 0.830627
O O4 0.092991 0.000000 0.759824
O O5 0.149985 0.727473 0.241635
O O6 0.247944 0.757932 0.247598
O O7 0.219793 0.000000 0.179116
O O8 0.278249 0.726432 0.071076
O O9 0.117289 0.211512 0.133826
O O10 0.022619 0.293539 0.334165
O O11 0.078947 0.000000 0.278910
O O12 0.848112 0.500000 0.481539
O O13 0.775221 0.232858 0.579822
O O14 0.900112 0.224478 0.491171
O O15 0.721308 0.500000 0.698100
O O16 0.158892 0.500000 0.037952
O O17 0.101210 0.282816 0.004173
O O18 0.538745 0.500000 0.046026
O O19 0.500000 0.753198 0.000000
O O20 0.047960 0.500000 0.508882
O O21 0.000000 0.220661 0.500000
#
# Coordination Sequence:
#
# PCOD9206139 Si02
#       8
#     8   8   8   8   8   8   8   8
#     4  10  21  36  56  83 113 147 187 229 275 328
#     4  10  23  40  58  84 114 144 183 232 282 332
#     4  11  23  39  59  84 114 148 188 232 280 334
#     4  10  21  36  56  83 113 147 187 229 275 328
#     4  10  21  38  60  84 110 146 189 228 274 332
#     4  11  23  39  59  84 114 148 188 232 280 334
#     4  10  21  38  59  84 115 150 188 231 280 334
#     4  10  21  38  59  84 115 150 188 231 280 334
#
# _framework density 23.598002000000001
#
# number of rings (size 3 to 8) (size 9 to 14) (size 15 to 20)
#    0.000    1.750    0.000    3.750    0.000    8.500 
#    0.000    0.000    0.000    0.000    0.000    0.000 
#    0.000    0.000    0.000    0.000    0.000    0.000 
#
# Total GULP energy -178989.880768 kJ/mol
# GULP energy per Si atom -5593.433774 kJ/mol
# Density = 2.354429 g / cm^3
# Si number density = 23.598002 Si / 1000 Ang^3
#
#
#
# Elastic Constant Matrix: (Units=GPa)
#
#
# Indices 1 2 3 4 5 6 
#
# 1 69.5479 -1.1143 -23.1151 -0.0273 -6.7549 -0.0358
# 2 -1.1143 40.0412 -2.8084 -0.0961 -7.3452 -0.1328
# 3 -23.1151 -2.8084 60.9187 -0.0833 -4.7786 -0.1019
# 4 -0.0273 -0.0961 -0.0833 -40.3239 0.0129 -52.0714
# 5 -6.7549 -7.3452 -4.7786 0.0129 44.0231 0.0147
# 6 -0.0358 -0.1328 -0.1019 -52.0714 0.0147 -63.5218
#
#
#
# Elastic Compliance Matrix: (Units=1/GPa)
#
#
# Indices 1 2 3 4 5 6 
#
# 1 0.017022 0.001616 0.006817 -0.000026 0.003622 -0.000002
# 2 0.001616 0.026060 0.002194 -0.000145 0.004834 0.000061
# 3 0.006817 0.002194 0.019379 -0.000021 0.003516 -0.000021
# 4 -0.000026 -0.000145 -0.000021 0.423504 -0.000038 -0.347163
# 5 0.003622 0.004834 0.003516 -0.000038 0.024459 0.000019
# 6 -0.000002 0.000061 -0.000021 -0.347163 0.000019 0.268841
#
#
# Mechanical properties :
#
#
# Convention : Reuss Voigt Hill
#
# Bulk Modulus (GPa) = 11.94523 12.93691 12.44107
# Shear Modulus (GPa) = 6.36201 1.20519 3.78360
#
# Velocity S-wave (km/s) = 1.64373 0.71542 1.26761
# Velocity P-wave (km/s) = 2.94541 2.48526 2.72507
#
# Compressibility (1/GPa) = 0.08371542
#
# Stress axis : x y z
#
# Youngs Moduli (GPa) = 58.74729 38.37329 51.60235
#
# Poissons Ratio (x) = -0.06202 -0.35179
# Poissons Ratio (y) = -0.09494 -0.11320
# Poissons Ratio (z) = -0.40050 -0.08418
#
# Static dielectric constant tensor:
#      x y z
#    x 1.896540 0.000000 -0.000400 
#    y 0.000000 1.876970 0.000000 
#    z -0.000400 0.000000 1.885770 
# 
# From -- ./inp_files/295465.got.cif
#   From: 2010.05.17/outbox.cif.g08.bks.cpg/sg12_148_cif.got.tgz:295465.got - 2010.06.03 13:09:07.
