data_PCOD9206221
_publ_section_title
;
Structure prediction by ZEFSAII (Michael W. Deem and Ramdas Pophale) SiO2 
 PCOD9206221
Probable space group: C 2/M
;
_chemical_formula_sum "Si O2"
_cell_formula_units_Z 56
_cell_length_a 19.866327
_cell_length_b 19.744597
_cell_length_c 8.617592
_cell_angle_alpha 90.000000
_cell_angle_beta 57.759841
_cell_angle_gamma 90.000000
_cell_volume 2859.100727
_symmetry_space_group_name_H-M "C 2/M"
_symmetry_group_IT_number 12
_symmetry_cell_setting 'monoclinic'
loop_
_space_group_symop_operation_xyz
x,y,z
-x,y,-z
-x,-y,-z
x,-y,z
1/2+x,1/2+y,z
1/2-x,1/2+y,-z
1/2-x,1/2-y,-z
1/2+x,1/2-y,z
loop_
_atom_site_type_symbol
_atom_site_label
_atom_site_fract_x
_atom_site_fract_y
_atom_site_fract_z
Si Si1 0.000895 0.577728 0.812545
Si Si2 0.069207 0.302307 0.540078
Si Si3 0.817095 0.420640 0.997568
Si Si4 0.271905 0.579565 0.585032
Si Si5 0.748886 0.191038 0.369737
Si Si6 0.416251 0.654396 0.565892
Si Si7 0.698373 0.314016 0.012976
O O1 0.024859 0.500000 0.735414
O O2 0.052733 0.640861 0.690124
O O3 0.910899 0.590216 0.861459
O O4 0.000000 0.577396 0.000000
O O5 0.163112 0.308496 0.390984
O O6 0.064343 0.220559 0.563980
O O7 0.000000 0.316726 0.500000
O O8 0.801736 0.500000 0.994441
O O9 0.795065 0.404083 0.203501
O O10 0.755572 0.378434 0.971264
O O11 0.272877 0.500000 0.558621
O O12 0.257428 0.621247 0.448921
O O13 0.353529 0.606581 0.559405
O O14 0.750000 0.250000 0.500000
O O15 0.814912 0.196671 0.153982
O O16 0.500000 0.620479 0.500000
O O17 0.374994 0.678711 0.778120
O O18 0.750000 0.250000 0.000000
#
# Coordination Sequence:
#
# PCOD9206221 Si02
#       7
#     8   8   8   8   8   8   8
#     4  10  21  36  56  88 128 168 203 243 303 372
#     4  11  22  38  58  87 127 163 203 256 300 365
#     4   9  19  37  59  87 122 161 206 245 298 371
#     4  10  21  40  66  92 124 166 206 257 313 363
#     4  12  22  39  61  91 125 161 205 259 309 366
#     4  10  22  42  62  91 123 158 213 263 305 369
#     4  11  21  38  63  84 117 162 205 255 307 360
#
# _framework density 19.586576999999998
#
# number of rings (size 3 to 8) (size 9 to 14) (size 15 to 20)
#    0.000    1.571    2.857    2.571    2.000    2.857 
#    0.000    0.714    0.000    0.857    0.000    0.000 
#    0.000    0.000    0.000    0.000    0.000    0.000 
#
# Total GULP energy -156098.919275 kJ/mol
# GULP energy per Si atom -5574.961403 kJ/mol
# Density = 1.954200 g / cm^3
# Si number density = 19.586577 Si / 1000 Ang^3
#
#
#
# Elastic Constant Matrix: (Units=GPa)
#
#
# Indices 1 2 3 4 5 6 
#
# 1 60.3222 -1.4061 15.0799 0.0000 -8.1737 0.0000
# 2 -1.4061 53.6319 31.0833 0.0000 11.3110 0.0000
# 3 15.0799 31.0833 62.0001 0.0000 7.2879 0.0000
# 4 0.0000 0.0000 0.0000 29.0192 0.0000 -0.9455
# 5 -8.1737 11.3110 7.2879 0.0000 30.6492 0.0000
# 6 0.0000 0.0000 0.0000 -0.9455 0.0000 29.0397
#
#
#
# Elastic Compliance Matrix: (Units=1/GPa)
#
#
# Indices 1 2 3 4 5 6 
#
# 1 0.019159 0.003404 -0.007015 0.000000 0.005521 0.000000
# 2 0.003404 0.028320 -0.014304 0.000000 -0.006143 0.000000
# 3 -0.007015 -0.014304 0.025313 0.000000 -0.002611 0.000000
# 4 0.000000 0.000000 0.000000 0.034497 0.000000 0.001123
# 5 0.005521 -0.006143 -0.002611 0.000000 0.036988 0.000000
# 6 0.000000 0.000000 0.000000 0.001123 0.000000 0.034472
#
#
# Mechanical properties :
#
#
# Convention : Reuss Voigt Hill
#
# Bulk Modulus (GPa) = 27.05525 29.49648 28.27586
# Shear Modulus (GPa) = 22.03604 26.48810 24.26207
#
# Velocity S-wave (km/s) = 3.35783 3.68143 3.52335
# Velocity P-wave (km/s) = 5.37368 5.75872 5.56953
#
# Compressibility (1/GPa) = 0.03696141
#
# Stress axis : x y z
#
# Youngs Moduli (GPa) = 52.19505 35.31013 39.50465
#
# Poissons Ratio (x) = -0.12018 0.27714
# Poissons Ratio (y) = -0.17765 0.56508
# Poissons Ratio (z) = 0.36617 0.50508
#
# Static dielectric constant tensor:
#      x y z
#    x 1.709890 0.000000 0.001300 
#    y 0.000000 1.700610 0.000000 
#    z 0.001300 0.000000 1.738600 
# 
# From -- ./inp_files/89517.got.cif
#   From: 2010.05.17/outbox.cif.g08.bks.cpg/sg12_45_cif.got.tgz:89517.got - 2010.06.03 13:09:07.
