data_PCOD9206229
_publ_section_title
;
Structure prediction by ZEFSAII (Michael W. Deem and Ramdas Pophale) SiO2 
 PCOD9206229
Probable space group: C 2/M
;
_chemical_formula_sum "Si O2"
_cell_formula_units_Z 60
_cell_length_a 21.924869
_cell_length_b 24.999304
_cell_length_c 5.325091
_cell_angle_alpha 90.000000
_cell_angle_beta 87.098380
_cell_angle_gamma 90.000000
_cell_volume 2914.974795
_symmetry_space_group_name_H-M "C 2/M"
_symmetry_group_IT_number 12
_symmetry_cell_setting 'monoclinic'
loop_
_space_group_symop_operation_xyz
x,y,z
-x,y,-z
-x,-y,-z
x,-y,z
1/2+x,1/2+y,z
1/2-x,1/2+y,-z
1/2-x,1/2-y,-z
1/2+x,1/2-y,z
loop_
_atom_site_type_symbol
_atom_site_label
_atom_site_fract_x
_atom_site_fract_y
_atom_site_fract_z
Si Si1 0.926266 0.626738 0.034307
Si Si2 0.074090 0.561772 0.469106
Si Si3 0.500000 0.384708 0.000000
Si Si4 0.871899 0.061454 0.035205
Si Si5 0.558950 0.697800 0.378060
Si Si6 0.263411 0.702610 0.308364
Si Si7 0.660787 0.382239 0.472852
Si Si8 0.147097 0.729251 0.035672
O O1 0.908244 0.589261 0.272170
O O2 0.908397 0.597747 0.775523
O O3 0.894607 0.684190 0.081564
O O4 0.000000 0.633024 0.000000
O O5 0.094810 0.500000 0.441250
O O6 0.000000 0.560265 0.500000
O O7 0.557660 0.422223 0.937933
O O8 0.475486 0.344665 0.793147
O O9 0.842330 0.073467 0.310676
O O10 0.866586 0.000000 0.965538
O O11 0.845194 0.096471 0.809435
O O12 0.500000 0.727948 0.500000
O O13 0.603918 0.659185 0.525987
O O14 0.603690 0.739393 0.237100
O O15 0.250000 0.750000 0.500000
O O16 0.280025 0.652042 0.472490
O O17 0.203898 0.698183 0.149279
O O18 0.320497 0.724186 0.133055
#
# Coordination Sequence:
#
# PCOD9206229 Si02
#       8
#     8   8   4   8   8   8   8   8
#     4  10  22  37  59  98 132 163 202 261 327 386
#     4   9  18  36  61  87 124 169 209 244 305 390
#     4  10  21  36  56  92 134 176 211 256 318 396
#     4  11  23  40  65  95 129 171 221 273 327 384
#     4  11  22  38  60  95 136 176 204 259 333 400
#     4  11  24  45  66  90 120 175 229 271 317 386
#     4  11  23  42  65  93 126 170 224 269 324 386
#     4  11  26  39  64  95 131 171 220 267 328 393
#
# _framework density 20.583366999999999
#
# number of rings (size 3 to 8) (size 9 to 14) (size 15 to 20)
#    0.000    1.467    2.667    2.600    4.667    3.200 
#    0.000    2.000    0.000    4.800    0.000    0.000 
#    0.000    0.000    0.000    0.000    0.000    0.000 
#
# Total GULP energy -167411.134831 kJ/mol
# GULP energy per Si atom -5580.371161 kJ/mol
# Density = 2.053652 g / cm^3
# Si number density = 20.583367 Si / 1000 Ang^3
#
#
#
# Elastic Constant Matrix: (Units=GPa)
#
#
# Indices 1 2 3 4 5 6 
#
# 1 50.0452 30.0987 26.2599 0.0000 2.5283 0.0000
# 2 30.0987 86.2456 18.1233 0.0000 6.1172 0.0000
# 3 26.2599 18.1233 87.4055 0.0000 7.9225 0.0000
# 4 0.0000 0.0000 0.0000 7.3337 0.0000 24.4845
# 5 2.5283 6.1172 7.9225 0.0000 32.8827 0.0000
# 6 0.0000 0.0000 0.0000 24.4845 0.0000 -3.7748
#
#
#
# Elastic Compliance Matrix: (Units=1/GPa)
#
#
# Indices 1 2 3 4 5 6 
#
# 1 0.028783 -0.008661 -0.006949 0.000000 0.001072 0.000000
# 2 -0.008661 0.014821 -0.000288 0.000000 -0.002022 0.000000
# 3 -0.006949 -0.000288 0.013837 0.000000 -0.002746 0.000000
# 4 0.000000 0.000000 0.000000 0.006019 0.000000 0.039039
# 5 0.001072 -0.002022 -0.002746 0.000000 0.031366 0.000000
# 6 0.000000 0.000000 0.000000 0.039039 0.000000 -0.011693
#
#
# Mechanical properties :
#
#
# Convention : Reuss Voigt Hill
#
# Bulk Modulus (GPa) = 38.99191 41.40668 40.19929
# Shear Modulus (GPa) = 40.49346 17.23594 28.86470
#
# Velocity S-wave (km/s) = 4.44023 2.89688 3.74883
# Velocity P-wave (km/s) = 6.72845 5.59906 6.18957
#
# Compressibility (1/GPa) = 0.02564635
#
# Stress axis : x y z
#
# Youngs Moduli (GPa) = 34.74298 67.47102 72.26888
#
# Poissons Ratio (x) = 0.58435 0.50219
# Poissons Ratio (y) = 0.30090 0.02080
# Poissons Ratio (z) = 0.24142 0.01942
#
# Static dielectric constant tensor:
#      x y z
#    x 1.736550 0.000000 -0.070300 
#    y 0.000000 1.730130 0.000000 
#    z -0.070300 0.000000 1.762790 
# 
# From -- ./inp_files/21899.got.cif
#   From: 2010.05.17/outbox.cif.g08.bks.cpg/sg12_11_cif.got.tgz:21899.got - 2010.06.03 13:09:07.
