data_PCOD9206676
_publ_section_title
;
Structure prediction by ZEFSAII (Michael W. Deem and Ramdas Pophale) SiO2 
 PCOD9206676
Probable space group: C 2/M
;
_chemical_formula_sum "Si O2"
_cell_formula_units_Z 40
_cell_length_a 19.417984
_cell_length_b 11.027805
_cell_length_c 27.497035
_cell_angle_alpha 90.000000
_cell_angle_beta 17.037099
_cell_angle_gamma 90.000000
_cell_volume 1725.174943
_symmetry_space_group_name_H-M "C 2/M"
_symmetry_group_IT_number 12
_symmetry_cell_setting 'monoclinic'
loop_
_space_group_symop_operation_xyz
x,y,z
-x,y,-z
-x,-y,-z
x,-y,z
1/2+x,1/2+y,z
1/2-x,1/2+y,-z
1/2-x,1/2-y,-z
1/2+x,1/2-y,z
loop_
_atom_site_type_symbol
_atom_site_label
_atom_site_fract_x
_atom_site_fract_y
_atom_site_fract_z
Si Si1 0.986618 0.632111 0.315091
Si Si2 0.132329 0.365472 0.324862
Si Si3 0.427367 0.785113 0.996993
Si Si4 0.406610 0.132001 0.905517
Si Si5 0.369973 0.365500 0.526287
O O1 0.087345 0.500000 0.232504
O O2 0.982931 0.630793 0.375667
O O3 0.741534 0.639393 0.452655
O O4 0.163199 0.736073 0.179148
O O5 0.125743 0.500000 0.351424
O O6 0.394397 0.327969 0.131401
O O7 0.032694 0.251474 0.421772
O O8 0.452864 0.864061 0.931871
O O9 0.500000 0.840133 0.000000
O O10 0.645852 0.141134 0.713139
O O11 0.297860 0.000000 0.966876
O O12 0.250000 0.250000 0.000000
O O13 0.479762 0.500000 0.457981
#
# Coordination Sequence:
#
# PCOD9206676 Si02
#       5
#     8   8   8   8   8
#     4   9  17  35  61  88 121 164 209 251 305 367
#     4  10  21  36  60  93 125 162 207 256 305 361
#     4  10  21  39  63  93 128 161 205 256 312 364
#     4  11  24  42  66  93 123 164 209 257 310 369
#     4  10  21  38  60  86 123 165 202 252 313 370
#
# _framework density 23.186055
#
# number of rings (size 3 to 8) (size 9 to 14) (size 15 to 20)
#    0.000    2.000    2.000    1.200    0.000    6.000 
#    0.000    6.000    0.000    0.000    0.000    0.000 
#    0.000    0.000    0.000    0.000    0.000    0.000 
#
# Total GULP energy -111704.155444 kJ/mol
# GULP energy per Si atom -5585.207772 kJ/mol
# Density = 2.313328 g / cm^3
# Si number density = 23.186055 Si / 1000 Ang^3
#
#
#
# Elastic Constant Matrix: (Units=GPa)
#
#
# Indices 1 2 3 4 5 6 
#
# 1 85.1059 27.2451 -3.4358 -0.0590 -5.4180 -0.0110
# 2 27.2451 191.1784 57.7306 -0.1012 5.5925 0.0113
# 3 -3.4358 57.7306 45.7452 -0.1222 8.1481 0.0289
# 4 -0.0590 -0.1012 -0.1222 28.2424 -0.0250 0.9475
# 5 -5.4180 5.5925 8.1481 -0.0250 23.3821 0.0034
# 6 -0.0110 0.0113 0.0289 0.9475 0.0034 10.7360
#
#
#
# Elastic Compliance Matrix: (Units=1/GPa)
#
#
# Indices 1 2 3 4 5 6 
#
# 1 0.013186 -0.003434 0.004940 0.000039 0.002155 0.000000
# 2 -0.003434 0.009418 -0.012368 -0.000027 0.001262 0.000022
# 3 0.004940 -0.012368 0.039566 0.000132 -0.009685 -0.000097
# 4 0.000039 -0.000027 0.000132 0.035514 0.000008 -0.003134
# 5 0.002155 0.001262 -0.009685 0.000008 0.046340 0.000012
# 6 0.000000 0.000022 -0.000097 -0.003134 0.000012 0.093421
#
#
# Mechanical properties :
#
#
# Convention : Reuss Voigt Hill
#
# Bulk Modulus (GPa) = 24.72451 53.90102 39.31276
# Shear Modulus (GPa) = 18.33846 28.50473 23.42159
#
# Velocity S-wave (km/s) = 2.81539 3.51007 3.18175
# Velocity P-wave (km/s) = 4.61034 6.30279 5.52179
#
# Compressibility (1/GPa) = 0.04044570
#
# Stress axis : x y z
#
# Youngs Moduli (GPa) = 75.83746 106.17843 25.27439
#
# Poissons Ratio (x) = 0.36462 -0.12486
# Poissons Ratio (y) = 0.26043 0.31260
# Poissons Ratio (z) = -0.37466 1.31326
#
# Static dielectric constant tensor:
#      x y z
#    x 1.917010 -0.000010 -0.013570 
#    y -0.000010 1.903360 0.000060 
#    z -0.013570 0.000060 1.835550 
# 
# From -- ./inp_files/153299.got.cif
#   From: 2010.05.17/outbox.cif.g08.bks.cpg/sg12_77_cif.got.tgz:153299.got - 2010.06.03 13:09:07.
