data_PCOD9206152
_publ_section_title
;
Structure prediction by ZEFSAII (Michael W. Deem and Ramdas Pophale) SiO2 
 PCOD9206152
Probable space group: C 2/M
;
_chemical_formula_sum "Si O2"
_cell_formula_units_Z 64
_cell_length_a 29.496731
_cell_length_b 19.174127
_cell_length_c 11.689733
_cell_angle_alpha 90.000000
_cell_angle_beta 152.173216
_cell_angle_gamma 90.000000
_cell_volume 3086.206792
_symmetry_space_group_name_H-M "C 2/M"
_symmetry_group_IT_number 12
_symmetry_cell_setting 'monoclinic'
loop_
_space_group_symop_operation_xyz
x,y,z
-x,y,-z
-x,-y,-z
x,-y,z
1/2+x,1/2+y,z
1/2-x,1/2+y,-z
1/2-x,1/2-y,-z
1/2+x,1/2-y,z
loop_
_atom_site_type_symbol
_atom_site_label
_atom_site_fract_x
_atom_site_fract_y
_atom_site_fract_z
Si Si1 0.968910 0.079055 0.288257
Si Si2 0.705723 0.919786 0.167519
Si Si3 0.068360 0.923738 0.042887
Si Si4 0.669211 0.364516 0.748017
Si Si5 0.796140 0.183865 0.938299
Si Si6 0.556930 0.186160 0.749624
Si Si7 0.311069 0.311378 0.576722
Si Si8 0.105727 0.739074 0.444024
O O1 0.067664 0.104660 0.567405
O O2 0.945353 0.000000 0.264892
O O3 0.996493 0.081480 0.214561
O O4 0.874644 0.126766 0.077963
O O5 0.776749 0.916093 0.216081
O O6 0.748323 0.864994 0.356865
O O7 0.698449 0.000000 0.190990
O O8 0.606733 0.886244 0.897178
O O9 0.139502 0.859439 0.217854
O O10 0.118391 0.000000 0.148941
O O11 0.000000 0.924025 0.000000
O O12 0.640351 0.297493 0.610859
O O13 0.730912 0.337884 0.992706
O O14 0.697858 0.187087 0.647430
O O15 0.856797 0.256253 0.069195
O O16 0.500000 0.185049 0.500000
O O17 0.488426 0.208386 0.703839
O O18 0.250000 0.250000 0.500000
O O19 0.392375 0.276039 0.675087
#
# Coordination Sequence:
#
# PCOD9206152 Si02
#       8
#     8   8   8   8   8   8   8   8
#     4  11  23  36  55  87 124 159 196 250 318 382
#     4  11  25  42  63  92 129 168 210 260 312 373
#     4  10  21  36  56  83 118 154 194 250 314 370
#     4  11  20  36  62  89 124 161 202 252 304 376
#     4  12  21  38  60  90 128 160 209 251 311 368
#     4  12  22  39  66  92 126 166 210 255 305 374
#     4  11  23  40  65  89 120 160 211 266 314 367
#     4  11  22  37  61  94 118 158 208 266 306 360
#
# _framework density 20.737431999999998
#
# number of rings (size 3 to 8) (size 9 to 14) (size 15 to 20)
#    0.000    0.875    5.000    4.500    0.000    2.750 
#    0.000    0.625    0.000    2.250    0.000    0.000 
#    0.000    0.000    0.000    0.000    0.000    0.000 
#
# Total GULP energy -178710.476855 kJ/mol
# GULP energy per Si atom -5584.702402 kJ/mol
# Density = 2.069023 g / cm^3
# Si number density = 20.737432 Si / 1000 Ang^3
#
#
#
# Elastic Constant Matrix: (Units=GPa)
#
#
# Indices 1 2 3 4 5 6 
#
# 1 80.8961 30.7173 17.6796 0.0000 6.4616 0.0000
# 2 30.7173 112.3354 33.6837 0.0000 7.8956 0.0000
# 3 17.6796 33.6837 69.1142 0.0000 3.3727 0.0000
# 4 0.0000 0.0000 0.0000 25.8402 0.0000 -1.2952
# 5 6.4616 7.8956 3.3727 0.0000 33.5133 0.0000
# 6 0.0000 0.0000 0.0000 -1.2952 0.0000 27.7576
#
#
#
# Elastic Compliance Matrix: (Units=1/GPa)
#
#
# Indices 1 2 3 4 5 6 
#
# 1 0.014133 -0.003140 -0.001998 0.000000 -0.001784 0.000000
# 2 -0.003140 0.011252 -0.004603 0.000000 -0.001582 0.000000
# 3 -0.001998 -0.004603 0.017236 0.000000 -0.000265 0.000000
# 4 0.000000 0.000000 0.000000 0.038790 0.000000 0.001810
# 5 -0.001784 -0.001582 -0.000265 0.000000 0.030582 0.000000
# 6 0.000000 0.000000 0.000000 0.001810 0.000000 0.036111
#
#
# Mechanical properties :
#
#
# Convention : Reuss Voigt Hill
#
# Bulk Modulus (GPa) = 43.21757 47.38964 45.30361
# Shear Modulus (GPa) = 28.52254 29.43990 28.98122
#
# Velocity S-wave (km/s) = 3.71268 3.77191 3.74241
# Velocity P-wave (km/s) = 6.26612 6.47083 6.36930
#
# Compressibility (1/GPa) = 0.02313874
#
# Stress axis : x y z
#
# Youngs Moduli (GPa) = 70.75642 88.87245 58.01715
#
# Poissons Ratio (x) = 0.27907 0.11591
# Poissons Ratio (y) = 0.22218 0.26707
# Poissons Ratio (z) = 0.14136 0.40911
#
# Static dielectric constant tensor:
#      x y z
#    x 1.848350 0.000000 0.001440 
#    y 0.000000 1.768190 0.000000 
#    z 0.001440 0.000000 1.828270 
# 
# From -- ./inp_files/190100.got.cif
#   From: 2010.05.17/outbox.cif.g08.bks.cpg/sg12_96_cif.got.tgz:190100.got - 2010.06.03 13:09:07.
