data_PCOD9206856
_publ_section_title
;
Structure prediction by ZEFSAII (Michael W. Deem and Ramdas Pophale) SiO2 
 PCOD9206856
Probable space group: C 2/M
;
_chemical_formula_sum "Si O2"
_cell_formula_units_Z 40
_cell_length_a 29.975507
_cell_length_b 17.686380
_cell_length_c 12.878064
_cell_angle_alpha 90.000000
_cell_angle_beta 20.157219
_cell_angle_gamma 90.000000
_cell_volume 2352.707911
_symmetry_space_group_name_H-M "C 2/M"
_symmetry_group_IT_number 12
_symmetry_cell_setting 'monoclinic'
loop_
_space_group_symop_operation_xyz
x,y,z
-x,y,-z
-x,-y,-z
x,-y,z
1/2+x,1/2+y,z
1/2-x,1/2+y,-z
1/2-x,1/2-y,-z
1/2+x,1/2-y,z
loop_
_atom_site_type_symbol
_atom_site_label
_atom_site_fract_x
_atom_site_fract_y
_atom_site_fract_z
Si Si1 0.597197 0.911647 0.515146
Si Si2 0.851828 0.315312 0.800052
Si Si3 0.355719 0.592327 0.343220
Si Si4 0.798277 0.588631 0.121181
Si Si5 0.139686 0.407672 0.651121
O O1 0.640036 0.866971 0.320237
O O2 0.653656 0.883510 0.501060
O O3 0.630235 0.000000 0.430288
O O4 0.440674 0.907327 0.862504
O O5 0.000000 0.289518 0.500000
O O6 0.750000 0.250000 0.000000
O O7 0.805532 0.363646 0.000506
O O8 0.354176 0.500000 0.347066
O O9 0.305213 0.615113 0.567311
O O10 0.253702 0.616818 0.478412
O O11 0.500000 0.617125 0.000000
O O12 0.775281 0.500000 0.147259
O O13 0.139094 0.500000 0.651251
O O14 0.000000 0.384034 0.000000
#
# Coordination Sequence:
#
# PCOD9206856 Si02
#       5
#     8   8   8   8   8
#     4   9  16  29  54  81  98 123 169 212 242 283
#     4  10  21  37  54  71  98 134 169 207 251 296
#     4   9  16  26  43  73 107 131 152 190 250 302
#     4   9  16  30  54  78  99 127 168 209 241 287
#     4   9  14  24  45  73 102 125 153 200 247 288
#
# _framework density 17.001685999999999
#
# number of rings (size 3 to 8) (size 9 to 14) (size 15 to 20)
#    0.000    2.800    2.000    0.600    0.000    2.400 
#    3.600    0.000    0.000    3.600    0.000    0.000 
#    0.000    0.000    0.000    0.000    0.000    0.000 
#
# Total GULP energy -111441.109137 kJ/mol
# GULP energy per Si atom -5572.055457 kJ/mol
# Density = 1.696299 g / cm^3
# Si number density = 17.001686 Si / 1000 Ang^3
#
#
#
# Elastic Constant Matrix: (Units=GPa)
#
#
# Indices 1 2 3 4 5 6 
#
# 1 138.9796 37.5384 87.5428 0.0000 8.8540 0.0000
# 2 37.5384 32.4692 41.0471 -0.0001 1.0592 0.0000
# 3 87.5428 41.0471 144.0525 -0.0003 9.8292 0.0001
# 4 0.0000 -0.0001 -0.0003 7.6663 0.0001 -12.6580
# 5 8.8540 1.0592 9.8292 0.0001 24.7733 0.0000
# 6 0.0000 0.0000 0.0001 -12.6580 0.0000 4.7372
#
#
#
# Elastic Compliance Matrix: (Units=1/GPa)
#
#
# Indices 1 2 3 4 5 6 
#
# 1 0.012904 -0.008001 -0.005417 0.000000 -0.002120 0.000000
# 2 -0.008001 0.053393 -0.010681 0.000000 0.004814 0.000000
# 3 -0.005417 -0.010681 0.013479 0.000000 -0.002955 0.000000
# 4 0.000000 0.000000 0.000000 -0.038232 0.000000 -0.102156
# 5 -0.002120 0.004814 -0.002955 0.000000 0.042090 0.000000
# 6 0.000000 0.000000 0.000000 -0.102156 0.000000 -0.061871
#
#
# Mechanical properties :
#
#
# Convention : Reuss Voigt Hill
#
# Bulk Modulus (GPa) = 31.66651 71.97310 51.81980
# Shear Modulus (GPa) = 62.12128 17.39357 39.75743
#
# Velocity S-wave (km/s) = 6.05125 3.20198 4.84099
# Velocity P-wave (km/s) = 8.21520 7.48967 7.86081
#
# Compressibility (1/GPa) = 0.03157911
#
# Stress axis : x y z
#
# Youngs Moduli (GPa) = 77.49698 18.72893 74.18857
#
# Poissons Ratio (x) = 0.14984 0.40191
# Poissons Ratio (y) = 0.62002 0.79238
# Poissons Ratio (z) = 0.41983 0.20004
#
# Static dielectric constant tensor:
#      x y z
#    x 1.572880 0.000000 0.001920 
#    y 0.000000 1.557420 0.000000 
#    z 0.001920 0.000000 1.570280 
# 
# From -- ./inp_files/120066.got.cif
#   From: 2010.05.17/outbox.cif.g08.bks.cpg/sg12_61_cif.got.tgz:120066.got - 2010.06.03 13:09:07.
