data_PCOD9206117
_publ_section_title
;
Structure prediction by ZEFSAII (Michael W. Deem and Ramdas Pophale) SiO2 
 PCOD9206117
Probable space group: C 2/M
;
_chemical_formula_sum "Si O2"
_cell_formula_units_Z 48
_cell_length_a 31.581608
_cell_length_b 8.699520
_cell_length_c 9.533503
_cell_angle_alpha 90.000000
_cell_angle_beta 89.953313
_cell_angle_gamma 90.000000
_cell_volume 2619.279796
_symmetry_space_group_name_H-M "C 2/M"
_symmetry_group_IT_number 12
_symmetry_cell_setting 'monoclinic'
loop_
_space_group_symop_operation_xyz
x,y,z
-x,y,-z
-x,-y,-z
x,-y,z
1/2+x,1/2+y,z
1/2-x,1/2+y,-z
1/2-x,1/2-y,-z
1/2+x,1/2-y,z
loop_
_atom_site_type_symbol
_atom_site_label
_atom_site_fract_x
_atom_site_fract_y
_atom_site_fract_z
Si Si1 0.788259 0.683442 0.409372
Si Si2 0.040539 0.685335 0.089154
Si Si3 0.382513 0.684235 0.086750
Si Si4 0.120552 0.184451 0.585842
Si Si5 0.042085 0.685970 0.413649
Si Si6 0.713457 0.684581 0.902612
O O1 0.787976 0.500000 0.413452
O O2 0.750000 0.750000 0.500000
O O3 0.834186 0.745367 0.456746
O O4 0.782582 0.743614 0.251222
O O5 0.039630 0.500000 0.089191
O O6 0.038787 0.735256 0.251320
O O7 0.082857 0.739457 0.011634
O O8 0.000000 0.740161 0.000000
O O9 0.387139 0.500000 0.079043
O O10 0.387787 0.728937 0.250856
O O11 0.334153 0.722831 0.045832
O O12 0.082945 0.243852 0.488778
O O13 0.123470 0.000000 0.581073
O O14 0.045368 0.500000 0.417227
O O15 0.000000 0.729433 0.500000
O O16 0.716264 0.500000 0.892738
O O17 0.750000 0.750000 0.000000
#
# Coordination Sequence:
#
# PCOD9206117 Si02
#       6
#     8   8   8   8   8   8
#     4  11  22  38  60  85 114 150 190 235 287 340
#     4  10  21  36  56  82 109 141 183 228 274 328
#     4   9  20  37  56  79 109 144 182 226 274 327
#     4  10  21  38  58  82 112 146 187 232 281 338
#     4  10  21  37  57  82 112 147 188 232 280 335
#     4  10  21  38  58  84 116 151 192 234 281 338
#
# _framework density 18.325648000000001
#
# number of rings (size 3 to 8) (size 9 to 14) (size 15 to 20)
#    0.000    2.000    0.000    4.500    0.000    8.000 
#    0.000    3.333    0.000    0.000    0.000    0.000 
#    0.000    0.000    0.000    0.000    0.000    0.000 
#
# Total GULP energy -134054.136810 kJ/mol
# GULP energy per Si atom -5585.589034 kJ/mol
# Density = 1.828394 g / cm^3
# Si number density = 18.325648 Si / 1000 Ang^3
#
#
#
# Elastic Constant Matrix: (Units=GPa)
#
#
# Indices 1 2 3 4 5 6 
#
# 1 202.7779 66.1376 124.5085 0.0000 2.3353 0.0000
# 2 66.1376 63.1475 48.7269 0.0000 0.2205 0.0000
# 3 124.5085 48.7269 128.2189 0.0000 0.7716 0.0000
# 4 0.0000 0.0000 0.0000 31.4849 0.0000 -0.7675
# 5 2.3353 0.2205 0.7716 0.0000 42.3839 0.0000
# 6 0.0000 0.0000 0.0000 -0.7675 0.0000 37.0523
#
#
#
# Elastic Compliance Matrix: (Units=1/GPa)
#
#
# Indices 1 2 3 4 5 6 
#
# 1 0.013537 -0.005709 -0.010972 0.000000 -0.000516 0.000000
# 2 -0.005709 0.024815 -0.003888 0.000000 0.000256 0.000000
# 3 -0.010972 -0.003888 0.019930 0.000000 0.000262 0.000000
# 4 0.000000 0.000000 0.000000 0.031777 0.000000 0.000658
# 5 -0.000516 0.000256 0.000262 0.000000 0.023616 0.000000
# 6 0.000000 0.000000 0.000000 0.000658 0.000000 0.027003
#
#
# Mechanical properties :
#
#
# Convention : Reuss Voigt Hill
#
# Bulk Modulus (GPa) = 58.33421 96.98781 77.66101
# Shear Modulus (GPa) = 26.66253 32.50230 29.58242
#
# Velocity S-wave (km/s) = 3.81849 4.21598 4.02215
# Velocity P-wave (km/s) = 7.16535 8.76007 8.00253
#
# Compressibility (1/GPa) = 0.01714260
#
# Stress axis : x y z
#
# Youngs Moduli (GPa) = 73.87387 40.29890 50.17673
#
# Poissons Ratio (x) = 0.23008 0.55054
# Poissons Ratio (y) = 0.42177 0.19507
# Poissons Ratio (z) = 0.81055 0.15667
#
# Static dielectric constant tensor:
#      x y z
#    x 1.607880 0.000000 0.004440 
#    y 0.000000 1.618480 0.000000 
#    z 0.004440 0.000000 1.604850 
# 
# From -- ./inp_files/108721.got.cif
#   From: 2010.05.17/outbox.cif.g08.bks.cpg/sg12_55_cif.got.tgz:108721.got - 2010.06.03 13:09:07.
