data_PCOD9206694
_publ_section_title
;
Structure prediction by ZEFSAII (Michael W. Deem and Ramdas Pophale) SiO2 
 PCOD9206694
Probable space group: C 2/M
;
_chemical_formula_sum "Si O2"
_cell_formula_units_Z 60
_cell_length_a 17.284536
_cell_length_b 17.146633
_cell_length_c 12.361633
_cell_angle_alpha 90.000000
_cell_angle_beta 62.100399
_cell_angle_gamma 90.000000
_cell_volume 3237.808306
_symmetry_space_group_name_H-M "C 2/M"
_symmetry_group_IT_number 12
_symmetry_cell_setting 'monoclinic'
loop_
_space_group_symop_operation_xyz
x,y,z
-x,y,-z
-x,-y,-z
x,-y,z
1/2+x,1/2+y,z
1/2-x,1/2+y,-z
1/2-x,1/2-y,-z
1/2+x,1/2-y,z
loop_
_atom_site_type_symbol
_atom_site_label
_atom_site_fract_x
_atom_site_fract_y
_atom_site_fract_z
Si Si1 0.888728 0.408384 0.269814
Si Si2 0.500000 0.307748 0.500000
Si Si3 0.144043 0.298234 0.291055
Si Si4 0.316161 0.205487 0.158573
Si Si5 0.603990 0.591874 0.609405
Si Si6 0.431489 0.826592 0.880789
Si Si7 0.963371 0.173121 0.137151
Si Si8 0.197270 0.592936 0.454274
O O1 0.877348 0.500000 0.263419
O O2 0.817564 0.359981 0.249637
O O3 0.874420 0.389983 0.405763
O O4 0.982888 0.380369 0.164978
O O5 0.434385 0.252914 0.609591
O O6 0.442721 0.359401 0.454419
O O7 0.221492 0.240882 0.202809
O O8 0.111118 0.342582 0.206544
O O9 0.178671 0.355847 0.361384
O O10 0.378287 0.275597 0.160801
O O11 0.362560 0.169166 0.022961
O O12 0.596515 0.500000 0.592607
O O13 0.559412 0.613917 0.753232
O O14 0.707004 0.610832 0.558381
O O15 0.468417 0.737893 0.863143
O O16 0.000000 0.139856 0.000000
O O17 0.195204 0.500000 0.431979
#
# Coordination Sequence:
#
# PCOD9206694 Si02
#       8
#     8   4   8   8   8   8   8   8
#     4  10  21  39  60  86 119 153 193 242 293 345
#     4  12  25  36  59  90 116 154 194 236 295 348
#     4  12  22  37  61  85 121 154 192 239 290 349
#     4  10  21  36  61  85 112 155 197 239 286 344
#     4  11  22  40  59  83 118 151 195 243 290 346
#     4  10  21  37  57  87 117 148 194 242 287 345
#     4   9  18  37  59  83 112 147 198 242 285 342
#     4  10  23  39  60  88 119 156 195 238 291 351
#
# _framework density 18.531054000000001
#
# number of rings (size 3 to 8) (size 9 to 14) (size 15 to 20)
#    0.000    1.600    2.667    3.400    1.867    2.933 
#    0.000    2.333    0.000    0.000    0.000    0.000 
#    0.000    0.000    0.000    0.000    0.000    0.000 
#
# Total GULP energy -167507.477289 kJ/mol
# GULP energy per Si atom -5583.582576 kJ/mol
# Density = 1.848888 g / cm^3
# Si number density = 18.531054 Si / 1000 Ang^3
#
#
#
# Elastic Constant Matrix: (Units=GPa)
#
#
# Indices 1 2 3 4 5 6 
#
# 1 61.7322 14.1356 8.7809 0.0000 9.1518 0.0000
# 2 14.1356 34.5185 10.8083 0.0000 8.6236 0.0000
# 3 8.7809 10.8083 76.4587 0.0000 2.4703 0.0000
# 4 0.0000 0.0000 0.0000 16.9350 0.0000 -4.0858
# 5 9.1518 8.6236 2.4703 0.0000 29.7414 0.0000
# 6 0.0000 0.0000 0.0000 -4.0858 0.0000 10.4409
#
#
#
# Elastic Compliance Matrix: (Units=1/GPa)
#
#
# Indices 1 2 3 4 5 6 
#
# 1 0.018337 -0.006228 -0.001105 0.000000 -0.003745 0.000000
# 2 -0.006228 0.034707 -0.003938 0.000000 -0.007820 0.000000
# 3 -0.001105 -0.003938 0.013752 0.000000 0.000340 0.000000
# 4 0.000000 0.000000 0.000000 0.065205 0.000000 0.025517
# 5 -0.003745 -0.007820 0.000340 0.000000 0.037015 0.000000
# 6 0.000000 0.000000 0.000000 0.025517 0.000000 0.105763
#
#
# Mechanical properties :
#
#
# Convention : Reuss Voigt Hill
#
# Bulk Modulus (GPa) = 22.59653 26.68432 24.64043
# Shear Modulus (GPa) = 16.02195 20.68911 18.35553
#
# Velocity S-wave (km/s) = 2.94360 3.34497 3.15068
# Velocity P-wave (km/s) = 4.87579 5.41751 5.15378
#
# Compressibility (1/GPa) = 0.04425458
#
# Stress axis : x y z
#
# Youngs Moduli (GPa) = 54.53335 28.81256 72.71901
#
# Poissons Ratio (x) = 0.17944 0.08032
# Poissons Ratio (y) = 0.33962 0.28639
# Poissons Ratio (z) = 0.06024 0.11347
#
# Static dielectric constant tensor:
#      x y z
#    x 1.631320 0.000000 -0.006440 
#    y 0.000000 1.606850 0.000000 
#    z -0.006440 0.000000 1.645000 
# 
# From -- ./inp_files/158280.got.cif
#   From: 2010.05.17/outbox.cif.g08.bks.cpg/sg12_80_cif.got.tgz:158280.got - 2010.06.03 13:09:07.
