data_PCOD9206949
_publ_section_title
;
Structure prediction by ZEFSAII (Michael W. Deem and Ramdas Pophale) SiO2 
 PCOD9206949
Probable space group: C 2/M
;
_chemical_formula_sum "Si O2"
_cell_formula_units_Z 40
_cell_length_a 18.394154
_cell_length_b 22.286338
_cell_length_c 9.345885
_cell_angle_alpha 90.000000
_cell_angle_beta 146.851403
_cell_angle_gamma 90.000000
_cell_volume 2094.967249
_symmetry_space_group_name_H-M "C 2/M"
_symmetry_group_IT_number 12
_symmetry_cell_setting 'monoclinic'
loop_
_space_group_symop_operation_xyz
x,y,z
-x,y,-z
-x,-y,-z
x,-y,z
1/2+x,1/2+y,z
1/2-x,1/2+y,-z
1/2-x,1/2-y,-z
1/2+x,1/2-y,z
loop_
_atom_site_type_symbol
_atom_site_label
_atom_site_fract_x
_atom_site_fract_y
_atom_site_fract_z
Si Si1 0.244496 0.192983 0.778152
Si Si2 0.138005 0.067702 0.643111
Si Si3 0.871424 0.931193 0.713664
Si Si4 0.126056 0.351107 0.292261
Si Si5 0.998040 0.277538 0.652053
O O1 0.232958 0.125216 0.821715
O O2 0.301576 0.188781 0.710573
O O3 0.097390 0.220414 0.529536
O O4 0.351389 0.231059 0.044661
O O5 0.110282 0.069631 0.427171
O O6 0.000000 0.074959 0.500000
O O7 0.189884 0.000000 0.760657
O O8 0.735599 0.897804 0.522449
O O9 0.861496 0.000000 0.745397
O O10 0.000000 0.902914 0.000000
O O11 0.071171 0.314920 0.335972
O O12 0.000000 0.378809 0.000000
O O13 0.000000 0.308496 0.500000
#
# Coordination Sequence:
#
# PCOD9206949 Si02
#       5
#     8   8   8   8   8
#     4  10  21  37  55  79 108 140 176 213 262 316
#     4   9  18  34  56  80 106 137 175 218 262 310
#     4   9  18  32  52  78 104 135 177 220 261 307
#     4   9  20  36  52  73 105 141 175 212 259 317
#     4  11  22  35  53  79 109 139 174 217 261 310
#
# _framework density 19.093377
#
# number of rings (size 3 to 8) (size 9 to 14) (size 15 to 20)
#    0.000    2.400    0.000    1.800    0.000    5.200 
#    0.000    4.000    0.000    1.200    0.000    1.400 
#    0.000    0.000    0.000    0.000    0.000    0.000 
#
# Total GULP energy -111442.462593 kJ/mol
# GULP energy per Si atom -5572.123130 kJ/mol
# Density = 1.904992 g / cm^3
# Si number density = 19.093377 Si / 1000 Ang^3
#
#
#
# Elastic Constant Matrix: (Units=GPa)
#
#
# Indices 1 2 3 4 5 6 
#
# 1 93.0985 26.2752 3.7821 0.0000 13.2186 0.0000
# 2 26.2752 62.9132 54.3509 0.0000 12.7982 0.0000
# 3 3.7821 54.3509 111.1658 0.0000 20.1534 0.0000
# 4 0.0000 0.0000 0.0000 33.1747 0.0000 -4.5065
# 5 13.2186 12.7982 20.1534 0.0000 21.5057 0.0000
# 6 0.0000 0.0000 0.0000 -4.5065 0.0000 46.0094
#
#
#
# Elastic Compliance Matrix: (Units=1/GPa)
#
#
# Indices 1 2 3 4 5 6 
#
# 1 0.014239 -0.008880 0.005404 0.000000 -0.008532 0.000000
# 2 -0.008880 0.033428 -0.016172 0.000000 0.000720 0.000000
# 3 0.005404 -0.016172 0.018764 0.000000 -0.011281 0.000000
# 4 0.000000 0.000000 0.000000 0.030550 0.000000 0.002992
# 5 -0.008532 0.000720 -0.011281 0.000000 0.061887 0.000000
# 6 0.000000 0.000000 0.000000 0.002992 0.000000 0.022028
#
#
# Mechanical properties :
#
#
# Convention : Reuss Voigt Hill
#
# Bulk Modulus (GPa) = 36.85238 48.44378 42.64808
# Shear Modulus (GPa) = 21.81158 32.32258 27.06708
#
# Velocity S-wave (km/s) = 3.38355 4.11891 3.76921
# Velocity P-wave (km/s) = 5.88282 6.93164 6.42866
#
# Compressibility (1/GPa) = 0.02713529
#
# Stress axis : x y z
#
# Youngs Moduli (GPa) = 70.22836 29.91511 53.29474
#
# Poissons Ratio (x) = 0.26563 -0.28799
# Poissons Ratio (y) = 0.62360 0.86187
# Poissons Ratio (z) = -0.37949 0.48378
#
# Static dielectric constant tensor:
#      x y z
#    x 1.671150 0.000000 0.010240 
#    y 0.000000 1.695090 0.000000 
#    z 0.010240 0.000000 1.680440 
# 
# From -- ./inp_files/79240.got.cif
#   From: 2010.05.17/outbox.cif.g08.bks.cpg/sg12_40_cif.got.tgz:79240.got - 2010.06.03 13:09:07.
