data_PCOD9206170
_publ_section_title
;
Structure prediction by ZEFSAII (Michael W. Deem and Ramdas Pophale) SiO2 
 PCOD9206170
Probable space group: C 2/M
;
_chemical_formula_sum "Si O2"
_cell_formula_units_Z 56
_cell_length_a 12.693161
_cell_length_b 14.304601
_cell_length_c 17.581038
_cell_angle_alpha 90.000000
_cell_angle_beta 119.758730
_cell_angle_gamma 90.000000
_cell_volume 2771.222593
_symmetry_space_group_name_H-M "C 2/M"
_symmetry_group_IT_number 12
_symmetry_cell_setting 'monoclinic'
loop_
_space_group_symop_operation_xyz
x,y,z
-x,y,-z
-x,-y,-z
x,-y,z
1/2+x,1/2+y,z
1/2-x,1/2+y,-z
1/2-x,1/2-y,-z
1/2+x,1/2-y,z
loop_
_atom_site_type_symbol
_atom_site_label
_atom_site_fract_x
_atom_site_fract_y
_atom_site_fract_z
Si Si1 0.011560 0.748324 0.789806
Si Si2 0.474647 0.393591 0.901901
Si Si3 0.389155 0.106630 0.415605
Si Si4 0.186151 0.609224 0.777759
Si Si5 0.777526 0.858929 0.506694
Si Si6 0.797382 0.605140 0.687667
Si Si7 0.470903 0.607638 0.342317
O O1 0.120022 0.676127 0.813111
O O2 0.004060 0.819958 0.716317
O O3 0.030080 0.812659 0.869917
O O4 0.890512 0.684521 0.747517
O O5 0.513985 0.500000 0.895692
O O6 0.330433 0.387909 0.835893
O O7 0.500000 0.380398 0.000000
O O8 0.500000 0.154829 0.500000
O O9 0.353374 0.143753 0.320674
O O10 0.278897 0.103730 0.435002
O O11 0.428050 0.000000 0.413337
O O12 0.150250 0.500000 0.774518
O O13 0.750000 0.750000 0.500000
O O14 0.712026 0.894415 0.407494
O O15 0.919809 0.880429 0.558546
O O16 0.834032 0.500000 0.724829
O O17 0.661725 0.623185 0.669714
O O18 0.475134 0.500000 0.316412
#
# Coordination Sequence:
#
# PCOD9206170 Si02
#       7
#     8   8   8   8   8   8   8
#     4  12  22  39  66  93 120 154 201 251 311 376
#     4  10  23  44  68  95 125 158 200 252 311 377
#     4  10  21  36  56  84 119 160 206 254 299 348
#     4  10  22  40  64  92 126 164 206 256 309 365
#     4  12  23  36  56  81 116 167 220 262 299 359
#     4  11  24  41  59  86 124 166 208 258 313 368
#     4  11  24  40  58  83 120 163 208 258 311 362
#
# _framework density 20.207688000000001
#
# number of rings (size 3 to 8) (size 9 to 14) (size 15 to 20)
#    0.000    1.143    1.429    5.143    2.000    4.000 
#    0.000    0.000    0.000    1.714    0.000    0.000 
#    0.000    0.000    0.000    0.000    0.000    0.000 
#
# Total GULP energy -156557.419585 kJ/mol
# GULP energy per Si atom -5591.336414 kJ/mol
# Density = 2.016169 g / cm^3
# Si number density = 20.207688 Si / 1000 Ang^3
#
#
#
# Elastic Constant Matrix: (Units=GPa)
#
#
# Indices 1 2 3 4 5 6 
#
# 1 72.3494 35.5865 13.7596 0.0000 -9.6089 0.0000
# 2 35.5865 135.3476 33.5039 0.0000 -15.5084 0.0000
# 3 13.7596 33.5039 75.0288 0.0000 -21.8243 0.0000
# 4 0.0000 0.0000 0.0000 19.9563 0.0000 -5.2201
# 5 -9.6089 -15.5084 -21.8243 0.0000 18.3173 0.0000
# 6 0.0000 0.0000 0.0000 -5.2201 0.0000 34.6270
#
#
#
# Elastic Compliance Matrix: (Units=1/GPa)
#
#
# Indices 1 2 3 4 5 6 
#
# 1 0.016362 -0.003720 0.000369 0.000000 0.005873 0.000000
# 2 -0.003720 0.009348 -0.002690 0.000000 0.002758 0.000000
# 3 0.000369 -0.002690 0.021204 0.000000 0.023180 0.000000
# 4 0.000000 0.000000 0.000000 0.052167 0.000000 0.007864
# 5 0.005873 0.002758 0.023180 0.000000 0.087628 0.000000
# 6 0.000000 0.000000 0.000000 0.007864 0.000000 0.030065
#
#
# Mechanical properties :
#
#
# Convention : Reuss Voigt Hill
#
# Bulk Modulus (GPa) = 28.70930 49.82509 39.26720
# Shear Modulus (GPa) = 20.79293 27.90518 24.34906
#
# Velocity S-wave (km/s) = 3.21122 3.72010 3.47499
# Velocity P-wave (km/s) = 5.29030 6.56980 5.96446
#
# Compressibility (1/GPa) = 0.03483191
#
# Stress axis : x y z
#
# Youngs Moduli (GPa) = 61.11899 106.96938 47.16014
#
# Poissons Ratio (x) = 0.39796 -0.01740
# Poissons Ratio (y) = 0.22738 0.12686
# Poissons Ratio (z) = -0.02255 0.28774
#
# Static dielectric constant tensor:
#      x y z
#    x 1.733980 0.000000 0.001540 
#    y 0.000000 1.745430 0.000000 
#    z 0.001540 0.000000 1.689860 
# 
# From -- ./inp_files/263234.got.cif
#   From: 2010.05.17/outbox.cif.g08.bks.cpg/sg12_132_cif.got.tgz:263234.got - 2010.06.03 13:09:07.
