data_PCOD9206281
_publ_section_title
;
Structure prediction by ZEFSAII (Michael W. Deem and Ramdas Pophale) SiO2 
 PCOD9206281
Probable space group: C 2/M
;
_chemical_formula_sum "Si O2"
_cell_formula_units_Z 56
_cell_length_a 7.766600
_cell_length_b 28.752346
_cell_length_c 11.822590
_cell_angle_alpha 90.000000
_cell_angle_beta 63.317503
_cell_angle_gamma 90.000000
_cell_volume 2358.932932
_symmetry_space_group_name_H-M "C 2/M"
_symmetry_group_IT_number 12
_symmetry_cell_setting 'monoclinic'
loop_
_space_group_symop_operation_xyz
x,y,z
-x,y,-z
-x,-y,-z
x,-y,z
1/2+x,1/2+y,z
1/2-x,1/2+y,-z
1/2-x,1/2-y,-z
1/2+x,1/2-y,z
loop_
_atom_site_type_symbol
_atom_site_label
_atom_site_fract_x
_atom_site_fract_y
_atom_site_fract_z
Si Si1 0.357145 0.681570 0.935482
Si Si2 0.915801 0.404590 0.297693
Si Si3 0.177841 0.000000 0.107572
Si Si4 0.182455 0.228726 0.700635
Si Si5 0.676681 0.349371 0.537557
Si Si6 0.074644 0.094723 0.226364
Si Si7 0.958944 0.500000 0.819466
Si Si8 0.959521 0.309365 0.809374
O O1 0.475877 0.712355 0.811971
O O2 0.327747 0.632127 0.885172
O O3 0.500000 0.675842 0.000000
O O4 0.159365 0.701959 0.042310
O O5 0.851965 0.377348 0.429330
O O6 0.716386 0.413615 0.289994
O O7 0.023952 0.453505 0.261153
O O8 0.026725 0.364814 0.196075
O O9 0.055710 0.046168 0.168519
O O10 0.359449 0.000000 0.143967
O O11 0.273652 0.000000 0.955699
O O12 0.212633 0.202761 0.573163
O O13 0.338297 0.207005 0.737429
O O14 0.163373 0.284034 0.726529
O O15 0.500000 0.347210 0.500000
O O16 0.609700 0.379780 0.665995
#
# Coordination Sequence:
#
# PCOD9206281 Si02
#       8
#     8   8   4   8   8   8   4   8
#     4   9  19  37  55  79 117 156 190 237 291 349
#     4  10  21  36  57  85 114 153 197 238 287 340
#     4   9  16  29  54  89 115 143 190 241 293 343
#     4  10  23  39  57  84 118 152 196 240 284 349
#     4   9  20  38  57  80 115 156 197 236 282 339
#     4   9  18  34  57  82 115 152 191 243 290 341
#     4   9  18  33  55  86 119 146 189 241 289 345
#     4  11  23  37  59  87 116 153 193 237 298 344
#
# _framework density 23.739549
#
# number of rings (size 3 to 8) (size 9 to 14) (size 15 to 20)
#    0.000    2.429    0.000    1.286    6.000    3.429 
#    0.000    3.214    0.000    8.571    0.000    0.000 
#    0.000    0.000    0.000    0.000    0.000    0.000 
#
# Total GULP energy -156461.135908 kJ/mol
# GULP energy per Si atom -5587.897711 kJ/mol
# Density = 2.368552 g / cm^3
# Si number density = 23.739549 Si / 1000 Ang^3
#
#
#
# Elastic Constant Matrix: (Units=GPa)
#
#
# Indices 1 2 3 4 5 6 
#
# 1 53.1469 -2.8120 6.3223 0.0000 8.7181 0.0000
# 2 -2.8120 157.2634 40.8956 0.0000 -7.5745 0.0000
# 3 6.3223 40.8956 127.3686 0.0000 -11.7430 0.0000
# 4 0.0000 0.0000 0.0000 38.3485 0.0000 -2.7505
# 5 8.7181 -7.5745 -11.7430 0.0000 23.7646 0.0000
# 6 0.0000 0.0000 0.0000 -2.7505 0.0000 18.7401
#
#
#
# Elastic Compliance Matrix: (Units=1/GPa)
#
#
# Indices 1 2 3 4 5 6 
#
# 1 0.020431 0.000467 -0.001929 0.000000 -0.008300 0.000000
# 2 0.000467 0.006980 -0.002174 0.000000 0.000979 0.000000
# 3 -0.001929 -0.002174 0.009059 0.000000 0.004491 0.000000
# 4 0.000000 0.000000 0.000000 0.026354 0.000000 0.003868
# 5 -0.008300 0.000979 0.004491 0.000000 0.047656 0.000000
# 6 0.000000 0.000000 0.000000 0.003868 0.000000 0.053929
#
#
# Mechanical properties :
#
#
# Convention : Reuss Voigt Hill
#
# Bulk Modulus (GPa) = 34.24886 47.39895 40.82391
# Shear Modulus (GPa) = 27.56127 35.72882 31.64505
#
# Velocity S-wave (km/s) = 3.41102 3.88369 3.65500
# Velocity P-wave (km/s) = 5.47464 6.33406 5.91996
#
# Compressibility (1/GPa) = 0.02919805
#
# Stress axis : x y z
#
# Youngs Moduli (GPa) = 48.94406 143.27486 110.38615
#
# Poissons Ratio (x) = -0.06696 0.21298
# Poissons Ratio (y) = -0.02287 0.23997
# Poissons Ratio (z) = 0.09443 0.31147
#
# Static dielectric constant tensor:
#      x y z
#    x 1.925420 0.000000 0.000010 
#    y 0.000000 1.944580 0.000000 
#    z 0.000010 0.000000 1.905480 
# 
# From -- ./inp_files/125678.got.cif
#   From: 2010.05.17/outbox.cif.g08.bks.cpg/sg12_63_cif.got.tgz:125678.got - 2010.06.03 13:09:07.
