data_PCOD9206564
_publ_section_title
;
Structure prediction by ZEFSAII (Michael W. Deem and Ramdas Pophale) SiO2 
 PCOD9206564
Probable space group: C 2/M
;
_chemical_formula_sum "Si O2"
_cell_formula_units_Z 48
_cell_length_a 9.772848
_cell_length_b 20.656858
_cell_length_c 14.286005
_cell_angle_alpha 90.000000
_cell_angle_beta 140.513495
_cell_angle_gamma 90.000000
_cell_volume 1833.929403
_symmetry_space_group_name_H-M "C 2/M"
_symmetry_group_IT_number 12
_symmetry_cell_setting 'monoclinic'
loop_
_space_group_symop_operation_xyz
x,y,z
-x,y,-z
-x,-y,-z
x,-y,z
1/2+x,1/2+y,z
1/2-x,1/2+y,-z
1/2-x,1/2-y,-z
1/2+x,1/2-y,z
loop_
_atom_site_type_symbol
_atom_site_label
_atom_site_fract_x
_atom_site_fract_y
_atom_site_fract_z
Si Si1 0.691642 0.423662 0.664207
Si Si2 0.260649 0.104771 0.903131
Si Si3 0.193072 0.753064 0.815191
Si Si4 0.332223 0.110350 0.139706
Si Si5 0.242903 0.785038 0.350718
Si Si6 0.776807 0.569950 0.323139
O O1 0.500000 0.396659 0.500000
O O2 0.716037 0.500000 0.657532
O O3 0.634900 0.414925 0.743122
O O4 0.916023 0.391548 0.754232
O O5 0.265245 0.183027 0.906684
O O6 0.500000 0.081233 0.000000
O O7 0.217137 0.082202 0.986151
O O8 0.243244 0.683957 0.885901
O O9 0.293073 0.752270 0.765403
O O10 0.932195 0.757501 0.670607
O O11 0.308954 0.076107 0.227747
O O12 0.500000 0.782333 0.500000
O O13 0.182928 0.860636 0.303263
O O14 0.674047 0.500000 0.289012
O O15 0.000000 0.568785 0.500000
#
# Coordination Sequence:
#
# PCOD9206564 Si02
#       6
#     8   8   8   8   8   8
#     4  10  22  39  60  90 125 161 206 259 313 370
#     4  10  22  39  62  93 126 164 208 257 314 376
#     4  11  22  38  60  90 126 162 207 257 313 375
#     4  10  21  37  61  87 118 162 205 253 310 369
#     4  10  21  36  59  90 123 161 203 255 313 371
#     4   9  19  36  57  82 113 153 201 248 299 360
#
# _framework density 26.173309
#
# number of rings (size 3 to 8) (size 9 to 14) (size 15 to 20)
#    0.000    2.000    0.000    3.500    0.000   10.333 
#    0.000    5.000    0.000    1.000    0.000    0.000 
#    0.000    0.000    0.000    0.000    0.000    0.000 
#
# Total GULP energy -134293.176065 kJ/mol
# GULP energy per Si atom -5595.549003 kJ/mol
# Density = 2.611374 g / cm^3
# Si number density = 26.173309 Si / 1000 Ang^3
#
#
#
# Elastic Constant Matrix: (Units=GPa)
#
#
# Indices 1 2 3 4 5 6 
#
# 1 113.1787 22.4364 35.9064 -0.0002 -2.7634 -0.0001
# 2 22.4364 108.3826 9.4261 0.0001 -4.8843 0.0000
# 3 35.9064 9.4261 146.0329 -0.0006 -13.8486 -0.0003
# 4 -0.0002 0.0001 -0.0006 63.8014 -0.0005 8.8560
# 5 -2.7634 -4.8843 -13.8486 -0.0005 43.0065 -0.0002
# 6 -0.0001 0.0000 -0.0003 8.8560 -0.0002 30.7413
#
#
#
# Elastic Compliance Matrix: (Units=1/GPa)
#
#
# Indices 1 2 3 4 5 6 
#
# 1 0.009945 -0.001869 -0.002356 0.000000 -0.000332 0.000000
# 2 -0.001869 0.009663 -0.000074 0.000000 0.000954 0.000000
# 3 -0.002356 -0.000074 0.007650 0.000000 0.002304 0.000000
# 4 0.000000 0.000000 0.000000 0.016326 0.000000 -0.004703
# 5 -0.000332 0.000954 0.002304 0.000000 0.024081 0.000000
# 6 0.000000 0.000000 0.000000 -0.004703 0.000000 0.033884
#
#
# Mechanical properties :
#
#
# Convention : Reuss Voigt Hill
#
# Bulk Modulus (GPa) = 53.58786 55.90356 54.74571
# Shear Modulus (GPa) = 42.96687 47.49820 45.23253
#
# Velocity S-wave (km/s) = 4.05610 4.26462 4.16166
# Velocity P-wave (km/s) = 6.51572 6.75682 6.63737
#
# Compressibility (1/GPa) = 0.01866094
#
# Stress axis : x y z
#
# Youngs Moduli (GPa) = 100.54816 103.48930 130.71300
#
# Poissons Ratio (x) = 0.19341 0.30799
# Poissons Ratio (y) = 0.18791 0.00964
# Poissons Ratio (z) = 0.23691 0.00763
#
# Static dielectric constant tensor:
#      x y z
#    x 2.015250 0.000000 0.071420 
#    y 0.000000 1.978060 0.000000 
#    z 0.071420 0.000000 2.111200 
# 
# From -- ./inp_files/208003.got.cif
#   From: 2010.05.17/outbox.cif.g08.bks.cpg/sg12_105_cif.got.tgz:208003.got - 2010.06.03 13:09:07.
