data_PCOD9206858
_publ_section_title
;
Structure prediction by ZEFSAII (Michael W. Deem and Ramdas Pophale) SiO2 
 PCOD9206858
Probable space group: C 2/M
;
_chemical_formula_sum "Si O2"
_cell_formula_units_Z 64
_cell_length_a 25.891111
_cell_length_b 8.519608
_cell_length_c 24.524986
_cell_angle_alpha 90.000000
_cell_angle_beta 133.387206
_cell_angle_gamma 90.000000
_cell_volume 3931.434163
_symmetry_space_group_name_H-M "C 2/M"
_symmetry_group_IT_number 12
_symmetry_cell_setting 'monoclinic'
loop_
_space_group_symop_operation_xyz
x,y,z
-x,y,-z
-x,-y,-z
x,-y,z
1/2+x,1/2+y,z
1/2-x,1/2+y,-z
1/2-x,1/2-y,-z
1/2+x,1/2-y,z
loop_
_atom_site_type_symbol
_atom_site_label
_atom_site_fract_x
_atom_site_fract_y
_atom_site_fract_z
Si Si1 0.226400 0.188454 0.093333
Si Si2 0.911495 0.189386 0.075716
Si Si3 0.881483 0.188058 0.175847
Si Si4 0.470200 0.810614 0.919342
Si Si5 0.829924 0.690366 0.341203
Si Si6 0.444335 0.809846 0.331674
Si Si7 0.059362 0.682635 0.494925
Si Si8 0.808079 0.311770 0.810944
O O1 0.300867 0.255258 0.126482
O O2 0.211583 0.244740 0.143932
O O3 0.230557 0.000000 0.096059
O O4 0.160580 0.239427 0.007709
O O5 0.908533 0.241981 0.136263
O O6 0.978665 0.249276 0.090699
O O7 0.912401 0.000000 0.075766
O O8 0.927832 0.250441 0.259737
O O9 0.882168 0.000000 0.177393
O O10 0.388176 0.761401 0.854554
O O11 0.472396 0.000000 0.920425
O O12 0.500000 0.758233 0.000000
O O13 0.828807 0.500000 0.341686
O O14 0.879623 0.735360 0.325458
O O15 0.870442 0.748565 0.425118
O O16 0.751728 0.753775 0.274181
O O17 0.517634 0.750773 0.412612
O O18 0.446134 0.000000 0.332970
O O19 0.074660 0.500000 0.493642
O O20 0.000000 0.683140 0.500000
O O21 0.806566 0.500000 0.812858
#
# Coordination Sequence:
#
# PCOD9206858 Si02
#       8
#     8   8   8   8   8   8   8   8
#     4  11  21  34  51  71  95 130 171 202 237 289
#     4  10  23  38  52  71  95 128 170 210 245 285
#     4  11  22  34  48  72 104 132 161 202 248 288
#     4  10  21  37  54  72  95 127 164 204 253 296
#     4   9  16  28  47  71  99 130 165 197 235 288
#     4   9  16  28  47  71  98 131 167 194 232 289
#     4   7  12  24  43  67  96 128 160 197 231 277
#     4  11  21  32  49  74 102 129 159 202 251 290
#
# _framework density 16.279046000000001
#
# number of rings (size 3 to 8) (size 9 to 14) (size 15 to 20)
#    0.000    2.250    2.500    3.000    0.000    2.750 
#    0.000    0.625    0.000    2.250    0.000    0.875 
#    0.000    0.000    0.000    0.000    0.000    0.000 
#
# Total GULP energy -178420.860757 kJ/mol
# GULP energy per Si atom -5575.651899 kJ/mol
# Density = 1.624199 g / cm^3
# Si number density = 16.279046 Si / 1000 Ang^3
#
#
#
# Elastic Constant Matrix: (Units=GPa)
#
#
# Indices 1 2 3 4 5 6 
#
# 1 110.4781 15.9517 82.0980 0.0000 -1.9402 0.0000
# 2 15.9517 14.3900 25.4241 0.0000 1.1536 0.0000
# 3 82.0980 25.4241 171.6006 0.0000 16.4868 0.0000
# 4 0.0000 0.0000 0.0000 19.9443 0.0000 1.1477
# 5 -1.9402 1.1536 16.4868 0.0000 13.3835 0.0000
# 6 0.0000 0.0000 0.0000 1.1477 0.0000 22.8934
#
#
#
# Elastic Compliance Matrix: (Units=1/GPa)
#
#
# Indices 1 2 3 4 5 6 
#
# 1 0.016048 -0.004156 -0.008303 0.000000 0.012913 0.000000
# 2 -0.004156 0.096474 -0.012985 0.000000 0.007078 0.000000
# 3 -0.008303 -0.012985 0.013307 0.000000 -0.016476 0.000000
# 4 0.000000 0.000000 0.000000 0.050285 0.000000 -0.002521
# 5 0.012913 0.007078 -0.016476 0.000000 0.096278 0.000000
# 6 0.000000 0.000000 0.000000 -0.002521 0.000000 0.043807
#
#
# Mechanical properties :
#
#
# Convention : Reuss Voigt Hill
#
# Bulk Modulus (GPa) = 13.34375 60.37961 36.86168
# Shear Modulus (GPa) = 12.75291 22.77723 17.76507
#
# Velocity S-wave (km/s) = 2.80195 3.74461 3.30704
# Velocity P-wave (km/s) = 4.32234 7.47443 6.10531
#
# Compressibility (1/GPa) = 0.07494143
#
# Stress axis : x y z
#
# Youngs Moduli (GPa) = 62.31167 10.36544 75.15048
#
# Poissons Ratio (x) = 0.04308 0.62396
# Poissons Ratio (y) = 0.25896 0.97585
# Poissons Ratio (z) = 0.51736 0.13460
#
# Static dielectric constant tensor:
#      x y z
#    x 1.509050 0.000000 0.005700 
#    y 0.000000 1.559240 0.000000 
#    z 0.005700 0.000000 1.579970 
# 
# From -- ./inp_files/348584.got.cif
#   From: 2010.05.17/outbox.cif.g08.bks.cpg/sg12_175_cif.got.tgz:348584.got - 2010.06.03 13:09:07.
