data_PCOD9206749
_publ_section_title
;
Structure prediction by ZEFSAII (Michael W. Deem and Ramdas Pophale) SiO2 
 PCOD9206749
Probable space group: C 2/M
;
_chemical_formula_sum "Si O2"
_cell_formula_units_Z 44
_cell_length_a 20.785013
_cell_length_b 10.615423
_cell_length_c 15.382521
_cell_angle_alpha 90.000000
_cell_angle_beta 33.145876
_cell_angle_gamma 90.000000
_cell_volume 1855.760020
_symmetry_space_group_name_H-M "C 2/M"
_symmetry_group_IT_number 12
_symmetry_cell_setting 'monoclinic'
loop_
_space_group_symop_operation_xyz
x,y,z
-x,y,-z
-x,-y,-z
x,-y,z
1/2+x,1/2+y,z
1/2-x,1/2+y,-z
1/2-x,1/2-y,-z
1/2+x,1/2-y,z
loop_
_atom_site_type_symbol
_atom_site_label
_atom_site_fract_x
_atom_site_fract_y
_atom_site_fract_z
Si Si1 0.439855 0.742494 0.751225
Si Si2 0.788237 0.782257 0.089042
Si Si3 0.357854 0.500000 0.328739
Si Si4 0.884158 0.724891 0.318548
Si Si5 0.725342 0.000000 0.849931
Si Si6 0.020234 0.000000 0.376310
Si Si7 0.693955 0.000000 0.686485
Si Si8 0.640494 0.500000 0.861046
O O1 0.351562 0.790241 0.776439
O O2 0.534007 0.826639 0.696321
O O3 0.517129 0.628659 0.625063
O O4 0.353408 0.691059 0.924430
O O5 0.825018 0.638788 0.073105
O O6 0.822237 0.878679 0.125396
O O7 0.426134 0.366927 0.249914
O O8 0.279124 0.500000 0.505198
O O9 0.295391 0.500000 0.305512
O O10 0.750000 0.750000 0.500000
O O11 0.880739 0.626914 0.243866
O O12 0.837950 0.000000 0.786267
O O13 0.750180 0.000000 0.718015
O O14 0.000000 0.000000 0.500000
O O15 0.500000 0.500000 0.000000
#
# Coordination Sequence:
#
# PCOD9206749 Si02
#       8
#     8   8   4   8   4   4   4   4
#     4  10  21  41  61  94 127 165 211 254 340 369
#     4  10  23  41  67  92 130 168 209 279 316 400
#     4  10  21  37  59  85 120 167 205 273 314 371
#     4  10  21  36  62  86 122 168 208 256 312 386
#     4  10  22  41  62 100 128 164 224 267 332 376
#     4  10  22  36  67  98 125 168 222 282 305 386
#     4  10  22  38  57  87 125 165 207 255 320 385
#     4  12  23  40  63  94 126 169 232 261 328 396
#
# _framework density 23.709962999999998
#
# number of rings (size 3 to 8) (size 9 to 14) (size 15 to 20)
#    0.000    1.818    0.000    3.273    5.091    3.636 
#    3.273    1.364    0.000    4.364    0.000    0.000 
#    0.000    0.000    0.000    0.000    0.000    0.000 
#
# Total GULP energy -122689.955274 kJ/mol
# GULP energy per Si atom -5576.816149 kJ/mol
# Density = 2.365600 g / cm^3
# Si number density = 23.709963 Si / 1000 Ang^3
#
#
#
# Elastic Constant Matrix: (Units=GPa)
#
#
# Indices 1 2 3 4 5 6 
#
# 1 179.0434 46.6580 30.1736 0.0000 2.5839 0.0000
# 2 46.6580 144.3880 2.4834 0.0000 13.9419 0.0000
# 3 30.1736 2.4834 55.9569 0.0000 15.8045 0.0000
# 4 0.0000 0.0000 0.0000 9.7385 0.0000 16.3684
# 5 2.5839 13.9419 15.8045 0.0000 52.7753 0.0000
# 6 0.0000 0.0000 0.0000 16.3684 0.0000 48.0177
#
#
#
# Elastic Compliance Matrix: (Units=1/GPa)
#
#
# Indices 1 2 3 4 5 6 
#
# 1 0.006832 -0.002280 -0.003996 0.000000 0.001465 0.000000
# 2 -0.002280 0.007871 0.001569 0.000000 -0.002437 0.000000
# 3 -0.003996 0.001569 0.021868 0.000000 -0.006767 0.000000
# 4 0.000000 0.000000 0.000000 0.240454 0.000000 -0.081967
# 5 0.001465 -0.002437 -0.006767 0.000000 0.021547 0.000000
# 6 0.000000 0.000000 0.000000 -0.081967 0.000000 0.048767
#
#
# Mechanical properties :
#
#
# Convention : Reuss Voigt Hill
#
# Bulk Modulus (GPa) = 36.82635 59.77981 48.30308
# Shear Modulus (GPa) = 13.66846 42.11118 27.88982
#
# Velocity S-wave (km/s) = 2.40362 4.21895 3.43343
# Velocity P-wave (km/s) = 4.82378 7.00003 6.01121
#
# Compressibility (1/GPa) = 0.02715447
#
# Stress axis : x y z
#
# Youngs Moduli (GPa) = 146.37309 127.04800 45.72966
#
# Poissons Ratio (x) = 0.28972 0.18276
# Poissons Ratio (y) = 0.33378 -0.07174
# Poissons Ratio (z) = 0.58497 -0.19931
#
# Static dielectric constant tensor:
#      x y z
#    x 1.951100 0.000000 -0.088900 
#    y 0.000000 1.980670 0.000000 
#    z -0.088900 0.000000 1.981210 
# 
# From -- ./inp_files/232300.got.cif
#   From: 2010.05.17/outbox.cif.g08.bks.cpg/sg12_117_cif.got.tgz:232300.got - 2010.06.03 13:09:07.
