data_PCOD9206429
_publ_section_title
;
Structure prediction by ZEFSAII (Michael W. Deem and Ramdas Pophale) SiO2 
 PCOD9206429
Probable space group: C 2/M
;
_chemical_formula_sum "Si O2"
_cell_formula_units_Z 50
_cell_length_a 30.031225
_cell_length_b 7.397086
_cell_length_c 12.490326
_cell_angle_alpha 90.000000
_cell_angle_beta 51.326856
_cell_angle_gamma 90.000000
_cell_volume 2166.230566
_symmetry_space_group_name_H-M "C 2/M"
_symmetry_group_IT_number 12
_symmetry_cell_setting 'monoclinic'
loop_
_space_group_symop_operation_xyz
x,y,z
-x,y,-z
-x,-y,-z
x,-y,z
1/2+x,1/2+y,z
1/2-x,1/2+y,-z
1/2-x,1/2-y,-z
1/2+x,1/2-y,z
loop_
_atom_site_type_symbol
_atom_site_label
_atom_site_fract_x
_atom_site_fract_y
_atom_site_fract_z
Si Si1 0.851163 0.277767 0.661623
Si Si2 0.913075 0.708252 0.358617
Si Si3 0.124390 0.709440 0.139971
Si Si4 0.035333 0.280823 0.094698
Si Si5 0.688600 0.285586 0.647339
Si Si6 0.720215 0.718284 0.833219
Si Si7 0.000000 0.000000 0.000000
O O1 0.851115 0.500000 0.660974
O O2 0.889486 0.215038 0.505166
O O3 0.872050 0.214272 0.746294
O O4 0.785768 0.223505 0.740685
O O5 0.927656 0.500000 0.358737
O O6 0.861980 0.712256 0.350115
O O7 0.972192 0.784540 0.226410
O O8 0.109271 0.500000 0.176954
O O9 0.078596 0.775888 0.123003
O O10 0.184884 0.722732 0.989509
O O11 0.037913 0.500000 0.072920
O O12 0.044084 0.160775 0.977241
O O13 0.680917 0.500000 0.661987
O O14 0.750000 0.250000 0.500000
O O15 0.691941 0.217462 0.764563
O O16 0.719664 0.500000 0.832163
#
# Coordination Sequence:
#
# PCOD9206429 Si02
#       7
#     8   8   8   8   8   8   2
#     4   9  18  38  63  87 121 166 208 259 316 375
#     4  10  21  40  63  89 125 162 207 262 315 379
#     4  10  22  39  61  90 124 161 212 260 311 380
#     4  10  25  43  66 100 126 168 218 258 322 389
#     4  11  22  36  58  87 122 160 204 253 316 379
#     4  10  21  36  58  87 121 163 209 253 317 382
#     4  12  26  44  72  84 140 168 206 268 322 366
#
# _framework density 23.081569999999999
#
# number of rings (size 3 to 8) (size 9 to 14) (size 15 to 20)
#    0.000    1.920    1.600    1.200    4.480    1.920 
#    0.000    4.000    0.000    0.960    0.000    0.000 
#    0.000    0.000    0.000    0.000    0.000    0.000 
#
# Total GULP energy -139526.134476 kJ/mol
# GULP energy per Si atom -5581.045379 kJ/mol
# Density = 2.302904 g / cm^3
# Si number density = 23.081570 Si / 1000 Ang^3
#
#
#
# Elastic Constant Matrix: (Units=GPa)
#
#
# Indices 1 2 3 4 5 6 
#
# 1 72.3630 12.7275 38.9908 0.0000 18.6576 0.0000
# 2 12.7275 101.0282 1.0145 0.0000 10.7264 -0.0001
# 3 38.9908 1.0145 101.3566 0.0000 13.5692 0.0000
# 4 0.0000 0.0000 0.0000 -0.4926 0.0000 -1.0655
# 5 18.6576 10.7264 13.5692 0.0000 49.9687 0.0000
# 6 0.0000 -0.0001 0.0000 -1.0655 0.0000 1.8258
#
#
#
# Elastic Compliance Matrix: (Units=1/GPa)
#
#
# Indices 1 2 3 4 5 6 
#
# 1 0.018968 -0.001803 -0.006623 0.000000 -0.004897 0.000000
# 2 -0.001803 0.010304 0.000827 0.000000 -0.001763 0.000000
# 3 -0.006623 0.000827 0.012555 0.000000 -0.001114 0.000000
# 4 0.000000 0.000000 0.000000 -0.897329 0.000000 -0.523674
# 5 -0.004897 -0.001763 -0.001114 0.000000 0.022522 0.000000
# 6 0.000000 0.000000 0.000000 -0.523674 0.000000 0.242084
#
#
# Mechanical properties :
#
#
# Convention : Reuss Voigt Hill
#
# Bulk Modulus (GPa) = 37.55531 42.24594 39.90063
# Shear Modulus (GPa) = -8.82111 25.06138 8.12014
#
# Velocity S-wave (km/s) = -1.95704 3.29868 1.87767
# Velocity P-wave (km/s) = 3.34654 5.73158 4.69310
#
# Compressibility (1/GPa) = 0.02662739
#
# Stress axis : x y z
#
# Youngs Moduli (GPa) = 52.72175 97.04703 79.65089
#
# Poissons Ratio (x) = 0.17499 0.52753
# Poissons Ratio (y) = 0.09506 -0.06583
# Poissons Ratio (z) = 0.34918 -0.08021
#
# Static dielectric constant tensor:
#      x y z
#    x 1.849440 0.000000 0.027710 
#    y 0.000000 1.917260 0.000000 
#    z 0.027710 0.000000 1.921350 
# 
# From -- ./inp_files/180575.got.cif
#   From: 2010.05.17/outbox.cif.g08.bks.cpg/sg12_91_cif.got.tgz:180575.got - 2010.06.03 13:09:07.
