data_PCOD9206261
_publ_section_title
;
Structure prediction by ZEFSAII (Michael W. Deem and Ramdas Pophale) SiO2 
 PCOD9206261
Probable space group: C 2/M
;
_chemical_formula_sum "Si O2"
_cell_formula_units_Z 36
_cell_length_a 18.758387
_cell_length_b 15.209615
_cell_length_c 22.977571
_cell_angle_alpha 90.000000
_cell_angle_beta 162.737141
_cell_angle_gamma 90.000000
_cell_volume 1945.437118
_symmetry_space_group_name_H-M "C 2/M"
_symmetry_group_IT_number 12
_symmetry_cell_setting 'monoclinic'
loop_
_space_group_symop_operation_xyz
x,y,z
-x,y,-z
-x,-y,-z
x,-y,z
1/2+x,1/2+y,z
1/2-x,1/2+y,-z
1/2-x,1/2-y,-z
1/2+x,1/2-y,z
loop_
_atom_site_type_symbol
_atom_site_label
_atom_site_fract_x
_atom_site_fract_y
_atom_site_fract_z
Si Si1 0.000000 0.280960 0.500000
Si Si2 0.722318 0.719022 0.788902
Si Si3 0.857538 0.847286 0.591298
Si Si4 0.577050 0.602986 0.225617
Si Si5 0.163386 0.402956 0.810411
O O1 0.096674 0.223695 0.628597
O O2 0.215891 0.341632 0.644610
O O3 0.578037 0.653600 0.718775
O O4 0.705832 0.819858 0.801188
O O5 0.000000 0.696165 0.000000
O O6 0.750000 0.750000 0.500000
O O7 0.942114 0.864767 0.722952
O O8 0.618903 0.903920 0.394253
O O9 0.642558 0.500000 0.277481
O O10 0.332189 0.611874 0.997962
O O11 0.225221 0.500000 0.833827
#
# Coordination Sequence:
#
# PCOD9206261 Si02
#       5
#     4   8   8   8   8
#     4  12  21  34  54  88 119 150 180 230 287 340
#     4  11  23  37  55  85 120 153 187 230 285 340
#     4  10  21  37  56  80 116 157 189 229 277 342
#     4  11  22  35  58  87 116 151 188 233 285 342
#     4  10  21  36  57  84 113 148 188 234 283 335
#
# _framework density 18.504839
#
# number of rings (size 3 to 8) (size 9 to 14) (size 15 to 20)
#    0.000    1.333    6.667    1.000    0.000    6.667 
#    0.000    0.000    0.000    2.667    0.000    6.222 
#    0.000    0.000    0.000    0.000    0.000    0.000 
#
# Total GULP energy -100423.179556 kJ/mol
# GULP energy per Si atom -5579.065531 kJ/mol
# Density = 1.846272 g / cm^3
# Si number density = 18.504839 Si / 1000 Ang^3
#
#
#
# Elastic Constant Matrix: (Units=GPa)
#
#
# Indices 1 2 3 4 5 6 
#
# 1 130.5485 5.0803 62.6568 -0.0017 3.4526 -0.0075
# 2 5.0803 14.2371 2.7878 0.0214 -4.4033 0.0129
# 3 62.6568 2.7878 120.2863 0.0345 -1.7456 0.0072
# 4 -0.0017 0.0214 0.0345 19.0226 -0.0168 -7.2342
# 5 3.4526 -4.4033 -1.7456 -0.0168 41.8743 0.0003
# 6 -0.0075 0.0129 0.0072 -7.2342 0.0003 19.1663
#
#
#
# Elastic Compliance Matrix: (Units=1/GPa)
#
#
# Indices 1 2 3 4 5 6 
#
# 1 0.010391 -0.003093 -0.005361 0.000019 -0.001405 0.000015
# 2 -0.003093 0.073820 0.000016 -0.000112 0.008018 -0.000093
# 3 -0.005361 0.000016 0.011119 -0.000026 0.000907 -0.000016
# 4 0.000019 -0.000112 -0.000026 0.061380 0.000010 0.023168
# 5 -0.001405 0.008018 0.000907 0.000010 0.024878 -0.000003
# 6 0.000015 -0.000093 -0.000016 0.023168 -0.000003 0.060920
#
#
# Mechanical properties :
#
#
# Convention : Reuss Voigt Hill
#
# Bulk Modulus (GPa) = 12.74625 45.12463 28.93544
# Shear Modulus (GPa) = 17.51115 28.98245 23.24680
#
# Velocity S-wave (km/s) = 3.07954 3.96183 3.54821
# Velocity P-wave (km/s) = 4.42128 6.73546 5.69711
#
# Compressibility (1/GPa) = 0.07845442
#
# Stress axis : x y z
#
# Youngs Moduli (GPa) = 96.24094 13.54654 89.93699
#
# Poissons Ratio (x) = 0.04189 0.48217
# Poissons Ratio (y) = 0.29764 -0.00148
# Poissons Ratio (z) = 0.51596 -0.00022
#
# Static dielectric constant tensor:
#      x y z
#    x 1.650880 -0.000010 0.020570 
#    y -0.000010 1.643910 -0.000050 
#    z 0.020570 -0.000050 1.646970 
# 
# From -- ./inp_files/216572.got.cif
#   From: 2010.05.17/outbox.cif.g08.bks.cpg/sg12_109_cif.got.tgz:216572.got - 2010.06.03 13:09:07.
