data_PCOD9206490
_publ_section_title
;
Structure prediction by ZEFSAII (Michael W. Deem and Ramdas Pophale) SiO2 
 PCOD9206490
Probable space group: C 2/M
;
_chemical_formula_sum "Si O2"
_cell_formula_units_Z 52
_cell_length_a 22.837797
_cell_length_b 7.672383
_cell_length_c 18.243130
_cell_angle_alpha 90.000000
_cell_angle_beta 44.169897
_cell_angle_gamma 90.000000
_cell_volume 2227.330750
_symmetry_space_group_name_H-M "C 2/M"
_symmetry_group_IT_number 12
_symmetry_cell_setting 'monoclinic'
loop_
_space_group_symop_operation_xyz
x,y,z
-x,y,-z
-x,-y,-z
x,-y,z
1/2+x,1/2+y,z
1/2-x,1/2+y,-z
1/2-x,1/2-y,-z
1/2+x,1/2-y,z
loop_
_atom_site_type_symbol
_atom_site_label
_atom_site_fract_x
_atom_site_fract_y
_atom_site_fract_z
Si Si1 0.791573 0.704699 0.064997
Si Si2 0.681635 0.302423 0.670953
Si Si3 0.590607 0.793364 0.455104
Si Si4 0.594181 0.708526 0.902184
Si Si5 0.703307 0.500000 0.381271
Si Si6 0.067556 0.698984 0.643548
Si Si7 0.380964 0.299359 0.836882
O O1 0.786953 0.500000 0.051032
O O2 0.838829 0.725140 0.099031
O O3 0.695834 0.771064 0.143855
O O4 0.846261 0.789769 0.951107
O O5 0.713972 0.500000 0.651449
O O6 0.624745 0.254838 0.792860
O O7 0.751311 0.154331 0.609559
O O8 0.622899 0.298165 0.652842
O O9 0.500000 0.768840 0.500000
O O10 0.660585 0.656246 0.367796
O O11 0.576940 0.737891 0.552274
O O12 0.610935 0.000000 0.430204
O O13 0.591675 0.500000 0.913213
O O14 0.500000 0.776633 0.000000
O O15 0.096708 0.500000 0.619121
O O16 0.969281 0.704981 0.751254
O O17 0.397698 0.500000 0.802298
#
# Coordination Sequence:
#
# PCOD9206490 Si02
#       7
#     8   8   8   8   4   8   8
#     4  10  21  36  58  93 125 173 222 270 329 391
#     4  11  25  44  66 101 140 175 228 278 337 404
#     4  10  25  49  73 102 135 174 224 280 348 406
#     4  10  22  40  62  88 128 178 219 273 335 395
#     4  12  25  46  71 100 135 178 221 282 337 416
#     4  11  23  43  68  99 128 173 225 278 337 408
#     4  10  21  37  60  89 132 169 217 275 331 396
#
# _framework density 23.346329999999998
#
# number of rings (size 3 to 8) (size 9 to 14) (size 15 to 20)
#    0.000    1.538    0.769    3.000    3.231    5.231 
#    2.769    3.077    0.000    0.000    0.000    0.000 
#    0.000    0.000    0.000    0.000    0.000    0.000 
#
# Total GULP energy -144954.009918 kJ/mol
# GULP energy per Si atom -5575.154228 kJ/mol
# Density = 2.329319 g / cm^3
# Si number density = 23.346330 Si / 1000 Ang^3
#
#
#
# Elastic Constant Matrix: (Units=GPa)
#
#
# Indices 1 2 3 4 5 6 
#
# 1 170.2337 60.3230 49.3629 0.0023 -7.6525 -0.0144
# 2 60.3230 48.5458 32.4091 0.0089 6.8858 0.0119
# 3 49.3629 32.4091 57.6539 0.0020 -8.3864 -0.0056
# 4 0.0023 0.0089 0.0020 -15.2549 -0.0020 -22.1183
# 5 -7.6525 6.8858 -8.3864 -0.0020 31.8663 0.0006
# 6 -0.0144 0.0119 -0.0056 -22.1183 0.0006 50.2202
#
#
#
# Elastic Compliance Matrix: (Units=1/GPa)
#
#
# Indices 1 2 3 4 5 6 
#
# 1 0.011547 -0.014582 -0.000861 -0.000011 0.005697 0.000002
# 2 -0.014582 0.056969 -0.022709 0.000037 -0.021788 -0.000004
# 3 -0.000861 -0.022709 0.032786 -0.000014 0.013329 0.000002
# 4 -0.000011 0.000037 -0.000014 -0.040006 -0.000016 -0.017620
# 5 0.005697 -0.021788 0.013329 -0.000016 0.040965 0.000001
# 6 0.000002 -0.000004 0.000002 -0.017620 0.000001 0.012152
#
#
# Mechanical properties :
#
#
# Convention : Reuss Voigt Hill
#
# Bulk Modulus (GPa) = 40.00072 62.29150 51.14611
# Shear Modulus (GPa) = 25.11935 22.32222 23.72079
#
# Velocity S-wave (km/s) = 3.28372 3.09550 3.19100
# Velocity P-wave (km/s) = 5.61675 6.28614 5.96085
#
# Compressibility (1/GPa) = 0.02499955
#
# Stress axis : x y z
#
# Youngs Moduli (GPa) = 86.60124 17.55338 30.50076
#
# Poissons Ratio (x) = 0.25596 0.02626
# Poissons Ratio (y) = 1.26280 0.69263
# Poissons Ratio (z) = 0.07456 0.39861
#
# Static dielectric constant tensor:
#      x y z
#    x 1.859470 0.000000 -0.014180 
#    y 0.000000 1.869340 0.000000 
#    z -0.014180 0.000000 1.950090 
# 
# From -- ./inp_files/282055.got.cif
#   From: 2010.05.17/outbox.cif.g08.bks.cpg/sg12_142_cif.got.tgz:282055.got - 2010.06.03 13:09:07.
