data_PCOD9206330
_publ_section_title
;
Structure prediction by ZEFSAII (Michael W. Deem and Ramdas Pophale) SiO2 
 PCOD9206330
Probable space group: C 2/M
;
_chemical_formula_sum "Si O2"
_cell_formula_units_Z 56
_cell_length_a 24.872721
_cell_length_b 8.415920
_cell_length_c 18.223912
_cell_angle_alpha 90.000000
_cell_angle_beta 135.640744
_cell_angle_gamma 90.000000
_cell_volume 2667.104488
_symmetry_space_group_name_H-M "C 2/M"
_symmetry_group_IT_number 12
_symmetry_cell_setting 'monoclinic'
loop_
_space_group_symop_operation_xyz
x,y,z
-x,y,-z
-x,-y,-z
x,-y,z
1/2+x,1/2+y,z
1/2-x,1/2+y,-z
1/2-x,1/2-y,-z
1/2+x,1/2-y,z
loop_
_atom_site_type_symbol
_atom_site_label
_atom_site_fract_x
_atom_site_fract_y
_atom_site_fract_z
Si Si1 0.342023 0.812707 0.168722
Si Si2 0.889600 0.687592 0.716645
Si Si3 0.257498 0.316286 0.687031
Si Si4 0.474412 0.690394 0.392929
Si Si5 0.066545 0.693576 0.886682
Si Si6 0.203375 0.687731 0.116872
Si Si7 0.370828 0.685922 0.542584
O O1 0.399705 0.781426 0.292652
O O2 0.388800 0.754094 0.143143
O O3 0.263624 0.722854 0.110550
O O4 0.326483 0.000000 0.145706
O O5 0.887832 0.500000 0.731803
O O6 0.836736 0.777813 0.722649
O O7 0.857379 0.715889 0.603332
O O8 0.978194 0.744736 0.803446
O O9 0.237479 0.500000 0.659975
O O10 0.268035 0.272278 0.782032
O O11 0.191739 0.217875 0.581119
O O12 0.500000 0.731220 0.500000
O O13 0.459509 0.500000 0.376163
O O14 0.545617 0.726037 0.408775
O O15 0.065292 0.500000 0.882734
O O16 0.119378 0.739954 0.007031
O O17 0.201440 0.500000 0.129186
O O18 0.369692 0.500000 0.560649
#
# Coordination Sequence:
#
# PCOD9206330 Si02
#       7
#     8   8   8   8   8   8   8
#     4  11  21  38  62  93 126 160 205 253 305 365
#     4  11  22  42  67  92 124 165 208 255 308 370
#     4  12  26  43  62  91 125 162 208 261 314 367
#     4  10  21  36  57  87 124 164 204 248 302 362
#     4   9  21  40  65  93 124 163 208 252 306 370
#     4  11  23  42  64  90 124 166 209 254 310 370
#     4  11  22  39  63  93 126 163 207 255 307 367
#
# _framework density 20.996551
#
# number of rings (size 3 to 8) (size 9 to 14) (size 15 to 20)
#    0.000    1.286    1.429    4.714    0.000    2.571 
#    0.000    7.857    0.000    0.000    0.000    0.000 
#    0.000    0.000    0.000    0.000    0.000    0.000 
#
# Total GULP energy -156645.406571 kJ/mol
# GULP energy per Si atom -5594.478806 kJ/mol
# Density = 2.094876 g / cm^3
# Si number density = 20.996551 Si / 1000 Ang^3
#
#
#
# Elastic Constant Matrix: (Units=GPa)
#
#
# Indices 1 2 3 4 5 6 
#
# 1 42.4554 -2.0248 6.9606 0.0000 -6.0505 0.0000
# 2 -2.0248 19.0197 -12.1368 0.0000 -2.9567 0.0000
# 3 6.9606 -12.1368 84.9920 0.0000 14.5298 0.0000
# 4 0.0000 0.0000 0.0000 17.4967 0.0000 -1.3860
# 5 -6.0505 -2.9567 14.5298 0.0000 17.5253 0.0000
# 6 0.0000 0.0000 0.0000 -1.3860 0.0000 28.9977
#
#
#
# Elastic Compliance Matrix: (Units=1/GPa)
#
#
# Indices 1 2 3 4 5 6 
#
# 1 0.026125 0.002206 -0.003997 0.000000 0.012705 0.000000
# 2 0.002206 0.058208 0.007366 0.000000 0.004475 0.000000
# 3 -0.003997 0.007366 0.015343 0.000000 -0.012858 0.000000
# 4 0.000000 0.000000 0.000000 0.057371 0.000000 0.002742
# 5 0.012705 0.004475 -0.012858 0.000000 0.072862 0.000000
# 6 0.000000 0.000000 0.000000 0.002742 0.000000 0.034617
#
#
# Mechanical properties :
#
#
# Convention : Reuss Voigt Hill
#
# Bulk Modulus (GPa) = 9.02294 14.67388 11.84841
# Shear Modulus (GPa) = 17.22257 23.04848 20.13552
#
# Velocity S-wave (km/s) = 2.86712 3.31679 3.10012
# Velocity P-wave (km/s) = 3.90732 4.65532 4.29763
#
# Compressibility (1/GPa) = 0.11082859
#
# Stress axis : x y z
#
# Youngs Moduli (GPa) = 38.27710 17.17971 65.17576
#
# Poissons Ratio (x) = -0.03790 0.26048
# Poissons Ratio (y) = -0.08444 -0.48011
# Poissons Ratio (z) = 0.15298 -0.12655
#
# Static dielectric constant tensor:
#      x y z
#    x 1.745450 0.000000 0.002100 
#    y 0.000000 1.708870 0.000000 
#    z 0.002100 0.000000 1.748540 
# 
# From -- ./inp_files/288174.got.cif
#   From: 2010.05.17/outbox.cif.g08.bks.cpg/sg12_145_cif.got.tgz:288174.got - 2010.06.03 13:09:07.
