data_PCOD9206160
_publ_section_title
;
Structure prediction by ZEFSAII (Michael W. Deem and Ramdas Pophale) SiO2 
 PCOD9206160
Probable space group: C 2/M
;
_chemical_formula_sum "Si O2"
_cell_formula_units_Z 32
_cell_length_a 17.689610
_cell_length_b 14.621585
_cell_length_c 6.215367
_cell_angle_alpha 90.000000
_cell_angle_beta 138.111041
_cell_angle_gamma 90.000000
_cell_volume 1073.380704
_symmetry_space_group_name_H-M "C 2/M"
_symmetry_group_IT_number 12
_symmetry_cell_setting 'monoclinic'
loop_
_space_group_symop_operation_xyz
x,y,z
-x,y,-z
-x,-y,-z
x,-y,z
1/2+x,1/2+y,z
1/2-x,1/2+y,-z
1/2-x,1/2-y,-z
1/2+x,1/2-y,z
loop_
_atom_site_type_symbol
_atom_site_label
_atom_site_fract_x
_atom_site_fract_y
_atom_site_fract_z
Si Si1 0.250724 0.393723 0.460830
Si Si2 0.962655 0.109343 0.665255
Si Si3 0.505077 0.898326 0.260312
Si Si4 0.794947 0.732498 0.334875
O O1 0.280919 0.500000 0.507376
O O2 0.121449 0.387899 0.098801
O O3 0.266535 0.370906 0.746182
O O4 0.332448 0.352582 0.437080
O O5 0.000000 0.142401 0.500000
O O6 0.924243 0.305991 0.623972
O O7 0.972783 0.000000 0.669186
O O8 0.000000 0.127872 0.000000
O O9 0.500000 0.903375 0.500000
O O10 0.550723 0.000000 0.294970
O O11 0.750000 0.750000 0.500000
O O12 0.750000 0.750000 0.000000
#
# Coordination Sequence:
#
# PCOD9206160 Si02
#       4
#     8   8   8   8
#     4   8  15  25  43  73 107 146 187 230 280 334
#     4   8  13  22  39  69 104 141 185 232 277 331
#     4  10  21  36  56  84 115 149 189 233 282 337
#     4   9  15  27  48  75 105 144 183 231 279 336
#
# _framework density 29.812349000000001
#
# number of rings (size 3 to 8) (size 9 to 14) (size 15 to 20)
#    1.500    1.750    0.000    1.500    0.000    0.000 
#    0.000    0.000    0.000    9.000    0.000    3.500 
#    0.000    0.000    0.000    0.000    0.000    0.000 
#
# Total GULP energy -89093.035280 kJ/mol
# GULP energy per Si atom -5568.314705 kJ/mol
# Density = 2.974449 g / cm^3
# Si number density = 29.812349 Si / 1000 Ang^3
#
#
#
# Elastic Constant Matrix: (Units=GPa)
#
#
# Indices 1 2 3 4 5 6 
#
# 1 196.1045 110.9071 131.5624 0.0000 -39.8765 0.0000
# 2 110.9071 239.1407 135.3618 0.0000 -22.1083 0.0000
# 3 131.5624 135.3618 323.0517 0.0000 -44.4056 0.0000
# 4 0.0000 0.0000 0.0000 64.2265 0.0000 -20.7269
# 5 -39.8765 -22.1083 -44.4056 0.0000 58.6606 0.0000
# 6 0.0000 0.0000 0.0000 -20.7269 0.0000 83.1289
#
#
#
# Elastic Compliance Matrix: (Units=1/GPa)
#
#
# Indices 1 2 3 4 5 6 
#
# 1 0.008526 -0.002542 -0.001944 0.000000 0.003366 0.000000
# 2 -0.002542 0.006247 -0.001670 0.000000 -0.000638 0.000000
# 3 -0.001944 -0.001670 0.004820 0.000000 0.001698 0.000000
# 4 0.000000 0.000000 0.000000 0.016932 0.000000 0.004222
# 5 0.003366 -0.000638 0.001698 0.000000 0.020380 0.000000
# 6 0.000000 0.000000 0.000000 0.004222 0.000000 0.013082
#
#
# Mechanical properties :
#
#
# Convention : Reuss Voigt Hill
#
# Bulk Modulus (GPa) = 137.35757 168.21772 152.78765
# Shear Modulus (GPa) = 59.01261 66.56757 62.79009
#
# Velocity S-wave (km/s) = 4.45395 4.73047 4.59429
# Velocity P-wave (km/s) = 8.52199 9.29432 8.91652
#
# Compressibility (1/GPa) = 0.00728027
#
# Stress axis : x y z
#
# Youngs Moduli (GPa) = 117.28874 160.07798 207.45477
#
# Poissons Ratio (x) = 0.40699 0.40334
# Poissons Ratio (y) = 0.29820 0.34641
# Poissons Ratio (z) = 0.22803 0.26730
#
# Static dielectric constant tensor:
#      x y z
#    x 3.222290 0.000000 0.340090 
#    y 0.000000 1.394710 0.000000 
#    z 0.340090 0.000000 2.311810 
# 
# From -- ./inp_files/23725.got.cif
#   From: 2010.05.17/outbox.cif.g08.bks.cpg/sg12_12_cif.got.tgz:23725.got - 2010.06.03 13:09:07.
