data_PCOD9206968
_publ_section_title
;
Structure prediction by ZEFSAII (Michael W. Deem and Ramdas Pophale) SiO2 
 PCOD9206968
Probable space group: C 2/M
;
_chemical_formula_sum "Si O2"
_cell_formula_units_Z 60
_cell_length_a 23.562480
_cell_length_b 20.214332
_cell_length_c 8.785360
_cell_angle_alpha 90.000000
_cell_angle_beta 136.737044
_cell_angle_gamma 90.000000
_cell_volume 2867.813467
_symmetry_space_group_name_H-M "C 2/M"
_symmetry_group_IT_number 12
_symmetry_cell_setting 'monoclinic'
loop_
_space_group_symop_operation_xyz
x,y,z
-x,y,-z
-x,-y,-z
x,-y,z
1/2+x,1/2+y,z
1/2-x,1/2+y,-z
1/2-x,1/2-y,-z
1/2+x,1/2-y,z
loop_
_atom_site_type_symbol
_atom_site_label
_atom_site_fract_x
_atom_site_fract_y
_atom_site_fract_z
Si Si1 0.423336 0.767082 0.941825
Si Si2 0.675737 0.359448 0.186240
Si Si3 0.473424 0.000000 0.744425
Si Si4 0.456535 0.420746 0.258537
Si Si5 0.056822 0.370283 0.757038
Si Si6 0.778930 0.576411 0.847003
Si Si7 0.114002 0.920302 0.380723
Si Si8 0.347555 0.107168 0.643923
O O1 0.351146 0.716525 0.846705
O O2 0.387390 0.822646 0.759699
O O3 0.500000 0.735337 0.000000
O O4 0.452178 0.809297 0.144430
O O5 0.636890 0.393777 0.260673
O O6 0.771366 0.379448 0.382147
O O7 0.629663 0.387376 0.949097
O O8 0.527707 0.059402 0.770549
O O9 0.415027 0.057000 0.713045
O O10 0.500000 0.401639 0.500000
O O11 0.445888 0.500000 0.238105
O O12 0.523185 0.402157 0.259553
O O13 0.000000 0.359227 0.500000
O O14 0.155789 0.381597 0.927550
O O15 0.777797 0.500000 0.895417
O O16 0.684664 0.600685 0.640743
O O17 0.812916 0.580493 0.738376
O O18 0.118010 0.000000 0.383666
#
# Coordination Sequence:
#
# PCOD9206968 Si02
#       8
#     8   8   4   8   8   8   8   8
#     4  11  22  39  61  88 122 167 207 252 302 372
#     4  11  22  38  62  87 120 160 207 254 307 365
#     4  12  21  39  64  94 126 158 203 263 315 365
#     4  10  21  37  55  83 116 154 206 262 309 362
#     4  11  24  39  58  92 128 164 206 251 310 372
#     4   9  17  31  56  81 118 149 183 240 308 361
#     4   9  18  35  57  87 113 152 202 258 315 359
#     4  10  22  36  60  94 120 152 199 260 309 359
#
# _framework density 20.921862000000001
#
# number of rings (size 3 to 8) (size 9 to 14) (size 15 to 20)
#    0.000    1.733    2.667    2.200    1.867    3.733 
#    2.400    0.000    0.000    0.800    0.000    0.000 
#    0.000    0.000    0.000    0.000    0.000    0.000 
#
# Total GULP energy -167006.645082 kJ/mol
# GULP energy per Si atom -5566.888169 kJ/mol
# Density = 2.087424 g / cm^3
# Si number density = 20.921862 Si / 1000 Ang^3
#
#
#
# Elastic Constant Matrix: (Units=GPa)
#
#
# Indices 1 2 3 4 5 6 
#
# 1 7.4150 1.4125 2.1054 0.0000 1.8233 0.0000
# 2 1.4125 47.1847 19.8212 0.0000 -5.9107 0.0000
# 3 2.1054 19.8212 148.6202 0.0000 6.8432 0.0000
# 4 0.0000 0.0000 0.0000 14.6509 0.0000 9.2128
# 5 1.8233 -5.9107 6.8432 0.0000 13.7963 0.0000
# 6 0.0000 0.0000 0.0000 9.2128 0.0000 11.2644
#
#
#
# Elastic Compliance Matrix: (Units=1/GPa)
#
#
# Indices 1 2 3 4 5 6 
#
# 1 0.141518 -0.006908 -0.000088 0.000000 -0.021618 0.000000
# 2 -0.006908 0.024675 -0.003809 0.000000 0.013374 0.000000
# 3 -0.000088 -0.003809 0.007483 0.000000 -0.005332 0.000000
# 4 0.000000 0.000000 0.000000 0.140529 0.000000 -0.114935
# 5 -0.021618 0.013374 -0.005332 0.000000 0.083714 0.000000
# 6 0.000000 0.000000 0.000000 -0.114935 0.000000 0.182778
#
#
# Mechanical properties :
#
#
# Convention : Reuss Voigt Hill
#
# Bulk Modulus (GPa) = 6.57601 27.76647 17.17124
# Shear Modulus (GPa) = 7.65701 19.93438 13.79569
#
# Velocity S-wave (km/s) = 1.91514 3.09010 2.57065
# Velocity P-wave (km/s) = 2.83554 5.10215 4.12748
#
# Compressibility (1/GPa) = 0.15206784
#
# Stress axis : x y z
#
# Youngs Moduli (GPa) = 7.06622 40.52620 133.63081
#
# Poissons Ratio (x) = 0.27994 0.01178
# Poissons Ratio (y) = 0.04881 0.50898
# Poissons Ratio (z) = 0.00062 0.15436
#
# Static dielectric constant tensor:
#      x y z
#    x 1.775690 0.000000 0.027890 
#    y 0.000000 1.725850 0.000000 
#    z 0.027890 0.000000 1.815780 
# 
# From -- ./inp_files/106560.got.cif
#   From: 2010.05.17/outbox.cif.g08.bks.cpg/sg12_54_cif.got.tgz:106560.got - 2010.06.03 13:09:07.
