data_PCOD9206534
_publ_section_title
;
Structure prediction by ZEFSAII (Michael W. Deem and Ramdas Pophale) SiO2 
 PCOD9206534
Probable space group: C 2/M
;
_chemical_formula_sum "Si O2"
_cell_formula_units_Z 64
_cell_length_a 27.415336
_cell_length_b 11.519397
_cell_length_c 20.381875
_cell_angle_alpha 90.000000
_cell_angle_beta 32.253333
_cell_angle_gamma 90.000000
_cell_volume 3435.066316
_symmetry_space_group_name_H-M "C 2/M"
_symmetry_group_IT_number 12
_symmetry_cell_setting 'monoclinic'
loop_
_space_group_symop_operation_xyz
x,y,z
-x,y,-z
-x,-y,-z
x,-y,z
1/2+x,1/2+y,z
1/2-x,1/2+y,-z
1/2-x,1/2-y,-z
1/2+x,1/2-y,z
loop_
_atom_site_type_symbol
_atom_site_label
_atom_site_fract_x
_atom_site_fract_y
_atom_site_fract_z
Si Si1 0.303303 0.213450 0.841212
Si Si2 0.641816 0.866726 0.079909
Si Si3 0.930490 0.634186 0.328803
Si Si4 0.469417 0.369528 0.606030
Si Si5 0.782260 0.626868 0.720357
Si Si6 0.402791 0.369691 0.145361
Si Si7 0.646567 0.296987 0.470433
Si Si8 0.153460 0.368828 0.718923
O O1 0.327205 0.141737 0.879265
O O2 0.389560 0.296719 0.729857
O O3 0.291255 0.145251 0.787334
O O4 0.211746 0.286379 0.960610
O O5 0.535759 0.829551 0.195782
O O6 0.648201 0.000000 0.050162
O O7 0.934900 0.500000 0.345811
O O8 0.884206 0.710930 0.436939
O O9 0.872370 0.638478 0.328194
O O10 0.500000 0.322378 0.500000
O O11 0.435520 0.500000 0.633215
O O12 0.558385 0.370177 0.550690
O O13 0.819692 0.500000 0.659930
O O14 0.676821 0.630907 0.818396
O O15 0.829126 0.723694 0.622406
O O16 0.395066 0.500000 0.187192
O O17 0.387967 0.250202 0.202809
O O18 0.500000 0.365056 0.000000
O O19 0.738448 0.360919 0.388840
O O20 0.122238 0.500000 0.776489
#
# Coordination Sequence:
#
# PCOD9206534 Si02
#       8
#     8   8   8   8   8   8   8   8
#     4  11  21  38  58  83 115 150 195 235 294 344
#     4  10  22  38  58  82 115 152 191 238 291 349
#     4  10  21  38  60  87 118 153 194 244 295 355
#     4  11  22  37  56  81 115 152 193 236 288 349
#     4  10  21  36  59  88 114 147 191 244 295 347
#     4   9  20  39  61  86 121 158 201 248 297 353
#     4  11  20  39  59  86 116 154 193 241 295 350
#     4  10  22  38  60  89 123 157 198 246 298 355
#
# _framework density 18.631373
#
# number of rings (size 3 to 8) (size 9 to 14) (size 15 to 20)
#    0.000    1.750    2.500    1.875    1.750    0.750 
#    0.000    2.500    0.000    0.000    0.000    0.000 
#    0.000    0.000    0.000    0.000    0.000    0.000 
#
# Total GULP energy -178372.576404 kJ/mol
# GULP energy per Si atom -5574.143013 kJ/mol
# Density = 1.858897 g / cm^3
# Si number density = 18.631373 Si / 1000 Ang^3
#
#
#
# Elastic Constant Matrix: (Units=GPa)
#
#
# Indices 1 2 3 4 5 6 
#
# 1 72.7583 22.5725 11.5357 0.0000 4.1251 0.0000
# 2 22.5725 91.7302 38.0376 0.0002 -0.0770 0.0000
# 3 11.5357 38.0376 66.0735 0.0000 -1.2470 0.0000
# 4 0.0000 0.0002 0.0000 70.9830 0.0000 -4.2382
# 5 4.1251 -0.0770 -1.2470 0.0000 14.0983 0.0000
# 6 0.0000 0.0000 0.0000 -4.2382 0.0000 25.7551
#
#
#
# Elastic Compliance Matrix: (Units=1/GPa)
#
#
# Indices 1 2 3 4 5 6 
#
# 1 0.015184 -0.003423 -0.000766 0.000000 -0.004529 0.000000
# 2 -0.003423 0.015097 -0.008087 0.000000 0.000369 0.000000
# 3 -0.000766 -0.008087 0.019961 0.000000 0.001946 0.000000
# 4 0.000000 0.000000 0.000000 0.014228 0.000000 0.002341
# 5 -0.004529 0.000369 0.001946 0.000000 0.072430 0.000000
# 6 0.000000 0.000000 0.000000 0.002341 0.000000 0.039212
#
#
# Mechanical properties :
#
#
# Convention : Reuss Voigt Hill
#
# Bulk Modulus (GPa) = 38.92400 41.65040 40.28720
# Shear Modulus (GPa) = 23.89748 32.72837 28.31292
#
# Velocity S-wave (km/s) = 3.58529 4.19576 3.90248
# Velocity P-wave (km/s) = 6.17058 6.77319 6.47889
#
# Compressibility (1/GPa) = 0.02569109
#
# Stress axis : x y z
#
# Youngs Moduli (GPa) = 65.85793 66.23650 50.09857
#
# Poissons Ratio (x) = 0.22670 0.03838
# Poissons Ratio (y) = 0.22540 0.40514
# Poissons Ratio (z) = 0.05046 0.53565
#
# Static dielectric constant tensor:
#      x y z
#    x 1.624210 0.000000 -0.014010 
#    y 0.000000 1.673050 0.000000 
#    z -0.014010 0.000000 1.626660 
# 
# From -- ./inp_files/327810.got.cif
#   From: 2010.05.17/outbox.cif.g08.bks.cpg/sg12_164_cif.got.tgz:327810.got - 2010.06.03 13:09:07.
