data_PCOD9206290
_publ_section_title
;
Structure prediction by ZEFSAII (Michael W. Deem and Ramdas Pophale) SiO2 
 PCOD9206290
Probable space group: C 2/M
;
_chemical_formula_sum "Si O2"
_cell_formula_units_Z 48
_cell_length_a 22.632430
_cell_length_b 18.119543
_cell_length_c 9.249568
_cell_angle_alpha 90.000000
_cell_angle_beta 140.991149
_cell_angle_gamma 90.000000
_cell_volume 2387.561211
_symmetry_space_group_name_H-M "C 2/M"
_symmetry_group_IT_number 12
_symmetry_cell_setting 'monoclinic'
loop_
_space_group_symop_operation_xyz
x,y,z
-x,y,-z
-x,-y,-z
x,-y,z
1/2+x,1/2+y,z
1/2-x,1/2+y,-z
1/2-x,1/2-y,-z
1/2+x,1/2-y,z
loop_
_atom_site_type_symbol
_atom_site_label
_atom_site_fract_x
_atom_site_fract_y
_atom_site_fract_z
Si Si1 0.334914 0.916517 0.567027
Si Si2 0.244360 0.678278 0.329922
Si Si3 0.411965 0.910567 0.427841
Si Si4 0.365434 0.414788 0.984620
Si Si5 0.230558 0.837476 0.945511
Si Si6 0.901972 0.788014 0.861374
O O1 0.313467 0.875025 0.673403
O O2 0.407476 0.884781 0.586601
O O3 0.236460 0.916853 0.290479
O O4 0.362196 0.000000 0.652510
O O5 0.277715 0.648141 0.240675
O O6 0.169130 0.744288 0.167606
O O7 0.335445 0.702242 0.594791
O O8 0.500000 0.887974 0.500000
O O9 0.407761 0.000000 0.424486
O O10 0.322428 0.879334 0.176251
O O11 0.395157 0.500000 0.058864
O O12 0.425036 0.364184 0.988766
O O13 0.350691 0.372196 0.108288
O O14 0.250000 0.750000 0.000000
O O15 0.000000 0.752816 0.000000
#
# Coordination Sequence:
#
# PCOD9206290 Si02
#       6
#     8   8   8   8   8   8
#     4   8  16  32  55  80 110 149 184 223 280 339
#     4  10  21  36  57  85 117 142 192 240 285 342
#     4   9  19  36  57  82 115 156 195 232 285 350
#     4   9  18  36  58  78 109 150 188 229 279 343
#     4  11  20  35  54  83 114 149 187 236 292 345
#     4  10  21  38  58  82 112 151 189 236 291 343
#
# _framework density 20.104196999999999
#
# number of rings (size 3 to 8) (size 9 to 14) (size 15 to 20)
#    0.000    2.500    1.667    1.500    2.333    3.000 
#    0.000    0.833    0.000    4.500    0.000    0.000 
#    0.000    0.000    0.000    0.000    0.000    0.000 
#
# Total GULP energy -133713.555030 kJ/mol
# GULP energy per Si atom -5571.398126 kJ/mol
# Density = 2.005844 g / cm^3
# Si number density = 20.104197 Si / 1000 Ang^3
#
#
#
# Elastic Constant Matrix: (Units=GPa)
#
#
# Indices 1 2 3 4 5 6 
#
# 1 103.2500 15.3916 40.2808 0.0000 -24.2132 0.0000
# 2 15.3916 38.1591 10.0746 0.0000 -19.2734 0.0000
# 3 40.2808 10.0746 30.3674 0.0000 -14.6217 0.0000
# 4 0.0000 0.0000 0.0000 13.7142 0.0000 -8.9539
# 5 -24.2132 -19.2734 -14.6217 0.0000 38.9543 0.0000
# 6 0.0000 0.0000 0.0000 -8.9539 0.0000 30.4013
#
#
#
# Elastic Compliance Matrix: (Units=1/GPa)
#
#
# Indices 1 2 3 4 5 6 
#
# 1 0.020370 0.000108 -0.025552 0.000000 0.003124 0.000000
# 2 0.000108 0.035338 -0.004169 0.000000 0.015986 0.000000
# 3 -0.025552 -0.004169 0.072706 0.000000 0.009346 0.000000
# 4 0.000000 0.000000 0.000000 0.090277 0.000000 0.026589
# 5 0.003124 0.015986 0.009346 0.000000 0.039030 0.000000
# 6 0.000000 0.000000 0.000000 0.026589 0.000000 0.040724
#
#
# Mechanical properties :
#
#
# Convention : Reuss Voigt Hill
#
# Bulk Modulus (GPa) = 14.45343 33.69672 24.07508
# Shear Modulus (GPa) = 13.13253 23.68257 18.40755
#
# Velocity S-wave (km/s) = 2.55860 3.43591 3.02918
# Velocity P-wave (km/s) = 3.99167 5.70422 4.92298
#
# Compressibility (1/GPa) = 0.06918774
#
# Stress axis : x y z
#
# Youngs Moduli (GPa) = 49.09123 28.29845 13.75402
#
# Poissons Ratio (x) = -0.00304 0.35144
# Poissons Ratio (y) = -0.00528 0.05734
# Poissons Ratio (z) = 1.25436 0.11798
#
# Static dielectric constant tensor:
#      x y z
#    x 1.737820 0.000000 -0.014610 
#    y 0.000000 1.804240 0.000000 
#    z -0.014610 0.000000 1.689690 
# 
# From -- ./inp_files/88131.got.cif
#   From: 2010.05.17/outbox.cif.g08.bks.cpg/sg12_45_cif.got.tgz:88131.got - 2010.06.03 13:09:07.
