data_PCOD9206984
_publ_section_title
;
Structure prediction by ZEFSAII (Michael W. Deem and Ramdas Pophale) SiO2 
 PCOD9206984
Probable space group: C 2/M
;
_chemical_formula_sum "Si O2"
_cell_formula_units_Z 56
_cell_length_a 16.606292
_cell_length_b 7.450608
_cell_length_c 18.690524
_cell_angle_alpha 90.000000
_cell_angle_beta 68.181521
_cell_angle_gamma 90.000000
_cell_volume 2146.866756
_symmetry_space_group_name_H-M "C 2/M"
_symmetry_group_IT_number 12
_symmetry_cell_setting 'monoclinic'
loop_
_space_group_symop_operation_xyz
x,y,z
-x,y,-z
-x,-y,-z
x,-y,z
1/2+x,1/2+y,z
1/2-x,1/2+y,-z
1/2-x,1/2-y,-z
1/2+x,1/2-y,z
loop_
_atom_site_type_symbol
_atom_site_label
_atom_site_fract_x
_atom_site_fract_y
_atom_site_fract_z
Si Si1 0.034938 0.279066 0.328693
Si Si2 0.895320 0.703803 0.476270
Si Si3 0.269625 0.718326 0.389374
Si Si4 0.374731 0.709229 0.098794
Si Si5 0.232745 0.281443 0.246834
Si Si6 0.648642 0.287598 0.046140
Si Si7 0.502552 0.796345 0.812713
O O1 0.032668 0.500000 0.330506
O O2 0.134333 0.223567 0.289121
O O3 0.990634 0.217541 0.268997
O O4 0.985037 0.218233 0.416700
O O5 0.911606 0.500000 0.494603
O O6 0.827189 0.780296 0.555365
O O7 0.837260 0.703247 0.422845
O O8 0.272052 0.500000 0.395811
O O9 0.283496 0.765521 0.302752
O O10 0.357953 0.500000 0.090014
O O11 0.286533 0.786589 0.161658
O O12 0.445258 0.714654 0.138297
O O13 0.395360 0.781145 0.013494
O O14 0.231425 0.500000 0.244032
O O15 0.636374 0.500000 0.059714
O O16 0.598558 0.204283 0.129697
O O17 0.750000 0.250000 0.000000
O O18 0.532384 0.000000 0.798583
#
# Coordination Sequence:
#
# PCOD9206984 Si02
#       7
#     8   8   8   8   8   8   8
#     4   9  18  32  50  74 104 136 170 212 261 306
#     4   9  17  30  49  73 101 132 167 209 255 304
#     4   9  17  29  49  75  99 129 169 210 253 303
#     4  10  21  37  56  77 104 139 175 213 261 313
#     4   9  17  31  51  74 101 132 169 213 258 306
#     4  11  23  39  59  82 109 140 173 212 261 312
#     4  11  22  36  56  80 106 139 178 217 258 306
#
# _framework density 26.084524999999999
#
# number of rings (size 3 to 8) (size 9 to 14) (size 15 to 20)
#    0.000    2.286    0.000    3.000    0.000    5.714 
#    0.000    3.571    0.000    3.429    0.000    4.000 
#    0.000    0.000    0.000    0.000    0.000    0.000 
#
# Total GULP energy -156587.486775 kJ/mol
# GULP energy per Si atom -5592.410242 kJ/mol
# Density = 2.602516 g / cm^3
# Si number density = 26.084525 Si / 1000 Ang^3
#
#
#
# Elastic Constant Matrix: (Units=GPa)
#
#
# Indices 1 2 3 4 5 6 
#
# 1 83.9012 -6.3866 -6.7568 0.0000 -12.1092 0.0000
# 2 -6.3866 93.8299 0.1999 0.0000 1.1990 -0.0001
# 3 -6.7568 0.1999 108.2466 0.0000 -13.8927 0.0000
# 4 0.0000 0.0000 0.0000 6.3244 0.0000 -0.5626
# 5 -12.1092 1.1990 -13.8927 0.0000 51.1642 0.0000
# 6 0.0000 -0.0001 0.0000 -0.5626 0.0000 11.8157
#
#
#
# Elastic Compliance Matrix: (Units=1/GPa)
#
#
# Indices 1 2 3 4 5 6 
#
# 1 0.012550 0.000810 0.001203 0.000000 0.003278 0.000000
# 2 0.000810 0.010713 0.000024 0.000000 -0.000053 0.000000
# 3 0.001203 0.000024 0.009687 0.000000 0.002914 0.000000
# 4 0.000000 0.000000 0.000000 0.158791 0.000000 0.007561
# 5 0.003278 -0.000053 0.002914 0.000000 0.021113 0.000000
# 6 0.000000 0.000000 0.000000 0.007561 0.000000 0.084993
#
#
# Mechanical properties :
#
#
# Convention : Reuss Voigt Hill
#
# Bulk Modulus (GPa) = 27.00975 28.89897 27.95436
# Shear Modulus (GPa) = 16.33363 33.78894 25.06128
#
# Velocity S-wave (km/s) = 2.50507 3.60302 3.10299
# Velocity P-wave (km/s) = 4.32948 5.33029 4.85574
#
# Compressibility (1/GPa) = 0.03702366
#
# Stress axis : x y z
#
# Youngs Moduli (GPa) = 79.67900 93.34164 103.22863
#
# Poissons Ratio (x) = -0.07559 -0.12414
# Poissons Ratio (y) = -0.06452 -0.00247
# Poissons Ratio (z) = -0.09582 -0.00224
#
# Static dielectric constant tensor:
#      x y z
#    x 2.101750 0.000000 -0.006210 
#    y 0.000000 2.026790 0.000000 
#    z -0.006210 0.000000 2.012520 
# 
# From -- ./inp_files/275259.got.cif
#   From: 2010.05.17/outbox.cif.g08.bks.cpg/sg12_138_cif.got.tgz:275259.got - 2010.06.03 13:09:07.
