data_PCOD9206191
_publ_section_title
;
Structure prediction by ZEFSAII (Michael W. Deem and Ramdas Pophale) SiO2 
 PCOD9206191
Probable space group: C 2/M
;
_chemical_formula_sum "Si O2"
_cell_formula_units_Z 40
_cell_length_a 5.060012
_cell_length_b 25.861490
_cell_length_c 14.855581
_cell_angle_alpha 90.000000
_cell_angle_beta 116.228159
_cell_angle_gamma 90.000000
_cell_volume 1743.842100
_symmetry_space_group_name_H-M "C 2/M"
_symmetry_group_IT_number 12
_symmetry_cell_setting 'monoclinic'
loop_
_space_group_symop_operation_xyz
x,y,z
-x,y,-z
-x,-y,-z
x,-y,z
1/2+x,1/2+y,z
1/2-x,1/2+y,-z
1/2-x,1/2-y,-z
1/2+x,1/2-y,z
loop_
_atom_site_type_symbol
_atom_site_label
_atom_site_fract_x
_atom_site_fract_y
_atom_site_fract_z
Si Si1 0.729511 0.442191 0.616866
Si Si2 0.059170 0.204740 0.420263
Si Si3 0.054136 0.334307 0.686104
Si Si4 0.200087 0.881533 0.113767
Si Si5 0.705574 0.558466 0.818063
O O1 0.500000 0.441292 0.500000
O O2 0.871672 0.500000 0.634789
O O3 0.942526 0.392665 0.649338
O O4 0.592607 0.438096 0.697361
O O5 0.750000 0.250000 0.500000
O O6 0.722228 0.204062 0.334265
O O7 0.000000 0.169550 0.500000
O O8 0.763442 0.316624 0.373140
O O9 0.250645 0.337480 0.804402
O O10 0.519113 0.902719 0.132712
O O11 0.500000 0.366884 0.000000
O O12 0.964292 0.926484 0.854764
O O13 0.807283 0.500000 0.847799
#
# Coordination Sequence:
#
# PCOD9206191 Si02
#       5
#     8   8   8   8   8
#     4   9  19  37  60  89 132 182 222 259 315 390
#     4  12  25  43  69 102 131 158 199 263 342 408
#     4  11  23  41  65  96 133 173 218 269 322 390
#     4  11  23  39  59  87 124 171 226 278 332 384
#     4  10  21  36  56  85 123 173 235 290 327 372
#
# _framework density 22.937854000000002
#
# number of rings (size 3 to 8) (size 9 to 14) (size 15 to 20)
#    0.000    1.400    0.000    6.600    0.000    4.800 
#    0.000    4.000    0.000   30.600    0.000   14.000 
#    0.000    0.000    0.000    0.000    0.000    0.000 
#
# Total GULP energy -111562.297287 kJ/mol
# GULP energy per Si atom -5578.114864 kJ/mol
# Density = 2.288565 g / cm^3
# Si number density = 22.937854 Si / 1000 Ang^3
#
#
#
# Elastic Constant Matrix: (Units=GPa)
#
#
# Indices 1 2 3 4 5 6 
#
# 1 113.0209 33.0487 44.0480 0.0000 -12.2177 0.0000
# 2 33.0487 111.3297 52.0711 0.0000 -1.9779 0.0000
# 3 44.0480 52.0711 177.2830 0.0000 24.7286 0.0000
# 4 0.0000 0.0000 0.0000 14.0615 0.0000 -9.6520
# 5 -12.2177 -1.9779 24.7286 0.0000 36.8738 0.0000
# 6 0.0000 0.0000 0.0000 -9.6520 0.0000 29.6384
#
#
#
# Elastic Compliance Matrix: (Units=1/GPa)
#
#
# Indices 1 2 3 4 5 6 
#
# 1 0.011164 -0.001796 -0.003033 0.000000 0.005637 0.000000
# 2 -0.001796 0.010986 -0.003067 0.000000 0.002051 0.000000
# 3 -0.003033 -0.003067 0.008228 0.000000 -0.006687 0.000000
# 4 0.000000 0.000000 0.000000 0.091589 0.000000 0.029827
# 5 0.005637 0.002051 -0.006687 0.000000 0.033582 0.000000
# 6 0.000000 0.000000 0.000000 0.029827 0.000000 0.043453
#
#
# Mechanical properties :
#
#
# Convention : Reuss Voigt Hill
#
# Bulk Modulus (GPa) = 68.54942 73.32991 70.93967
# Shear Modulus (GPa) = 22.76291 34.27913 28.52102
#
# Velocity S-wave (km/s) = 3.15361 3.86999 3.53002
# Velocity P-wave (km/s) = 6.57344 7.21162 6.89991
#
# Compressibility (1/GPa) = 0.01458801
#
# Stress axis : x y z
#
# Youngs Moduli (GPa) = 89.57160 91.02337 121.53978
#
# Poissons Ratio (x) = 0.16344 0.36860
# Poissons Ratio (y) = 0.16083 0.37274
# Poissons Ratio (z) = 0.27165 0.27915
#
# Static dielectric constant tensor:
#      x y z
#    x 2.026680 0.000000 0.017240 
#    y 0.000000 2.010060 0.000000 
#    z 0.017240 0.000000 1.901790 
# 
# From -- ./inp_files/121442.got.cif
#   From: 2010.05.17/outbox.cif.g08.bks.cpg/sg12_61_cif.got.tgz:121442.got - 2010.06.03 13:09:07.
