data_PCOD9206320
_publ_section_title
;
Structure prediction by ZEFSAII (Michael W. Deem and Ramdas Pophale) SiO2 
 PCOD9206320
Probable space group: C 2/M
;
_chemical_formula_sum "Si O2"
_cell_formula_units_Z 42
_cell_length_a 10.149352
_cell_length_b 9.128685
_cell_length_c 23.426213
_cell_angle_alpha 90.000000
_cell_angle_beta 102.572657
_cell_angle_gamma 90.000000
_cell_volume 2118.398580
_symmetry_space_group_name_H-M "C 2/M"
_symmetry_group_IT_number 12
_symmetry_cell_setting 'monoclinic'
loop_
_space_group_symop_operation_xyz
x,y,z
-x,y,-z
-x,-y,-z
x,-y,z
1/2+x,1/2+y,z
1/2-x,1/2+y,-z
1/2-x,1/2-y,-z
1/2+x,1/2-y,z
loop_
_atom_site_type_symbol
_atom_site_label
_atom_site_fract_x
_atom_site_fract_y
_atom_site_fract_z
Si Si1 0.618077 0.174012 0.825300
Si Si2 0.500000 0.000000 0.000000
Si Si3 0.146336 0.823961 0.372799
Si Si4 0.736907 0.835597 0.057777
Si Si5 0.586033 0.675621 0.564169
Si Si6 0.649475 0.675042 0.240853
O O1 0.697480 0.247642 0.885062
O O2 0.471736 0.243142 0.802345
O O3 0.709662 0.202522 0.777851
O O4 0.608998 0.000000 0.833407
O O5 0.422107 0.125799 0.953945
O O6 0.271002 0.753699 0.417998
O O7 0.151949 0.778767 0.307202
O O8 0.006125 0.784338 0.390011
O O9 0.158590 0.000000 0.376601
O O10 0.798672 0.000000 0.058554
O O11 0.750000 0.750000 0.000000
O O12 0.500000 0.714594 0.500000
O O13 0.605628 0.500000 0.565485
O O14 0.624454 0.500000 0.236430
#
# Coordination Sequence:
#
# PCOD9206320 Si02
#       6
#     8   2   8   8   8   8
#     4  11  24  39  61  89 118 152 198 242 290 353
#     4   8  24  40  62  86 120 148 194 232 292 348
#     4  10  21  38  59  83 119 155 197 245 293 350
#     4  10  22  40  62  86 116 151 189 237 287 344
#     4  10  21  36  57  87 119 154 198 245 295 351
#     4  10  23  41  59  87 118 156 198 243 294 348
#
# _framework density 19.826295999999999
#
# number of rings (size 3 to 8) (size 9 to 14) (size 15 to 20)
#    0.571    1.333    0.000    2.857    2.667    3.429 
#    0.000    0.952    0.000    0.000    0.000    0.000 
#    0.000    0.000    0.000    0.000    0.000    0.000 
#
# Total GULP energy -116947.805842 kJ/mol
# GULP energy per Si atom -5568.943135 kJ/mol
# Density = 1.978117 g / cm^3
# Si number density = 19.826296 Si / 1000 Ang^3
#
#
#
# Elastic Constant Matrix: (Units=GPa)
#
#
# Indices 1 2 3 4 5 6 
#
# 1 44.3247 9.0045 -20.0522 0.0000 11.4766 0.0000
# 2 9.0045 22.0650 1.4872 0.0000 -4.0685 0.0000
# 3 -20.0522 1.4872 53.7589 0.0000 -0.2735 0.0000
# 4 0.0000 0.0000 0.0000 27.7505 0.0000 4.7176
# 5 11.4766 -4.0685 -0.2735 0.0000 37.1450 0.0000
# 6 0.0000 0.0000 0.0000 4.7176 0.0000 16.9096
#
#
#
# Elastic Compliance Matrix: (Units=1/GPa)
#
#
# Indices 1 2 3 4 5 6 
#
# 1 0.035773 -0.017908 0.013773 0.000000 -0.012913 0.000000
# 2 -0.017908 0.055304 -0.008151 0.000000 0.011530 0.000000
# 3 0.013773 -0.008151 0.023939 0.000000 -0.004972 0.000000
# 4 0.000000 0.000000 0.000000 0.037830 0.000000 -0.010554
# 5 -0.012913 0.011530 -0.004972 0.000000 0.032137 0.000000
# 6 0.000000 0.000000 0.000000 -0.010554 0.000000 0.062082
#
#
# Mechanical properties :
#
#
# Convention : Reuss Voigt Hill
#
# Bulk Modulus (GPa) = 11.05644 11.22528 11.14086
# Shear Modulus (GPa) = 16.56808 25.00832 20.78820
#
# Velocity S-wave (km/s) = 2.89392 3.55543 3.24159
# Velocity P-wave (km/s) = 4.09330 4.74646 4.43193
#
# Compressibility (1/GPa) = 0.09044500
#
# Stress axis : x y z
#
# Youngs Moduli (GPa) = 27.95402 18.08188 41.77248
#
# Poissons Ratio (x) = 0.32381 -0.57534
# Poissons Ratio (y) = 0.50060 0.34049
# Poissons Ratio (z) = -0.38502 0.14738
#
# Static dielectric constant tensor:
#      x y z
#    x 1.872390 0.000000 -0.066440 
#    y 0.000000 1.669120 0.000000 
#    z -0.066440 0.000000 1.683910 
# 
# From -- ./inp_files/303681.got.cif
#   From: 2010.05.17/outbox.cif.g08.bks.cpg/sg12_152_cif.got.tgz:303681.got - 2010.06.03 13:09:07.
