data_PCOD9206938
_publ_section_title
;
Structure prediction by ZEFSAII (Michael W. Deem and Ramdas Pophale) SiO2 
 PCOD9206938
Probable space group: C 2/M
;
_chemical_formula_sum "Si O2"
_cell_formula_units_Z 64
_cell_length_a 8.438501
_cell_length_b 28.302652
_cell_length_c 13.687426
_cell_angle_alpha 90.000000
_cell_angle_beta 74.164189
_cell_angle_gamma 90.000000
_cell_volume 3144.928627
_symmetry_space_group_name_H-M "C 2/M"
_symmetry_group_IT_number 12
_symmetry_cell_setting 'monoclinic'
loop_
_space_group_symop_operation_xyz
x,y,z
-x,y,-z
-x,-y,-z
x,-y,z
1/2+x,1/2+y,z
1/2-x,1/2+y,-z
1/2-x,1/2-y,-z
1/2+x,1/2-y,z
loop_
_atom_site_type_symbol
_atom_site_label
_atom_site_fract_x
_atom_site_fract_y
_atom_site_fract_z
Si Si1 0.686291 0.448867 0.261784
Si Si2 0.793457 0.692654 0.342644
Si Si3 0.697072 0.351173 0.769240
Si Si4 0.215105 0.945583 0.669493
Si Si5 0.301177 0.404074 0.538578
Si Si6 0.605890 0.785817 0.390207
Si Si7 0.301238 0.698146 0.029202
Si Si8 0.800363 0.854260 0.839447
O O1 0.741413 0.500000 0.219312
O O2 0.485686 0.447544 0.293860
O O3 0.733808 0.439534 0.366154
O O4 0.750011 0.406451 0.184835
O O5 0.768577 0.645811 0.411815
O O6 0.672864 0.733862 0.397621
O O7 0.757335 0.680209 0.236995
O O8 0.975619 0.712723 0.324449
O O9 0.762862 0.404587 0.739345
O O10 0.749962 0.320756 0.666015
O O11 0.752677 0.323020 0.857001
O O12 0.499571 0.353477 0.805895
O O13 0.257858 0.924929 0.554675
O O14 0.272470 0.000000 0.673443
O O15 0.500000 0.398573 0.500000
O O16 0.500000 0.801717 0.500000
O O17 0.500000 0.698673 0.000000
O O18 0.250000 0.750000 0.000000
O O19 0.243958 0.662530 0.954150
#
# Coordination Sequence:
#
# PCOD9206938 Si02
#       8
#     8   8   8   8   8   8   8   8
#     4   8  14  25  46  77 108 136 170 215 265 317
#     4  11  22  35  52  76 107 143 182 222 267 318
#     4  10  21  37  55  78 109 142 180 225 270 321
#     4   9  16  29  51  76 103 138 177 217 263 314
#     4   9  16  28  48  74 106 142 180 218 259 312
#     4  12  24  36  52  76 110 146 180 217 266 321
#     4  10  21  37  57  79 104 138 179 224 272 320
#     4   9  19  36  56  79 107 137 178 227 271 313
#
# _framework density 20.350224000000001
#
# number of rings (size 3 to 8) (size 9 to 14) (size 15 to 20)
#    0.000    2.250    0.000    4.125    0.000    4.500 
#    0.000    0.625    0.000   10.125    0.000    0.000 
#    0.000    6.000    0.000    0.000    0.000    0.000 
#
# Total GULP energy -178546.046202 kJ/mol
# GULP energy per Si atom -5579.563944 kJ/mol
# Density = 2.030391 g / cm^3
# Si number density = 20.350224 Si / 1000 Ang^3
#
#
#
# Elastic Constant Matrix: (Units=GPa)
#
#
# Indices 1 2 3 4 5 6 
#
# 1 19.5293 11.8697 12.7848 0.0000 10.2430 0.0000
# 2 11.8697 130.5681 53.8848 0.0000 11.8550 0.0000
# 3 12.7848 53.8848 100.5323 0.0000 16.6801 0.0000
# 4 0.0000 0.0000 0.0000 7.8545 0.0000 8.8981
# 5 10.2430 11.8550 16.6801 0.0000 20.3354 0.0000
# 6 0.0000 0.0000 0.0000 8.8981 0.0000 14.2973
#
#
#
# Elastic Compliance Matrix: (Units=1/GPa)
#
#
# Indices 1 2 3 4 5 6 
#
# 1 0.071349 -0.002587 -0.002285 0.000000 -0.032556 0.000000
# 2 -0.002587 0.009975 -0.004941 0.000000 -0.000459 0.000000
# 3 -0.002285 -0.004941 0.014142 0.000000 -0.007568 0.000000
# 4 0.000000 0.000000 0.000000 0.431667 0.000000 -0.268654
# 5 -0.032556 -0.000459 -0.007568 0.000000 0.072049 0.000000
# 6 0.000000 0.000000 0.000000 -0.268654 0.000000 0.237144
#
#
# Mechanical properties :
#
#
# Convention : Reuss Voigt Hill
#
# Bulk Modulus (GPa) = 13.18593 45.30093 29.24343
# Shear Modulus (GPa) = 5.67387 19.97014 12.82200
#
# Velocity S-wave (km/s) = 1.67158 3.13601 2.51284
# Velocity P-wave (km/s) = 3.19674 5.95161 4.77707
#
# Compressibility (1/GPa) = 0.07583838
#
# Stress axis : x y z
#
# Youngs Moduli (GPa) = 14.01560 100.25080 70.71174
#
# Poissons Ratio (x) = 0.25937 0.16159
# Poissons Ratio (y) = 0.03626 0.34942
# Poissons Ratio (z) = 0.03203 0.49538
#
# Static dielectric constant tensor:
#      x y z
#    x 1.775890 0.000000 0.020540 
#    y 0.000000 1.741250 0.000000 
#    z 0.020540 0.000000 1.722710 
# 
# From -- ./inp_files/199781.got.cif
#   From: 2010.05.17/outbox.cif.g08.bks.cpg/sg12_100_cif.got.tgz:199781.got - 2010.06.03 13:09:07.
