data_PCOD9206802
_publ_section_title
;
Structure prediction by ZEFSAII (Michael W. Deem and Ramdas Pophale) SiO2 
 PCOD9206802
Probable space group: C 2/M
;
_chemical_formula_sum "Si O2"
_cell_formula_units_Z 44
_cell_length_a 15.731418
_cell_length_b 26.902303
_cell_length_c 12.234783
_cell_angle_alpha 90.000000
_cell_angle_beta 26.015206
_cell_angle_gamma 90.000000
_cell_volume 2271.076694
_symmetry_space_group_name_H-M "C 2/M"
_symmetry_group_IT_number 12
_symmetry_cell_setting 'monoclinic'
loop_
_space_group_symop_operation_xyz
x,y,z
-x,y,-z
-x,-y,-z
x,-y,z
1/2+x,1/2+y,z
1/2-x,1/2+y,-z
1/2-x,1/2-y,-z
1/2+x,1/2-y,z
loop_
_atom_site_type_symbol
_atom_site_label
_atom_site_fract_x
_atom_site_fract_y
_atom_site_fract_z
Si Si1 0.500000 0.113142 0.000000
Si Si2 0.405931 0.354471 0.835042
Si Si3 0.276282 0.808816 0.497647
Si Si4 0.772552 0.698141 0.754383
Si Si5 0.677760 0.806926 0.920406
Si Si6 0.301774 0.558040 0.801307
O O1 0.333251 0.156305 0.169790
O O2 0.395324 0.075656 0.034057
O O3 0.626674 0.345325 0.611775
O O4 0.357336 0.316184 0.792555
O O5 0.340754 0.406838 0.860587
O O6 0.290306 0.339262 0.077941
O O7 0.250000 0.750000 0.500000
O O8 0.239202 0.816895 0.668575
O O9 0.493054 0.820894 0.208809
O O10 0.667695 0.750255 0.898336
O O11 0.000000 0.708003 0.500000
O O12 0.500000 0.564251 0.500000
O O13 0.285549 0.500000 0.846636
#
# Coordination Sequence:
#
# PCOD9206802 Si02
#       6
#     4   8   8   8   8   8
#     4  10  21  36  64  92 118 154 193 250 306 360
#     4  11  23  39  57  88 119 161 198 252 305 360
#     4  12  22  35  58  81 119 167 202 239 290 354
#     4  12  23  38  56  83 129 169 202 244 292 358
#     4  11  22  38  52  88 123 156 204 238 291 361
#     4  10  22  42  67  92 117 149 201 262 315 359
#
# _framework density 19.374071000000001
#
# number of rings (size 3 to 8) (size 9 to 14) (size 15 to 20)
#    0.000    0.909    3.636    4.636    0.000    4.364 
#    0.000    0.000    0.000    2.727    0.000    0.000 
#    0.000    0.000    0.000    0.000    0.000    0.000 
#
# Total GULP energy -122608.422121 kJ/mol
# GULP energy per Si atom -5573.110096 kJ/mol
# Density = 1.932997 g / cm^3
# Si number density = 19.374071 Si / 1000 Ang^3
#
#
#
# Elastic Constant Matrix: (Units=GPa)
#
#
# Indices 1 2 3 4 5 6 
#
# 1 171.5000 71.5426 45.4292 -0.0035 4.6897 0.0004
# 2 71.5426 142.7955 39.7984 0.0002 10.4247 0.0001
# 3 45.4292 39.7984 87.8164 -0.0025 12.3417 0.0004
# 4 -0.0035 0.0002 -0.0025 12.5075 0.0025 -3.9843
# 5 4.6897 10.4247 12.3417 0.0025 39.2145 -0.0002
# 6 0.0004 0.0001 0.0004 -3.9843 -0.0002 16.2207
#
#
#
# Elastic Compliance Matrix: (Units=1/GPa)
#
#
# Indices 1 2 3 4 5 6 
#
# 1 0.007885 -0.003250 -0.002715 0.000002 0.000776 0.000000
# 2 -0.003250 0.009396 -0.002386 -0.000001 -0.001358 0.000000
# 3 -0.002715 -0.002386 0.014374 0.000003 -0.003565 0.000000
# 4 0.000002 -0.000001 0.000003 0.086739 -0.000006 0.021306
# 5 0.000776 -0.001358 -0.003565 -0.000006 0.026891 -0.000001
# 6 0.000000 0.000000 0.000000 0.021306 -0.000001 0.066883
#
#
# Mechanical properties :
#
#
# Convention : Reuss Voigt Hill
#
# Bulk Modulus (GPa) = 66.87843 79.51694 73.19769
# Shear Modulus (GPa) = 21.38091 29.94467 25.66279
#
# Velocity S-wave (km/s) = 3.32563 3.93568 3.64345
# Velocity P-wave (km/s) = 7.02431 7.86034 7.45405
#
# Compressibility (1/GPa) = 0.01495250
#
# Stress axis : x y z
#
# Youngs Moduli (GPa) = 126.82706 106.43327 69.56962
#
# Poissons Ratio (x) = 0.34594 0.18887
# Poissons Ratio (y) = 0.41223 0.16597
# Poissons Ratio (z) = 0.34432 0.25392
#
# Static dielectric constant tensor:
#      x y z
#    x 1.749400 0.000000 -0.011620 
#    y 0.000000 1.651610 0.000000 
#    z -0.011620 0.000000 1.756830 
# 
# From -- ./inp_files/150075.got.cif
#   From: 2010.05.17/outbox.cif.g08.bks.cpg/sg12_76_cif.got.tgz:150075.got - 2010.06.03 13:09:07.
