data_PCOD9206602
_publ_section_title
;
Structure prediction by ZEFSAII (Michael W. Deem and Ramdas Pophale) SiO2 
 PCOD9206602
Probable space group: C 2/M
;
_chemical_formula_sum "Si O2"
_cell_formula_units_Z 56
_cell_length_a 7.460499
_cell_length_b 22.712013
_cell_length_c 19.585517
_cell_angle_alpha 90.000000
_cell_angle_beta 57.639934
_cell_angle_gamma 90.000000
_cell_volume 2803.248807
_symmetry_space_group_name_H-M "C 2/M"
_symmetry_group_IT_number 12
_symmetry_cell_setting 'monoclinic'
loop_
_space_group_symop_operation_xyz
x,y,z
-x,y,-z
-x,-y,-z
x,-y,z
1/2+x,1/2+y,z
1/2-x,1/2+y,-z
1/2-x,1/2-y,-z
1/2+x,1/2-y,z
loop_
_atom_site_type_symbol
_atom_site_label
_atom_site_fract_x
_atom_site_fract_y
_atom_site_fract_z
Si Si1 0.181289 0.932643 0.659412
Si Si2 0.693288 0.706510 0.906942
Si Si3 0.097228 0.663175 0.907724
Si Si4 0.721022 0.797623 0.609759
Si Si5 0.811617 0.433058 0.215074
Si Si6 0.855129 0.634131 0.756342
Si Si7 0.814276 0.829026 0.437893
O O1 0.251601 0.903478 0.716760
O O2 0.250484 0.888745 0.585434
O O3 0.925172 0.933609 0.706751
O O4 0.257832 0.000000 0.638978
O O5 0.898936 0.682901 0.902695
O O6 0.725786 0.776025 0.887876
O O7 0.686765 0.667555 0.839599
O O8 0.500000 0.700844 0.000000
O O9 0.201701 0.609411 0.847615
O O10 0.000000 0.645955 0.000000
O O11 0.511648 0.816692 0.692255
O O12 0.718559 0.822053 0.532878
O O13 0.746029 0.727568 0.595479
O O14 0.931202 0.822988 0.603047
O O15 0.868668 0.500000 0.185171
O O16 0.988273 0.407058 0.230412
#
# Coordination Sequence:
#
# PCOD9206602 Si02
#       7
#     8   8   8   8   8   8   8
#     4  11  24  40  63  88 123 166 204 246 292 362
#     4  10  22  36  57  92 121 152 191 251 306 359
#     4  10  21  36  60  83 118 155 193 248 306 357
#     4  10  21  38  64  93 121 160 189 264 297 365
#     4  10  23  41  58  85 121 158 207 247 290 356
#     4  11  23  39  66  88 119 159 204 249 305 350
#     4  10  21  40  61  91 130 151 204 242 314 351
#
# _framework density 19.976818999999999
#
# number of rings (size 3 to 8) (size 9 to 14) (size 15 to 20)
#    0.000    1.714    1.429    3.000    6.000    3.143 
#    0.000    3.571    0.000    2.143    0.000    0.000 
#    0.000    0.000    0.000    0.000    0.000    0.000 
#
# Total GULP energy -156429.709397 kJ/mol
# GULP energy per Si atom -5586.775336 kJ/mol
# Density = 1.993135 g / cm^3
# Si number density = 19.976819 Si / 1000 Ang^3
#
#
#
# Elastic Constant Matrix: (Units=GPa)
#
#
# Indices 1 2 3 4 5 6 
#
# 1 68.6918 30.5434 20.9205 0.0000 4.0464 0.0000
# 2 30.5434 118.4569 73.2979 0.0000 16.9838 0.0000
# 3 20.9205 73.2979 69.5026 0.0000 7.9373 0.0000
# 4 0.0000 0.0000 0.0000 19.5769 0.0000 -1.7993
# 5 4.0464 16.9838 7.9373 0.0000 26.7507 0.0000
# 6 0.0000 0.0000 0.0000 -1.7993 0.0000 30.6485
#
#
#
# Elastic Compliance Matrix: (Units=1/GPa)
#
#
# Indices 1 2 3 4 5 6 
#
# 1 0.016489 -0.003415 -0.001371 0.000000 0.000081 0.000000
# 2 -0.003415 0.026826 -0.026268 0.000000 -0.008721 0.000000
# 3 -0.001371 -0.026268 0.041998 0.000000 0.004423 0.000000
# 4 0.000000 0.000000 0.000000 0.051358 0.000000 0.003015
# 5 0.000081 -0.008721 0.004423 0.000000 0.041595 0.000000
# 6 0.000000 0.000000 0.000000 0.003015 0.000000 0.032805
#
#
# Mechanical properties :
#
#
# Convention : Reuss Voigt Hill
#
# Bulk Modulus (GPa) = 43.09248 56.24165 49.66706
# Shear Modulus (GPa) = 17.79911 24.18784 20.99347
#
# Velocity S-wave (km/s) = 2.98818 3.48342 3.24526
# Velocity P-wave (km/s) = 5.78997 6.66285 6.24168
#
# Compressibility (1/GPa) = 0.02320591
#
# Stress axis : x y z
#
# Youngs Moduli (GPa) = 60.64660 37.27669 23.81090
#
# Poissons Ratio (x) = 0.12728 0.03266
# Poissons Ratio (y) = 0.20708 0.62545
# Poissons Ratio (z) = 0.08317 0.97917
#
# Static dielectric constant tensor:
#      x y z
#    x 1.729280 0.000000 0.008890 
#    y 0.000000 1.699900 0.000000 
#    z 0.008890 0.000000 1.722080 
# 
# From -- ./inp_files/301649.got.cif
#   From: 2010.05.17/outbox.cif.g08.bks.cpg/sg12_151_cif.got.tgz:301649.got - 2010.06.03 13:09:07.
