data_PCOD9206730
_publ_section_title
;
Structure prediction by ZEFSAII (Michael W. Deem and Ramdas Pophale) SiO2 
 PCOD9206730
Probable space group: C 2/M
;
_chemical_formula_sum "Si O2"
_cell_formula_units_Z 44
_cell_length_a 10.916942
_cell_length_b 20.063976
_cell_length_c 9.260860
_cell_angle_alpha 90.000000
_cell_angle_beta 80.499356
_cell_angle_gamma 90.000000
_cell_volume 2000.650365
_symmetry_space_group_name_H-M "C 2/M"
_symmetry_group_IT_number 12
_symmetry_cell_setting 'monoclinic'
loop_
_space_group_symop_operation_xyz
x,y,z
-x,y,-z
-x,-y,-z
x,-y,z
1/2+x,1/2+y,z
1/2-x,1/2+y,-z
1/2-x,1/2-y,-z
1/2+x,1/2-y,z
loop_
_atom_site_type_symbol
_atom_site_label
_atom_site_fract_x
_atom_site_fract_y
_atom_site_fract_z
Si Si1 0.889562 0.242573 0.411843
Si Si2 0.310294 0.000000 0.623108
Si Si3 0.072348 0.859402 0.851131
Si Si4 0.375672 0.500000 0.125910
Si Si5 0.140741 0.389929 0.624599
Si Si6 0.903561 0.923991 0.649026
Si Si7 0.005563 0.500000 0.828676
O O1 0.750000 0.250000 0.500000
O O2 0.880488 0.194608 0.273455
O O3 0.924540 0.319131 0.369783
O O4 0.000000 0.219857 0.500000
O O5 0.164465 0.000000 0.692684
O O6 0.351301 0.935550 0.522438
O O7 0.376937 0.000000 0.764776
O O8 0.160526 0.920380 0.889473
O O9 0.970713 0.900227 0.778660
O O10 0.000000 0.827873 0.000000
O O11 0.500000 0.500000 0.000000
O O12 0.284341 0.380246 0.637723
O O13 0.077567 0.435737 0.756178
O O14 0.000000 0.922666 0.500000
O O15 0.858238 0.000000 0.674746
O O16 0.000000 0.500000 0.000000
#
# Coordination Sequence:
#
# PCOD9206730 Si02
#       7
#     8   4   8   4   8   8   4
#     4  12  25  45  69  96 134 179 232 279 332 404
#     4  11  20  40  65  91 120 166 222 263 327 390
#     4  11  24  40  62 100 137 172 216 276 349 405
#     4  10  21  36  61  94 127 156 200 268 330 389
#     4  11  23  42  66  92 126 174 223 276 326 384
#     4  11  20  37  69 100 128 164 224 284 331 391
#     4  11  25  40  58  91 126 166 220 263 327 393
#
# _framework density 21.992847999999999
#
# number of rings (size 3 to 8) (size 9 to 14) (size 15 to 20)
#    0.000    0.909    2.727    7.091    0.000    3.636 
#    0.000    3.636    0.000    0.000    0.000    0.000 
#    0.000    0.000    0.000    0.000    0.000    0.000 
#
# Total GULP energy -122647.584796 kJ/mol
# GULP energy per Si atom -5574.890218 kJ/mol
# Density = 2.194279 g / cm^3
# Si number density = 21.992848 Si / 1000 Ang^3
#
#
#
# Elastic Constant Matrix: (Units=GPa)
#
#
# Indices 1 2 3 4 5 6 
#
# 1 91.8214 11.9597 40.1617 0.0000 0.3792 0.0000
# 2 11.9597 159.5602 52.9684 0.0000 -23.8932 0.0000
# 3 40.1617 52.9684 174.4706 0.0000 -22.2302 0.0000
# 4 0.0000 0.0000 0.0000 31.9199 0.0000 -1.7896
# 5 0.3792 -23.8932 -22.2302 0.0000 30.2543 0.0000
# 6 0.0000 0.0000 0.0000 -1.7896 0.0000 31.8279
#
#
#
# Elastic Compliance Matrix: (Units=1/GPa)
#
#
# Indices 1 2 3 4 5 6 
#
# 1 0.012285 -0.000296 -0.003075 0.000000 -0.002648 0.000000
# 2 -0.000296 0.007540 -0.001613 0.000000 0.004773 0.000000
# 3 -0.003075 -0.001613 0.007471 0.000000 0.004255 0.000000
# 4 0.000000 0.000000 0.000000 0.031427 0.000000 0.001767
# 5 -0.002648 0.004773 0.004255 0.000000 0.039982 0.000000
# 6 0.000000 0.000000 0.000000 0.001767 0.000000 0.031518
#
#
# Mechanical properties :
#
#
# Convention : Reuss Voigt Hill
#
# Bulk Modulus (GPa) = 57.71196 70.67022 64.19109
# Shear Modulus (GPa) = 34.25393 40.18457 37.21925
#
# Velocity S-wave (km/s) = 3.95080 4.27917 4.11826
# Velocity P-wave (km/s) = 6.86367 7.52450 7.20167
#
# Compressibility (1/GPa) = 0.01732743
#
# Stress axis : x y z
#
# Youngs Moduli (GPa) = 81.39752 132.63475 133.84676
#
# Poissons Ratio (x) = 0.03932 0.41163
# Poissons Ratio (y) = 0.02413 0.21583
# Poissons Ratio (z) = 0.25033 0.21388
#
# Static dielectric constant tensor:
#      x y z
#    x 2.172080 0.000000 -0.047350 
#    y 0.000000 1.893370 0.000000 
#    z -0.047350 0.000000 1.837410 
# 
# From -- ./inp_files/49336.got.cif
#   From: 2010.05.17/outbox.cif.g08.bks.cpg/sg12_25_cif.got.tgz:49336.got - 2010.06.03 13:09:07.
