data_PCOD9206668
_publ_section_title
;
Structure prediction by ZEFSAII (Michael W. Deem and Ramdas Pophale) SiO2 
 PCOD9206668
Probable space group: C 2/M
;
_chemical_formula_sum "Si O2"
_cell_formula_units_Z 56
_cell_length_a 15.158034
_cell_length_b 24.152930
_cell_length_c 13.713529
_cell_angle_alpha 90.000000
_cell_angle_beta 29.513823
_cell_angle_gamma 90.000000
_cell_volume 2473.351795
_symmetry_space_group_name_H-M "C 2/M"
_symmetry_group_IT_number 12
_symmetry_cell_setting 'monoclinic'
loop_
_space_group_symop_operation_xyz
x,y,z
-x,y,-z
-x,-y,-z
x,-y,z
1/2+x,1/2+y,z
1/2-x,1/2+y,-z
1/2-x,1/2-y,-z
1/2+x,1/2-y,z
loop_
_atom_site_type_symbol
_atom_site_label
_atom_site_fract_x
_atom_site_fract_y
_atom_site_fract_z
Si Si1 0.306277 0.632194 0.390935
Si Si2 0.162423 0.366890 0.924113
Si Si3 0.778490 0.783480 0.264066
Si Si4 0.948874 0.288424 0.249465
Si Si5 0.405703 0.263336 0.710945
Si Si6 0.475526 0.933788 0.636259
Si Si7 0.337556 0.565303 0.908994
O O1 0.332486 0.659271 0.259326
O O2 0.225947 0.683095 0.533375
O O3 0.484206 0.602888 0.256552
O O4 0.143234 0.589844 0.534965
O O5 0.324948 0.321782 0.749508
O O6 0.246018 0.421797 0.891523
O O7 0.000000 0.373545 0.000000
O O8 0.075451 0.338716 0.102495
O O9 0.908190 0.738420 0.185014
O O10 0.739024 0.781151 0.188756
O O11 0.592094 0.760459 0.489267
O O12 0.053292 0.244549 0.215470
O O13 0.500000 0.913055 0.500000
O O14 0.487453 0.000000 0.620654
O O15 0.294663 0.921767 0.871764
O O16 0.380872 0.500000 0.873728
#
# Coordination Sequence:
#
# PCOD9206668 Si02
#       7
#     8   8   8   8   8   8   8
#     4  11  22  40  69  94 135 177 220 273 339 398
#     4  12  23  41  65  96 134 179 224 284 341 397
#     4  10  21  37  59  96 135 175 223 268 320 412
#     4  11  21  39  60  93 134 177 218 272 333 397
#     4  10  21  36  60  92 136 175 218 267 328 405
#     4  10  23  43  67  97 132 170 220 279 339 400
#     4  11  25  46  70  98 130 176 233 286 341 401
#
# _framework density 22.64134
#
# number of rings (size 3 to 8) (size 9 to 14) (size 15 to 20)
#    0.000    1.286    2.857    4.286    4.000    0.857 
#    0.000    3.571    0.000    0.857    0.000    0.000 
#    0.000    0.000    0.000    0.000    0.000    0.000 
#
# Total GULP energy -155985.520437 kJ/mol
# GULP energy per Si atom -5570.911444 kJ/mol
# Density = 2.258981 g / cm^3
# Si number density = 22.641340 Si / 1000 Ang^3
#
#
#
# Elastic Constant Matrix: (Units=GPa)
#
#
# Indices 1 2 3 4 5 6 
#
# 1 134.0354 37.6817 47.5587 0.0324 -19.2425 -0.0232
# 2 37.6817 73.5084 36.4087 0.0109 -17.6979 -0.0232
# 3 47.5587 36.4087 120.9198 -0.1771 -23.6626 0.0424
# 4 0.0324 0.0109 -0.1771 12.9495 -0.0360 0.7412
# 5 -19.2425 -17.6979 -23.6626 -0.0360 27.0109 0.0102
# 6 -0.0232 -0.0232 0.0424 0.7412 0.0102 35.7295
#
#
#
# Elastic Compliance Matrix: (Units=1/GPa)
#
#
# Indices 1 2 3 4 5 6 
#
# 1 0.009536 -0.003093 -0.002277 -0.000045 0.002772 0.000007
# 2 -0.003093 0.018379 -0.002887 -0.000028 0.007310 0.000012
# 3 -0.002277 -0.002887 0.011281 0.000181 0.006370 -0.000022
# 4 -0.000045 -0.000028 0.000181 0.077318 0.000212 -0.001604
# 5 0.002772 0.007310 0.006370 0.000212 0.049367 -0.000020
# 6 0.000007 0.000012 -0.000022 -0.001604 -0.000020 0.028021
#
#
# Mechanical properties :
#
#
# Convention : Reuss Voigt Hill
#
# Bulk Modulus (GPa) = 44.08651 63.52910 53.80780
# Shear Modulus (GPa) = 22.93806 28.92561 25.93183
#
# Velocity S-wave (km/s) = 3.18638 3.57817 3.38795
# Velocity P-wave (km/s) = 5.74903 6.72242 6.25469
#
# Compressibility (1/GPa) = 0.02268268
#
# Stress axis : x y z
#
# Youngs Moduli (GPa) = 104.86346 54.40889 88.64091
#
# Poissons Ratio (x) = 0.16830 0.20183
# Poissons Ratio (y) = 0.32437 0.25591
# Poissons Ratio (z) = 0.23876 0.15708
#
# Static dielectric constant tensor:
#      x y z
#    x 1.955270 -0.000030 0.073850 
#    y -0.000030 1.835340 0.000140 
#    z 0.073850 0.000140 2.076740 
# 
# From -- ./inp_files/218647.got.cif
#   From: 2010.05.17/outbox.cif.g08.bks.cpg/sg12_110_cif.got.tgz:218647.got - 2010.06.03 13:09:07.
