data_PCOD9206703
_publ_section_title
;
Structure prediction by ZEFSAII (Michael W. Deem and Ramdas Pophale) SiO2 
 PCOD9206703
Probable space group: C 2/M
;
_chemical_formula_sum "Si O2"
_cell_formula_units_Z 44
_cell_length_a 9.884062
_cell_length_b 16.576205
_cell_length_c 14.713385
_cell_angle_alpha 90.000000
_cell_angle_beta 67.599195
_cell_angle_gamma 90.000000
_cell_volume 2228.738904
_symmetry_space_group_name_H-M "C 2/M"
_symmetry_group_IT_number 12
_symmetry_cell_setting 'monoclinic'
loop_
_space_group_symop_operation_xyz
x,y,z
-x,y,-z
-x,-y,-z
x,-y,z
1/2+x,1/2+y,z
1/2-x,1/2+y,-z
1/2-x,1/2-y,-z
1/2+x,1/2-y,z
loop_
_atom_site_type_symbol
_atom_site_label
_atom_site_fract_x
_atom_site_fract_y
_atom_site_fract_z
Si Si1 0.323531 0.792574 0.687049
Si Si2 0.155793 0.329520 0.006349
Si Si3 0.972216 0.408944 0.781744
Si Si4 0.096793 0.907492 0.646085
Si Si5 0.727259 0.370952 0.205851
Si Si6 0.000000 0.185847 0.500000
O O1 0.441680 0.848138 0.707480
O O2 0.196185 0.849665 0.682305
O O3 0.269907 0.724864 0.771870
O O4 0.395473 0.742290 0.586885
O O5 0.119376 0.376757 0.107987
O O6 0.250000 0.250000 0.000000
O O7 0.238700 0.382015 0.908876
O O8 0.000000 0.308107 0.000000
O O9 0.929225 0.500000 0.769631
O O10 0.140939 0.406974 0.769203
O O11 0.930498 0.902826 0.725332
O O12 0.089572 0.869963 0.546924
O O13 0.146932 0.000000 0.633204
#
# Coordination Sequence:
#
# PCOD9206703 Si02
#       6
#     8   8   8   8   8   4
#     4  11  22  41  63  88 117 156 201 244 298 361
#     4  10  21  36  61  88 120 163 205 235 283 352
#     4  11  23  39  60  90 125 157 197 250 296 343
#     4  11  23  39  62  91 120 149 195 256 302 345
#     4  10  21  38  63  85 121 164 202 232 291 359
#     4  10  23  42  63  84 116 158 202 234 299 378
#
# _framework density 19.742106
#
# number of rings (size 3 to 8) (size 9 to 14) (size 15 to 20)
#    0.000    1.455    1.818    4.091    2.545    5.455 
#    0.000    5.455    0.000    2.727    0.000    0.000 
#    0.000    0.000    0.000    0.000    0.000    0.000 
#
# Total GULP energy -122951.953917 kJ/mol
# GULP energy per Si atom -5588.725178 kJ/mol
# Density = 1.969717 g / cm^3
# Si number density = 19.742106 Si / 1000 Ang^3
#
#
#
# Elastic Constant Matrix: (Units=GPa)
#
#
# Indices 1 2 3 4 5 6 
#
# 1 34.1396 14.4297 10.8167 0.0000 0.9199 0.0000
# 2 14.4297 114.6801 2.8070 0.0000 -2.1028 0.0000
# 3 10.8167 2.8070 67.2247 0.0000 -7.8703 0.0000
# 4 0.0000 0.0000 0.0000 -1.2390 0.0000 15.9834
# 5 0.9199 -2.1028 -7.8703 0.0000 21.9637 0.0000
# 6 0.0000 0.0000 0.0000 15.9834 0.0000 -10.8042
#
#
#
# Elastic Compliance Matrix: (Units=1/GPa)
#
#
# Indices 1 2 3 4 5 6 
#
# 1 0.032874 -0.004069 -0.005560 0.000000 -0.003759 0.000000
# 2 -0.004069 0.009244 0.000410 0.000000 0.001202 0.000000
# 3 -0.005560 0.000410 0.016476 0.000000 0.006176 0.000000
# 4 0.000000 0.000000 0.000000 0.044630 0.000000 0.066025
# 5 -0.003759 0.001202 0.006176 0.000000 0.048015 0.000000
# 6 0.000000 0.000000 0.000000 0.066025 0.000000 0.005118
#
#
# Mechanical properties :
#
#
# Convention : Reuss Voigt Hill
#
# Bulk Modulus (GPa) = 24.90331 30.23900 27.57115
# Shear Modulus (GPa) = 26.57001 14.51681 20.54341
#
# Velocity S-wave (km/s) = 3.67257 2.71462 3.22931
# Velocity P-wave (km/s) = 5.53402 5.01755 5.28210
#
# Compressibility (1/GPa) = 0.04015531
#
# Stress axis : x y z
#
# Youngs Moduli (GPa) = 30.41895 108.17885 60.69430
#
# Poissons Ratio (x) = 0.44021 0.33744
# Poissons Ratio (y) = 0.12378 -0.02486
# Poissons Ratio (z) = 0.16912 -0.04430
#
# Static dielectric constant tensor:
#      x y z
#    x 1.674240 0.000000 -0.001090 
#    y 0.000000 1.682070 0.000000 
#    z -0.001090 0.000000 1.706490 
# 
# From -- ./inp_files/195382.got.cif
#   From: 2010.05.17/outbox.cif.g08.bks.cpg/sg12_98_cif.got.tgz:195382.got - 2010.06.03 13:09:07.
