data_PCOD9206869
_publ_section_title
;
Structure prediction by ZEFSAII (Michael W. Deem and Ramdas Pophale) SiO2 
 PCOD9206869
Probable space group: C 2/M
;
_chemical_formula_sum "Si O2"
_cell_formula_units_Z 48
_cell_length_a 14.781509
_cell_length_b 9.819738
_cell_length_c 14.748365
_cell_angle_alpha 90.000000
_cell_angle_beta 87.275081
_cell_angle_gamma 90.000000
_cell_volume 2138.312685
_symmetry_space_group_name_H-M "C 2/M"
_symmetry_group_IT_number 12
_symmetry_cell_setting 'monoclinic'
loop_
_space_group_symop_operation_xyz
x,y,z
-x,y,-z
-x,-y,-z
x,-y,z
1/2+x,1/2+y,z
1/2-x,1/2+y,-z
1/2-x,1/2-y,-z
1/2+x,1/2-y,z
loop_
_atom_site_type_symbol
_atom_site_label
_atom_site_fract_x
_atom_site_fract_y
_atom_site_fract_z
Si Si1 0.654087 0.157174 0.604219
Si Si2 0.939218 0.352190 0.913938
Si Si3 0.872692 0.843166 0.561093
Si Si4 0.105161 0.653050 0.276630
Si Si5 0.166569 0.842869 0.978674
Si Si6 0.319534 0.658823 0.227788
O O1 0.762863 0.153999 0.579480
O O2 0.610893 0.248729 0.527065
O O3 0.645112 0.237594 0.698810
O O4 0.622851 0.000000 0.608127
O O5 0.886261 0.500000 0.917639
O O6 0.960743 0.342980 0.806841
O O7 0.901120 0.204662 0.940812
O O8 0.000000 0.368815 0.000000
O O9 0.910838 0.766565 0.647526
O O10 0.901738 0.000000 0.550354
O O11 0.102671 0.500000 0.316865
O O12 0.208806 0.671369 0.233667
O O13 0.143618 0.812497 0.874925
O O14 0.185351 0.000000 0.983544
O O15 0.250000 0.750000 0.000000
O O16 0.338685 0.500000 0.249501
#
# Coordination Sequence:
#
# PCOD9206869 Si02
#       6
#     8   8   8   8   8   8
#     4   9  16  25  39  63  93 125 158 197 243 295
#     4  10  21  37  54  74 103 138 175 215 259 304
#     4   9  16  25  39  62  92 126 160 197 243 295
#     4   9  16  29  46  66  94 129 166 204 247 296
#     4  11  21  34  53  76 103 135 174 214 258 306
#     4   9  17  29  45  67  96 129 162 203 249 296
#
# _framework density 22.447604999999999
#
# number of rings (size 3 to 8) (size 9 to 14) (size 15 to 20)
#    0.000    2.500    1.667    1.500    0.000    6.333 
#    0.000    0.000    0.000    0.000    0.000    1.167 
#    0.000    9.333    0.000    0.000    0.000    0.000 
#
# Total GULP energy -133728.495585 kJ/mol
# GULP energy per Si atom -5572.020649 kJ/mol
# Density = 2.239651 g / cm^3
# Si number density = 22.447605 Si / 1000 Ang^3
#
#
#
# Elastic Constant Matrix: (Units=GPa)
#
#
# Indices 1 2 3 4 5 6 
#
# 1 26.7013 12.0748 20.3876 0.0000 2.5500 0.0000
# 2 12.0748 193.7013 133.9198 0.0000 23.7143 0.0000
# 3 20.3876 133.9198 151.5838 0.0000 22.3219 0.0000
# 4 0.0000 0.0000 0.0000 61.3855 0.0000 10.4948
# 5 2.5500 23.7143 22.3219 0.0000 27.8759 0.0000
# 6 0.0000 0.0000 0.0000 10.4948 0.0000 -0.4956
#
#
#
# Elastic Compliance Matrix: (Units=1/GPa)
#
#
# Indices 1 2 3 4 5 6 
#
# 1 0.042570 0.003340 -0.008711 0.000000 0.000241 0.000000
# 2 0.003340 0.013642 -0.012184 0.000000 -0.002154 0.000000
# 3 -0.008711 -0.012184 0.019147 0.000000 -0.004170 0.000000
# 4 0.000000 0.000000 0.000000 0.003526 0.000000 0.074663
# 5 0.000241 -0.002154 -0.004170 0.000000 0.041023 0.000000
# 6 0.000000 0.000000 0.000000 0.074663 0.000000 -0.436711
#
#
# Mechanical properties :
#
#
# Convention : Reuss Voigt Hill
#
# Bulk Modulus (GPa) = 24.84664 78.30564 51.57614
# Shear Modulus (GPa) = -18.63752 31.46012 6.41130
#
# Velocity S-wave (km/s) = -2.88456 3.74771 1.69184
# Velocity P-wave (km/s) = 0.03885 7.32711 5.18098
#
# Compressibility (1/GPa) = 0.04024688
#
# Stress axis : x y z
#
# Youngs Moduli (GPa) = 23.49090 73.30306 52.22694
#
# Poissons Ratio (x) = -0.24481 0.45497
# Poissons Ratio (y) = -0.07845 0.63635
# Poissons Ratio (z) = 0.20464 0.89314
#
# Static dielectric constant tensor:
#      x y z
#    x 1.730650 0.000000 0.103170 
#    y 0.000000 1.788380 0.000000 
#    z 0.103170 0.000000 1.729860 
# 
# From -- ./inp_files/221721.got.cif
#   From: 2010.05.17/outbox.cif.g08.bks.cpg/sg12_111_cif.got.tgz:221721.got - 2010.06.03 13:09:07.
