data_PCOD9206556
_publ_section_title
;
Structure prediction by ZEFSAII (Michael W. Deem and Ramdas Pophale) SiO2 
 PCOD9206556
Probable space group: C 2/M
;
_chemical_formula_sum "Si O2"
_cell_formula_units_Z 50
_cell_length_a 16.049642
_cell_length_b 10.133049
_cell_length_c 15.110077
_cell_angle_alpha 90.000000
_cell_angle_beta 67.067806
_cell_angle_gamma 90.000000
_cell_volume 2263.164161
_symmetry_space_group_name_H-M "C 2/M"
_symmetry_group_IT_number 12
_symmetry_cell_setting 'monoclinic'
loop_
_space_group_symop_operation_xyz
x,y,z
-x,y,-z
-x,-y,-z
x,-y,z
1/2+x,1/2+y,z
1/2-x,1/2+y,-z
1/2-x,1/2-y,-z
1/2+x,1/2-y,z
loop_
_atom_site_type_symbol
_atom_site_label
_atom_site_fract_x
_atom_site_fract_y
_atom_site_fract_z
Si Si1 0.605235 0.150924 0.431306
Si Si2 0.876472 0.351225 0.379861
Si Si3 0.332090 0.650820 0.952112
Si Si4 0.500000 0.000000 0.000000
Si Si5 0.227704 0.847276 0.285837
Si Si6 0.611097 0.254326 0.888576
Si Si7 0.501050 0.651248 0.767761
O O1 0.500000 0.165769 0.500000
O O2 0.653888 0.167353 0.506639
O O3 0.643468 0.257588 0.348091
O O4 0.620317 0.000000 0.394318
O O5 0.914725 0.500000 0.358755
O O6 0.796135 0.344261 0.342055
O O7 0.953525 0.248457 0.320772
O O8 0.301196 0.500000 0.953691
O O9 0.400826 0.685236 0.844464
O O10 0.250000 0.750000 0.000000
O O11 0.387090 0.665654 0.021152
O O12 0.441082 0.116870 0.074479
O O13 0.287400 0.784016 0.183374
O O14 0.204967 0.000000 0.277530
O O15 0.564201 0.332655 0.828603
O O16 0.502021 0.500000 0.737532
#
# Coordination Sequence:
#
# PCOD9206556 Si02
#       7
#     8   8   8   2   8   8   8
#     4  10  22  40  59  82 117 157 194 238 295 356
#     4   9  20  37  60  86 112 147 194 241 288 353
#     4  11  25  39  56  83 121 159 199 246 297 358
#     4  12  20  36  70  92 122 160 198 248 292 364
#     4  10  21  36  59  90 115 144 196 245 289 346
#     4  11  22  38  64  90 119 158 199 242 299 357
#     4  10  21  38  60  86 115 148 195 250 299 348
#
# _framework density 22.092962
#
# number of rings (size 3 to 8) (size 9 to 14) (size 15 to 20)
#    0.000    1.760    2.400    0.960    2.240    7.360 
#    0.000    3.200    0.000    0.000    0.000    0.000 
#    0.000    0.000    0.000    0.000    0.000    0.000 
#
# Total GULP energy -139568.242891 kJ/mol
# GULP energy per Si atom -5582.729716 kJ/mol
# Density = 2.204268 g / cm^3
# Si number density = 22.092962 Si / 1000 Ang^3
#
#
#
# Elastic Constant Matrix: (Units=GPa)
#
#
# Indices 1 2 3 4 5 6 
#
# 1 54.5031 22.9016 4.9706 0.0000 -5.2576 0.0000
# 2 22.9016 134.2903 65.2512 0.0000 -39.4364 0.0000
# 3 4.9706 65.2512 92.1108 0.0000 -20.4341 0.0000
# 4 0.0000 0.0000 0.0000 38.9932 0.0000 -14.1648
# 5 -5.2576 -39.4364 -20.4341 0.0000 41.7319 0.0000
# 6 0.0000 0.0000 0.0000 -14.1648 0.0000 20.8240
#
#
#
# Elastic Compliance Matrix: (Units=1/GPa)
#
#
# Indices 1 2 3 4 5 6 
#
# 1 0.020036 -0.004661 0.002024 0.000000 -0.000890 0.000000
# 2 -0.004661 0.015106 -0.008317 0.000000 0.009616 0.000000
# 3 0.002024 -0.008317 0.016774 0.000000 0.000609 0.000000
# 4 0.000000 0.000000 0.000000 0.034062 0.000000 0.023170
# 5 -0.000890 0.009616 0.000609 0.000000 0.033236 0.000000
# 6 0.000000 0.000000 0.000000 0.023170 0.000000 0.063782
#
#
# Mechanical properties :
#
#
# Convention : Reuss Voigt Hill
#
# Bulk Modulus (GPa) = 33.32541 51.90567 42.61554
# Shear Modulus (GPa) = 23.26585 32.82852 28.04718
#
# Velocity S-wave (km/s) = 3.24865 3.85895 3.56688
# Velocity P-wave (km/s) = 5.40265 6.58791 6.02450
#
# Compressibility (1/GPa) = 0.03000713
#
# Stress axis : x y z
#
# Youngs Moduli (GPa) = 49.91043 66.19719 59.61647
#
# Poissons Ratio (x) = 0.30858 -0.12064
# Poissons Ratio (y) = 0.23266 0.49580
# Poissons Ratio (z) = -0.10100 0.55053
#
# Static dielectric constant tensor:
#      x y z
#    x 1.905160 0.000000 0.036760 
#    y 0.000000 1.747300 0.000000 
#    z 0.036760 0.000000 1.783870 
# 
# From -- ./inp_files/274945.got.cif
#   From: 2010.05.17/outbox.cif.g08.bks.cpg/sg12_138_cif.got.tgz:274945.got - 2010.06.03 13:09:07.
