data_PCOD9206344
_publ_section_title
;
Structure prediction by ZEFSAII (Michael W. Deem and Ramdas Pophale) SiO2 
 PCOD9206344
Probable space group: C 2/M
;
_chemical_formula_sum "Si O2"
_cell_formula_units_Z 34
_cell_length_a 14.658179
_cell_length_b 7.313998
_cell_length_c 17.198427
_cell_angle_alpha 90.000000
_cell_angle_beta 127.350304
_cell_angle_gamma 90.000000
_cell_volume 1465.745453
_symmetry_space_group_name_H-M "C 2/M"
_symmetry_group_IT_number 12
_symmetry_cell_setting 'monoclinic'
loop_
_space_group_symop_operation_xyz
x,y,z
-x,y,-z
-x,-y,-z
x,-y,z
1/2+x,1/2+y,z
1/2-x,1/2+y,-z
1/2-x,1/2-y,-z
1/2+x,1/2-y,z
loop_
_atom_site_type_symbol
_atom_site_label
_atom_site_fract_x
_atom_site_fract_y
_atom_site_fract_z
Si Si1 0.184064 0.277161 0.603360
Si Si2 0.480203 0.220575 0.613449
Si Si3 0.129690 0.216806 0.981718
Si Si4 0.564421 0.291390 0.235683
Si Si5 0.500000 0.000000 0.000000
O O1 0.188656 0.500000 0.602799
O O2 0.131739 0.219005 0.493311
O O3 0.309396 0.208516 0.690146
O O4 0.090151 0.227685 0.619221
O O5 0.484252 0.290789 0.702350
O O6 0.478016 0.000000 0.616074
O O7 0.028969 0.287053 0.871015
O O8 0.121503 0.000000 0.992580
O O9 0.250000 0.250000 0.000000
O O10 0.100646 0.339033 0.040871
O O11 0.580175 0.500000 0.217598
#
# Coordination Sequence:
#
# PCOD9206344 Si02
#       5
#     8   8   8   8   2
#     4   8  16  33  52  82 123 162 209 252 310 390
#     4   9  17  31  57  83 116 168 208 252 315 382
#     4  11  25  47  72 103 139 183 235 292 358 427
#     4  10  21  36  57  88 125 159 213 268 327 396
#     4  12  26  48  80 100 140 180 230 294 368 416
#
# _framework density 23.196389
#
# number of rings (size 3 to 8) (size 9 to 14) (size 15 to 20)
#    0.000    2.353    1.176    2.471    1.647    1.882 
#    0.000    5.882    0.000    0.000    0.000    0.000 
#    0.000    0.000    0.000    0.000    0.000    0.000 
#
# Total GULP energy -94719.595702 kJ/mol
# GULP energy per Si atom -5571.740924 kJ/mol
# Density = 2.314359 g / cm^3
# Si number density = 23.196389 Si / 1000 Ang^3
#
#
#
# Elastic Constant Matrix: (Units=GPa)
#
#
# Indices 1 2 3 4 5 6 
#
# 1 608.6269 113.3202 310.4484 0.0000 593.7169 0.0000
# 2 113.3202 172.5257 45.5788 0.0000 119.5622 0.0000
# 3 310.4484 45.5788 264.8591 0.0000 348.6732 0.0000
# 4 0.0000 0.0000 0.0000 7.9042 0.0000 -10.3126
# 5 593.7169 119.5622 348.6732 0.0000 686.0868 0.0000
# 6 0.0000 0.0000 0.0000 -10.3126 0.0000 66.3712
#
#
#
# Elastic Compliance Matrix: (Units=1/GPa)
#
#
# Indices 1 2 3 4 5 6 
#
# 1 0.010740 -0.000819 -0.001210 0.000000 -0.008536 0.000000
# 2 -0.000819 0.006771 0.001254 0.000000 -0.001109 0.000000
# 3 -0.001210 0.001254 0.011745 0.000000 -0.005140 0.000000
# 4 0.000000 0.000000 0.000000 0.158683 0.000000 0.024656
# 5 -0.008536 -0.001109 -0.005140 0.000000 0.011650 0.000000
# 6 0.000000 0.000000 0.000000 0.024656 0.000000 0.018898
#
#
# Mechanical properties :
#
#
# Convention : Reuss Voigt Hill
#
# Bulk Modulus (GPa) = 36.09190 220.52295 128.30742
# Shear Modulus (GPa) = 21.80816 190.51672 106.16244
#
# Velocity S-wave (km/s) = 3.06952 9.07251 6.77246
# Velocity P-wave (km/s) = 5.30619 14.31857 10.79761
#
# Compressibility (1/GPa) = 0.02770705
#
# Stress axis : x y z
#
# Youngs Moduli (GPa) = 93.11026 147.68570 85.14194
#
# Poissons Ratio (x) = 0.12093 0.10302
# Poissons Ratio (y) = 0.07624 -0.10679
# Poissons Ratio (z) = 0.11266 -0.18523
#
# Static dielectric constant tensor:
#      x y z
#    x 1.876490 0.000000 -0.035890 
#    y 0.000000 1.940080 0.000000 
#    z -0.035890 0.000000 1.938950 
# 
# From -- ./inp_files/210682.got.cif
#   From: 2010.05.17/outbox.cif.g08.bks.cpg/sg12_106_cif.got.tgz:210682.got - 2010.06.03 13:09:07.
