data_PCOD9206797
_publ_section_title
;
Structure prediction by ZEFSAII (Michael W. Deem and Ramdas Pophale) SiO2 
 PCOD9206797
Probable space group: C 2/M
;
_chemical_formula_sum "Si O2"
_cell_formula_units_Z 30
_cell_length_a 9.843971
_cell_length_b 24.332643
_cell_length_c 7.027057
_cell_angle_alpha 90.000000
_cell_angle_beta 47.500318
_cell_angle_gamma 90.000000
_cell_volume 1240.983992
_symmetry_space_group_name_H-M "C 2/M"
_symmetry_group_IT_number 12
_symmetry_cell_setting 'monoclinic'
loop_
_space_group_symop_operation_xyz
x,y,z
-x,y,-z
-x,-y,-z
x,-y,z
1/2+x,1/2+y,z
1/2-x,1/2+y,-z
1/2-x,1/2-y,-z
1/2+x,1/2-y,z
loop_
_atom_site_type_symbol
_atom_site_label
_atom_site_fract_x
_atom_site_fract_y
_atom_site_fract_z
Si Si1 0.817575 0.914607 0.801595
Si Si2 0.000000 0.500000 0.000000
Si Si3 0.199700 0.321563 0.382225
Si Si4 0.721608 0.705585 0.266714
Si Si5 0.500000 0.592319 0.000000
O O1 0.750914 0.850598 0.876593
O O2 0.884323 0.935909 0.944233
O O3 0.000000 0.915314 0.500000
O O4 0.659806 0.952192 0.867644
O O5 0.184071 0.304115 0.617341
O O6 0.268763 0.269754 0.187101
O O7 0.000000 0.339698 0.500000
O O8 0.350376 0.368688 0.240832
O O9 0.500000 0.709232 0.500000
#
# Coordination Sequence:
#
# PCOD9206797 Si02
#       5
#     8   2   8   8   4
#     4  11  25  49  68  97 136 170 222 293 324 395
#     4  12  30  48  78  96 116 186 234 272 370 376
#     4  10  21  36  64 107 139 179 218 256 318 417
#     4   9  18  41  63  92 151 174 206 278 320 375
#     4  12  24  40  74  98 132 184 216 262 356 390
#
# _framework density 24.174365999999999
#
# number of rings (size 3 to 8) (size 9 to 14) (size 15 to 20)
#    0.000    1.600    5.333    0.400    3.733    2.667 
#    0.000    1.333    0.000    0.000    0.000    0.000 
#    0.000    0.000    0.000    0.000    0.000    0.000 
#
# Total GULP energy -83576.784098 kJ/mol
# GULP energy per Si atom -5571.785607 kJ/mol
# Density = 2.411934 g / cm^3
# Si number density = 24.174366 Si / 1000 Ang^3
#
#
#
# Elastic Constant Matrix: (Units=GPa)
#
#
# Indices 1 2 3 4 5 6 
#
# 1 120.6530 22.2998 32.1236 0.0000 -27.4039 0.0000
# 2 22.2998 144.1871 33.2244 0.0000 -15.0166 0.0000
# 3 32.1236 33.2244 51.3594 0.0000 -23.4219 0.0000
# 4 0.0000 0.0000 0.0000 32.3353 0.0000 -48.7488
# 5 -27.4039 -15.0166 -23.4219 0.0000 47.3667 0.0000
# 6 0.0000 0.0000 0.0000 -48.7488 0.0000 23.3948
#
#
#
# Elastic Compliance Matrix: (Units=1/GPa)
#
#
# Indices 1 2 3 4 5 6 
#
# 1 0.010405 -0.000133 -0.004772 0.000000 0.003618 0.000000
# 2 -0.000133 0.008152 -0.005225 0.000000 -0.000076 0.000000
# 3 -0.004772 -0.005225 0.030757 0.000000 0.010791 0.000000
# 4 0.000000 0.000000 0.000000 -0.014442 0.000000 -0.030092
# 5 0.003618 -0.000076 0.010791 0.000000 0.028517 0.000000
# 6 0.000000 0.000000 0.000000 -0.030092 0.000000 -0.019961
#
#
# Mechanical properties :
#
#
# Convention : Reuss Voigt Hill
#
# Bulk Modulus (GPa) = 34.41917 54.61057 44.51487
# Shear Modulus (GPa) = 68.14405 35.85615 52.00010
#
# Velocity S-wave (km/s) = 5.31505 3.85545 4.64297
# Velocity P-wave (km/s) = 7.20660 6.51603 6.87000
#
# Compressibility (1/GPa) = 0.02905358
#
# Stress axis : x y z
#
# Youngs Moduli (GPa) = 96.10654 122.66820 32.51305
#
# Poissons Ratio (x) = 0.01629 0.15516
# Poissons Ratio (y) = 0.01276 0.16989
# Poissons Ratio (z) = 0.45864 0.64097
#
# Static dielectric constant tensor:
#      x y z
#    x 1.936760 0.000000 0.136830 
#    y 0.000000 1.462830 0.000000 
#    z 0.136830 0.000000 2.463330 
# 
# From -- ./inp_files/40086.got.cif
#   From: 2010.05.17/outbox.cif.g08.bks.cpg/sg12_21_cif.got.tgz:40086.got - 2010.06.03 13:09:07.
