data_PCOD9206279
_publ_section_title
;
Structure prediction by ZEFSAII (Michael W. Deem and Ramdas Pophale) SiO2 
 PCOD9206279
Probable space group: C 2/M
;
_chemical_formula_sum "Si O2"
_cell_formula_units_Z 64
_cell_length_a 28.766075
_cell_length_b 7.460092
_cell_length_c 23.201763
_cell_angle_alpha 90.000000
_cell_angle_beta 147.588510
_cell_angle_gamma 90.000000
_cell_volume 2668.747044
_symmetry_space_group_name_H-M "C 2/M"
_symmetry_group_IT_number 12
_symmetry_cell_setting 'monoclinic'
loop_
_space_group_symop_operation_xyz
x,y,z
-x,y,-z
-x,-y,-z
x,-y,z
1/2+x,1/2+y,z
1/2-x,1/2+y,-z
1/2-x,1/2-y,-z
1/2+x,1/2-y,z
loop_
_atom_site_type_symbol
_atom_site_label
_atom_site_fract_x
_atom_site_fract_y
_atom_site_fract_z
Si Si1 0.073447 0.215696 0.033055
Si Si2 0.271258 0.281003 0.727649
Si Si3 0.063021 0.718425 0.776257
Si Si4 0.375935 0.206712 0.592253
Si Si5 0.811232 0.791022 0.196906
Si Si6 0.688516 0.717197 0.356528
Si Si7 0.624024 0.788359 0.964576
Si Si8 0.404908 0.203191 0.410428
O O1 0.166752 0.277082 0.155293
O O2 0.061997 0.264280 0.954524
O O3 0.072985 0.000000 0.035168
O O4 0.000000 0.280461 0.000000
O O5 0.267163 0.500000 0.724494
O O6 0.317666 0.231210 0.716488
O O7 0.171670 0.218534 0.629512
O O8 0.060836 0.500000 0.774326
O O9 0.128809 0.776941 0.796365
O O10 0.965209 0.783110 0.662499
O O11 0.091828 0.781792 0.869794
O O12 0.376277 0.214323 0.662366
O O13 0.284341 0.283506 0.476285
O O14 0.372550 0.000000 0.570274
O O15 0.717408 0.714460 0.081825
O O16 0.857988 0.698433 0.299346
O O17 0.802439 0.000000 0.203676
O O18 0.684461 0.500000 0.355401
O O19 0.636828 0.000000 0.969377
O O20 0.500000 0.286672 0.500000
O O21 0.421460 0.000000 0.449357
#
# Coordination Sequence:
#
# PCOD9206279 Si02
#       8
#     8   8   8   8   8   8   8   8
#     4  10  21  36  57  85 114 147 189 233 280 336
#     4   9  18  34  55  83 112 142 183 230 273 325
#     4  10  22  38  59  82 108 144 190 235 277 334
#     4   9  19  35  54  80 109 140 180 227 272 325
#     4  11  23  39  58  83 115 146 183 233 288 337
#     4   9  18  33  55  78 110 144 176 222 275 327
#     4  10  22  40  58  81 113 148 185 231 286 339
#     4  10  21  37  62  87 111 151 195 229 275 337
#
# _framework density 23.981290000000001
#
# number of rings (size 3 to 8) (size 9 to 14) (size 15 to 20)
#    0.000    2.250    1.250    0.750    3.500    2.000 
#    0.000    1.250    0.000    0.000    0.000    0.000 
#    0.000    0.000    0.000    0.000    0.000    0.000 
#
# Total GULP energy -178817.951028 kJ/mol
# GULP energy per Si atom -5588.060970 kJ/mol
# Density = 2.392671 g / cm^3
# Si number density = 23.981290 Si / 1000 Ang^3
#
#
#
# Elastic Constant Matrix: (Units=GPa)
#
#
# Indices 1 2 3 4 5 6 
#
# 1 90.2164 -20.3421 -10.8442 0.0000 7.7866 0.0000
# 2 -20.3421 76.4478 -0.6891 0.0000 3.7904 -0.0001
# 3 -10.8442 -0.6891 30.8688 0.0000 11.4376 0.0000
# 4 0.0000 0.0000 0.0000 1.5912 0.0000 -3.0859
# 5 7.7866 3.7904 11.4376 0.0000 42.4191 0.0000
# 6 0.0000 -0.0001 0.0000 -3.0859 0.0000 44.6121
#
#
#
# Elastic Compliance Matrix: (Units=1/GPa)
#
#
# Indices 1 2 3 4 5 6 
#
# 1 0.013075 0.003756 0.006322 0.000000 -0.004440 0.000000
# 2 0.003756 0.014236 0.002627 0.000000 -0.002670 0.000000
# 3 0.006322 0.002627 0.039098 0.000000 -0.011937 0.000000
# 4 0.000000 0.000000 0.000000 0.725808 0.000000 0.050205
# 5 -0.004440 -0.002670 -0.011937 0.000000 0.027847 0.000000
# 6 0.000000 0.000000 0.000000 0.050205 0.000000 0.025888
#
#
# Mechanical properties :
#
#
# Convention : Reuss Voigt Hill
#
# Bulk Modulus (GPa) = 10.89103 14.86469 12.87786
# Shear Modulus (GPa) = 5.87442 33.01838 19.44640
#
# Velocity S-wave (km/s) = 1.56681 3.71460 2.85072
# Velocity P-wave (km/s) = 2.79724 4.96081 4.02704
#
# Compressibility (1/GPa) = 0.09181868
#
# Stress axis : x y z
#
# Youngs Moduli (GPa) = 76.48425 70.24262 25.57687
#
# Poissons Ratio (x) = -0.26384 -0.16170
# Poissons Ratio (y) = -0.28729 -0.06718
# Poissons Ratio (z) = -0.48355 -0.18450
#
# Static dielectric constant tensor:
#      x y z
#    x 1.895500 0.000000 0.012290 
#    y 0.000000 1.928800 0.000000 
#    z 0.012290 0.000000 1.910510 
# 
# From -- ./inp_files/353467.got.cif
#   From: 2010.05.17/outbox.cif.g08.bks.cpg/sg12_177_cif.got.tgz:353467.got - 2010.06.03 13:09:07.
