data_PCOD9206837
_publ_section_title
;
Structure prediction by ZEFSAII (Michael W. Deem and Ramdas Pophale) SiO2 
 PCOD9206837
Probable space group: C 2/M
;
_chemical_formula_sum "Si O2"
_cell_formula_units_Z 64
_cell_length_a 12.523567
_cell_length_b 26.671893
_cell_length_c 15.286061
_cell_angle_alpha 90.000000
_cell_angle_beta 41.955160
_cell_angle_gamma 90.000000
_cell_volume 3413.583995
_symmetry_space_group_name_H-M "C 2/M"
_symmetry_group_IT_number 12
_symmetry_cell_setting 'monoclinic'
loop_
_space_group_symop_operation_xyz
x,y,z
-x,y,-z
-x,-y,-z
x,-y,z
1/2+x,1/2+y,z
1/2-x,1/2+y,-z
1/2-x,1/2-y,-z
1/2+x,1/2-y,z
loop_
_atom_site_type_symbol
_atom_site_label
_atom_site_fract_x
_atom_site_fract_y
_atom_site_fract_z
Si Si1 0.838764 0.290742 0.644965
Si Si2 0.191154 0.560257 0.487697
Si Si3 0.314410 0.644591 0.108065
Si Si4 0.326041 0.803976 0.974728
Si Si5 0.186853 0.559661 0.289551
Si Si6 0.622224 0.636941 0.507798
Si Si7 0.623302 0.222244 0.700382
Si Si8 0.104699 0.208755 0.263488
O O1 0.774696 0.325487 0.759992
O O2 0.704504 0.277391 0.657124
O O3 0.000000 0.307046 0.500000
O O4 0.847454 0.232836 0.673276
O O5 0.211421 0.500000 0.482576
O O6 0.231576 0.575047 0.362156
O O7 0.291434 0.589638 0.499568
O O8 0.001162 0.571010 0.611241
O O9 0.241513 0.658369 0.058152
O O10 0.287877 0.587781 0.154560
O O11 0.500000 0.658922 0.000000
O O12 0.515207 0.797334 0.847454
O O13 0.250000 0.750000 0.000000
O O14 0.250369 0.811024 0.116199
O O15 0.204590 0.500000 0.274516
O O16 0.500000 0.627092 0.500000
O O17 0.761924 0.678011 0.402356
O O18 0.510238 0.663127 0.647474
O O19 0.483534 0.240883 0.719119
#
# Coordination Sequence:
#
# PCOD9206837 Si02
#       8
#     8   8   8   8   8   8   8   8
#     4  12  24  36  53  85 117 158 202 241 291 340
#     4   9  21  40  66  91 115 150 194 253 313 362
#     4  12  24  36  57  89 118 158 197 238 305 357
#     4  10  21  37  52  77 116 160 198 241 280 349
#     4   9  21  42  64  91 117 146 198 255 308 362
#     4  12  23  38  57  89 122 154 201 246 294 357
#     4  11  21  36  54  79 113 158 201 241 285 337
#     4  11  22  38  52  79 122 159 200 242 285 343
#
# _framework density 18.748624
#
# number of rings (size 3 to 8) (size 9 to 14) (size 15 to 20)
#    0.000    1.250    5.000    3.375    5.250    0.500 
#    0.000    0.000    0.000    0.000    0.000    0.000 
#    0.000    4.000    0.000    0.000    0.000    0.000 
#
# Total GULP energy -178228.930937 kJ/mol
# GULP energy per Si atom -5569.654092 kJ/mol
# Density = 1.870595 g / cm^3
# Si number density = 18.748624 Si / 1000 Ang^3
#
#
#
# Elastic Constant Matrix: (Units=GPa)
#
#
# Indices 1 2 3 4 5 6 
#
# 1 83.3203 36.0164 21.0550 0.0000 2.0387 0.0000
# 2 36.0164 55.1559 22.2651 0.0000 6.6429 0.0000
# 3 21.0550 22.2651 129.0655 0.0000 -4.8137 0.0000
# 4 0.0000 0.0000 0.0000 28.2860 0.0000 3.1280
# 5 2.0387 6.6429 -4.8137 0.0000 21.6883 0.0000
# 6 0.0000 0.0000 0.0000 3.1280 0.0000 36.0079
#
#
#
# Elastic Compliance Matrix: (Units=1/GPa)
#
#
# Indices 1 2 3 4 5 6 
#
# 1 0.016871 -0.010875 -0.000818 0.000000 0.001563 0.000000
# 2 -0.010875 0.027536 -0.003280 0.000000 -0.008140 0.000000
# 3 -0.000818 -0.003280 0.008558 0.000000 0.002981 0.000000
# 4 0.000000 0.000000 0.000000 0.035696 0.000000 -0.003101
# 5 0.001563 -0.008140 0.002981 0.000000 0.049115 0.000000
# 6 0.000000 0.000000 0.000000 -0.003101 0.000000 0.028041
#
#
# Mechanical properties :
#
#
# Convention : Reuss Voigt Hill
#
# Bulk Modulus (GPa) = 43.43971 47.35718 45.39845
# Shear Modulus (GPa) = 24.57768 29.74345 27.16057
#
# Velocity S-wave (km/s) = 3.62457 3.98733 3.81027
# Velocity P-wave (km/s) = 6.38252 6.81999 6.60488
#
# Compressibility (1/GPa) = 0.02302041
#
# Stress axis : x y z
#
# Youngs Moduli (GPa) = 59.27290 36.31619 116.84425
#
# Poissons Ratio (x) = 0.39493 0.09557
# Poissons Ratio (y) = 0.64458 0.38322
# Poissons Ratio (z) = 0.04848 0.11911
#
# Static dielectric constant tensor:
#      x y z
#    x 1.385170 0.000000 -0.007660 
#    y 0.000000 1.653220 0.000000 
#    z -0.007660 0.000000 1.722520 
# 
# From -- ./inp_files/209367.got.cif
#   From: 2010.05.17/outbox.cif.g08.bks.cpg/sg12_105_cif.got.tgz:209367.got - 2010.06.03 13:09:07.
