data_PCOD9206898
_publ_section_title
;
Structure prediction by ZEFSAII (Michael W. Deem and Ramdas Pophale) SiO2 
 PCOD9206898
Probable space group: C 2/M
;
_chemical_formula_sum "Si O2"
_cell_formula_units_Z 40
_cell_length_a 26.627912
_cell_length_b 9.265417
_cell_length_c 8.994648
_cell_angle_alpha 90.000000
_cell_angle_beta 93.235936
_cell_angle_gamma 90.000000
_cell_volume 2215.609632
_symmetry_space_group_name_H-M "C 2/M"
_symmetry_group_IT_number 12
_symmetry_cell_setting 'monoclinic'
loop_
_space_group_symop_operation_xyz
x,y,z
-x,y,-z
-x,-y,-z
x,-y,z
1/2+x,1/2+y,z
1/2-x,1/2+y,-z
1/2-x,1/2-y,-z
1/2+x,1/2-y,z
loop_
_atom_site_type_symbol
_atom_site_label
_atom_site_fract_x
_atom_site_fract_y
_atom_site_fract_z
Si Si1 0.792269 0.165181 0.813116
Si Si2 0.496214 0.666639 0.322800
Si Si3 0.405576 0.171919 0.157147
Si Si4 0.597158 0.672200 0.159008
Si Si5 0.305244 0.665539 0.176202
O O1 0.847727 0.206963 0.765462
O O2 0.745844 0.267388 0.767463
O O3 0.781133 0.000000 0.768787
O O4 0.798429 0.167605 0.994691
O O5 0.500000 0.676842 0.500000
O O6 0.482780 0.500000 0.281118
O O7 0.453820 0.771586 0.253505
O O8 0.550391 0.696636 0.258974
O O9 0.354410 0.239706 0.215346
O O10 0.402544 0.000000 0.152745
O O11 0.409977 0.236824 0.991681
O O12 0.598668 0.500000 0.122279
O O13 0.312617 0.500000 0.222375
#
# Coordination Sequence:
#
# PCOD9206898 Si02
#       5
#     8   8   8   8   8
#     4   8  14  25  43  70 101 128 156 196 246 293
#     4  10  21  37  55  73  97 132 170 207 250 299
#     4  11  21  32  50  76 104 133 166 206 248 291
#     4   9  18  33  53  76 102 132 166 204 246 295
#     4   9  16  27  45  70 100 131 162 199 244 293
#
# _framework density 18.053720999999999
#
# number of rings (size 3 to 8) (size 9 to 14) (size 15 to 20)
#    0.000    2.600    0.000    4.200    0.000    8.400 
#    0.000    0.000    0.000    1.200    0.000    0.000 
#    0.000    0.000    0.000    0.000    0.000    0.000 
#
# Total GULP energy -111537.005121 kJ/mol
# GULP energy per Si atom -5576.850256 kJ/mol
# Density = 1.801263 g / cm^3
# Si number density = 18.053721 Si / 1000 Ang^3
#
#
#
# Elastic Constant Matrix: (Units=GPa)
#
#
# Indices 1 2 3 4 5 6 
#
# 1 175.5263 103.9520 39.7204 0.0000 -7.5630 0.0000
# 2 103.9520 122.0861 35.7137 0.0000 -8.8966 0.0000
# 3 39.7204 35.7137 21.5650 0.0000 -3.1042 0.0000
# 4 0.0000 0.0000 0.0000 5.0424 0.0000 1.5413
# 5 -7.5630 -8.8966 -3.1042 0.0000 -6.7080 0.0000
# 6 0.0000 0.0000 0.0000 1.5413 0.0000 35.5950
#
#
#
# Elastic Compliance Matrix: (Units=1/GPa)
#
#
# Indices 1 2 3 4 5 6 
#
# 1 0.012620 -0.007609 -0.010536 0.000000 0.000739 0.000000
# 2 -0.007609 0.019994 -0.020324 0.000000 -0.008532 0.000000
# 3 -0.010536 -0.020324 0.098467 0.000000 -0.006733 0.000000
# 4 0.000000 0.000000 0.000000 0.200980 0.000000 -0.008702
# 5 0.000739 -0.008532 -0.006733 0.000000 -0.135478 0.000000
# 6 0.000000 0.000000 0.000000 -0.008702 0.000000 0.028471
#
#
# Mechanical properties :
#
#
# Convention : Reuss Voigt Hill
#
# Bulk Modulus (GPa) = 18.47004 75.32774 46.89889
# Shear Modulus (GPa) = 15.62308 16.10531 15.86420
#
# Velocity S-wave (km/s) = 2.94490 2.99001 2.96754
# Velocity P-wave (km/s) = 4.67077 7.33041 6.14618
#
# Compressibility (1/GPa) = 0.05414174
#
# Stress axis : x y z
#
# Youngs Moduli (GPa) = 79.24156 50.01624 10.15566
#
# Poissons Ratio (x) = 0.38058 0.10700
# Poissons Ratio (y) = 0.60296 0.20640
# Poissons Ratio (z) = 0.83489 1.01654
#
# Static dielectric constant tensor:
#      x y z
#    x 1.636290 0.000000 -0.012080 
#    y 0.000000 1.609650 0.000000 
#    z -0.012080 0.000000 1.589770 
# 
# From -- ./inp_files/92925.got.cif
#   From: 2010.05.17/outbox.cif.g08.bks.cpg/sg12_47_cif.got.tgz:92925.got - 2010.06.03 13:09:07.
