data_PCOD9206754
_publ_section_title
;
Structure prediction by ZEFSAII (Michael W. Deem and Ramdas Pophale) SiO2 
 PCOD9206754
Probable space group: C 2/M
;
_chemical_formula_sum "Si O2"
_cell_formula_units_Z 48
_cell_length_a 9.468359
_cell_length_b 15.707253
_cell_length_c 28.558200
_cell_angle_alpha 90.000000
_cell_angle_beta 38.269626
_cell_angle_gamma 90.000000
_cell_volume 2630.576786
_symmetry_space_group_name_H-M "C 2/M"
_symmetry_group_IT_number 12
_symmetry_cell_setting 'monoclinic'
loop_
_space_group_symop_operation_xyz
x,y,z
-x,y,-z
-x,-y,-z
x,-y,z
1/2+x,1/2+y,z
1/2-x,1/2+y,-z
1/2-x,1/2-y,-z
1/2+x,1/2-y,z
loop_
_atom_site_type_symbol
_atom_site_label
_atom_site_fract_x
_atom_site_fract_y
_atom_site_fract_z
Si Si1 0.889890 0.653328 0.222478
Si Si2 0.746085 0.680427 0.798763
Si Si3 0.876267 0.097913 0.078698
Si Si4 0.115027 0.905164 0.643355
Si Si5 0.248332 0.765795 0.445545
Si Si6 0.866746 0.595681 0.675387
O O1 0.827832 0.732458 0.205770
O O2 0.657738 0.602810 0.290306
O O3 0.003122 0.684717 0.242080
O O4 0.101204 0.602514 0.145007
O O5 0.587889 0.651769 0.883286
O O6 0.752841 0.612100 0.755355
O O7 0.944849 0.000000 0.067992
O O8 0.000000 0.130430 0.000000
O O9 0.219266 0.824810 0.588881
O O10 0.192552 0.897472 0.677297
O O11 0.187519 0.000000 0.608248
O O12 0.250000 0.750000 0.500000
O O13 0.445230 0.830930 0.379589
O O14 0.000000 0.802627 0.500000
O O15 0.963844 0.500000 0.648723
#
# Coordination Sequence:
#
# PCOD9206754 Si02
#       6
#     8   8   8   8   8   8
#     4  10  21  36  62  89 118 159 203 248 297 353
#     4  10  21  36  62  89 120 157 203 251 295 357
#     4   9  20  37  58  89 127 162 201 250 303 359
#     4  11  24  42  65  90 121 160 206 252 305 371
#     4  12  26  43  63  87 123 157 199 255 310 365
#     4  11  24  42  64  92 121 157 207 256 307 363
#
# _framework density 18.246948
#
# number of rings (size 3 to 8) (size 9 to 14) (size 15 to 20)
#    1.000    0.500    3.333    2.000    2.333    2.000 
#    0.000    0.000    0.000    0.000    0.000    7.000 
#    0.000    0.000    0.000    0.000    0.000    0.000 
#
# Total GULP energy -133732.549901 kJ/mol
# GULP energy per Si atom -5572.189579 kJ/mol
# Density = 1.820542 g / cm^3
# Si number density = 18.246948 Si / 1000 Ang^3
#
#
#
# Elastic Constant Matrix: (Units=GPa)
#
#
# Indices 1 2 3 4 5 6 
#
# 1 83.3593 16.4892 14.0041 -0.0005 20.6153 0.0004
# 2 16.4892 101.7018 16.9734 -0.0020 23.2749 0.0016
# 3 14.0041 16.9734 75.2826 -0.0016 22.8442 0.0003
# 4 -0.0005 -0.0020 -0.0016 -7.8707 -0.0008 22.3505
# 5 20.6153 23.2749 22.8442 -0.0008 33.2857 0.0003
# 6 0.0004 0.0016 0.0003 22.3505 0.0003 7.9244
#
#
#
# Elastic Compliance Matrix: (Units=1/GPa)
#
#
# Indices 1 2 3 4 5 6 
#
# 1 0.014176 -0.000345 0.000040 0.000000 -0.008566 0.000000
# 2 -0.000345 0.011717 -0.000197 -0.000001 -0.007844 0.000000
# 3 0.000040 -0.000197 0.016781 0.000000 -0.011404 0.000001
# 4 0.000000 -0.000001 0.000000 -0.014102 0.000000 0.039776
# 5 -0.008566 -0.007844 -0.011404 0.000000 0.048660 0.000000
# 6 0.000000 0.000000 0.000001 0.039776 0.000000 0.014007
#
#
# Mechanical properties :
#
#
# Convention : Reuss Voigt Hill
#
# Bulk Modulus (GPa) = 23.99826 39.47524 31.73675
# Shear Modulus (GPa) = 47.11144 20.85967 33.98555
#
# Velocity S-wave (km/s) = 5.08673 3.38477 4.32039
# Velocity P-wave (km/s) = 6.90509 6.07918 6.50526
#
# Compressibility (1/GPa) = 0.04166969
#
# Stress axis : x y z
#
# Youngs Moduli (GPa) = 70.54049 85.34914 59.59233
#
# Poissons Ratio (x) = 0.02942 -0.00239
# Poissons Ratio (y) = 0.02431 0.01176
# Poissons Ratio (z) = -0.00283 0.01684
#
# Static dielectric constant tensor:
#      x y z
#    x 1.608210 0.000000 -0.000540 
#    y 0.000000 1.644140 0.000000 
#    z -0.000540 0.000000 1.624040 
# 
# From -- ./inp_files/333140.got.cif
#   From: 2010.05.17/outbox.cif.g08.bks.cpg/sg12_167_cif.got.tgz:333140.got - 2010.06.03 13:09:07.
