data_PCOD9206789
_publ_section_title
;
Structure prediction by ZEFSAII (Michael W. Deem and Ramdas Pophale) SiO2 
 PCOD9206789
Probable space group: C 2/M
;
_chemical_formula_sum "Si O2"
_cell_formula_units_Z 64
_cell_length_a 16.251799
_cell_length_b 14.361920
_cell_length_c 24.118680
_cell_angle_alpha 90.000000
_cell_angle_beta 31.544576
_cell_angle_gamma 90.000000
_cell_volume 2945.123237
_symmetry_space_group_name_H-M "C 2/M"
_symmetry_group_IT_number 12
_symmetry_cell_setting 'monoclinic'
loop_
_space_group_symop_operation_xyz
x,y,z
-x,y,-z
-x,-y,-z
x,-y,z
1/2+x,1/2+y,z
1/2-x,1/2+y,-z
1/2-x,1/2-y,-z
1/2+x,1/2-y,z
loop_
_atom_site_type_symbol
_atom_site_label
_atom_site_fract_x
_atom_site_fract_y
_atom_site_fract_z
Si Si1 0.658194 0.702543 0.618823
Si Si2 0.073645 0.699482 0.828003
Si Si3 0.970865 0.894137 0.197185
Si Si4 0.682833 0.103803 0.955252
Si Si5 0.466395 0.108103 0.456161
Si Si6 0.312514 0.305802 0.773195
Si Si7 0.090379 0.604085 0.702092
Si Si8 0.693594 0.899057 0.222893
O O1 0.610422 0.638540 0.699066
O O2 0.824676 0.660641 0.506428
O O3 0.501228 0.697609 0.671382
O O4 0.686328 0.808559 0.622401
O O5 0.244825 0.670342 0.752140
O O6 0.037781 0.642878 0.792345
O O7 0.067850 0.809663 0.820902
O O8 0.944968 0.672889 0.947284
O O9 0.158169 0.891970 0.099742
O O10 0.925308 0.000000 0.209403
O O11 0.741608 0.126802 0.860046
O O12 0.616997 0.000000 0.995781
O O13 0.500000 0.142982 0.500000
O O14 0.613251 0.109740 0.329947
O O15 0.420691 0.000000 0.488551
O O16 0.239737 0.203057 0.827531
O O17 0.160247 0.500000 0.665909
O O18 0.943815 0.596132 0.744455
O O19 0.777694 0.000000 0.171827
#
# Coordination Sequence:
#
# PCOD9206789 Si02
#       8
#     8   8   8   8   8   8   8   8
#     4   9  19  37  58  82 115 148 187 240 287 339
#     4  11  21  34  58  86 115 157 199 240 279 342
#     4   9  19  34  56  84 114 148 189 245 299 335
#     4  10  21  39  58  80 113 154 204 249 281 325
#     4  10  21  36  63  94 113 142 192 241 293 349
#     4  10  22  36  56  85 116 153 189 235 295 338
#     4   9  19  35  55  79 111 156 196 224 275 340
#     4   9  20  39  60  84 115 148 185 234 292 351
#
# _framework density 21.730837999999999
#
# number of rings (size 3 to 8) (size 9 to 14) (size 15 to 20)
#    0.000    2.375    0.000    2.250    3.500    4.500 
#    0.000    1.875    0.000    2.625    0.000    0.000 
#    0.000    0.000    0.000    0.000    0.000    0.000 
#
# Total GULP energy -178485.521495 kJ/mol
# GULP energy per Si atom -5577.672547 kJ/mol
# Density = 2.168138 g / cm^3
# Si number density = 21.730838 Si / 1000 Ang^3
#
#
#
# Elastic Constant Matrix: (Units=GPa)
#
#
# Indices 1 2 3 4 5 6 
#
# 1 107.0739 39.8177 21.6901 -0.0001 8.1453 0.0002
# 2 39.8177 114.5066 31.9306 0.0003 -4.8616 0.0000
# 3 21.6901 31.9306 44.9434 0.0013 -5.3885 0.0002
# 4 -0.0001 0.0003 0.0013 23.5488 0.0006 0.1812
# 5 8.1453 -4.8616 -5.3885 0.0006 17.6497 -0.0003
# 6 0.0002 0.0000 0.0002 0.1812 -0.0003 14.4580
#
#
#
# Elastic Compliance Matrix: (Units=1/GPa)
#
#
# Indices 1 2 3 4 5 6 
#
# 1 0.012052 -0.003292 -0.004415 0.000001 -0.007817 0.000000
# 2 -0.003292 0.011797 -0.006458 0.000000 0.002797 0.000000
# 3 -0.004415 -0.006458 0.030102 -0.000002 0.009449 0.000000
# 4 0.000001 0.000000 -0.000002 0.042469 -0.000002 -0.000532
# 5 -0.007817 0.002797 0.009449 -0.000002 0.063921 0.000001
# 6 0.000000 0.000000 0.000000 -0.000532 0.000001 0.069172
#
#
# Mechanical properties :
#
#
# Convention : Reuss Voigt Hill
#
# Bulk Modulus (GPa) = 39.02809 50.37787 44.70298
# Shear Modulus (GPa) = 18.76992 22.67032 20.72012
#
# Velocity S-wave (km/s) = 2.94214 3.23342 3.09121
# Velocity P-wave (km/s) = 5.43511 6.09696 5.77552
#
# Compressibility (1/GPa) = 0.02562257
#
# Stress axis : x y z
#
# Youngs Moduli (GPa) = 82.97044 84.76572 33.22069
#
# Poissons Ratio (x) = 0.27903 0.14668
# Poissons Ratio (y) = 0.27312 0.21452
# Poissons Ratio (z) = 0.36633 0.54737
#
# Static dielectric constant tensor:
#      x y z
#    x 1.850380 0.000000 0.003300 
#    y 0.000000 1.814200 0.000000 
#    z 0.003300 0.000000 1.781990 
# 
# From -- ./inp_files/344049.got.cif
#   From: 2010.05.17/outbox.cif.g08.bks.cpg/sg12_173_cif.got.tgz:344049.got - 2010.06.03 13:09:07.
