data_PCOD9206691
_publ_section_title
;
Structure prediction by ZEFSAII (Michael W. Deem and Ramdas Pophale) SiO2 
 PCOD9206691
Probable space group: C 2/M
;
_chemical_formula_sum "Si O2"
_cell_formula_units_Z 40
_cell_length_a 17.021728
_cell_length_b 25.963625
_cell_length_c 8.832804
_cell_angle_alpha 90.000000
_cell_angle_beta 34.990514
_cell_angle_gamma 90.000000
_cell_volume 2238.495179
_symmetry_space_group_name_H-M "C 2/M"
_symmetry_group_IT_number 12
_symmetry_cell_setting 'monoclinic'
loop_
_space_group_symop_operation_xyz
x,y,z
-x,y,-z
-x,-y,-z
x,-y,z
1/2+x,1/2+y,z
1/2-x,1/2+y,-z
1/2-x,1/2-y,-z
1/2+x,1/2-y,z
loop_
_atom_site_type_symbol
_atom_site_label
_atom_site_fract_x
_atom_site_fract_y
_atom_site_fract_z
Si Si1 0.353664 0.860592 0.421293
Si Si2 0.615951 0.297281 0.941001
Si Si3 0.844508 0.324950 0.096717
Si Si4 0.155709 0.438929 0.313800
Si Si5 0.869655 0.132399 0.797780
O O1 0.259842 0.820199 0.658223
O O2 0.320449 0.852132 0.297164
O O3 0.330139 0.915078 0.539866
O O4 0.512674 0.847376 0.188820
O O5 0.632110 0.236024 0.924973
O O6 0.500000 0.308962 0.000000
O O7 0.582862 0.327036 0.148422
O O8 0.723706 0.336940 0.173541
O O9 0.176108 0.500000 0.279296
O O10 0.000000 0.428570 0.500000
O O11 0.270339 0.409898 0.031964
O O12 0.000000 0.111199 0.500000
#
# Coordination Sequence:
#
# PCOD9206691 Si02
#       5
#     8   8   8   8   8
#     4  10  21  36  61  83 119 156 199 243 282 359
#     4  11  22  36  57  85 124 167 192 233 292 351
#     4  11  21  37  56  88 123 159 196 237 290 346
#     4  10  21  42  64  84 114 155 199 250 304 346
#     4  11  24  38  60  89 121 155 201 246 289 351
#
# _framework density 17.869147999999999
#
# number of rings (size 3 to 8) (size 9 to 14) (size 15 to 20)
#    0.000    1.400    4.000    2.400    2.800    0.400 
#    0.000    3.000    0.000   20.400    0.000    0.000 
#    0.000    0.000    0.000    0.000    0.000    0.000 
#
# Total GULP energy -111608.875442 kJ/mol
# GULP energy per Si atom -5580.443772 kJ/mol
# Density = 1.782848 g / cm^3
# Si number density = 17.869148 Si / 1000 Ang^3
#
#
#
# Elastic Constant Matrix: (Units=GPa)
#
#
# Indices 1 2 3 4 5 6 
#
# 1 110.2319 61.6635 41.5312 0.0000 3.6030 0.0000
# 2 61.6635 102.2117 45.7205 0.0000 17.3243 0.0000
# 3 41.5312 45.7205 124.9393 0.0000 14.6645 0.0000
# 4 0.0000 0.0000 0.0000 16.0399 0.0000 -18.3484
# 5 3.6030 17.3243 14.6645 0.0000 12.5221 0.0000
# 6 0.0000 0.0000 0.0000 -18.3484 0.0000 35.9573
#
#
#
# Elastic Compliance Matrix: (Units=1/GPa)
#
#
# Indices 1 2 3 4 5 6 
#
# 1 0.015491 -0.010266 -0.002941 0.000000 0.013190 0.000000
# 2 -0.010266 0.020645 -0.001318 0.000000 -0.024066 0.000000
# 3 -0.002941 -0.001318 0.010609 0.000000 -0.009754 0.000000
# 4 0.000000 0.000000 0.000000 0.149766 0.000000 0.076423
# 5 0.013190 -0.024066 -0.009754 0.000000 0.120782 0.000000
# 6 0.000000 0.000000 0.000000 0.076423 0.000000 0.066808
#
#
# Mechanical properties :
#
#
# Convention : Reuss Voigt Hill
#
# Bulk Modulus (GPa) = 56.50942 70.57925 63.54433
# Shear Modulus (GPa) = 11.93177 25.46839 18.70008
#
# Velocity S-wave (km/s) = 2.58685 3.77937 3.23848
# Velocity P-wave (km/s) = 6.37299 7.65692 7.04427
#
# Compressibility (1/GPa) = 0.01769617
#
# Stress axis : x y z
#
# Youngs Moduli (GPa) = 64.55187 48.43681 94.26305
#
# Poissons Ratio (x) = 0.49725 0.27722
# Poissons Ratio (y) = 0.66268 0.12423
# Poissons Ratio (z) = 0.18984 0.06383
#
# Static dielectric constant tensor:
#      x y z
#    x 1.613780 0.000000 0.013490 
#    y 0.000000 1.573970 0.000000 
#    z 0.013490 0.000000 1.628780 
# 
# From -- ./inp_files/41903.got.cif
#   From: 2010.05.17/outbox.cif.g08.bks.cpg/sg12_21_cif.got.tgz:41903.got - 2010.06.03 13:09:07.
