data_PCOD9206164
_publ_section_title
;
Structure prediction by ZEFSAII (Michael W. Deem and Ramdas Pophale) SiO2 
 PCOD9206164
Probable space group: C 2/M
;
_chemical_formula_sum "Si O2"
_cell_formula_units_Z 56
_cell_length_a 26.687225
_cell_length_b 7.528722
_cell_length_c 13.213845
_cell_angle_alpha 90.000000
_cell_angle_beta 67.933316
_cell_angle_gamma 90.000000
_cell_volume 2460.453644
_symmetry_space_group_name_H-M "C 2/M"
_symmetry_group_IT_number 12
_symmetry_cell_setting 'monoclinic'
loop_
_space_group_symop_operation_xyz
x,y,z
-x,y,-z
-x,-y,-z
x,-y,z
1/2+x,1/2+y,z
1/2-x,1/2+y,-z
1/2-x,1/2-y,-z
1/2+x,1/2-y,z
loop_
_atom_site_type_symbol
_atom_site_label
_atom_site_fract_x
_atom_site_fract_y
_atom_site_fract_z
Si Si1 0.106339 0.715376 0.513527
Si Si2 0.660656 0.206163 0.838102
Si Si3 0.123926 0.296893 0.279958
Si Si4 0.461648 0.715143 0.121916
Si Si5 0.695738 0.213047 0.602302
Si Si6 0.813236 0.713124 0.961003
Si Si7 0.505757 0.708583 0.305619
O O1 0.107540 0.500000 0.510893
O O2 0.127818 0.782550 0.389166
O O3 0.144680 0.778352 0.575508
O O4 0.044762 0.768127 0.581283
O O5 0.598450 0.215996 0.851324
O O6 0.694170 0.283730 0.718246
O O7 0.667130 0.284528 0.945104
O O8 0.677130 0.000000 0.835143
O O9 0.143546 0.500000 0.274610
O O10 0.060530 0.297632 0.300727
O O11 0.155736 0.215084 0.161221
O O12 0.458733 0.500000 0.126244
O O13 0.486054 0.774506 0.210559
O O14 0.500000 0.767700 0.000000
O O15 0.750000 0.250000 0.500000
O O16 0.689852 0.000000 0.613724
O O17 0.823069 0.500000 0.953710
O O18 0.750000 0.750000 0.000000
O O19 0.517952 0.500000 0.287327
#
# Coordination Sequence:
#
# PCOD9206164 Si02
#       7
#     8   8   8   8   8   8   8
#     4  10  21  39  60  83 115 154 191 229 280 341
#     4  10  21  39  60  85 114 146 189 236 280 332
#     4  10  22  39  59  83 114 154 194 230 277 342
#     4  10  21  36  56  84 117 151 187 229 281 338
#     4  10  22  38  59  86 115 148 190 236 284 336
#     4  10  23  41  61  86 114 149 193 236 283 336
#     4  11  22  36  57  88 119 148 188 236 286 336
#
# _framework density 22.760031000000001
#
# number of rings (size 3 to 8) (size 9 to 14) (size 15 to 20)
#    0.000    1.857    1.429    1.714    2.000    5.429 
#    0.000    0.000    0.000    0.000    0.000    0.000 
#    0.000    0.000    0.000    0.000    0.000    0.000 
#
# Total GULP energy -156536.919291 kJ/mol
# GULP energy per Si atom -5590.604260 kJ/mol
# Density = 2.270823 g / cm^3
# Si number density = 22.760031 Si / 1000 Ang^3
#
#
#
# Elastic Constant Matrix: (Units=GPa)
#
#
# Indices 1 2 3 4 5 6 
#
# 1 32.4571 -12.0683 18.8227 0.0000 -4.6988 0.0000
# 2 -12.0683 62.0854 8.0607 0.0000 7.5372 0.0000
# 3 18.8227 8.0607 204.5464 0.0000 -0.8560 0.0000
# 4 0.0000 0.0000 0.0000 10.7548 0.0000 -9.4180
# 5 -4.6988 7.5372 -0.8560 0.0000 45.2496 0.0000
# 6 0.0000 0.0000 0.0000 -9.4180 0.0000 20.0979
#
#
#
# Elastic Compliance Matrix: (Units=1/GPa)
#
#
# Indices 1 2 3 4 5 6 
#
# 1 0.035896 0.007142 -0.003574 0.000000 0.002470 0.000000
# 2 0.007142 0.017950 -0.001374 0.000000 -0.002274 0.000000
# 3 -0.003574 -0.001374 0.005272 0.000000 -0.000043 0.000000
# 4 0.000000 0.000000 0.000000 0.157692 0.000000 0.073895
# 5 0.002470 -0.002274 -0.000043 0.000000 0.022734 0.000000
# 6 0.000000 0.000000 0.000000 0.073895 0.000000 0.084384
#
#
# Mechanical properties :
#
#
# Convention : Reuss Voigt Hill
#
# Bulk Modulus (GPa) = 15.74709 36.52433 26.13571
# Shear Modulus (GPa) = 14.67529 34.17204 24.42366
#
# Velocity S-wave (km/s) = 2.54201 3.87900 3.27937
# Velocity P-wave (km/s) = 3.94329 6.01204 5.08400
#
# Compressibility (1/GPa) = 0.06350379
#
# Stress axis : x y z
#
# Youngs Moduli (GPa) = 27.85838 55.71169 189.69033
#
# Poissons Ratio (x) = -0.39787 0.67801
# Poissons Ratio (y) = -0.19896 0.26064
# Poissons Ratio (z) = 0.09957 0.07655
#
# Static dielectric constant tensor:
#      x y z
#    x 1.769240 0.000000 0.023070 
#    y 0.000000 2.044780 0.000000 
#    z 0.023070 0.000000 1.908610 
# 
# From -- ./inp_files/180764.got.cif
#   From: 2010.05.17/outbox.cif.g08.bks.cpg/sg12_91_cif.got.tgz:180764.got - 2010.06.03 13:09:07.
