data_PCOD9206294
_publ_section_title
;
Structure prediction by ZEFSAII (Michael W. Deem and Ramdas Pophale) SiO2 
 PCOD9206294
Probable space group: C 2/M
;
_chemical_formula_sum "Si O2"
_cell_formula_units_Z 32
_cell_length_a 21.320039
_cell_length_b 11.254057
_cell_length_c 8.554175
_cell_angle_alpha 90.000000
_cell_angle_beta 52.933992
_cell_angle_gamma 90.000000
_cell_volume 1637.745343
_symmetry_space_group_name_H-M "C 2/M"
_symmetry_group_IT_number 12
_symmetry_cell_setting 'monoclinic'
loop_
_space_group_symop_operation_xyz
x,y,z
-x,y,-z
-x,-y,-z
x,-y,z
1/2+x,1/2+y,z
1/2-x,1/2+y,-z
1/2-x,1/2-y,-z
1/2+x,1/2-y,z
loop_
_atom_site_type_symbol
_atom_site_label
_atom_site_fract_x
_atom_site_fract_y
_atom_site_fract_z
Si Si1 0.407044 0.372396 0.121142
Si Si2 0.307832 0.301529 0.546582
Si Si3 0.910771 0.637097 0.608954
Si Si4 0.657070 0.867650 0.943073
O O1 0.385311 0.500000 0.075573
O O2 0.367909 0.374490 0.350953
O O3 0.380497 0.250544 0.077220
O O4 0.500000 0.367898 0.000000
O O5 0.250000 0.250000 0.500000
O O6 0.360119 0.205591 0.557704
O O7 0.249122 0.361196 0.759122
O O8 0.919054 0.500000 0.546844
O O9 0.000000 0.683720 0.500000
O O10 0.864039 0.640137 0.842847
O O11 0.628630 0.000000 0.932140
#
# Coordination Sequence:
#
# PCOD9206294 Si02
#       4
#     8   8   8   8
#     4  10  21  37  57  84 119 157 196 240 293 351
#     4  10  21  36  57  85 118 155 193 237 289 347
#     4  10  21  38  61  89 120 155 197 246 298 350
#     4  10  21  37  59  87 116 151 197 244 293 349
#
# _framework density 19.539058000000001
#
# number of rings (size 3 to 8) (size 9 to 14) (size 15 to 20)
#    0.000    2.000    0.000    3.000    0.000    8.500 
#    0.000    2.500    0.000    6.750    0.000    0.000 
#    0.000    0.000    0.000    0.000    0.000    0.000 
#
# Total GULP energy -89091.516038 kJ/mol
# GULP energy per Si atom -5568.219752 kJ/mol
# Density = 1.949459 g / cm^3
# Si number density = 19.539058 Si / 1000 Ang^3
#
#
#
# Elastic Constant Matrix: (Units=GPa)
#
#
# Indices 1 2 3 4 5 6 
#
# 1 105.0280 71.7625 47.0460 0.0000 -8.0146 0.0000
# 2 71.7625 172.0226 22.9172 0.0000 4.9439 0.0000
# 3 47.0460 22.9172 114.4611 0.0000 -21.3640 0.0000
# 4 0.0000 0.0000 0.0000 -103.0491 0.0000 127.0126
# 5 -8.0146 4.9439 -21.3640 0.0000 27.5555 0.0000
# 6 0.0000 0.0000 0.0000 127.0126 0.0000 -83.2465
#
#
#
# Elastic Compliance Matrix: (Units=1/GPa)
#
#
# Indices 1 2 3 4 5 6 
#
# 1 0.016085 -0.006092 -0.005044 0.000000 0.001860 0.000000
# 2 -0.006092 0.008411 0.000242 0.000000 -0.003093 0.000000
# 3 -0.005044 0.000242 0.012252 0.000000 0.007989 0.000000
# 4 0.000000 0.000000 0.000000 0.011021 0.000000 0.016815
# 5 0.001860 -0.003093 0.007989 0.000000 0.043580 0.000000
# 6 0.000000 0.000000 0.000000 0.016815 0.000000 0.013642
#
#
# Mechanical properties :
#
#
# Convention : Reuss Voigt Hill
#
# Bulk Modulus (GPa) = 66.83851 74.99590 70.91721
# Shear Modulus (GPa) = 37.94616 -15.09561 11.42527
#
# Velocity S-wave (km/s) = 4.41167 -2.78256 2.42076
# Velocity P-wave (km/s) = 7.76095 5.30494 6.64736
#
# Compressibility (1/GPa) = 0.01496143
#
# Stress axis : x y z
#
# Youngs Moduli (GPa) = 62.16960 118.89177 81.61600
#
# Poissons Ratio (x) = 0.72424 0.41170
# Poissons Ratio (y) = 0.37871 -0.01979
# Poissons Ratio (z) = 0.31361 -0.02883
#
# Static dielectric constant tensor:
#      x y z
#    x 1.600110 0.000000 -0.008000 
#    y 0.000000 1.739980 0.000000 
#    z -0.008000 0.000000 1.702420 
# 
# From -- ./inp_files/70372.got.cif
#   From: 2010.05.17/outbox.cif.g08.bks.cpg/sg12_36_cif.got.tgz:70372.got - 2010.06.03 13:09:07.
