data_PCOD9206158
_publ_section_title
;
Structure prediction by ZEFSAII (Michael W. Deem and Ramdas Pophale) SiO2 
 PCOD9206158
Probable space group: C 2/M
;
_chemical_formula_sum "Si O2"
_cell_formula_units_Z 64
_cell_length_a 20.874757
_cell_length_b 8.926103
_cell_length_c 20.346160
_cell_angle_alpha 90.000000
_cell_angle_beta 59.947322
_cell_angle_gamma 90.000000
_cell_volume 3281.448807
_symmetry_space_group_name_H-M "C 2/M"
_symmetry_group_IT_number 12
_symmetry_cell_setting 'monoclinic'
loop_
_space_group_symop_operation_xyz
x,y,z
-x,y,-z
-x,-y,-z
x,-y,z
1/2+x,1/2+y,z
1/2-x,1/2+y,-z
1/2-x,1/2-y,-z
1/2+x,1/2-y,z
loop_
_atom_site_type_symbol
_atom_site_label
_atom_site_fract_x
_atom_site_fract_y
_atom_site_fract_z
Si Si1 0.831349 0.175055 0.070537
Si Si2 0.410481 0.179922 0.344203
Si Si3 0.069775 0.177398 0.239345
Si Si4 0.406197 0.822153 0.907521
Si Si5 0.267529 0.178639 0.328704
Si Si6 0.796325 0.677994 0.767256
Si Si7 0.051566 0.334246 0.908992
Si Si8 0.820684 0.178840 0.499728
O O1 0.751913 0.207750 0.142261
O O2 0.887797 0.215893 0.100813
O O3 0.837233 0.000000 0.051350
O O4 0.855728 0.269481 0.994480
O O5 0.489612 0.245762 0.284817
O O6 0.344287 0.221433 0.326641
O O7 0.388153 0.244207 0.427338
O O8 0.412610 0.000000 0.344822
O O9 0.104891 0.228195 0.151983
O O10 0.125727 0.238846 0.265718
O O11 0.062586 0.000000 0.246923
O O12 0.492431 0.797395 0.883683
O O13 0.396292 0.000000 0.901855
O O14 0.250193 0.263929 0.270904
O O15 0.198927 0.206002 0.414133
O O16 0.271559 0.000000 0.314993
O O17 0.807188 0.500000 0.757130
O O18 0.084358 0.500000 0.879521
O O19 0.000000 0.346795 0.000000
O O20 0.750000 0.250000 0.500000
O O21 0.823114 0.000000 0.488512
#
# Coordination Sequence:
#
# PCOD9206158 Si02
#       8
#     8   8   8   8   8   8   8   8
#     4  10  21  36  56  84 114 150 197 249 299 352
#     4  10  21  39  64  94 126 160 197 244 298 357
#     4  12  26  42  61  85 118 159 202 251 303 358
#     4  10  21  38  59  83 113 153 197 245 301 360
#     4   9  20  38  63  93 124 159 197 239 292 351
#     4  11  25  42  59  84 121 160 201 250 301 355
#     4   8  16  31  52  79 109 143 181 230 291 348
#     4   9  17  33  59  93 127 159 198 245 293 349
#
# _framework density 19.503579999999999
#
# number of rings (size 3 to 8) (size 9 to 14) (size 15 to 20)
#    0.000    2.125    0.000    4.500    1.750    8.250 
#    0.000    0.625    0.000    3.750    0.000    0.000 
#    0.000    0.000    0.000    0.000    0.000    0.000 
#
# Total GULP energy -178568.474820 kJ/mol
# GULP energy per Si atom -5580.264838 kJ/mol
# Density = 1.945919 g / cm^3
# Si number density = 19.503580 Si / 1000 Ang^3
#
#
#
# Elastic Constant Matrix: (Units=GPa)
#
#
# Indices 1 2 3 4 5 6 
#
# 1 77.6948 44.1884 37.9074 -0.0001 -14.1559 0.0001
# 2 44.1884 77.0440 57.0047 -0.0001 -13.9264 0.0005
# 3 37.9074 57.0047 94.8795 0.0000 -6.4099 -0.0001
# 4 -0.0001 -0.0001 0.0000 25.8697 0.0000 1.1209
# 5 -14.1559 -13.9264 -6.4099 0.0000 8.3546 0.0000
# 6 0.0001 0.0005 -0.0001 1.1209 0.0000 26.0752
#
#
#
# Elastic Compliance Matrix: (Units=1/GPa)
#
#
# Indices 1 2 3 4 5 6 
#
# 1 0.022678 -0.005042 -0.004222 0.000000 0.026781 0.000000
# 2 -0.005042 0.034476 -0.016235 0.000000 0.036469 -0.000001
# 3 -0.004222 -0.016235 0.020745 0.000000 -0.018301 0.000000
# 4 0.000000 0.000000 0.000000 0.038727 0.000001 -0.001665
# 5 0.026781 0.036469 -0.018301 0.000001 0.211823 -0.000001
# 6 0.000000 -0.000001 0.000000 -0.001665 -0.000001 0.038422
#
#
# Mechanical properties :
#
#
# Convention : Reuss Voigt Hill
#
# Bulk Modulus (GPa) = 37.17504 58.64659 47.91081
# Shear Modulus (GPa) = 11.71408 19.42775 15.57091
#
# Velocity S-wave (km/s) = 2.45340 3.15955 2.82860
# Velocity P-wave (km/s) = 5.20841 6.59130 5.94024
#
# Compressibility (1/GPa) = 0.02689977
#
# Stress axis : x y z
#
# Youngs Moduli (GPa) = 44.09578 29.00549 48.20550
#
# Poissons Ratio (x) = 0.14625 0.20352
# Poissons Ratio (y) = 0.22234 0.78264
# Poissons Ratio (z) = 0.18617 0.47092
#
# Static dielectric constant tensor:
#      x y z
#    x 1.699980 0.000000 0.008880 
#    y 0.000000 1.648120 0.000000 
#    z 0.008880 0.000000 1.704060 
# 
# From -- ./inp_files/319931.got.cif
#   From: 2010.05.17/outbox.cif.g08.bks.cpg/sg12_160_cif.got.tgz:319931.got - 2010.06.03 13:09:07.
