data_PCOD9206552
_publ_section_title
;
Structure prediction by ZEFSAII (Michael W. Deem and Ramdas Pophale) SiO2 
 PCOD9206552
Probable space group: C 2/M
;
_chemical_formula_sum "Si O2"
_cell_formula_units_Z 48
_cell_length_a 27.005175
_cell_length_b 8.871355
_cell_length_c 10.785996
_cell_angle_alpha 90.000000
_cell_angle_beta 119.552578
_cell_angle_gamma 90.000000
_cell_volume 2247.854848
_symmetry_space_group_name_H-M "C 2/M"
_symmetry_group_IT_number 12
_symmetry_cell_setting 'monoclinic'
loop_
_space_group_symop_operation_xyz
x,y,z
-x,y,-z
-x,-y,-z
x,-y,z
1/2+x,1/2+y,z
1/2-x,1/2+y,-z
1/2-x,1/2-y,-z
1/2+x,1/2-y,z
loop_
_atom_site_type_symbol
_atom_site_label
_atom_site_fract_x
_atom_site_fract_y
_atom_site_fract_z
Si Si1 0.311490 0.824562 0.581771
Si Si2 0.121469 0.675657 0.596534
Si Si3 0.586180 0.822532 0.913234
Si Si4 0.414528 0.325912 0.837975
Si Si5 0.017316 0.175739 0.337475
Si Si6 0.812342 0.820267 0.092297
O O1 0.250000 0.750000 0.500000
O O2 0.341542 0.819191 0.484337
O O3 0.352084 0.731664 0.723300
O O4 0.308274 0.000000 0.615673
O O5 0.113491 0.500000 0.620224
O O6 0.061270 0.752885 0.489065
O O7 0.157161 0.760693 0.745360
O O8 0.540875 0.764948 0.756081
O O9 0.645532 0.738168 0.962860
O O10 0.593574 0.000000 0.913721
O O11 0.564984 0.775047 0.023067
O O12 0.415096 0.500000 0.878529
O O13 0.450980 0.315107 0.757248
O O14 0.006596 0.000000 0.351146
O O15 0.808981 0.000000 0.088227
O O16 0.750000 0.750000 0.000000
#
# Coordination Sequence:
#
# PCOD9206552 Si02
#       6
#     8   8   8   8   8   8
#     4  10  21  36  59  89 124 164 208 255 310 372
#     4  10  22  42  65  92 126 164 208 261 314 369
#     4  12  25  41  64  94 128 169 213 259 315 376
#     4  10  21  38  61  92 130 166 207 258 314 373
#     4  10  21  40  66  97 130 166 209 259 316 374
#     4  12  27  47  68  91 124 166 213 262 314 374
#
# _framework density 21.353694000000001
#
# number of rings (size 3 to 8) (size 9 to 14) (size 15 to 20)
#    0.000    1.333    0.000    5.500    2.333    6.667 
#    0.000    3.333    0.000    0.000    0.000    0.000 
#    0.000    0.000    0.000    0.000    0.000    0.000 
#
# Total GULP energy -134367.658822 kJ/mol
# GULP energy per Si atom -5598.652451 kJ/mol
# Density = 2.130509 g / cm^3
# Si number density = 21.353694 Si / 1000 Ang^3
#
#
#
# Elastic Constant Matrix: (Units=GPa)
#
#
# Indices 1 2 3 4 5 6 
#
# 1 62.3999 37.6619 33.9584 0.0000 19.8367 0.0000
# 2 37.6619 180.7907 54.4025 0.0000 10.2204 0.0000
# 3 33.9584 54.4025 120.3573 0.0000 10.9128 0.0000
# 4 0.0000 0.0000 0.0000 41.3436 0.0000 4.8012
# 5 19.8367 10.2204 10.9128 0.0000 41.4410 0.0000
# 6 0.0000 0.0000 0.0000 4.8012 0.0000 27.6699
#
#
#
# Elastic Compliance Matrix: (Units=1/GPa)
#
#
# Indices 1 2 3 4 5 6 
#
# 1 0.023109 -0.002990 -0.004336 0.000000 -0.009182 0.000000
# 2 -0.002990 0.006817 -0.002269 0.000000 0.000348 0.000000
# 3 -0.004336 -0.002269 0.010571 0.000000 -0.000149 0.000000
# 4 0.000000 0.000000 0.000000 0.024685 0.000000 -0.004283
# 5 -0.009182 0.000348 -0.000149 0.000000 0.028479 0.000000
# 6 0.000000 0.000000 0.000000 -0.004283 0.000000 0.036884
#
#
# Mechanical properties :
#
#
# Convention : Reuss Voigt Hill
#
# Bulk Modulus (GPa) = 46.93365 68.39929 57.66647
# Shear Modulus (GPa) = 31.87980 37.92592 34.90286
#
# Velocity S-wave (km/s) = 3.86805 4.21893 4.04730
# Velocity P-wave (km/s) = 6.47889 7.47219 6.99320
#
# Compressibility (1/GPa) = 0.02130667
#
# Stress axis : x y z
#
# Youngs Moduli (GPa) = 43.27286 146.68352 94.59637
#
# Poissons Ratio (x) = 0.43861 0.41017
# Poissons Ratio (y) = 0.12939 0.21467
# Poissons Ratio (z) = 0.18763 0.33288
#
# Static dielectric constant tensor:
#      x y z
#    x 1.799650 0.000000 -0.043700 
#    y 0.000000 1.710460 0.000000 
#    z -0.043700 0.000000 1.772360 
# 
# From -- ./inp_files/180268.got.cif
#   From: 2010.05.17/outbox.cif.g08.bks.cpg/sg12_91_cif.got.tgz:180268.got - 2010.06.03 13:09:07.
