data_PCOD9206413
_publ_section_title
;
Structure prediction by ZEFSAII (Michael W. Deem and Ramdas Pophale) SiO2 
 PCOD9206413
Probable space group: C 2/M
;
_chemical_formula_sum "Si O2"
_cell_formula_units_Z 48
_cell_length_a 22.415726
_cell_length_b 7.717361
_cell_length_c 12.673967
_cell_angle_alpha 90.000000
_cell_angle_beta 106.720701
_cell_angle_gamma 90.000000
_cell_volume 2099.771918
_symmetry_space_group_name_H-M "C 2/M"
_symmetry_group_IT_number 12
_symmetry_cell_setting 'monoclinic'
loop_
_space_group_symop_operation_xyz
x,y,z
-x,y,-z
-x,-y,-z
x,-y,z
1/2+x,1/2+y,z
1/2-x,1/2+y,-z
1/2-x,1/2-y,-z
1/2+x,1/2-y,z
loop_
_atom_site_type_symbol
_atom_site_label
_atom_site_fract_x
_atom_site_fract_y
_atom_site_fract_z
Si Si1 0.252876 0.295313 0.338023
Si Si2 0.284532 0.794226 0.125795
Si Si3 0.523879 0.199404 0.120694
Si Si4 0.391649 0.291858 0.446627
Si Si5 0.379115 0.209203 0.668192
Si Si6 0.073800 0.201827 0.759726
O O1 0.255358 0.500000 0.362280
O O2 0.247145 0.271650 0.209226
O O3 0.320568 0.221817 0.401874
O O4 0.191771 0.223318 0.363747
O O5 0.353725 0.714837 0.169621
O O6 0.291069 0.000000 0.137450
O O7 0.250000 0.750000 0.000000
O O8 0.582611 0.276965 0.212160
O O9 0.468817 0.202129 0.178267
O O10 0.540993 0.000000 0.104143
O O11 0.500000 0.281254 0.000000
O O12 0.389734 0.500000 0.433716
O O13 0.412371 0.253040 0.575227
O O14 0.428344 0.229973 0.362001
O O15 0.377273 0.000000 0.674050
O O16 0.055025 0.000000 0.751712
#
# Coordination Sequence:
#
# PCOD9206413 Si02
#       6
#     8   8   8   8   8   8
#     4   9  19  36  56  85 121 154 191 240 293 350
#     4  11  22  36  58  87 117 154 195 240 291 349
#     4  10  23  41  59  84 116 156 200 244 297 349
#     4   9  19  36  58  85 118 150 191 246 299 350
#     4  10  21  36  58  86 118 156 198 241 290 352
#     4  10  22  41  61  85 116 152 196 246 295 346
#
# _framework density 22.859625999999999
#
# number of rings (size 3 to 8) (size 9 to 14) (size 15 to 20)
#    0.000    2.167    0.000    3.500    2.333    5.667 
#    0.000    3.333    0.000    0.000    0.000    0.000 
#    0.000    0.000    0.000    0.000    0.000    0.000 
#
# Total GULP energy -134081.113848 kJ/mol
# GULP energy per Si atom -5586.713077 kJ/mol
# Density = 2.280760 g / cm^3
# Si number density = 22.859626 Si / 1000 Ang^3
#
#
#
# Elastic Constant Matrix: (Units=GPa)
#
#
# Indices 1 2 3 4 5 6 
#
# 1 66.9360 -3.7013 15.7917 0.0000 -15.5069 0.0000
# 2 -3.7013 51.9645 -10.0741 0.0000 5.2963 0.0000
# 3 15.7917 -10.0741 127.2026 0.0000 -8.8879 0.0000
# 4 0.0000 0.0000 0.0000 24.3537 0.0000 -3.8650
# 5 -15.5069 5.2963 -8.8879 0.0000 21.1013 0.0000
# 6 0.0000 0.0000 0.0000 -3.8650 0.0000 12.3510
#
#
#
# Elastic Compliance Matrix: (Units=1/GPa)
#
#
# Indices 1 2 3 4 5 6 
#
# 1 0.018237 -0.000283 -0.001386 0.000000 0.012889 0.000000
# 2 -0.000283 0.019950 0.001289 0.000000 -0.004673 0.000000
# 3 -0.001386 0.001289 0.008286 0.000000 0.002148 0.000000
# 4 0.000000 0.000000 0.000000 0.043207 0.000000 0.013521
# 5 0.012889 -0.004673 0.002148 0.000000 0.058940 0.000000
# 6 0.000000 0.000000 0.000000 0.013521 0.000000 0.085196
#
#
# Mechanical properties :
#
#
# Convention : Reuss Voigt Hill
#
# Bulk Modulus (GPa) = 21.87646 27.79284 24.83465
# Shear Modulus (GPa) = 20.01484 27.83365 23.92425
#
# Velocity S-wave (km/s) = 2.96219 3.49318 3.23859
# Velocity P-wave (km/s) = 4.61412 5.33425 4.98720
#
# Compressibility (1/GPa) = 0.04571124
#
# Stress axis : x y z
#
# Youngs Moduli (GPa) = 54.83357 50.12581 120.69023
#
# Poissons Ratio (x) = 0.01421 0.16726
# Poissons Ratio (y) = 0.01554 -0.15553
# Poissons Ratio (z) = 0.07599 -0.06460
#
# Static dielectric constant tensor:
#      x y z
#    x 1.857450 0.000000 0.026180 
#    y 0.000000 1.868870 0.000000 
#    z 0.026180 0.000000 1.863020 
# 
# From -- ./inp_files/172863.got.cif
#   From: 2010.05.17/outbox.cif.g08.bks.cpg/sg12_87_cif.got.tgz:172863.got - 2010.06.03 13:09:07.
