data_PCOD9206265
_publ_section_title
;
Structure prediction by ZEFSAII (Michael W. Deem and Ramdas Pophale) SiO2 
 PCOD9206265
Probable space group: C 2/M
;
_chemical_formula_sum "Si O2"
_cell_formula_units_Z 48
_cell_length_a 9.439184
_cell_length_b 13.696751
_cell_length_c 19.743523
_cell_angle_alpha 90.000000
_cell_angle_beta 127.964742
_cell_angle_gamma 90.000000
_cell_volume 2012.414666
_symmetry_space_group_name_H-M "C 2/M"
_symmetry_group_IT_number 12
_symmetry_cell_setting 'monoclinic'
loop_
_space_group_symop_operation_xyz
x,y,z
-x,y,-z
-x,-y,-z
x,-y,z
1/2+x,1/2+y,z
1/2-x,1/2+y,-z
1/2-x,1/2-y,-z
1/2+x,1/2-y,z
loop_
_atom_site_type_symbol
_atom_site_label
_atom_site_fract_x
_atom_site_fract_y
_atom_site_fract_z
Si Si1 0.214302 0.605466 0.658727
Si Si2 0.402992 0.385117 0.161390
Si Si3 0.615435 0.390468 0.466140
Si Si4 0.883207 0.777190 0.898407
Si Si5 0.556965 0.109540 0.764045
Si Si6 0.344117 0.761355 0.620324
O O1 0.155632 0.500000 0.617323
O O2 0.429591 0.607122 0.737640
O O3 0.134538 0.616656 0.710174
O O4 0.184204 0.689568 0.596268
O O5 0.361495 0.500000 0.130735
O O6 0.232981 0.324321 0.142154
O O7 0.486903 0.320732 0.122984
O O8 0.500000 0.394898 0.500000
O O9 0.635536 0.500000 0.446534
O O10 0.539813 0.317977 0.387171
O O11 0.793553 0.342495 0.550383
O O12 0.721498 0.856214 0.858143
O O13 0.000000 0.768460 0.000000
O O14 0.401838 0.187585 0.707530
O O15 0.497974 0.000000 0.761134
#
# Coordination Sequence:
#
# PCOD9206265 Si02
#       6
#     8   8   8   8   8   8
#     4   9  18  34  56  80 109 150 196 244 306 362
#     4  10  22  41  64  92 130 171 216 272 323 378
#     4  10  22  36  52  80 114 147 183 235 301 364
#     4  11  22  41  66  93 130 173 214 265 327 383
#     4  10  21  36  57  84 114 150 199 254 302 364
#     4  11  19  35  59  78 109 149 192 241 294 365
#
# _framework density 23.851942000000001
#
# number of rings (size 3 to 8) (size 9 to 14) (size 15 to 20)
#    0.000    1.833    1.667    4.000    0.000    1.667 
#    0.000    1.667    0.000    8.000    0.000    0.000 
#    0.000    0.000    0.000    0.000    0.000    0.000 
#
# Total GULP energy -133706.239674 kJ/mol
# GULP energy per Si atom -5571.093320 kJ/mol
# Density = 2.379765 g / cm^3
# Si number density = 23.851942 Si / 1000 Ang^3
#
#
#
# Elastic Constant Matrix: (Units=GPa)
#
#
# Indices 1 2 3 4 5 6 
#
# 1 63.7347 33.8707 0.5210 0.0000 -5.5851 0.0000
# 2 33.8707 182.8724 10.8634 0.0000 10.6749 0.0000
# 3 0.5210 10.8634 74.4343 0.0000 14.5810 0.0000
# 4 0.0000 0.0000 0.0000 19.8417 0.0000 5.2899
# 5 -5.5851 10.6749 14.5810 0.0000 22.7204 0.0000
# 6 0.0000 0.0000 0.0000 5.2899 0.0000 23.2650
#
#
#
# Elastic Compliance Matrix: (Units=1/GPa)
#
#
# Indices 1 2 3 4 5 6 
#
# 1 0.018279 -0.003730 -0.000923 0.000000 0.006838 0.000000
# 2 -0.003730 0.006391 -0.000159 0.000000 -0.003818 0.000000
# 3 -0.000923 -0.000159 0.015434 0.000000 -0.010058 0.000000
# 4 0.000000 0.000000 0.000000 0.053651 0.000000 -0.012199
# 5 0.006838 -0.003818 -0.010058 0.000000 0.053943 0.000000
# 6 0.000000 0.000000 0.000000 -0.012199 0.000000 0.045757
#
#
# Mechanical properties :
#
#
# Convention : Reuss Voigt Hill
#
# Bulk Modulus (GPa) = 32.80702 45.72798 39.26750
# Shear Modulus (GPa) = 23.44781 31.55118 27.49950
#
# Velocity S-wave (km/s) = 3.13878 3.64097 3.39916
# Velocity P-wave (km/s) = 5.18847 6.07361 5.64840
#
# Compressibility (1/GPa) = 0.03048128
#
# Stress axis : x y z
#
# Youngs Moduli (GPa) = 54.70761 156.45966 64.79001
#
# Poissons Ratio (x) = 0.58358 0.05981
# Poissons Ratio (y) = 0.20405 0.01029
# Poissons Ratio (z) = 0.05050 0.02485
#
# Static dielectric constant tensor:
#      x y z
#    x 2.082530 0.000000 0.055480 
#    y 0.000000 1.991110 0.000000 
#    z 0.055480 0.000000 1.933250 
# 
# From -- ./inp_files/261729.got.cif
#   From: 2010.05.17/outbox.cif.g08.bks.cpg/sg12_131_cif.got.tgz:261729.got - 2010.06.03 13:09:07.
