data_PCOD9206519
_publ_section_title
;
Structure prediction by ZEFSAII (Michael W. Deem and Ramdas Pophale) SiO2 
 PCOD9206519
Probable space group: C 2/M
;
_chemical_formula_sum "Si O2"
_cell_formula_units_Z 56
_cell_length_a 12.501492
_cell_length_b 28.208264
_cell_length_c 9.252896
_cell_angle_alpha 90.000000
_cell_angle_beta 110.785900
_cell_angle_gamma 90.000000
_cell_volume 3050.612908
_symmetry_space_group_name_H-M "C 2/M"
_symmetry_group_IT_number 12
_symmetry_cell_setting 'monoclinic'
loop_
_space_group_symop_operation_xyz
x,y,z
-x,y,-z
-x,-y,-z
x,-y,z
1/2+x,1/2+y,z
1/2-x,1/2+y,-z
1/2-x,1/2-y,-z
1/2+x,1/2-y,z
loop_
_atom_site_type_symbol
_atom_site_label
_atom_site_fract_x
_atom_site_fract_y
_atom_site_fract_z
Si Si1 0.271774 0.876658 0.672704
Si Si2 0.843590 0.115395 0.681051
Si Si3 0.978112 0.443069 0.661681
Si Si4 0.606044 0.608908 0.852126
Si Si5 0.632705 0.201047 0.070995
Si Si6 0.731751 0.055691 0.844318
Si Si7 0.684104 0.311300 0.075372
O O1 0.197026 0.868448 0.494363
O O2 0.376164 0.911443 0.678723
O O3 0.184825 0.897076 0.750318
O O4 0.316672 0.828951 0.771817
O O5 0.766159 0.072181 0.700530
O O6 0.820458 0.157714 0.783162
O O7 0.974767 0.098626 0.755412
O O8 0.957094 0.500000 0.667224
O O9 0.000000 0.434311 0.500000
O O10 0.098489 0.431084 0.799978
O O11 0.673901 0.579494 0.006818
O O12 0.604414 0.662425 0.918143
O O13 0.652941 0.257354 0.092640
O O14 0.500000 0.190797 0.000000
O O15 0.695126 0.186787 0.951144
O O16 0.739569 0.000000 0.863939
#
# Coordination Sequence:
#
# PCOD9206519 Si02
#       7
#     8   8   8   8   8   8   8
#     4  11  24  35  58  89 118 149 195 242 299 341
#     4  11  21  38  60  82 119 157 195 237 289 359
#     4  10  21  39  60  83 121 158 188 236 303 360
#     4  10  22  38  59  83 116 155 193 245 287 346
#     4  10  21  36  59  86 118 149 193 253 286 342
#     4  10  21  38  62  87 110 153 202 238 284 349
#     4   9  20  39  58  83 113 159 198 229 301 348
#
# _framework density 18.356967000000001
#
# number of rings (size 3 to 8) (size 9 to 14) (size 15 to 20)
#    0.000    1.857    1.429    3.000    6.000    2.286 
#    0.000    1.429    0.000    2.571    0.000    0.000 
#    0.000    0.000    0.000    0.000    0.000    0.000 
#
# Total GULP energy -156101.613333 kJ/mol
# GULP energy per Si atom -5575.057619 kJ/mol
# Density = 1.831519 g / cm^3
# Si number density = 18.356967 Si / 1000 Ang^3
#
#
#
# Elastic Constant Matrix: (Units=GPa)
#
#
# Indices 1 2 3 4 5 6 
#
# 1 105.5006 41.8558 52.5627 0.0000 10.0461 0.0000
# 2 41.8558 68.7881 32.2023 0.0000 -0.2311 0.0000
# 3 52.5627 32.2023 113.6367 0.0000 -0.6961 0.0000
# 4 0.0000 0.0000 0.0000 14.2575 0.0000 -5.2853
# 5 10.0461 -0.2311 -0.6961 0.0000 32.7943 0.0000
# 6 0.0000 0.0000 0.0000 -5.2853 0.0000 23.8856
#
#
#
# Elastic Compliance Matrix: (Units=1/GPa)
#
#
# Indices 1 2 3 4 5 6 
#
# 1 0.015217 -0.006879 -0.005119 0.000000 -0.004819 0.000000
# 2 -0.006879 0.019871 -0.002436 0.000000 0.002196 0.000000
# 3 -0.005119 -0.002436 0.011869 0.000000 0.001803 0.000000
# 4 0.000000 0.000000 0.000000 0.076406 0.000000 0.016907
# 5 -0.004819 0.002196 0.001803 0.000000 0.032023 0.000000
# 6 0.000000 0.000000 0.000000 0.016907 0.000000 0.045607
#
#
# Mechanical properties :
#
#
# Convention : Reuss Voigt Hill
#
# Bulk Modulus (GPa) = 55.27987 60.12968 57.70477
# Shear Modulus (GPa) = 21.19643 24.94113 23.06878
#
# Velocity S-wave (km/s) = 3.40175 3.69002 3.54881
# Velocity P-wave (km/s) = 6.75340 7.14016 6.94947
#
# Compressibility (1/GPa) = 0.01808977
#
# Stress axis : x y z
#
# Youngs Moduli (GPa) = 65.71658 50.32544 84.25400
#
# Poissons Ratio (x) = 0.34619 0.43127
# Poissons Ratio (y) = 0.45206 0.20521
# Poissons Ratio (z) = 0.33638 0.12257
#
# Static dielectric constant tensor:
#      x y z
#    x 1.655310 0.000000 0.010010 
#    y 0.000000 1.640580 0.000000 
#    z 0.010010 0.000000 1.635270 
# 
# From -- ./inp_files/54791.got.cif
#   From: 2010.05.17/outbox.cif.g08.bks.cpg/sg12_28_cif.got.tgz:54791.got - 2010.06.03 13:09:07.
