data_PCOD9206653
_publ_section_title
;
Structure prediction by ZEFSAII (Michael W. Deem and Ramdas Pophale) SiO2 
 PCOD9206653
Probable space group: C 2/M
;
_chemical_formula_sum "Si O2"
_cell_formula_units_Z 64
_cell_length_a 27.504745
_cell_length_b 14.605158
_cell_length_c 12.270693
_cell_angle_alpha 90.000000
_cell_angle_beta 139.624952
_cell_angle_gamma 90.000000
_cell_volume 3193.125600
_symmetry_space_group_name_H-M "C 2/M"
_symmetry_group_IT_number 12
_symmetry_cell_setting 'monoclinic'
loop_
_space_group_symop_operation_xyz
x,y,z
-x,y,-z
-x,-y,-z
x,-y,z
1/2+x,1/2+y,z
1/2-x,1/2+y,-z
1/2-x,1/2-y,-z
1/2+x,1/2-y,z
loop_
_atom_site_type_symbol
_atom_site_label
_atom_site_fract_x
_atom_site_fract_y
_atom_site_fract_z
Si Si1 0.924600 0.233816 0.731832
Si Si2 0.623518 0.604351 0.151632
Si Si3 0.181842 0.340042 0.103992
Si Si4 0.031921 0.400736 0.932915
Si Si5 0.766083 0.704147 0.412177
Si Si6 0.181830 0.895359 0.806149
Si Si7 0.451012 0.609959 0.577067
Si Si8 0.110480 0.176222 0.883481
O O1 0.910514 0.183912 0.825918
O O2 0.855363 0.295425 0.569021
O O3 0.931616 0.148192 0.663132
O O4 0.993701 0.303653 0.836526
O O5 0.599658 0.500000 0.136319
O O6 0.713881 0.614917 0.318194
O O7 0.607911 0.627067 0.997829
O O8 0.231723 0.270572 0.261322
O O9 0.240898 0.390823 0.128425
O O10 0.122380 0.391907 0.079131
O O11 0.126766 0.281599 0.933506
O O12 0.012755 0.500000 0.846157
O O13 0.000000 0.407800 0.000000
O O14 0.750000 0.750000 0.500000
O O15 0.115515 0.857712 0.615703
O O16 0.178216 0.851791 0.919097
O O17 0.161996 0.000000 0.791745
O O18 0.454675 0.500000 0.582214
O O19 0.533068 0.650002 0.692879
#
# Coordination Sequence:
#
# PCOD9206653 Si02
#       8
#     8   8   8   8   8   8   8   8
#     4  11  21  39  59  89 123 158 201 246 302 369
#     4  10  21  36  60  91 124 162 198 245 309 365
#     4  11  21  40  61  88 118 162 204 252 301 357
#     4  11  23  39  61  88 119 159 203 249 301 357
#     4   9  19  35  56  80 119 155 194 241 293 358
#     4  11  23  39  61  91 121 159 211 254 298 357
#     4  11  22  37  61  90 123 160 199 248 305 365
#     4  11  22  39  60  88 128 160 202 250 306 354
#
# _framework density 20.043057000000001
#
# number of rings (size 3 to 8) (size 9 to 14) (size 15 to 20)
#    0.000    1.375    2.500    4.875    0.000    1.500 
#    0.000    3.125    0.000    0.000    0.000    0.875 
#    0.000    0.000    0.000    0.000    0.000    0.000 
#
# Total GULP energy -178187.382587 kJ/mol
# GULP energy per Si atom -5568.355706 kJ/mol
# Density = 1.999744 g / cm^3
# Si number density = 20.043057 Si / 1000 Ang^3
#
#
#
# Elastic Constant Matrix: (Units=GPa)
#
#
# Indices 1 2 3 4 5 6 
#
# 1 115.8040 4.6397 38.2430 0.0000 2.2422 0.0000
# 2 4.6397 64.7897 28.8914 0.0000 -4.5413 0.0000
# 3 38.2430 28.8914 70.7930 0.0000 18.1512 0.0000
# 4 0.0000 0.0000 0.0000 21.3383 0.0000 3.4231
# 5 2.2422 -4.5413 18.1512 0.0000 31.4464 0.0000
# 6 0.0000 0.0000 0.0000 3.4231 0.0000 16.9840
#
#
#
# Elastic Compliance Matrix: (Units=1/GPa)
#
#
# Indices 1 2 3 4 5 6 
#
# 1 0.011275 0.003392 -0.008679 0.000000 0.004695 0.000000
# 2 0.003392 0.021998 -0.013571 0.000000 0.010768 0.000000
# 3 -0.008679 -0.013571 0.028986 0.000000 -0.018072 0.000000
# 4 0.000000 0.000000 0.000000 0.048430 0.000000 -0.009761
# 5 0.004695 0.010768 -0.018072 0.000000 0.043452 0.000000
# 6 0.000000 0.000000 0.000000 -0.009761 0.000000 0.060846
#
#
# Mechanical properties :
#
#
# Convention : Reuss Voigt Hill
#
# Bulk Modulus (GPa) = 40.74471 43.88165 42.31318
# Shear Modulus (GPa) = 19.16567 25.92790 22.54679
#
# Velocity S-wave (km/s) = 3.09564 3.60058 3.35762
# Velocity P-wave (km/s) = 5.75761 6.26313 6.01568
#
# Compressibility (1/GPa) = 0.02454307
#
# Stress axis : x y z
#
# Youngs Moduli (GPa) = 88.69558 45.45866 34.49939
#
# Poissons Ratio (x) = -0.15418 0.29941
# Poissons Ratio (y) = -0.30083 0.46818
# Poissons Ratio (z) = 0.76976 0.61691
#
# Static dielectric constant tensor:
#      x y z
#    x 1.769380 0.000000 0.018820 
#    y 0.000000 1.719310 0.000000 
#    z 0.018820 0.000000 1.766430 
# 
# From -- ./inp_files/183842.got.cif
#   From: 2010.05.17/outbox.cif.g08.bks.cpg/sg12_92_cif.got.tgz:183842.got - 2010.06.03 13:09:07.
