data_PCOD9206282
_publ_section_title
;
Structure prediction by ZEFSAII (Michael W. Deem and Ramdas Pophale) SiO2 
 PCOD9206282
Probable space group: C 2/M
;
_chemical_formula_sum "Si O2"
_cell_formula_units_Z 40
_cell_length_a 13.991547
_cell_length_b 10.994829
_cell_length_c 13.339928
_cell_angle_alpha 90.000000
_cell_angle_beta 66.129153
_cell_angle_gamma 90.000000
_cell_volume 1876.602991
_symmetry_space_group_name_H-M "C 2/M"
_symmetry_group_IT_number 12
_symmetry_cell_setting 'monoclinic'
loop_
_space_group_symop_operation_xyz
x,y,z
-x,y,-z
-x,-y,-z
x,-y,z
1/2+x,1/2+y,z
1/2-x,1/2+y,-z
1/2-x,1/2-y,-z
1/2+x,1/2-y,z
loop_
_atom_site_type_symbol
_atom_site_label
_atom_site_fract_x
_atom_site_fract_y
_atom_site_fract_z
Si Si1 0.734517 0.864227 0.392396
Si Si2 0.791304 0.631857 0.246075
Si Si3 0.482637 0.868647 0.758012
Si Si4 0.682220 0.135269 0.000001
Si Si5 0.065847 0.786073 0.564451
O O1 0.741496 0.755900 0.308033
O O2 0.836480 0.854654 0.423544
O O3 0.627871 0.832967 0.496485
O O4 0.734489 0.000000 0.351213
O O5 0.734925 0.500000 0.282615
O O6 0.896363 0.624458 0.265372
O O7 0.826843 0.640342 0.115769
O O8 0.420266 0.853355 0.887922
O O9 0.481302 0.756858 0.682539
O O10 0.449935 0.000000 0.728824
O O11 0.726585 0.000000 0.004187
O O12 0.750000 0.250000 0.000000
O O13 0.000000 0.841270 0.500000
#
# Coordination Sequence:
#
# PCOD9206282 Si02
#       5
#     8   8   8   8   8
#     4  10  22  39  62  93 122 153 200 251 298 348
#     4   9  19  38  61  83 114 154 192 235 291 354
#     4   9  18  35  59  82 108 148 199 239 279 345
#     4  10  21  36  57  85 115 148 189 238 291 346
#     4  10  22  38  59  87 122 161 198 244 297 358
#
# _framework density 21.315111000000002
#
# number of rings (size 3 to 8) (size 9 to 14) (size 15 to 20)
#    0.000    2.400    0.000    1.200    2.800   10.000 
#    0.000    4.000    0.000    6.000    0.000    0.000 
#    0.000    0.000    0.000    0.000    0.000    0.000 
#
# Total GULP energy -111416.437034 kJ/mol
# GULP energy per Si atom -5570.821852 kJ/mol
# Density = 2.126660 g / cm^3
# Si number density = 21.315111 Si / 1000 Ang^3
#
#
#
# Elastic Constant Matrix: (Units=GPa)
#
#
# Indices 1 2 3 4 5 6 
#
# 1 74.4110 18.1550 11.3123 0.0000 7.8578 0.0000
# 2 18.1550 145.4563 52.9484 0.0000 -7.5756 0.0000
# 3 11.3123 52.9484 108.0743 0.0000 4.3972 0.0000
# 4 0.0000 0.0000 0.0000 18.5361 0.0000 -5.2350
# 5 7.8578 -7.5756 4.3972 0.0000 26.1610 0.0000
# 6 0.0000 0.0000 0.0000 -5.2350 0.0000 7.7360
#
#
#
# Elastic Compliance Matrix: (Units=1/GPa)
#
#
# Indices 1 2 3 4 5 6 
#
# 1 0.014476 -0.001922 -0.000377 0.000000 -0.004841 0.000000
# 2 -0.001922 0.008885 -0.004310 0.000000 0.003875 0.000000
# 3 -0.000377 -0.004310 0.011529 0.000000 -0.003073 0.000000
# 4 0.000000 0.000000 0.000000 0.066695 0.000000 0.045134
# 5 -0.004841 0.003875 -0.003073 0.000000 0.041317 0.000000
# 6 0.000000 0.000000 0.000000 0.045134 0.000000 0.159809
#
#
# Mechanical properties :
#
#
# Convention : Reuss Voigt Hill
#
# Bulk Modulus (GPa) = 46.13835 54.75259 50.44547
# Shear Modulus (GPa) = 15.47252 26.85502 21.16377
#
# Velocity S-wave (km/s) = 2.69717 3.55337 3.15445
# Velocity P-wave (km/s) = 5.60290 6.52520 6.08155
#
# Compressibility (1/GPa) = 0.02167394
#
# Stress axis : x y z
#
# Youngs Moduli (GPa) = 69.07851 112.54454 86.73969
#
# Poissons Ratio (x) = 0.21629 0.03268
# Poissons Ratio (y) = 0.13276 0.37382
# Poissons Ratio (z) = 0.02602 0.48503
#
# Static dielectric constant tensor:
#      x y z
#    x 1.773350 0.000000 0.036540 
#    y 0.000000 1.836090 0.000000 
#    z 0.036540 0.000000 1.867380 
# 
# From -- ./inp_files/140821.got.cif
#   From: 2010.05.17/outbox.cif.g08.bks.cpg/sg12_71_cif.got.tgz:140821.got - 2010.06.03 13:09:07.
