data_PCOD9206257
_publ_section_title
;
Structure prediction by ZEFSAII (Michael W. Deem and Ramdas Pophale) SiO2 
 PCOD9206257
Probable space group: C 2/M
;
_chemical_formula_sum "Si O2"
_cell_formula_units_Z 48
_cell_length_a 9.353582
_cell_length_b 29.758725
_cell_length_c 17.088825
_cell_angle_alpha 90.000000
_cell_angle_beta 147.001692
_cell_angle_gamma 90.000000
_cell_volume 2590.559045
_symmetry_space_group_name_H-M "C 2/M"
_symmetry_group_IT_number 12
_symmetry_cell_setting 'monoclinic'
loop_
_space_group_symop_operation_xyz
x,y,z
-x,y,-z
-x,-y,-z
x,-y,z
1/2+x,1/2+y,z
1/2-x,1/2+y,-z
1/2-x,1/2-y,-z
1/2+x,1/2-y,z
loop_
_atom_site_type_symbol
_atom_site_label
_atom_site_fract_x
_atom_site_fract_y
_atom_site_fract_z
Si Si1 0.786687 0.253516 0.108225
Si Si2 0.119490 0.895584 0.136720
Si Si3 0.539306 0.372365 0.404417
Si Si4 0.806635 0.148348 0.133690
Si Si5 0.545315 0.052838 0.428270
Si Si6 0.101628 0.334006 0.313809
O O1 0.826474 0.202257 0.152593
O O2 0.020484 0.286108 0.241580
O O3 0.500000 0.271374 0.000000
O O4 0.750000 0.250000 0.000000
O O5 0.285913 0.932138 0.261824
O O6 0.332118 0.858563 0.209111
O O7 0.917342 0.871330 0.103286
O O8 0.000000 0.912693 0.000000
O O9 0.468631 0.370039 0.281402
O O10 0.710943 0.417628 0.492269
O O11 0.274038 0.363826 0.332367
O O12 0.729106 0.333958 0.528519
O O13 0.500000 0.136723 0.000000
O O14 0.500000 0.062674 0.500000
O O15 0.593957 0.000000 0.442299
#
# Coordination Sequence:
#
# PCOD9206257 Si02
#       6
#     8   8   8   8   8   8
#     4  11  21  35  54  82 117 161 203 240 286 332
#     4  11  21  37  61  90 121 156 195 244 296 350
#     4  10  21  39  58  88 114 154 198 241 298 357
#     4  11  22  36  60  84 118 161 206 242 289 344
#     4  10  21  41  67  89 115 149 190 243 301 365
#     4  10  21  36  57  83 126 156 195 245 289 339
#
# _framework density 18.528818999999999
#
# number of rings (size 3 to 8) (size 9 to 14) (size 15 to 20)
#    0.000    1.500    1.667    5.500    0.000    1.000 
#    0.000   11.667    0.000    4.000    0.000    0.000 
#    0.000    0.000    0.000    0.000    0.000    0.000 
#
# Total GULP energy -133802.646318 kJ/mol
# GULP energy per Si atom -5575.110263 kJ/mol
# Density = 1.848665 g / cm^3
# Si number density = 18.528819 Si / 1000 Ang^3
#
#
#
# Elastic Constant Matrix: (Units=GPa)
#
#
# Indices 1 2 3 4 5 6 
#
# 1 123.7385 41.1976 57.3588 0.0000 11.1863 0.0000
# 2 41.1976 81.0673 50.3616 0.0000 11.5493 0.0000
# 3 57.3588 50.3616 139.1584 0.0000 -16.7601 0.0000
# 4 0.0000 0.0000 0.0000 16.3753 0.0000 3.1720
# 5 11.1863 11.5493 -16.7601 0.0000 35.2148 0.0000
# 6 0.0000 0.0000 0.0000 3.1720 0.0000 20.5590
#
#
#
# Elastic Compliance Matrix: (Units=1/GPa)
#
#
# Indices 1 2 3 4 5 6 
#
# 1 0.011359 -0.002301 -0.004448 0.000000 -0.004970 0.000000
# 2 -0.002301 0.019160 -0.007059 0.000000 -0.008912 0.000000
# 3 -0.004448 -0.007059 0.012754 0.000000 0.009798 0.000000
# 4 0.000000 0.000000 0.000000 0.062949 0.000000 -0.009712
# 5 -0.004970 -0.008912 0.009798 0.000000 0.037562 0.000000
# 6 0.000000 0.000000 0.000000 -0.009712 0.000000 0.050139
#
#
# Mechanical properties :
#
#
# Convention : Reuss Voigt Hill
#
# Bulk Modulus (GPa) = 63.86912 71.31113 67.59013
# Shear Modulus (GPa) = 22.05001 27.43289 24.74145
#
# Velocity S-wave (km/s) = 3.45344 3.85197 3.65813
# Velocity P-wave (km/s) = 7.10258 7.63896 7.37565
#
# Compressibility (1/GPa) = 0.01565702
#
# Stress axis : x y z
#
# Youngs Moduli (GPa) = 88.03743 52.19264 78.40693
#
# Poissons Ratio (x) = 0.12011 0.34873
# Poissons Ratio (y) = 0.20260 0.55346
# Poissons Ratio (z) = 0.39156 0.36842
#
# Static dielectric constant tensor:
#      x y z
#    x 1.644560 0.000000 0.005040 
#    y 0.000000 1.563030 0.000000 
#    z 0.005040 0.000000 1.644880 
# 
# From -- ./inp_files/200223.got.cif
#   From: 2010.05.17/outbox.cif.g08.bks.cpg/sg12_101_cif.got.tgz:200223.got - 2010.06.03 13:09:07.
