data_PCOD9206278
_publ_section_title
;
Structure prediction by ZEFSAII (Michael W. Deem and Ramdas Pophale) SiO2 
 PCOD9206278
Probable space group: C 2/M
;
_chemical_formula_sum "Si O2"
_cell_formula_units_Z 48
_cell_length_a 28.044574
_cell_length_b 8.559509
_cell_length_c 15.893823
_cell_angle_alpha 90.000000
_cell_angle_beta 139.098707
_cell_angle_gamma 90.000000
_cell_volume 2498.082635
_symmetry_space_group_name_H-M "C 2/M"
_symmetry_group_IT_number 12
_symmetry_cell_setting 'monoclinic'
loop_
_space_group_symop_operation_xyz
x,y,z
-x,y,-z
-x,-y,-z
x,-y,z
1/2+x,1/2+y,z
1/2-x,1/2+y,-z
1/2-x,1/2-y,-z
1/2+x,1/2-y,z
loop_
_atom_site_type_symbol
_atom_site_label
_atom_site_fract_x
_atom_site_fract_y
_atom_site_fract_z
Si Si1 0.208985 0.689192 0.691742
Si Si2 0.541626 0.688718 0.805038
Si Si3 0.709773 0.311140 0.028990
Si Si4 0.544789 0.310854 0.142820
Si Si5 0.459899 0.811187 0.531907
Si Si6 0.708971 0.814007 0.363070
O O1 0.211507 0.500000 0.691201
O O2 0.248697 0.738298 0.830782
O O3 0.124504 0.737604 0.580078
O O4 0.249986 0.754616 0.665395
O O5 0.541343 0.500000 0.803516
O O6 0.498734 0.738451 0.831674
O O7 0.501406 0.749304 0.668747
O O8 0.625673 0.740464 0.918796
O O9 0.710777 0.500000 0.028415
O O10 0.750000 0.250000 0.000000
O O11 0.549415 0.500000 0.148930
O O12 0.625963 0.244814 0.251071
O O13 0.500000 0.264142 0.000000
O O14 0.500000 0.759544 0.500000
O O15 0.461613 0.000000 0.535858
O O16 0.750000 0.750000 0.500000
O O17 0.710242 0.000000 0.367133
#
# Coordination Sequence:
#
# PCOD9206278 Si02
#       6
#     8   8   8   8   8   8
#     4  10  21  39  61  84 114 153 195 238 287 343
#     4  10  21  36  57  85 114 147 186 229 280 338
#     4  10  21  38  60  86 116 151 191 234 283 339
#     4  10  21  40  64  87 116 154 193 236 291 351
#     4  10  21  37  58  83 111 147 189 233 282 334
#     4  12  25  40  60  87 119 154 196 244 293 349
#
# _framework density 19.214738000000001
#
# number of rings (size 3 to 8) (size 9 to 14) (size 15 to 20)
#    0.000    1.667    0.000    4.500    0.000   10.000 
#    0.000    1.667    0.000    0.000    0.000    0.000 
#    0.000    0.000    0.000    0.000    0.000    0.000 
#
# Total GULP energy -134192.839423 kJ/mol
# GULP energy per Si atom -5591.368309 kJ/mol
# Density = 1.917100 g / cm^3
# Si number density = 19.214738 Si / 1000 Ang^3
#
#
#
# Elastic Constant Matrix: (Units=GPa)
#
#
# Indices 1 2 3 4 5 6 
#
# 1 227.8305 40.4911 132.9737 0.0000 0.2617 0.0000
# 2 40.4911 19.9653 40.3251 0.0000 1.6148 0.0000
# 3 132.9737 40.3251 224.1668 0.0000 0.3307 0.0000
# 4 0.0000 0.0000 0.0000 30.0070 0.0000 -2.3122
# 5 0.2617 1.6148 0.3307 0.0000 46.5221 0.0000
# 6 0.0000 0.0000 0.0000 -2.3122 0.0000 26.5950
#
#
#
# Elastic Compliance Matrix: (Units=1/GPa)
#
#
# Indices 1 2 3 4 5 6 
#
# 1 0.007857 -0.010284 -0.002812 0.000000 0.000333 0.000000
# 2 -0.010284 0.092453 -0.010526 0.000000 -0.003076 0.000000
# 3 -0.002812 -0.010526 0.008022 0.000000 0.000324 0.000000
# 4 0.000000 0.000000 0.000000 0.033550 0.000000 0.002917
# 5 0.000333 -0.003076 0.000324 0.000000 0.021598 0.000000
# 6 0.000000 0.000000 0.000000 0.002917 0.000000 0.037855
#
#
# Mechanical properties :
#
#
# Convention : Reuss Voigt Hill
#
# Bulk Modulus (GPa) = 16.36969 99.94915 58.15942
# Shear Modulus (GPa) = 18.59143 37.83636 28.21390
#
# Velocity S-wave (km/s) = 3.11394 4.44230 3.83606
# Velocity P-wave (km/s) = 4.63321 8.85675 7.06784
#
# Compressibility (1/GPa) = 0.06108851
#
# Stress axis : x y z
#
# Youngs Moduli (GPa) = 127.26713 10.81634 124.65955
#
# Poissons Ratio (x) = 0.11123 0.35048
# Poissons Ratio (y) = 1.30879 1.31222
# Poissons Ratio (z) = 0.35782 0.11386
#
# Static dielectric constant tensor:
#      x y z
#    x 1.634900 0.000000 0.005720 
#    y 0.000000 1.663880 0.000000 
#    z 0.005720 0.000000 1.634840 
# 
# From -- ./inp_files/244599.got.cif
#   From: 2010.05.17/outbox.cif.g08.bks.cpg/sg12_123_cif.got.tgz:244599.got - 2010.06.03 13:09:07.
