data_PCOD9206913
_publ_section_title
;
Structure prediction by ZEFSAII (Michael W. Deem and Ramdas Pophale) SiO2 
 PCOD9206913
Probable space group: C 2/M
;
_chemical_formula_sum "Si O2"
_cell_formula_units_Z 56
_cell_length_a 14.748196
_cell_length_b 8.559670
_cell_length_c 25.073545
_cell_angle_alpha 90.000000
_cell_angle_beta 105.089813
_cell_angle_gamma 90.000000
_cell_volume 3056.134454
_symmetry_space_group_name_H-M "C 2/M"
_symmetry_group_IT_number 12
_symmetry_cell_setting 'monoclinic'
loop_
_space_group_symop_operation_xyz
x,y,z
-x,y,-z
-x,-y,-z
x,-y,z
1/2+x,1/2+y,z
1/2-x,1/2+y,-z
1/2-x,1/2-y,-z
1/2+x,1/2-y,z
loop_
_atom_site_type_symbol
_atom_site_label
_atom_site_fract_x
_atom_site_fract_y
_atom_site_fract_z
Si Si1 0.369894 0.685122 0.573482
Si Si2 0.335557 0.314072 0.447621
Si Si3 0.640661 0.190261 0.761611
Si Si4 0.672143 0.688557 0.151356
Si Si5 0.280127 0.811615 0.061799
Si Si6 0.056797 0.685597 0.636673
Si Si7 0.967752 0.688536 0.149334
O O1 0.384977 0.500000 0.580702
O O2 0.378048 0.729101 0.511953
O O3 0.264199 0.728769 0.572978
O O4 0.446773 0.775023 0.619502
O O5 0.320200 0.500000 0.446440
O O6 0.400441 0.268077 0.408560
O O7 0.745474 0.238755 0.795034
O O8 0.606727 0.241682 0.698461
O O9 0.569352 0.238176 0.797842
O O10 0.640390 0.000000 0.761385
O O11 0.669731 0.500000 0.151590
O O12 0.709205 0.737234 0.098402
O O13 0.569845 0.749836 0.150178
O O14 0.385048 0.762543 0.095797
O O15 0.279588 0.000000 0.060705
O O16 0.250000 0.750000 0.000000
O O17 0.070609 0.500000 0.634051
O O18 0.970608 0.500000 0.149484
#
# Coordination Sequence:
#
# PCOD9206913 Si02
#       7
#     8   8   8   8   8   8   8
#     4  10  21  37  55  76 104 137 173 214 260 313
#     4  10  21  37  55  76 104 137 173 214 260 313
#     4   8  18  36  53  72 102 136 170 208 252 302
#     4   9  18  35  55  74 100 136 172 207 250 297
#     4   9  19  34  52  75 106 137 166 205 249 296
#     4  11  21  34  55  80 106 137 171 213 264 313
#     4   9  18  35  55  74 100 136 172 207 250 297
#
# _framework density 18.323802000000001
#
# number of rings (size 3 to 8) (size 9 to 14) (size 15 to 20)
#    0.000    2.571    0.000    3.429    0.000    6.286 
#    0.000   10.714    0.000    0.000    0.000    0.000 
#    0.000    0.000    0.000    0.000    0.000    0.000 
#
# Total GULP energy -156212.705604 kJ/mol
# GULP energy per Si atom -5579.025200 kJ/mol
# Density = 1.828210 g / cm^3
# Si number density = 18.323802 Si / 1000 Ang^3
#
#
#
# Elastic Constant Matrix: (Units=GPa)
#
#
# Indices 1 2 3 4 5 6 
#
# 1 120.6296 8.2661 37.6974 0.0000 13.4222 0.0000
# 2 8.2661 10.3153 9.4372 0.0000 1.2193 0.0000
# 3 37.6974 9.4372 57.3651 0.0000 18.8969 0.0000
# 4 0.0000 0.0000 0.0000 22.1876 0.0000 0.7759
# 5 13.4222 1.2193 18.8969 0.0000 11.6853 0.0000
# 6 0.0000 0.0000 0.0000 0.7759 0.0000 37.1488
#
#
#
# Elastic Compliance Matrix: (Units=1/GPa)
#
#
# Indices 1 2 3 4 5 6 
#
# 1 0.010531 -0.003132 -0.005410 0.000000 -0.003021 0.000000
# 2 -0.003132 0.124252 -0.032735 0.000000 0.043571 0.000000
# 3 -0.005410 -0.032735 0.049649 0.000000 -0.070660 0.000000
# 4 0.000000 0.000000 0.000000 0.045103 0.000000 -0.000942
# 5 -0.003021 0.043571 -0.070660 0.000000 0.198768 0.000000
# 6 0.000000 0.000000 0.000000 -0.000942 0.000000 0.026938
#
#
# Mechanical properties :
#
#
# Convention : Reuss Voigt Hill
#
# Bulk Modulus (GPa) = 9.81580 33.23460 21.52520
# Shear Modulus (GPa) = 8.74496 23.06496 15.90496
#
# Velocity S-wave (km/s) = 2.18697 3.55173 2.94937
# Velocity P-wave (km/s) = 3.42718 5.91578 4.83436
#
# Compressibility (1/GPa) = 0.10187660
#
# Stress axis : x y z
#
# Youngs Moduli (GPa) = 94.95482 8.04815 20.14127
#
# Poissons Ratio (x) = 0.02521 0.10897
# Poissons Ratio (y) = 0.29744 0.65933
# Poissons Ratio (z) = 0.51374 0.26346
#
# Static dielectric constant tensor:
#      x y z
#    x 1.605380 0.000000 0.003690 
#    y 0.000000 1.625210 0.000000 
#    z 0.003690 0.000000 1.624440 
# 
# From -- ./inp_files/338173.got.cif
#   From: 2010.05.17/outbox.cif.g08.bks.cpg/sg12_170_cif.got.tgz:338173.got - 2010.06.03 13:09:07.
