data_PCOD9206289
_publ_section_title
;
Structure prediction by ZEFSAII (Michael W. Deem and Ramdas Pophale) SiO2 
 PCOD9206289
Probable space group: C 2/M
;
_chemical_formula_sum "Si O2"
_cell_formula_units_Z 44
_cell_length_a 18.564585
_cell_length_b 13.121615
_cell_length_c 16.647805
_cell_angle_alpha 90.000000
_cell_angle_beta 30.828055
_cell_angle_gamma 90.000000
_cell_volume 2078.224048
_symmetry_space_group_name_H-M "C 2/M"
_symmetry_group_IT_number 12
_symmetry_cell_setting 'monoclinic'
loop_
_space_group_symop_operation_xyz
x,y,z
-x,y,-z
-x,-y,-z
x,-y,z
1/2+x,1/2+y,z
1/2-x,1/2+y,-z
1/2-x,1/2-y,-z
1/2+x,1/2-y,z
loop_
_atom_site_type_symbol
_atom_site_label
_atom_site_fract_x
_atom_site_fract_y
_atom_site_fract_z
Si Si1 0.667778 0.112942 0.542258
Si Si2 0.285764 0.111868 0.771640
Si Si3 0.912823 0.116495 0.178795
Si Si4 0.000000 0.222037 0.500000
Si Si5 0.352623 0.333040 0.938841
Si Si6 0.070156 0.166980 0.604544
O O1 0.767025 0.119392 0.368676
O O2 0.780854 0.125917 0.505884
O O3 0.570910 0.212009 0.627844
O O4 0.602811 0.000000 0.607614
O O5 0.141530 0.128020 0.859459
O O6 0.385029 0.202874 0.649438
O O7 0.340798 0.000000 0.696020
O O8 0.248494 0.111206 0.900957
O O9 0.017230 0.192794 0.124730
O O10 0.967067 0.000000 0.138310
O O11 0.055884 0.159081 0.522745
O O12 0.441031 0.379268 0.779525
O O13 0.250000 0.250000 0.000000
#
# Coordination Sequence:
#
# PCOD9206289 Si02
#       6
#     8   8   8   4   8   8
#     4   9  18  36  60  83 112 149 193 237 284 348
#     4  11  22  36  58  86 117 150 186 238 298 351
#     4   9  18  34  57  82 109 144 187 232 285 345
#     4  12  21  36  57  88 120 144 188 244 290 338
#     4  11  21  35  49  79 119 152 183 223 285 347
#     4  10  21  36  57  85 116 153 191 236 292 341
#
# _framework density 21.171923
#
# number of rings (size 3 to 8) (size 9 to 14) (size 15 to 20)
#    0.000    1.818    3.636    1.364    0.000    2.909 
#    0.000    0.455    0.000    0.000    0.000    1.273 
#    0.000    0.000    0.000    0.000    0.000    0.000 
#
# Total GULP energy -122608.185860 kJ/mol
# GULP energy per Si atom -5573.099357 kJ/mol
# Density = 2.112373 g / cm^3
# Si number density = 21.171923 Si / 1000 Ang^3
#
#
#
# Elastic Constant Matrix: (Units=GPa)
#
#
# Indices 1 2 3 4 5 6 
#
# 1 128.4115 30.8688 32.0737 0.0000 30.7576 0.0000
# 2 30.8688 62.6091 11.9439 0.0000 3.1885 0.0000
# 3 32.0737 11.9439 86.3695 0.0000 17.2381 0.0000
# 4 0.0000 0.0000 0.0000 10.2758 0.0000 3.7614
# 5 30.7576 3.1885 17.2381 0.0000 45.6484 0.0000
# 6 0.0000 0.0000 0.0000 3.7614 0.0000 19.8662
#
#
#
# Elastic Compliance Matrix: (Units=1/GPa)
#
#
# Indices 1 2 3 4 5 6 
#
# 1 0.010943 -0.004663 -0.002176 0.000000 -0.006226 0.000000
# 2 -0.004663 0.018396 -0.001279 0.000000 0.002340 0.000000
# 3 -0.002176 -0.001279 0.013252 0.000000 -0.003448 0.000000
# 4 0.000000 0.000000 0.000000 0.104564 0.000000 -0.019798
# 5 -0.006226 0.002340 -0.003448 0.000000 0.027240 0.000000
# 6 0.000000 0.000000 0.000000 -0.019798 0.000000 0.054085
#
#
# Mechanical properties :
#
#
# Convention : Reuss Voigt Hill
#
# Bulk Modulus (GPa) = 37.94617 47.46253 42.70435
# Shear Modulus (GPa) = 19.72367 28.65831 24.19099
#
# Velocity S-wave (km/s) = 3.05552 3.68312 3.38390
# Velocity P-wave (km/s) = 5.51453 6.36816 5.95666
#
# Compressibility (1/GPa) = 0.02635312
#
# Stress axis : x y z
#
# Youngs Moduli (GPa) = 91.37996 54.35919 75.46300
#
# Poissons Ratio (x) = 0.25349 0.16423
# Poissons Ratio (y) = 0.42613 0.09654
# Poissons Ratio (z) = 0.19888 0.06954
#
# Static dielectric constant tensor:
#      x y z
#    x 1.805110 0.000000 -0.001210 
#    y 0.000000 1.772850 0.000000 
#    z -0.001210 0.000000 1.877100 
# 
# From -- ./inp_files/225101.got.cif
#   From: 2010.05.17/outbox.cif.g08.bks.cpg/sg12_113_cif.got.tgz:225101.got - 2010.06.03 13:09:07.
