data_PCOD9206769
_publ_section_title
;
Structure prediction by ZEFSAII (Michael W. Deem and Ramdas Pophale) SiO2 
 PCOD9206769
Probable space group: C 2/M
;
_chemical_formula_sum "Si O2"
_cell_formula_units_Z 52
_cell_length_a 19.912646
_cell_length_b 30.671192
_cell_length_c 8.402223
_cell_angle_alpha 90.000000
_cell_angle_beta 31.219359
_cell_angle_gamma 90.000000
_cell_volume 2659.796667
_symmetry_space_group_name_H-M "C 2/M"
_symmetry_group_IT_number 12
_symmetry_cell_setting 'monoclinic'
loop_
_space_group_symop_operation_xyz
x,y,z
-x,y,-z
-x,-y,-z
x,-y,z
1/2+x,1/2+y,z
1/2-x,1/2+y,-z
1/2-x,1/2-y,-z
1/2+x,1/2-y,z
loop_
_atom_site_type_symbol
_atom_site_label
_atom_site_fract_x
_atom_site_fract_y
_atom_site_fract_z
Si Si1 0.877415 0.245241 0.633123
Si Si2 0.606804 0.840677 0.428311
Si Si3 0.876174 0.418705 0.358888
Si Si4 0.640526 0.650387 0.295582
Si Si5 0.875843 0.500000 0.866797
Si Si6 0.255591 0.000000 0.790000
Si Si7 0.238486 0.073971 0.318479
Si Si8 0.469900 0.500000 0.245021
O O1 0.897321 0.290574 0.499321
O O2 0.869289 0.196016 0.585939
O O3 0.000000 0.243554 0.500000
O O4 0.750000 0.250000 0.000000
O O5 0.500000 0.845231 0.500000
O O6 0.592365 0.877136 0.593517
O O7 0.750226 0.845376 0.062694
O O8 0.825833 0.458008 0.571220
O O9 0.768188 0.412392 0.439449
O O10 0.000000 0.429993 0.000000
O O11 0.500000 0.640885 0.500000
O O12 0.701367 0.614380 0.286020
O O13 0.764561 0.500000 0.960427
O O14 0.000000 0.500000 0.500000
O O15 0.855508 0.543646 0.011160
O O16 0.105364 0.000000 0.056456
O O17 0.117006 0.042005 0.551244
O O18 0.500000 0.500000 0.000000
#
# Coordination Sequence:
#
# PCOD9206769 Si02
#       8
#     8   8   8   8   4   4   8   4
#     4   8  16  34  59  87 118 153 194 246 298 353
#     4  10  21  40  64  88 120 161 204 247 305 363
#     4  12  24  39  60  88 119 159 200 246 304 364
#     4  10  21  36  62  95 121 153 205 255 298 356
#     4  11  24  42  62  87 121 160 208 253 301 356
#     4  12  24  40  64  81 115 163 206 245 299 352
#     4  11  24  38  59  88 122 156 198 250 306 359
#     4  11  23  43  58  78 119 164 196 236 304 369
#
# _framework density 19.550367000000001
#
# number of rings (size 3 to 8) (size 9 to 14) (size 15 to 20)
#    0.000    1.538    1.538    3.462    4.308    1.846 
#    0.000    0.769    0.000    0.923    0.000    0.000 
#    0.000    0.000    0.000    0.000    0.000    0.000 
#
# Total GULP energy -144955.140356 kJ/mol
# GULP energy per Si atom -5575.197706 kJ/mol
# Density = 1.950587 g / cm^3
# Si number density = 19.550367 Si / 1000 Ang^3
#
#
#
# Elastic Constant Matrix: (Units=GPa)
#
#
# Indices 1 2 3 4 5 6 
#
# 1 106.9426 54.0171 21.4361 0.0000 -1.5866 0.0000
# 2 54.0171 154.1988 13.4555 0.0000 10.7901 0.0000
# 3 21.4361 13.4555 83.3877 0.0000 -17.6150 0.0000
# 4 0.0000 0.0000 0.0000 21.1876 0.0000 -8.3470
# 5 -1.5866 10.7901 -17.6150 0.0000 35.7209 0.0000
# 6 0.0000 0.0000 0.0000 -8.3470 0.0000 8.7104
#
#
#
# Elastic Compliance Matrix: (Units=1/GPa)
#
#
# Indices 1 2 3 4 5 6 
#
# 1 0.011829 -0.003989 -0.002268 0.000000 0.000612 0.000000
# 2 -0.003989 0.008184 -0.000954 0.000000 -0.003120 0.000000
# 3 -0.002268 -0.000954 0.014254 0.000000 0.007216 0.000000
# 4 0.000000 0.000000 0.000000 0.075822 0.000000 0.072658
# 5 0.000612 -0.003120 0.007216 0.000000 0.032523 0.000000
# 6 0.000000 0.000000 0.000000 0.072658 0.000000 0.184433
#
#
# Mechanical properties :
#
#
# Convention : Reuss Voigt Hill
#
# Bulk Modulus (GPa) = 50.39111 58.03849 54.21480
# Shear Modulus (GPa) = 14.36447 30.16517 22.26482
#
# Velocity S-wave (km/s) = 2.71355 3.93230 3.37834
# Velocity P-wave (km/s) = 5.97066 7.09707 6.55809
#
# Compressibility (1/GPa) = 0.01984477
#
# Stress axis : x y z
#
# Youngs Moduli (GPa) = 84.53627 122.18939 70.15789
#
# Poissons Ratio (x) = 0.48739 0.15912
# Poissons Ratio (y) = 0.33720 0.06695
# Poissons Ratio (z) = 0.19173 0.11660
#
# Static dielectric constant tensor:
#      x y z
#    x 1.652560 0.000000 -0.027280 
#    y 0.000000 1.753440 0.000000 
#    z -0.027280 0.000000 1.690900 
# 
# From -- ./inp_files/91492.got.cif
#   From: 2010.05.17/outbox.cif.g08.bks.cpg/sg12_46_cif.got.tgz:91492.got - 2010.06.03 13:09:07.
