data_PCOD9206626
_publ_section_title
;
Structure prediction by ZEFSAII (Michael W. Deem and Ramdas Pophale) SiO2 
 PCOD9206626
Probable space group: C 2/M
;
_chemical_formula_sum "Si O2"
_cell_formula_units_Z 40
_cell_length_a 27.756085
_cell_length_b 7.862360
_cell_length_c 21.956057
_cell_angle_alpha 90.000000
_cell_angle_beta 158.450782
_cell_angle_gamma 90.000000
_cell_volume 1759.895206
_symmetry_space_group_name_H-M "C 2/M"
_symmetry_group_IT_number 12
_symmetry_cell_setting 'monoclinic'
loop_
_space_group_symop_operation_xyz
x,y,z
-x,y,-z
-x,-y,-z
x,-y,z
1/2+x,1/2+y,z
1/2-x,1/2+y,-z
1/2-x,1/2-y,-z
1/2+x,1/2-y,z
loop_
_atom_site_type_symbol
_atom_site_label
_atom_site_fract_x
_atom_site_fract_y
_atom_site_fract_z
Si Si1 0.878615 0.298150 0.079252
Si Si2 0.854174 0.791298 0.809555
Si Si3 0.858582 0.797255 0.677720
Si Si4 0.588034 0.302026 0.743384
Si Si5 0.604303 0.805670 0.576946
O O1 0.869898 0.500000 0.079043
O O2 0.909547 0.216323 0.181045
O O3 0.996995 0.261456 0.173079
O O4 0.731407 0.242820 0.888090
O O5 0.826508 0.733885 0.707955
O O6 0.745298 0.727929 0.729035
O O7 0.847257 0.000000 0.802183
O O8 0.000000 0.742860 0.000000
O O9 0.750000 0.750000 0.500000
O O10 0.862462 0.000000 0.685212
O O11 0.569178 0.500000 0.705896
O O12 0.472058 0.196907 0.576977
O O13 0.500000 0.722797 0.500000
O O14 0.625004 0.000000 0.622447
#
# Coordination Sequence:
#
# PCOD9206626 Si02
#       5
#     8   8   8   8   8
#     4  10  21  37  58  85 118 152 195 248 300 360
#     4   9  20  38  58  85 120 156 197 245 295 353
#     4  11  22  36  61  88 119 160 202 249 305 364
#     4  10  21  37  58  85 118 154 194 246 305 360
#     4  10  21  36  60  88 115 153 200 247 294 354
#
# _framework density 22.728625999999998
#
# number of rings (size 3 to 8) (size 9 to 14) (size 15 to 20)
#    0.000    2.000    0.000    3.000    2.800    4.400 
#    0.000    1.000    0.000    3.000    0.000    0.000 
#    0.000    0.000    0.000    0.000    0.000    0.000 
#
# Total GULP energy -111774.074989 kJ/mol
# GULP energy per Si atom -5588.703749 kJ/mol
# Density = 2.267689 g / cm^3
# Si number density = 22.728626 Si / 1000 Ang^3
#
#
#
# Elastic Constant Matrix: (Units=GPa)
#
#
# Indices 1 2 3 4 5 6 
#
# 1 123.1778 0.6911 53.7050 0.0000 41.4104 0.0000
# 2 0.6911 46.2861 0.3142 0.0000 1.1767 0.0000
# 3 53.7050 0.3142 108.9233 0.0000 31.4461 0.0000
# 4 0.0000 0.0000 0.0000 15.9541 0.0000 -0.9433
# 5 41.4104 1.1767 31.4461 0.0000 47.5037 0.0000
# 6 0.0000 0.0000 0.0000 -0.9433 0.0000 19.4924
#
#
#
# Elastic Compliance Matrix: (Units=1/GPa)
#
#
# Indices 1 2 3 4 5 6 
#
# 1 0.012621 0.000053 -0.003766 0.000000 -0.008511 0.000000
# 2 0.000053 0.021620 0.000098 0.000000 -0.000647 0.000000
# 3 -0.003766 0.000098 0.012474 0.000000 -0.004977 0.000000
# 4 0.000000 0.000000 0.000000 0.062860 0.000000 0.003042
# 5 -0.008511 -0.000647 -0.004977 0.000000 0.031780 0.000000
# 6 0.000000 0.000000 0.000000 0.003042 0.000000 0.051449
#
#
# Mechanical properties :
#
#
# Convention : Reuss Voigt Hill
#
# Bulk Modulus (GPa) = 25.32539 43.08975 34.20757
# Shear Modulus (GPa) = 23.45264 31.50184 27.47724
#
# Velocity S-wave (km/s) = 3.21573 3.72694 3.48073
# Velocity P-wave (km/s) = 4.99546 6.12533 5.58902
#
# Compressibility (1/GPa) = 0.03948607
#
# Stress axis : x y z
#
# Youngs Moduli (GPa) = 79.23217 46.25397 80.16530
#
# Poissons Ratio (x) = -0.00247 0.30191
# Poissons Ratio (y) = -0.00424 -0.00786
# Poissons Ratio (z) = 0.29839 -0.00454
#
# Static dielectric constant tensor:
#      x y z
#    x 1.864960 0.000000 0.008570 
#    y 0.000000 1.836890 0.000000 
#    z 0.008570 0.000000 1.812550 
# 
# From -- ./inp_files/92830.got.cif
#   From: 2010.05.17/outbox.cif.g08.bks.cpg/sg12_47_cif.got.tgz:92830.got - 2010.06.03 13:09:07.
