data_PCOD9206379
_publ_section_title
;
Structure prediction by ZEFSAII (Michael W. Deem and Ramdas Pophale) SiO2 
 PCOD9206379
Probable space group: C 2/M
;
_chemical_formula_sum "Si O2"
_cell_formula_units_Z 52
_cell_length_a 32.574706
_cell_length_b 7.889579
_cell_length_c 15.507923
_cell_angle_alpha 90.000000
_cell_angle_beta 138.899503
_cell_angle_gamma 90.000000
_cell_volume 2620.026201
_symmetry_space_group_name_H-M "C 2/M"
_symmetry_group_IT_number 12
_symmetry_cell_setting 'monoclinic'
loop_
_space_group_symop_operation_xyz
x,y,z
-x,y,-z
-x,-y,-z
x,-y,z
1/2+x,1/2+y,z
1/2-x,1/2+y,-z
1/2-x,1/2-y,-z
1/2+x,1/2-y,z
loop_
_atom_site_type_symbol
_atom_site_label
_atom_site_fract_x
_atom_site_fract_y
_atom_site_fract_z
Si Si1 0.852056 0.000000 0.260410
Si Si2 0.413645 0.500000 0.185317
Si Si3 0.767366 0.690730 0.123858
Si Si4 0.575862 0.202483 0.350839
Si Si5 0.450218 0.500000 0.556137
Si Si6 0.307079 0.803331 0.836405
Si Si7 0.217960 0.298945 0.538593
Si Si8 0.561830 0.801088 0.907615
O O1 0.858628 0.000000 0.167169
O O2 0.816506 0.169271 0.231624
O O3 0.915213 0.000000 0.411955
O O4 0.476526 0.500000 0.339702
O O5 0.419778 0.668090 0.137376
O O6 0.791888 0.500000 0.158859
O O7 0.714011 0.700045 0.112435
O O8 0.750000 0.750000 0.000000
O O9 0.566885 0.331928 0.415698
O O10 0.644296 0.247235 0.422002
O O11 0.512360 0.227655 0.192657
O O12 0.577070 0.000000 0.374692
O O13 0.259587 0.772094 0.683060
O O14 0.301870 0.000000 0.852398
O O15 0.381109 0.773539 0.934367
O O16 0.220146 0.500000 0.552025
O O17 0.250000 0.250000 0.500000
O O18 0.565865 0.000000 0.888066
#
# Coordination Sequence:
#
# PCOD9206379 Si02
#       8
#     4   4   8   8   4   8   8   8
#     4  12  23  36  54  82 120 156 206 254 306 377
#     4  10  21  36  58  83 118 156 199 257 307 357
#     4  12  24  39  57  85 123 165 205 255 313 362
#     4   9  20  40  62  86 116 156 204 246 303 365
#     4  10  21  36  60  85 112 158 201 251 308 360
#     4  11  22  39  63  91 123 161 206 258 311 366
#     4  11  24  40  63  92 127 164 199 254 311 367
#     4   9  20  38  62  86 113 156 205 250 301 365
#
# _framework density 19.84713
#
# number of rings (size 3 to 8) (size 9 to 14) (size 15 to 20)
#    0.000    1.538    1.538    3.000    4.308    3.692 
#    0.000    0.769    0.000    9.231    0.000    0.000 
#    0.000    0.000    0.000    0.000    0.000    0.000 
#
# Total GULP energy -144848.456650 kJ/mol
# GULP energy per Si atom -5571.094487 kJ/mol
# Density = 1.980196 g / cm^3
# Si number density = 19.847130 Si / 1000 Ang^3
#
#
#
# Elastic Constant Matrix: (Units=GPa)
#
#
# Indices 1 2 3 4 5 6 
#
# 1 92.8445 21.0261 53.7846 0.0000 21.4819 0.0000
# 2 21.0261 89.4250 25.4584 0.0000 15.9631 0.0000
# 3 53.7846 25.4584 125.7601 0.0000 29.8401 0.0000
# 4 0.0000 0.0000 0.0000 19.3483 0.0000 2.2662
# 5 21.4819 15.9631 29.8401 0.0000 31.6343 0.0000
# 6 0.0000 0.0000 0.0000 2.2662 0.0000 19.7917
#
#
#
# Elastic Compliance Matrix: (Units=1/GPa)
#
#
# Indices 1 2 3 4 5 6 
#
# 1 0.015106 -0.001245 -0.005055 0.000000 -0.004862 0.000000
# 2 -0.001245 0.012562 -0.000911 0.000000 -0.004634 0.000000
# 3 -0.005055 -0.000911 0.012078 0.000000 -0.007500 0.000000
# 4 0.000000 0.000000 0.000000 0.052387 0.000000 -0.005998
# 5 -0.004862 -0.004634 -0.007500 0.000000 0.044326 0.000000
# 6 0.000000 0.000000 0.000000 -0.005998 0.000000 0.051213
#
#
# Mechanical properties :
#
#
# Convention : Reuss Voigt Hill
#
# Bulk Modulus (GPa) = 39.48862 56.50755 47.99809
# Shear Modulus (GPa) = 23.74920 28.00555 25.87737
#
# Velocity S-wave (km/s) = 3.46295 3.76049 3.61478
# Velocity P-wave (km/s) = 5.99408 6.88391 6.45435
#
# Compressibility (1/GPa) = 0.02532375
#
# Stress axis : x y z
#
# Youngs Moduli (GPa) = 66.20017 79.60619 82.79836
#
# Poissons Ratio (x) = 0.09910 0.41853
# Poissons Ratio (y) = 0.08241 0.07543
# Poissons Ratio (z) = 0.33463 0.07252
#
# Static dielectric constant tensor:
#      x y z
#    x 1.679220 0.000000 0.067020 
#    y 0.000000 1.733260 0.000000 
#    z 0.067020 0.000000 1.740340 
# 
# From -- ./inp_files/250197.got.cif
#   From: 2010.05.17/outbox.cif.g08.bks.cpg/sg12_126_cif.got.tgz:250197.got - 2010.06.03 13:09:07.
