data_PCOD9206540
_publ_section_title
;
Structure prediction by ZEFSAII (Michael W. Deem and Ramdas Pophale) SiO2 
 PCOD9206540
Probable space group: C 2/M
;
_chemical_formula_sum "Si O2"
_cell_formula_units_Z 48
_cell_length_a 12.855669
_cell_length_b 19.727943
_cell_length_c 10.685890
_cell_angle_alpha 90.000000
_cell_angle_beta 60.604568
_cell_angle_gamma 90.000000
_cell_volume 2361.192774
_symmetry_space_group_name_H-M "C 2/M"
_symmetry_group_IT_number 12
_symmetry_cell_setting 'monoclinic'
loop_
_space_group_symop_operation_xyz
x,y,z
-x,y,-z
-x,-y,-z
x,-y,z
1/2+x,1/2+y,z
1/2-x,1/2+y,-z
1/2-x,1/2-y,-z
1/2+x,1/2-y,z
loop_
_atom_site_type_symbol
_atom_site_label
_atom_site_fract_x
_atom_site_fract_y
_atom_site_fract_z
Si Si1 0.157061 0.828725 0.142997
Si Si2 0.405802 0.287138 0.360102
Si Si3 0.864583 0.423263 0.627835
Si Si4 0.867287 0.580812 0.119530
Si Si5 0.686970 0.855516 0.584954
Si Si6 0.219042 0.191251 0.836197
O O1 0.256135 0.885303 0.113556
O O2 0.215606 0.759140 0.157840
O O3 0.028871 0.827642 0.285010
O O4 0.139296 0.827418 0.003468
O O5 0.406801 0.206081 0.384329
O O6 0.313571 0.317013 0.515588
O O7 0.349495 0.294829 0.253338
O O8 0.848150 0.500000 0.682644
O O9 0.796883 0.406933 0.538942
O O10 0.815046 0.368142 0.753247
O O11 0.000000 0.415619 0.500000
O O12 0.863057 0.500000 0.109626
O O13 0.850676 0.604466 0.271522
O O14 0.000000 0.604244 0.000000
#
# Coordination Sequence:
#
# PCOD9206540 Si02
#       6
#     8   8   8   8   8   8
#     4  11  23  38  65  92 125 168 211 256 314 380
#     4  10  21  39  63  95 126 160 210 262 311 365
#     4  10  21  36  59  88 121 164 209 255 310 372
#     4  11  26  44  64  92 128 167 211 266 324 380
#     4  10  21  40  62  91 127 163 205 262 313 367
#     4  10  22  37  59  93 125 162 205 260 309 368
#
# _framework density 20.328709
#
# number of rings (size 3 to 8) (size 9 to 14) (size 15 to 20)
#    0.000    1.667    1.667    2.000    7.000    1.333 
#    0.000    5.000    0.000    5.000    0.000    0.000 
#    0.000    0.000    0.000    0.000    0.000    0.000 
#
# Total GULP energy -133920.501331 kJ/mol
# GULP energy per Si atom -5580.020889 kJ/mol
# Density = 2.028244 g / cm^3
# Si number density = 20.328709 Si / 1000 Ang^3
#
#
#
# Elastic Constant Matrix: (Units=GPa)
#
#
# Indices 1 2 3 4 5 6 
#
# 1 52.7027 25.0694 25.4428 0.0000 -17.2493 0.0000
# 2 25.0694 101.8471 28.1247 0.0000 -12.4572 0.0000
# 3 25.4428 28.1247 109.7119 0.0000 -16.5640 0.0000
# 4 0.0000 0.0000 0.0000 15.1622 0.0000 -14.9737
# 5 -17.2493 -12.4572 -16.5640 0.0000 28.4485 0.0000
# 6 0.0000 0.0000 0.0000 -14.9737 0.0000 9.6873
#
#
#
# Elastic Compliance Matrix: (Units=1/GPa)
#
#
# Indices 1 2 3 4 5 6 
#
# 1 0.026560 -0.004128 -0.003226 0.000000 0.012418 0.000000
# 2 -0.004128 0.011506 -0.001765 0.000000 0.001508 0.000000
# 3 -0.003226 -0.001765 0.010858 0.000000 0.003593 0.000000
# 4 0.000000 0.000000 0.000000 -0.125272 0.000000 -0.193633
# 5 0.012418 0.001508 0.003593 0.000000 0.045433 0.000000
# 6 0.000000 0.000000 0.000000 -0.193633 0.000000 -0.196070
#
#
# Mechanical properties :
#
#
# Convention : Reuss Voigt Hill
#
# Bulk Modulus (GPa) = 32.58781 46.83729 39.71255
# Shear Modulus (GPa) = -25.18653 23.03459 -1.07597
#
# Velocity S-wave (km/s) = -3.52371 3.36982 -0.72831
# Velocity P-wave (km/s) = 0.70010 6.18311 4.34400
#
# Compressibility (1/GPa) = 0.03068632
#
# Stress axis : x y z
#
# Youngs Moduli (GPa) = 37.65092 86.90761 92.09944
#
# Poissons Ratio (x) = 0.35874 0.29715
# Poissons Ratio (y) = 0.15541 0.16253
# Poissons Ratio (z) = 0.12148 0.15337
#
# Static dielectric constant tensor:
#      x y z
#    x 1.804010 0.000000 0.008050 
#    y 0.000000 1.701880 0.000000 
#    z 0.008050 0.000000 1.714330 
# 
# From -- ./inp_files/146935.got.cif
#   From: 2010.05.17/outbox.cif.g08.bks.cpg/sg12_74_cif.got.tgz:146935.got - 2010.06.03 13:09:07.
