data_PCOD9206216
_publ_section_title
;
Structure prediction by ZEFSAII (Michael W. Deem and Ramdas Pophale) SiO2 
 PCOD9206216
Probable space group: C 2/M
;
_chemical_formula_sum "Si O2"
_cell_formula_units_Z 56
_cell_length_a 24.334106
_cell_length_b 11.584254
_cell_length_c 11.938742
_cell_angle_alpha 90.000000
_cell_angle_beta 76.469427
_cell_angle_gamma 90.000000
_cell_volume 3272.034308
_symmetry_space_group_name_H-M "C 2/M"
_symmetry_group_IT_number 12
_symmetry_cell_setting 'monoclinic'
loop_
_space_group_symop_operation_xyz
x,y,z
-x,y,-z
-x,-y,-z
x,-y,z
1/2+x,1/2+y,z
1/2-x,1/2+y,-z
1/2-x,1/2-y,-z
1/2+x,1/2-y,z
loop_
_atom_site_type_symbol
_atom_site_label
_atom_site_fract_x
_atom_site_fract_y
_atom_site_fract_z
Si Si1 0.145869 0.862376 0.062383
Si Si2 0.399689 0.637235 0.577317
Si Si3 0.471343 0.000000 0.834329
Si Si4 0.661789 0.233800 0.821988
Si Si5 0.041401 0.753795 0.243438
Si Si6 0.717085 0.363162 0.249074
Si Si7 0.908201 0.500000 0.101447
Si Si8 0.079443 0.862537 0.694542
O O1 0.088355 0.807711 0.138573
O O2 0.193242 0.841880 0.135141
O O3 0.138950 0.000000 0.054398
O O4 0.160951 0.804414 0.938252
O O5 0.408659 0.500000 0.595369
O O6 0.440288 0.706902 0.641061
O O7 0.335267 0.663844 0.643946
O O8 0.410491 0.658797 0.442241
O O9 0.460274 0.883266 0.771569
O O10 0.535935 0.000000 0.847658
O O11 0.431400 0.000000 0.963239
O O12 0.725945 0.206047 0.757682
O O13 0.628752 0.113636 0.858350
O O14 0.628267 0.305400 0.744782
O O15 0.980424 0.806546 0.245097
O O16 0.728733 0.500000 0.253196
O O17 0.077675 0.000000 0.712912
#
# Coordination Sequence:
#
# PCOD9206216 Si02
#       8
#     8   8   4   8   8   8   4   8
#     4  10  21  36  56  88 115 142 187 235 285 334
#     4   9  20  40  61  84 110 146 192 237 287 329
#     4  11  22  38  56  85 120 153 188 221 279 344
#     4  12  21  36  58  83 115 151 191 226 281 339
#     4  11  20  37  61  84 113 148 185 233 279 340
#     4   9  19  36  60  80 108 150 189 233 279 333
#     4  11  22  38  53  82 121 160 181 217 283 353
#     4  11  23  37  58  85 114 149 187 235 287 333
#
# _framework density 17.114733999999999
#
# number of rings (size 3 to 8) (size 9 to 14) (size 15 to 20)
#    0.000    1.571    3.571    3.429    0.000    2.286 
#    0.000    3.571    6.286    0.000    0.000    0.000 
#    0.000    0.000    0.000    0.000    0.000    0.000 
#
# Total GULP energy -156385.528747 kJ/mol
# GULP energy per Si atom -5585.197455 kJ/mol
# Density = 1.707578 g / cm^3
# Si number density = 17.114734 Si / 1000 Ang^3
#
#
#
# Elastic Constant Matrix: (Units=GPa)
#
#
# Indices 1 2 3 4 5 6 
#
# 1 106.6494 43.8247 16.6960 0.0000 -8.5712 0.0000
# 2 43.8247 96.5577 20.8441 0.0000 1.2053 0.0000
# 3 16.6960 20.8441 26.5243 0.0000 -0.1187 0.0000
# 4 0.0000 0.0000 0.0000 17.4659 0.0000 1.4899
# 5 -8.5712 1.2053 -0.1187 0.0000 10.3868 0.0000
# 6 0.0000 0.0000 0.0000 1.4899 0.0000 32.1395
#
#
#
# Elastic Compliance Matrix: (Units=1/GPa)
#
#
# Indices 1 2 3 4 5 6 
#
# 1 0.013059 -0.005184 -0.004095 0.000000 0.011331 0.000000
# 2 -0.005184 0.014556 -0.008203 0.000000 -0.006061 0.000000
# 3 -0.004095 -0.008203 0.046716 0.000000 -0.001893 0.000000
# 4 0.000000 0.000000 0.000000 0.057482 0.000000 -0.002665
# 5 0.011331 -0.006061 -0.001893 0.000000 0.106308 0.000000
# 6 0.000000 0.000000 0.000000 -0.002665 0.000000 0.031238
#
#
# Mechanical properties :
#
#
# Convention : Reuss Voigt Hill
#
# Bulk Modulus (GPa) = 25.40193 43.60677 34.50435
# Shear Modulus (GPa) = 15.75077 21.88955 18.82016
#
# Velocity S-wave (km/s) = 3.03694 3.58017 3.31969
# Velocity P-wave (km/s) = 5.21265 6.52875 5.90747
#
# Compressibility (1/GPa) = 0.03936709
#
# Stress axis : x y z
#
# Youngs Moduli (GPa) = 76.57787 68.70075 21.40578
#
# Poissons Ratio (x) = 0.35617 0.08766
# Poissons Ratio (y) = 0.39701 0.17558
# Poissons Ratio (z) = 0.31359 0.56352
#
# Static dielectric constant tensor:
#      x y z
#    x 1.565220 0.000000 -0.004800 
#    y 0.000000 1.553830 0.000000 
#    z -0.004800 0.000000 1.560670 
# 
# From -- ./inp_files/165657.got.cif
#   From: 2010.05.17/outbox.cif.g08.bks.cpg/sg12_83_cif.got.tgz:165657.got - 2010.06.03 13:09:07.
