data_PCOD9206387
_publ_section_title
;
Structure prediction by ZEFSAII (Michael W. Deem and Ramdas Pophale) SiO2 
 PCOD9206387
Probable space group: C 2/M
;
_chemical_formula_sum "Si O2"
_cell_formula_units_Z 64
_cell_length_a 22.667284
_cell_length_b 14.990692
_cell_length_c 9.516556
_cell_angle_alpha 90.000000
_cell_angle_beta 91.298244
_cell_angle_gamma 90.000000
_cell_volume 3232.879213
_symmetry_space_group_name_H-M "C 2/M"
_symmetry_group_IT_number 12
_symmetry_cell_setting 'monoclinic'
loop_
_space_group_symop_operation_xyz
x,y,z
-x,y,-z
-x,-y,-z
x,-y,z
1/2+x,1/2+y,z
1/2-x,1/2+y,-z
1/2-x,1/2-y,-z
1/2+x,1/2-y,z
loop_
_atom_site_type_symbol
_atom_site_label
_atom_site_fract_x
_atom_site_fract_y
_atom_site_fract_z
Si Si1 0.359272 0.785690 0.695430
Si Si2 0.433240 0.792520 0.944255
Si Si3 0.650757 0.639235 0.749830
Si Si4 0.178111 0.896417 0.428958
Si Si5 0.160978 0.342723 0.846768
Si Si6 0.682171 0.901658 0.552048
Si Si7 0.726496 0.898056 0.108555
Si Si8 0.570230 0.595624 0.980882
O O1 0.418823 0.811854 0.781756
O O2 0.350021 0.680549 0.668476
O O3 0.352470 0.832153 0.544813
O O4 0.308286 0.830588 0.789859
O O5 0.500000 0.796728 0.000000
O O6 0.393328 0.850087 0.047761
O O7 0.409944 0.690054 0.955788
O O8 0.654994 0.615360 0.587182
O O9 0.657981 0.744259 0.780029
O O10 0.706374 0.599602 0.836998
O O11 0.591292 0.604801 0.820772
O O12 0.248444 0.878087 0.439142
O O13 0.169757 0.000000 0.385070
O O14 0.160437 0.403149 0.710389
O O15 0.216993 0.362037 0.949772
O O16 0.677740 0.000000 0.486888
O O17 0.703314 0.000000 0.114223
O O18 0.593133 0.500000 0.036259
O O19 0.500000 0.594554 0.000000
#
# Coordination Sequence:
#
# PCOD9206387 Si02
#       8
#     8   8   8   8   8   8   8   8
#     4  11  21  37  59  85 119 156 198 239 293 356
#     4   9  21  40  61  81 107 151 200 248 302 348
#     4  11  19  34  55  83 120 161 196 235 287 350
#     4  11  22  35  56  88 128 162 193 232 288 361
#     4  10  21  36  58  84 117 150 194 247 297 347
#     4  11  21  36  58  86 123 160 191 233 293 359
#     4  11  21  34  55  87 122 159 195 237 294 355
#     4   9  18  33  55  80 109 146 193 241 284 335
#
# _framework density 19.796595
#
# number of rings (size 3 to 8) (size 9 to 14) (size 15 to 20)
#    0.000    1.625    2.500    3.375    0.000    2.500 
#    0.000    1.875    0.000   14.250    0.000    5.250 
#    0.000    0.000    0.000    0.000    0.000    0.000 
#
# Total GULP energy -178433.143000 kJ/mol
# GULP energy per Si atom -5576.035719 kJ/mol
# Density = 1.975154 g / cm^3
# Si number density = 19.796595 Si / 1000 Ang^3
#
#
#
# Elastic Constant Matrix: (Units=GPa)
#
#
# Indices 1 2 3 4 5 6 
#
# 1 74.3973 24.6042 46.7690 0.0000 3.4302 0.0000
# 2 24.6042 70.9908 33.1142 0.0000 0.9517 0.0000
# 3 46.7690 33.1142 127.4059 0.0000 6.6745 0.0000
# 4 0.0000 0.0000 0.0000 -249.7026 0.0000-1517.4294
# 5 3.4302 0.9517 6.6745 0.0000 22.2417 0.0000
# 6 0.0000 0.0000 0.0000-1517.4294 0.0000-8806.9754
#
#
#
# Elastic Compliance Matrix: (Units=1/GPa)
#
#
# Indices 1 2 3 4 5 6 
#
# 1 0.018286 -0.003661 -0.005711 0.000000 -0.000950 0.000000
# 2 -0.003661 0.016770 -0.003055 0.000000 0.000764 0.000000
# 3 -0.005711 -0.003055 0.010857 0.000000 -0.002247 0.000000
# 4 0.000000 0.000000 0.000000 0.085118 0.000000 -0.014666
# 5 -0.000950 0.000764 -0.002247 0.000000 0.045749 0.000000
# 6 0.000000 0.000000 0.000000 -0.014666 0.000000 0.002413
#
#
# Mechanical properties :
#
#
# Convention : Reuss Voigt Hill
#
# Bulk Modulus (GPa) = 47.48537 53.52987 50.50762
# Shear Modulus (GPa) = 23.68913 -1795.66681 -885.98884
#
# Velocity S-wave (km/s) = 3.46298 -30.15008 -21.17824
# Velocity P-wave (km/s) = 6.32680 34.42293 23.92603
#
# Compressibility (1/GPa) = 0.02105912
#
# Stress axis : x y z
#
# Youngs Moduli (GPa) = 54.68602 59.63096 92.10495
#
# Poissons Ratio (x) = 0.21830 0.52605
# Poissons Ratio (y) = 0.20020 0.28136
# Poissons Ratio (z) = 0.31233 0.18216
#
# Static dielectric constant tensor:
#      x y z
#    x 1.686060 0.000000 -0.007460 
#    y 0.000000 1.765160 0.000000 
#    z -0.007460 0.000000 1.699610 
# 
# From -- ./inp_files/96901.got.cif
#   From: 2010.05.17/outbox.cif.g08.bks.cpg/sg12_49_cif.got.tgz:96901.got - 2010.06.03 13:09:07.
