data_PCOD9206418
_publ_section_title
;
Structure prediction by ZEFSAII (Michael W. Deem and Ramdas Pophale) SiO2 
 PCOD9206418
Probable space group: C 2/M
;
_chemical_formula_sum "Si O2"
_cell_formula_units_Z 64
_cell_length_a 30.205908
_cell_length_b 8.834681
_cell_length_c 14.780683
_cell_angle_alpha 90.000000
_cell_angle_beta 52.016715
_cell_angle_gamma 90.000000
_cell_volume 3108.911592
_symmetry_space_group_name_H-M "C 2/M"
_symmetry_group_IT_number 12
_symmetry_cell_setting 'monoclinic'
loop_
_space_group_symop_operation_xyz
x,y,z
-x,y,-z
-x,-y,-z
x,-y,z
1/2+x,1/2+y,z
1/2-x,1/2+y,-z
1/2-x,1/2-y,-z
1/2+x,1/2-y,z
loop_
_atom_site_type_symbol
_atom_site_label
_atom_site_fract_x
_atom_site_fract_y
_atom_site_fract_z
Si Si1 0.806853 0.672427 0.958709
Si Si2 0.159584 0.329097 0.286478
Si Si3 0.392414 0.183462 0.005072
Si Si4 0.489697 0.818499 0.747951
Si Si5 0.280306 0.320506 0.639213
Si Si6 0.379292 0.182331 0.391448
Si Si7 0.943250 0.832397 0.626467
Si Si8 0.841266 0.181460 0.248844
O O1 0.793912 0.500000 0.999726
O O2 0.840059 0.672655 0.822429
O O3 0.750000 0.750000 0.000000
O O4 0.845125 0.734214 0.991175
O O5 0.169222 0.500000 0.305872
O O6 0.205308 0.222894 0.275324
O O7 0.097756 0.268952 0.382879
O O8 0.377756 0.261977 0.117529
O O9 0.388529 0.000000 0.019958
O O10 0.452997 0.216621 0.883963
O O11 0.555523 0.778793 0.670599
O O12 0.460066 0.737092 0.701369
O O13 0.485408 0.000000 0.739932
O O14 0.275385 0.500000 0.633542
O O15 0.333333 0.256359 0.516070
O O16 0.222577 0.240251 0.684049
O O17 0.364735 0.243498 0.310305
O O18 0.373875 0.000000 0.402008
O O19 0.000000 0.845082 0.500000
O O20 0.917500 0.000000 0.670529
O O21 0.841687 0.000000 0.254528
#
# Coordination Sequence:
#
# PCOD9206418 Si02
#       8
#     8   8   8   8   8   8   8   8
#     4  10  21  36  58  86 122 160 204 253 302 362
#     4  11  22  39  61  90 124 164 210 251 304 375
#     4  10  21  42  65  91 127 170 216 266 318 378
#     4  10  22  42  67  93 126 169 218 265 318 384
#     4  12  25  43  66  96 132 168 211 269 327 388
#     4  11  24  44  70  97 125 167 215 269 329 387
#     4  11  23  37  57  89 128 168 210 257 311 369
#     4  12  26  44  66  95 128 168 215 268 327 389
#
# _framework density 20.585981
#
# number of rings (size 3 to 8) (size 9 to 14) (size 15 to 20)
#    0.000    1.125    1.250    5.250    0.000    8.500 
#    0.000    2.500    0.000    0.000    0.000    0.000 
#    0.000    0.000    0.000    0.000    0.000    0.000 
#
# Total GULP energy -178837.900253 kJ/mol
# GULP energy per Si atom -5588.684383 kJ/mol
# Density = 2.053913 g / cm^3
# Si number density = 20.585981 Si / 1000 Ang^3
#
#
#
# Elastic Constant Matrix: (Units=GPa)
#
#
# Indices 1 2 3 4 5 6 
#
# 1 76.0387 21.2997 17.0351 0.0000 0.2623 0.0000
# 2 21.2997 63.6872 28.9458 0.0000 -5.0326 0.0001
# 3 17.0351 28.9458 80.6729 0.0000 -2.8861 0.0000
# 4 0.0000 0.0000 0.0000 29.9910 0.0000 5.0416
# 5 0.2623 -5.0326 -2.8861 0.0000 38.8496 0.0000
# 6 0.0000 0.0001 0.0000 5.0416 0.0000 25.9763
#
#
#
# Elastic Compliance Matrix: (Units=1/GPa)
#
#
# Indices 1 2 3 4 5 6 
#
# 1 0.014704 -0.004247 -0.001608 0.000000 -0.000769 0.000000
# 2 -0.004247 0.020134 -0.006250 0.000000 0.002173 0.000000
# 3 -0.001608 -0.006250 0.014989 0.000000 0.000315 0.000000
# 4 0.000000 0.000000 0.000000 0.034468 0.000000 -0.006690
# 5 -0.000769 0.002173 0.000315 0.000000 0.026050 0.000000
# 6 0.000000 0.000000 0.000000 -0.006690 0.000000 0.039795
#
#
# Mechanical properties :
#
#
# Convention : Reuss Voigt Hill
#
# Bulk Modulus (GPa) = 39.03751 39.44000 39.23876
# Shear Modulus (GPa) = 27.33880 29.17128 28.25504
#
# Velocity S-wave (km/s) = 3.64817 3.76845 3.70880
# Velocity P-wave (km/s) = 6.06216 6.17537 6.11903
#
# Compressibility (1/GPa) = 0.02561639
#
# Stress axis : x y z
#
# Youngs Moduli (GPa) = 68.00896 49.66632 66.71534
#
# Poissons Ratio (x) = 0.21095 0.10731
# Poissons Ratio (y) = 0.28886 0.41695
# Poissons Ratio (z) = 0.10939 0.31040
#
# Static dielectric constant tensor:
#      x y z
#    x 1.725390 0.000000 -0.020410 
#    y 0.000000 1.745110 0.000000 
#    z -0.020410 0.000000 1.807680 
# 
# From -- ./inp_files/249759.got.cif
#   From: 2010.05.17/outbox.cif.g08.bks.cpg/sg12_125_cif.got.tgz:249759.got - 2010.06.03 13:09:07.
