data_PCOD9206988
_publ_section_title
;
Structure prediction by ZEFSAII (Michael W. Deem and Ramdas Pophale) SiO2 
 PCOD9206988
Probable space group: C 2/M
;
_chemical_formula_sum "Si O2"
_cell_formula_units_Z 64
_cell_length_a 10.106421
_cell_length_b 24.886916
_cell_length_c 31.671312
_cell_angle_alpha 90.000000
_cell_angle_beta 152.019204
_cell_angle_gamma 90.000000
_cell_volume 3737.403058
_symmetry_space_group_name_H-M "C 2/M"
_symmetry_group_IT_number 12
_symmetry_cell_setting 'monoclinic'
loop_
_space_group_symop_operation_xyz
x,y,z
-x,y,-z
-x,-y,-z
x,-y,z
1/2+x,1/2+y,z
1/2-x,1/2+y,-z
1/2-x,1/2-y,-z
1/2+x,1/2-y,z
loop_
_atom_site_type_symbol
_atom_site_label
_atom_site_fract_x
_atom_site_fract_y
_atom_site_fract_z
Si Si1 0.820312 0.936502 0.077555
Si Si2 0.619345 0.158727 0.176981
Si Si3 0.236716 0.172451 0.686230
Si Si4 0.210036 0.239528 0.939260
Si Si5 0.862739 0.697922 0.506784
Si Si6 0.235135 0.437972 0.956526
Si Si7 0.231539 0.847149 0.218060
Si Si8 0.693131 0.697962 0.299262
O O1 0.047388 0.901009 0.165685
O O2 0.862206 0.000000 0.096343
O O3 0.500000 0.923172 0.000000
O O4 0.839336 0.924927 0.033001
O O5 0.719287 0.154330 0.253341
O O6 0.377342 0.204124 0.106625
O O7 0.499375 0.103704 0.124585
O O8 0.876186 0.181102 0.221294
O O9 0.475234 0.147224 0.723846
O O10 0.284662 0.237298 0.697514
O O11 0.916272 0.163030 0.580698
O O12 0.962752 0.197214 0.860307
O O13 0.500000 0.219853 0.000000
O O14 0.250000 0.250000 0.000000
O O15 0.750000 0.750000 0.500000
O O16 0.000000 0.711548 0.500000
O O17 0.105185 0.677032 0.606318
O O18 0.134659 0.500000 0.928638
O O19 0.500000 0.434075 0.000000
O O20 0.280342 0.825718 0.278888
#
# Coordination Sequence:
#
# PCOD9206988 Si02
#       8
#     8   8   8   8   8   8   8   8
#     4  10  21  39  58  78 109 147 192 238 270 312
#     4  12  20  35  54  76 108 144 180 226 271 316
#     4  11  21  36  53  80 114 144 177 225 265 337
#     4  12  22  32  46  69 110 145 172 208 262 325
#     4  10  22  36  56  80 111 150 181 215 280 327
#     4  10  21  37  56  78 105 143 192 234 270 312
#     4  12  22  35  54  82 110 144 186 222 274 321
#     4  11  21  36  53  80 114 142 179 226 262 341
#
# _framework density 17.124191
#
# number of rings (size 3 to 8) (size 9 to 14) (size 15 to 20)
#    0.000    1.000    3.750    4.500    5.250    0.000 
#    0.000    0.000    0.000    0.000    0.000    5.250 
#    0.000    0.000    0.000    0.000    0.000    0.000 
#
# Total GULP energy -178780.567996 kJ/mol
# GULP energy per Si atom -5586.892750 kJ/mol
# Density = 1.708522 g / cm^3
# Si number density = 17.124191 Si / 1000 Ang^3
#
#
#
# Elastic Constant Matrix: (Units=GPa)
#
#
# Indices 1 2 3 4 5 6 
#
# 1 71.7269 -11.8486 0.5503 0.5229 0.4795 -2.7434
# 2 -11.8486 49.3721 19.6064 0.2649 -1.9702 -1.3543
# 3 0.5503 19.6064 71.3418 0.5083 -4.3067 -2.6378
# 4 0.5229 0.2649 0.5083 -168.1873 0.1122 981.1206
# 5 0.4795 -1.9702 -4.3067 0.1122 32.2520 -0.6712
# 6 -2.7434 -1.3543 -2.6378 981.1206 -0.6712-5183.4381
#
#
#
# Elastic Compliance Matrix: (Units=1/GPa)
#
#
# Indices 1 2 3 4 5 6 
#
# 1 0.014610 0.003983 -0.001216 -0.000004 -0.000136 -0.000009
# 2 0.003983 0.023832 -0.006549 -0.000009 0.000522 -0.000007
# 3 -0.001216 -0.006549 0.015931 -0.000003 0.001745 -0.000007
# 4 -0.000004 -0.000009 -0.000003 0.057081 0.000025 0.010804
# 5 -0.000136 0.000522 0.001745 0.000025 0.031273 0.000000
# 6 -0.000009 -0.000007 -0.000007 0.010804 0.000000 0.001852
#
#
# Mechanical properties :
#
#
# Convention : Reuss Voigt Hill
#
# Bulk Modulus (GPa) = 21.36312 23.22856 22.29584
# Shear Modulus (GPa) = 29.80728 -1051.59917 -510.89595
#
# Velocity S-wave (km/s) = 4.17664 -24.80796 -17.29148
# Velocity P-wave (km/s) = 5.98010 28.40749 19.63700
#
# Compressibility (1/GPa) = 0.04680964
#
# Stress axis : x y z
#
# Youngs Moduli (GPa) = 68.44769 41.96102 62.76936
#
# Poissons Ratio (x) = -0.16714 0.07632
# Poissons Ratio (y) = -0.27265 0.41107
# Poissons Ratio (z) = 0.08323 0.27480
#
# Static dielectric constant tensor:
#      x y z
#    x 1.573020 0.000000 -0.007930 
#    y 0.000000 1.569370 -0.000010 
#    z -0.007930 -0.000010 1.584410 
# 
# From -- ./inp_files/302293.got.cif
#   From: 2010.05.17/outbox.cif.g08.bks.cpg/sg12_152_cif.got.tgz:302293.got - 2010.06.03 13:09:07.
