data_PCOD9206309
_publ_section_title
;
Structure prediction by ZEFSAII (Michael W. Deem and Ramdas Pophale) SiO2 
 PCOD9206309
Probable space group: C 2/M
;
_chemical_formula_sum "Si O2"
_cell_formula_units_Z 48
_cell_length_a 10.099998
_cell_length_b 10.054833
_cell_length_c 25.850081
_cell_angle_alpha 90.000000
_cell_angle_beta 77.181274
_cell_angle_gamma 90.000000
_cell_volume 2559.746294
_symmetry_space_group_name_H-M "C 2/M"
_symmetry_group_IT_number 12
_symmetry_cell_setting 'monoclinic'
loop_
_space_group_symop_operation_xyz
x,y,z
-x,y,-z
-x,-y,-z
x,-y,z
1/2+x,1/2+y,z
1/2-x,1/2+y,-z
1/2-x,1/2-y,-z
1/2+x,1/2-y,z
loop_
_atom_site_type_symbol
_atom_site_label
_atom_site_fract_x
_atom_site_fract_y
_atom_site_fract_z
Si Si1 0.366703 0.000000 0.976146
Si Si2 0.236614 0.157097 0.296596
Si Si3 0.490006 0.843450 0.348785
Si Si4 0.426075 0.500000 0.951404
Si Si5 0.627574 0.155519 0.526867
Si Si6 0.933602 0.271456 0.891420
Si Si7 0.231026 0.654347 0.827867
O O1 0.370988 0.128168 0.938773
O O2 0.500000 0.000000 0.000000
O O3 0.234854 0.000000 0.023393
O O4 0.376968 0.181369 0.314680
O O5 0.253739 0.183695 0.234143
O O6 0.118416 0.249425 0.329132
O O7 0.203968 0.000000 0.306044
O O8 0.421363 0.819227 0.410394
O O9 0.528639 0.000000 0.343334
O O10 0.462054 0.631815 0.916940
O O11 0.500000 0.500000 0.000000
O O12 0.500000 0.175969 0.500000
O O13 0.750000 0.250000 0.500000
O O14 0.668000 0.000000 0.519691
O O15 0.828247 0.244574 0.854409
O O16 0.075358 0.327796 0.858262
O O17 0.269674 0.500000 0.833026
#
# Coordination Sequence:
#
# PCOD9206309 Si02
#       7
#     4   8   8   4   8   8   8
#     4  12  24  42  66  92 122 160 194 238 300 350
#     4  10  22  39  62  85 118 157 199 250 298 358
#     4  10  21  39  58  89 122 157 204 251 301 355
#     4  12  24  40  60  96 120 150 204 238 282 362
#     4  10  21  36  57  86 123 161 203 252 299 355
#     4  12  23  43  66  88 125 157 193 248 295 351
#     4  11  23  43  62  91 121 154 199 247 300 354
#
# _framework density 18.751857000000001
#
# number of rings (size 3 to 8) (size 9 to 14) (size 15 to 20)
#    0.000    1.167    1.667    5.000    0.000    1.667 
#    3.000    0.000    0.000    0.000    0.000    0.000 
#    0.000    0.000    0.000    0.000    0.000    0.000 
#
# Total GULP energy -134239.623864 kJ/mol
# GULP energy per Si atom -5593.317661 kJ/mol
# Density = 1.870918 g / cm^3
# Si number density = 18.751857 Si / 1000 Ang^3
#
#
#
# Elastic Constant Matrix: (Units=GPa)
#
#
# Indices 1 2 3 4 5 6 
#
# 1 44.5999 -7.5533 -4.9286 0.0000 4.5609 0.0000
# 2 -7.5533 58.5283 10.4078 0.0000 -6.2928 0.0000
# 3 -4.9286 10.4078 53.9738 0.0000 10.4662 0.0000
# 4 0.0000 0.0000 0.0000 32.0914 0.0000 -9.4243
# 5 4.5609 -6.2928 10.4662 0.0000 40.7401 0.0000
# 6 0.0000 0.0000 0.0000 -9.4243 0.0000 31.9037
#
#
#
# Elastic Compliance Matrix: (Units=1/GPa)
#
#
# Indices 1 2 3 4 5 6 
#
# 1 0.023350 0.002311 0.002235 0.000000 -0.002831 0.000000
# 2 0.002311 0.018498 -0.004062 0.000000 0.003642 0.000000
# 3 0.002235 -0.004062 0.020717 0.000000 -0.006200 0.000000
# 4 0.000000 0.000000 0.000000 0.034121 0.000000 0.010079
# 5 -0.002831 0.003642 -0.006200 0.000000 0.027018 0.000000
# 6 0.000000 0.000000 0.000000 0.010079 0.000000 0.034322
#
#
# Mechanical properties :
#
#
# Convention : Reuss Voigt Hill
#
# Bulk Modulus (GPa) = 15.73953 16.99486 16.36720
# Shear Modulus (GPa) = 28.05296 31.55878 29.80587
#
# Velocity S-wave (km/s) = 3.87202 4.10685 3.99116
# Velocity P-wave (km/s) = 5.32934 5.61881 5.47599
#
# Compressibility (1/GPa) = 0.06353431
#
# Stress axis : x y z
#
# Youngs Moduli (GPa) = 42.82728 54.05994 48.26900
#
# Poissons Ratio (x) = -0.12496 -0.10790
# Poissons Ratio (y) = -0.09899 0.19608
# Poissons Ratio (z) = -0.09574 0.21960
#
# Static dielectric constant tensor:
#      x y z
#    x 1.590690 0.000000 0.023060 
#    y 0.000000 1.639130 0.000000 
#    z 0.023060 0.000000 1.623570 
# 
# From -- ./inp_files/334792.got.cif
#   From: 2010.05.17/outbox.cif.g08.bks.cpg/sg12_168_cif.got.tgz:334792.got - 2010.06.03 13:09:07.
