data_PCOD9206409
_publ_section_title
;
Structure prediction by ZEFSAII (Michael W. Deem and Ramdas Pophale) SiO2 
 PCOD9206409
Probable space group: C 2/M
;
_chemical_formula_sum "Si O2"
_cell_formula_units_Z 56
_cell_length_a 20.788353
_cell_length_b 8.692096
_cell_length_c 29.288453
_cell_angle_alpha 90.000000
_cell_angle_beta 148.587008
_cell_angle_gamma 90.000000
_cell_volume 2758.341753
_symmetry_space_group_name_H-M "C 2/M"
_symmetry_group_IT_number 12
_symmetry_cell_setting 'monoclinic'
loop_
_space_group_symop_operation_xyz
x,y,z
-x,y,-z
-x,-y,-z
x,-y,z
1/2+x,1/2+y,z
1/2-x,1/2+y,-z
1/2-x,1/2-y,-z
1/2+x,1/2-y,z
loop_
_atom_site_type_symbol
_atom_site_label
_atom_site_fract_x
_atom_site_fract_y
_atom_site_fract_z
Si Si1 0.192931 0.681904 0.222904
Si Si2 0.226893 0.317763 0.556410
Si Si3 0.140254 0.814754 0.594523
Si Si4 0.451308 0.318630 0.117498
Si Si5 0.243962 0.817431 0.926922
Si Si6 0.047356 0.182064 0.373834
Si Si7 0.785718 0.680514 0.190102
O O1 0.198413 0.500000 0.217405
O O2 0.309593 0.726033 0.325205
O O3 0.196626 0.769970 0.177403
O O4 0.072329 0.723337 0.178878
O O5 0.204593 0.500000 0.540975
O O6 0.224223 0.259441 0.606300
O O7 0.119581 0.231852 0.463173
O O8 0.355200 0.288062 0.607993
O O9 0.000000 0.765898 0.500000
O O10 0.146282 0.000000 0.594205
O O11 0.479411 0.500000 0.132816
O O12 0.386157 0.284292 0.126522
O O13 0.348206 0.275348 0.017418
O O14 0.240885 0.771032 0.872540
O O15 0.267011 0.000000 0.946166
O O16 0.922697 0.273390 0.289616
O O17 0.020214 0.000000 0.359231
O O18 0.777106 0.500000 0.176266
#
# Coordination Sequence:
#
# PCOD9206409 Si02
#       7
#     8   8   8   8   8   8   8
#     4  11  24  41  63  92 127 168 211 257 314 375
#     4  10  21  36  58  86 115 156 205 257 309 364
#     4  10  22  39  59  84 119 164 208 254 307 366
#     4  10  22  42  67  96 128 161 205 258 308 369
#     4  10  22  42  68  95 127 165 203 252 313 373
#     4  10  21  38  58  84 121 159 202 254 312 370
#     4  12  25  40  62  92 125 163 208 258 310 368
#
# _framework density 20.302053000000001
#
# number of rings (size 3 to 8) (size 9 to 14) (size 15 to 20)
#    0.000    1.571    0.000    4.286    2.000    6.571 
#    0.000    2.857    0.000    0.000    0.000    0.000 
#    0.000    0.000    0.000    0.000    0.000    0.000 
#
# Total GULP energy -156606.290783 kJ/mol
# GULP energy per Si atom -5593.081814 kJ/mol
# Density = 2.025584 g / cm^3
# Si number density = 20.302053 Si / 1000 Ang^3
#
#
#
# Elastic Constant Matrix: (Units=GPa)
#
#
# Indices 1 2 3 4 5 6 
#
# 1 85.5084 11.1198 10.5814 0.0000 -19.1323 0.0000
# 2 11.1198 21.5448 -6.4835 0.0000 -1.1389 0.0002
# 3 10.5814 -6.4835 27.1058 0.0002 1.7007 0.0000
# 4 0.0000 0.0000 0.0002 28.6460 0.0000 0.9846
# 5 -19.1323 -1.1389 1.7007 0.0000 27.9602 0.0000
# 6 0.0000 0.0002 0.0000 0.9846 0.0000 33.4500
#
#
#
# Elastic Compliance Matrix: (Units=1/GPa)
#
#
# Indices 1 2 3 4 5 6 
#
# 1 0.017043 -0.011203 -0.010074 0.000000 0.011818 0.000000
# 2 -0.011203 0.057428 0.018515 0.000000 -0.006453 0.000000
# 3 -0.010074 0.018515 0.045814 0.000000 -0.008926 0.000000
# 4 0.000000 0.000000 0.000000 0.034944 0.000000 -0.001029
# 5 0.011818 -0.006453 -0.008926 0.000000 0.044132 0.000000
# 6 0.000000 0.000000 0.000000 -0.001029 0.000000 0.029926
#
#
# Mechanical properties :
#
#
# Convention : Reuss Voigt Hill
#
# Bulk Modulus (GPa) = 8.71395 18.28828 13.50112
# Shear Modulus (GPa) = 18.31076 25.94068 22.12572
#
# Velocity S-wave (km/s) = 3.00645 3.57842 3.30483
# Velocity P-wave (km/s) = 4.04390 5.10893 4.60729
#
# Compressibility (1/GPa) = 0.11475850
#
# Stress axis : x y z
#
# Youngs Moduli (GPa) = 58.67673 17.41325 21.82754
#
# Poissons Ratio (x) = 0.19508 0.21989
# Poissons Ratio (y) = 0.65735 -0.40413
# Poissons Ratio (z) = 0.59112 -0.32240
#
# Static dielectric constant tensor:
#      x y z
#    x 1.720190 0.000000 0.014710 
#    y 0.000000 1.671240 0.000000 
#    z 0.014710 0.000000 1.699980 
# 
# From -- ./inp_files/380786.got.cif
#   From: 2010.05.17/outbox.cif.g08.bks.cpg/sg12_191_cif.got.tgz:380786.got - 2010.06.03 13:09:07.
