data_PCOD9206701
_publ_section_title
;
Structure prediction by ZEFSAII (Michael W. Deem and Ramdas Pophale) SiO2 
 PCOD9206701
Probable space group: C 2/M
;
_chemical_formula_sum "Si O2"
_cell_formula_units_Z 56
_cell_length_a 14.822215
_cell_length_b 30.398764
_cell_length_c 9.721190
_cell_angle_alpha 90.000000
_cell_angle_beta 49.015648
_cell_angle_gamma 90.000000
_cell_volume 3306.521920
_symmetry_space_group_name_H-M "C 2/M"
_symmetry_group_IT_number 12
_symmetry_cell_setting 'monoclinic'
loop_
_space_group_symop_operation_xyz
x,y,z
-x,y,-z
-x,-y,-z
x,-y,z
1/2+x,1/2+y,z
1/2-x,1/2+y,-z
1/2-x,1/2-y,-z
1/2+x,1/2-y,z
loop_
_atom_site_type_symbol
_atom_site_label
_atom_site_fract_x
_atom_site_fract_y
_atom_site_fract_z
Si Si1 0.234928 0.853708 0.537355
Si Si2 0.500000 0.597608 0.338036
Si Si3 0.643184 0.184136 0.856816
Si Si4 0.356757 0.712166 0.143243
Si Si5 0.000000 0.000000 0.769509
Si Si6 0.734928 0.646292 0.992789
Si Si7 0.296867 0.500000 0.203132
Si Si8 0.859131 0.411992 0.640869
O O1 0.300665 0.837627 0.334810
O O2 0.195331 0.812581 0.671397
O O3 0.318991 0.883921 0.548132
O O4 0.116856 0.881128 0.614710
O O5 0.500000 0.607761 0.500000
O O6 0.500000 0.545166 0.315154
O O7 0.616857 0.618872 0.151577
O O8 0.671154 0.236234 0.828846
O O9 0.500000 0.179123 0.000000
O O10 0.699335 0.162373 0.936141
O O11 0.304669 0.687419 0.062059
O O12 0.500000 0.706909 0.000000
O O13 0.115720 0.000000 0.752736
O O14 0.884280 0.000000 0.984176
O O15 0.818991 0.616079 0.813887
O O16 0.215161 0.456957 0.284838
O O17 0.000000 0.419755 0.500000
#
# Coordination Sequence:
#
# PCOD9206701 Si02
#       8
#     8   8   8   8   4   8   4   8
#     4  11  22  38  62  87 116 157 201 243 301 358
#     4  12  22  39  64  89 123 156 196 254 306 360
#     4  11  23  40  57  84 122 160 201 245 294 362
#     4  10  21  36  61  88 118 152 198 256 300 346
#     4  11  23  38  62  96 117 153 198 252 314 346
#     4  11  22  38  62  87 116 157 201 243 301 358
#     4  11  21  36  64  88 117 151 196 246 296 359
#     4  11  23  39  60  86 120 159 193 239 294 363
#
# _framework density 16.936226000000001
#
# number of rings (size 3 to 8) (size 9 to 14) (size 15 to 20)
#    0.000    1.000    5.714    2.143    0.000    0.000 
#    0.000    0.000    3.143    0.000    0.000    6.000 
#    0.000    0.000    0.000    0.000    0.000    0.000 
#
# Total GULP energy -156466.303510 kJ/mol
# GULP energy per Si atom -5588.082268 kJ/mol
# Density = 1.689768 g / cm^3
# Si number density = 16.936226 Si / 1000 Ang^3
#
#
#
# Elastic Constant Matrix: (Units=GPa)
#
#
# Indices 1 2 3 4 5 6 
#
# 1 120.5465 66.2278 71.1068 0.0000 -0.7804 0.0000
# 2 66.2278 134.4783 65.4131 0.0000 -1.7137 0.0000
# 3 71.1068 65.4131 122.7503 0.0000 5.4201 0.0000
# 4 0.0000 0.0000 0.0000 23.2602 0.0000 -2.6892
# 5 -0.7804 -1.7137 5.4201 0.0000 37.5829 0.0000
# 6 0.0000 0.0000 0.0000 -2.6892 0.0000 24.5378
#
#
#
# Elastic Compliance Matrix: (Units=1/GPa)
#
#
# Indices 1 2 3 4 5 6 
#
# 1 0.014062 -0.003954 -0.006083 0.000000 0.000989 0.000000
# 2 -0.003954 0.011207 -0.003725 0.000000 0.000966 0.000000
# 3 -0.006083 -0.003725 0.013756 0.000000 -0.002280 0.000000
# 4 0.000000 0.000000 0.000000 0.043544 0.000000 0.004772
# 5 0.000989 0.000966 -0.002280 0.000000 0.027001 0.000000
# 6 0.000000 0.000000 0.000000 0.004772 0.000000 0.041276
#
#
# Mechanical properties :
#
#
# Convention : Reuss Voigt Hill
#
# Bulk Modulus (GPa) = 86.93415 87.03003 86.98209
# Shear Modulus (GPa) = 27.44190 28.74468 28.09329
#
# Velocity S-wave (km/s) = 4.02967 4.12421 4.07722
# Velocity P-wave (km/s) = 8.54943 8.61263 8.58109
#
# Compressibility (1/GPa) = 0.01150296
#
# Stress axis : x y z
#
# Youngs Moduli (GPa) = 71.11263 89.22636 72.69789
#
# Poissons Ratio (x) = 0.35281 0.44219
# Poissons Ratio (y) = 0.28118 0.27077
# Poissons Ratio (z) = 0.43254 0.33233
#
# Static dielectric constant tensor:
#      x y z
#    x 1.540740 0.000000 0.002870 
#    y 0.000000 1.546000 0.000000 
#    z 0.002870 0.000000 1.542110 
# 
# From -- ./inp_files/68169.got.cif
#   From: 2010.05.17/outbox.cif.g08.bks.cpg/sg12_35_cif.got.tgz:68169.got - 2010.06.03 13:09:07.
