data_PCOD9206389
_publ_section_title
;
Structure prediction by ZEFSAII (Michael W. Deem and Ramdas Pophale) SiO2 
 PCOD9206389
Probable space group: C 2/M
;
_chemical_formula_sum "Si O2"
_cell_formula_units_Z 32
_cell_length_a 10.162229
_cell_length_b 23.277838
_cell_length_c 5.524933
_cell_angle_alpha 90.000000
_cell_angle_beta 99.395557
_cell_angle_gamma 90.000000
_cell_volume 1289.416030
_symmetry_space_group_name_H-M "C 2/M"
_symmetry_group_IT_number 12
_symmetry_cell_setting 'monoclinic'
loop_
_space_group_symop_operation_xyz
x,y,z
-x,y,-z
-x,-y,-z
x,-y,z
1/2+x,1/2+y,z
1/2-x,1/2+y,-z
1/2-x,1/2-y,-z
1/2+x,1/2-y,z
loop_
_atom_site_type_symbol
_atom_site_label
_atom_site_fract_x
_atom_site_fract_y
_atom_site_fract_z
Si Si1 0.147156 0.062060 0.439199
Si Si2 0.827648 0.344382 0.309452
Si Si3 0.814703 0.623938 0.814283
Si Si4 0.584760 0.280847 0.774538
O O1 0.189817 0.118845 0.305468
O O2 0.252363 0.065771 0.692359
O O3 0.000000 0.066671 0.500000
O O4 0.159758 0.000000 0.317822
O O5 0.884933 0.348751 0.599164
O O6 0.831406 0.277923 0.240962
O O7 0.882946 0.377824 0.093007
O O8 0.687500 0.666521 0.814878
O O9 0.500000 0.286343 0.500000
O O10 0.500000 0.276185 0.000000
#
# Coordination Sequence:
#
# PCOD9206389 Si02
#       4
#     8   8   8   8
#     4   9  21  38  61  86 115 151 190 234 286 340
#     4  10  22  38  58  85 120 150 189 233 286 338
#     4  10  21  36  58  84 119 150 184 236 280 343
#     4  12  23  36  60  87 118 153 190 233 283 341
#
# _framework density 24.817437999999999
#
# number of rings (size 3 to 8) (size 9 to 14) (size 15 to 20)
#    1.500    0.250    0.000    5.250    3.500    1.000 
#    0.000    2.500    0.000    1.500    0.000    0.000 
#    0.000    0.000    0.000    0.000    0.000    0.000 
#
# Total GULP energy -89177.929194 kJ/mol
# GULP energy per Si atom -5573.620575 kJ/mol
# Density = 2.476095 g / cm^3
# Si number density = 24.817438 Si / 1000 Ang^3
#
#
#
# Elastic Constant Matrix: (Units=GPa)
#
#
# Indices 1 2 3 4 5 6 
#
# 1 72.2870 44.2879 44.3966 0.0000 -32.8245 0.0000
# 2 44.2879 131.9634 22.3209 0.0000 -21.7295 0.0000
# 3 44.3966 22.3209 203.0941 0.0000 -25.3664 0.0000
# 4 0.0000 0.0000 0.0000 15.4710 0.0000 -1.1586
# 5 -32.8245 -21.7295 -25.3664 0.0000 51.0050 0.0000
# 6 0.0000 0.0000 0.0000 -1.1586 0.0000 52.6650
#
#
#
# Elastic Compliance Matrix: (Units=1/GPa)
#
#
# Indices 1 2 3 4 5 6 
#
# 1 0.024803 -0.005815 -0.003304 0.000000 0.011841 0.000000
# 2 -0.005815 0.009560 0.000279 0.000000 0.000469 0.000000
# 3 -0.003304 0.000279 0.005720 0.000000 0.000837 0.000000
# 4 0.000000 0.000000 0.000000 0.064744 0.000000 0.001424
# 5 0.011841 0.000469 0.000837 0.000000 0.027843 0.000000
# 6 0.000000 0.000000 0.000000 0.001424 0.000000 0.019019
#
#
# Mechanical properties :
#
#
# Convention : Reuss Voigt Hill
#
# Bulk Modulus (GPa) = 44.63830 69.92837 57.28333
# Shear Modulus (GPa) = 28.27493 43.58415 35.92954
#
# Velocity S-wave (km/s) = 3.37904 4.19524 3.80906
# Velocity P-wave (km/s) = 5.76625 7.19062 6.51746
#
# Compressibility (1/GPa) = 0.02240229
#
# Stress axis : x y z
#
# Youngs Moduli (GPa) = 40.31827 104.60766 174.82652
#
# Poissons Ratio (x) = 0.60833 0.57759
# Poissons Ratio (y) = 0.23446 -0.04881
# Poissons Ratio (z) = 0.13320 -0.02920
#
# Static dielectric constant tensor:
#      x y z
#    x 2.099700 0.000000 0.048080 
#    y 0.000000 1.882740 0.000000 
#    z 0.048080 0.000000 2.112510 
# 
# From -- ./inp_files/6651.got.cif
#   From: 2010.05.17/outbox.cif.g08.bks.cpg/sg12_4_cif.got.tgz:6651.got - 2010.06.03 13:09:07.
