data_PCOD9206902
_publ_section_title
;
Structure prediction by ZEFSAII (Michael W. Deem and Ramdas Pophale) SiO2 
 PCOD9206902
Probable space group: C 2/M
;
_chemical_formula_sum "Si O2"
_cell_formula_units_Z 40
_cell_length_a 18.936332
_cell_length_b 7.613385
_cell_length_c 10.308984
_cell_angle_alpha 90.000000
_cell_angle_beta 99.228922
_cell_angle_gamma 90.000000
_cell_volume 1467.003198
_symmetry_space_group_name_H-M "C 2/M"
_symmetry_group_IT_number 12
_symmetry_cell_setting 'monoclinic'
loop_
_space_group_symop_operation_xyz
x,y,z
-x,y,-z
-x,-y,-z
x,-y,z
1/2+x,1/2+y,z
1/2-x,1/2+y,-z
1/2-x,1/2-y,-z
1/2+x,1/2-y,z
loop_
_atom_site_type_symbol
_atom_site_label
_atom_site_fract_x
_atom_site_fract_y
_atom_site_fract_z
Si Si1 0.678690 0.199007 0.091337
Si Si2 0.300381 0.790004 0.636181
Si Si3 0.917763 0.715113 0.479516
Si Si4 0.969692 0.802262 0.847113
Si Si5 0.376428 0.204879 0.198025
O O1 0.719955 0.284118 0.226536
O O2 0.601472 0.195496 0.139924
O O3 0.703132 0.000000 0.076950
O O4 0.663876 0.278200 0.943342
O O5 0.250000 0.750000 0.500000
O O6 0.377469 0.734912 0.599290
O O7 0.300043 0.000000 0.651294
O O8 0.917353 0.500000 0.474073
O O9 0.872827 0.781734 0.341652
O O10 0.000000 0.772721 0.500000
O O11 0.036922 0.714959 0.796398
O O12 0.956431 0.000000 0.795325
O O13 0.000000 0.823920 0.000000
O O14 0.358617 0.000000 0.195165
#
# Coordination Sequence:
#
# PCOD9206902 Si02
#       5
#     8   8   8   8   8
#     4   9  17  30  49  70  93 129 175 213 244 292
#     4  10  21  37  55  75 102 136 172 210 256 309
#     4   9  17  31  53  79 104 131 167 211 254 296
#     4   9  16  25  41  70 105 133 159 200 255 305
#     4   9  16  28  48  72  97 128 170 214 249 288
#
# _framework density 27.266470000000002
#
# number of rings (size 3 to 8) (size 9 to 14) (size 15 to 20)
#    0.000    2.800    0.000    1.800    0.000    6.400 
#    0.000    2.000    0.000    2.400    0.000    0.000 
#    0.000    0.000    0.000    0.000    0.000    0.000 
#
# Total GULP energy -111605.433798 kJ/mol
# GULP energy per Si atom -5580.271690 kJ/mol
# Density = 2.720441 g / cm^3
# Si number density = 27.266470 Si / 1000 Ang^3
#
#
#
# Elastic Constant Matrix: (Units=GPa)
#
#
# Indices 1 2 3 4 5 6 
#
# 1 97.6951 29.9754 41.5306 0.0000 -5.2241 0.0000
# 2 29.9754 100.5005 20.6933 0.0000 7.2747 0.0000
# 3 41.5306 20.6933 280.3671 0.0000 -19.2424 0.0000
# 4 0.0000 0.0000 0.0000 29.2423 0.0000 8.4457
# 5 -5.2241 7.2747 -19.2424 0.0000 49.5233 0.0000
# 6 0.0000 0.0000 0.0000 8.4457 0.0000 18.1600
#
#
#
# Elastic Compliance Matrix: (Units=1/GPa)
#
#
# Indices 1 2 3 4 5 6 
#
# 1 0.011940 -0.003351 -0.001439 0.000000 0.001192 0.000000
# 2 -0.003351 0.011207 -0.000481 0.000000 -0.002187 0.000000
# 3 -0.001439 -0.000481 0.003914 0.000000 0.001440 0.000000
# 4 0.000000 0.000000 0.000000 0.039503 0.000000 -0.018372
# 5 0.001192 -0.002187 0.001440 0.000000 0.021199 0.000000
# 6 0.000000 0.000000 0.000000 -0.018372 0.000000 0.063610
#
#
# Mechanical properties :
#
#
# Convention : Reuss Voigt Hill
#
# Bulk Modulus (GPa) = 60.53902 73.66236 67.10069
# Shear Modulus (GPa) = 29.86458 45.14268 37.50363
#
# Velocity S-wave (km/s) = 3.31310 4.07333 3.71273
# Velocity P-wave (km/s) = 6.07342 7.01407 6.56062
#
# Compressibility (1/GPa) = 0.01651827
#
# Stress axis : x y z
#
# Youngs Moduli (GPa) = 83.75336 89.23003 255.47501
#
# Poissons Ratio (x) = 0.29902 0.36775
# Poissons Ratio (y) = 0.28067 0.12284
# Poissons Ratio (z) = 0.12056 0.04290
#
# Static dielectric constant tensor:
#      x y z
#    x 2.376060 0.000000 0.120610 
#    y 0.000000 2.062790 0.000000 
#    z 0.120610 0.000000 2.254070 
# 
# From -- ./inp_files/162730.got.cif
#   From: 2010.05.17/outbox.cif.g08.bks.cpg/sg12_82_cif.got.tgz:162730.got - 2010.06.03 13:09:07.
