data_PCOD9206621
_publ_section_title
;
Structure prediction by ZEFSAII (Michael W. Deem and Ramdas Pophale) SiO2 
 PCOD9206621
Probable space group: C 2/M
;
_chemical_formula_sum "Si O2"
_cell_formula_units_Z 48
_cell_length_a 6.756302
_cell_length_b 27.357176
_cell_length_c 14.680410
_cell_angle_alpha 90.000000
_cell_angle_beta 53.318299
_cell_angle_gamma 90.000000
_cell_volume 2176.079286
_symmetry_space_group_name_H-M "C 2/M"
_symmetry_group_IT_number 12
_symmetry_cell_setting 'monoclinic'
loop_
_space_group_symop_operation_xyz
x,y,z
-x,y,-z
-x,-y,-z
x,-y,z
1/2+x,1/2+y,z
1/2-x,1/2+y,-z
1/2-x,1/2-y,-z
1/2+x,1/2-y,z
loop_
_atom_site_type_symbol
_atom_site_label
_atom_site_fract_x
_atom_site_fract_y
_atom_site_fract_z
Si Si1 0.128411 0.442521 0.874546
Si Si2 0.422730 0.057670 0.313464
Si Si3 0.899412 0.849567 0.619978
Si Si4 0.029270 0.699644 0.854841
Si Si5 0.078555 0.186752 0.094345
Si Si6 0.642737 0.612399 0.722527
O O1 0.157887 0.500000 0.879921
O O2 0.988000 0.436395 0.817076
O O3 0.397441 0.420318 0.790782
O O4 0.000000 0.422058 0.000000
O O5 0.200460 0.096273 0.378158
O O6 0.624267 0.077667 0.328322
O O7 0.365889 0.000000 0.341820
O O8 0.667969 0.820413 0.727678
O O9 0.000000 0.826322 0.500000
O O10 0.111623 0.856529 0.638305
O O11 0.211964 0.682176 0.884186
O O12 0.021987 0.758279 0.865960
O O13 0.748492 0.683387 0.956656
O O14 0.882043 0.147552 0.183110
#
# Coordination Sequence:
#
# PCOD9206621 Si02
#       6
#     8   8   8   8   8   8
#     4   9  19  35  54  83 126 160 188 240 306 371
#     4  10  22  39  62  90 118 161 212 251 305 365
#     4  10  23  42  62  84 122 162 205 258 311 358
#     4   9  19  37  57  86 119 153 200 244 300 368
#     4   9  19  34  60  87 117 156 192 245 305 365
#     4  10  21  36  60  87 121 154 203 252 305 365
#
# _framework density 22.058019000000002
#
# number of rings (size 3 to 8) (size 9 to 14) (size 15 to 20)
#    0.000    2.500    0.000    0.500    9.333    2.333 
#    0.000    6.667    0.000    0.000    0.000    0.000 
#    0.000    0.000    0.000    0.000    0.000    0.000 
#
# Total GULP energy -133907.610082 kJ/mol
# GULP energy per Si atom -5579.483753 kJ/mol
# Density = 2.200781 g / cm^3
# Si number density = 22.058019 Si / 1000 Ang^3
#
#
#
# Elastic Constant Matrix: (Units=GPa)
#
#
# Indices 1 2 3 4 5 6 
#
# 1 59.5299 14.1304 18.0965 0.0000 10.8810 0.0000
# 2 14.1304 92.8590 35.7177 0.0000 -1.7342 0.0000
# 3 18.0965 35.7177 139.3031 0.0000 18.2019 0.0000
# 4 0.0000 0.0000 0.0000 14.3391 0.0000 -1.7950
# 5 10.8810 -1.7342 18.2019 0.0000 17.4183 0.0000
# 6 0.0000 0.0000 0.0000 -1.7950 0.0000 34.8085
#
#
#
# Elastic Compliance Matrix: (Units=1/GPa)
#
#
# Indices 1 2 3 4 5 6 
#
# 1 0.019907 -0.003224 -0.000107 0.000000 -0.012645 0.000000
# 2 -0.003224 0.012871 -0.003836 0.000000 0.007304 0.000000
# 3 -0.000107 -0.003836 0.009517 0.000000 -0.010260 0.000000
# 4 0.000000 0.000000 0.000000 0.070193 0.000000 0.003620
# 5 -0.012645 0.007304 -0.010260 0.000000 0.076759 0.000000
# 6 0.000000 0.000000 0.000000 0.003620 0.000000 0.028915
#
#
# Mechanical properties :
#
#
# Convention : Reuss Voigt Hill
#
# Bulk Modulus (GPa) = 35.76403 47.50905 41.63654
# Shear Modulus (GPa) = 20.67682 28.22967 24.45324
#
# Velocity S-wave (km/s) = 3.06499 3.58130 3.33316
# Velocity P-wave (km/s) = 5.36418 6.21980 5.80777
#
# Compressibility (1/GPa) = 0.02796105
#
# Stress axis : x y z
#
# Youngs Moduli (GPa) = 50.23246 77.69115 105.07954
#
# Poissons Ratio (x) = 0.25050 0.01126
# Poissons Ratio (y) = 0.16196 0.40306
# Poissons Ratio (z) = 0.00538 0.29801
#
# Static dielectric constant tensor:
#      x y z
#    x 1.874580 0.000000 0.061340 
#    y 0.000000 1.816810 0.000000 
#    z 0.061340 0.000000 1.856730 
# 
# From -- ./inp_files/192419.got.cif
#   From: 2010.05.17/outbox.cif.g08.bks.cpg/sg12_97_cif.got.tgz:192419.got - 2010.06.03 13:09:07.
