data_PCOD9206179
_publ_section_title
;
Structure prediction by ZEFSAII (Michael W. Deem and Ramdas Pophale) SiO2 
 PCOD9206179
Probable space group: C 2/M
;
_chemical_formula_sum "Si O2"
_cell_formula_units_Z 48
_cell_length_a 15.221830
_cell_length_b 9.371537
_cell_length_c 27.892082
_cell_angle_alpha 90.000000
_cell_angle_beta 146.758646
_cell_angle_gamma 90.000000
_cell_volume 2181.079688
_symmetry_space_group_name_H-M "C 2/M"
_symmetry_group_IT_number 12
_symmetry_cell_setting 'monoclinic'
loop_
_space_group_symop_operation_xyz
x,y,z
-x,y,-z
-x,-y,-z
x,-y,z
1/2+x,1/2+y,z
1/2-x,1/2+y,-z
1/2-x,1/2-y,-z
1/2+x,1/2-y,z
loop_
_atom_site_type_symbol
_atom_site_label
_atom_site_fract_x
_atom_site_fract_y
_atom_site_fract_z
Si Si1 0.609164 0.167635 0.462200
Si Si2 0.949440 0.665153 0.119580
Si Si3 0.893097 0.326294 0.202607
Si Si4 0.251732 0.162170 0.608199
Si Si5 0.449056 0.331642 0.921294
Si Si6 0.176502 0.154220 0.685857
O O1 0.750000 0.250000 0.500000
O O2 0.639071 0.230654 0.528604
O O3 0.444825 0.217404 0.362315
O O4 0.623609 0.000000 0.468020
O O5 0.897803 0.500000 0.089873
O O6 0.934818 0.754778 0.063941
O O7 0.143061 0.667082 0.213731
O O8 0.888518 0.717818 0.144057
O O9 0.892292 0.500000 0.200411
O O10 0.736844 0.280436 0.160847
O O11 0.062986 0.287208 0.303741
O O12 0.197133 0.149763 0.637896
O O13 0.245570 0.000000 0.584760
O O14 0.450219 0.500000 0.910219
O O15 0.500000 0.316104 0.000000
O O16 0.109698 0.000000 0.671383
#
# Coordination Sequence:
#
# PCOD9206179 Si02
#       6
#     8   8   8   8   8   8
#     4  12  25  36  50  77 112 146 184 229 274 325
#     4   9  19  37  60  83 110 147 191 232 275 338
#     4   8  17  36  59  81 111 152 187 223 284 344
#     4   9  18  36  59  78 103 144 187 226 276 336
#     4  10  21  36  56  85 118 149 185 232 283 335
#     4   9  19  37  58  79 106 141 182 230 281 332
#
# _framework density 22.007449000000001
#
# number of rings (size 3 to 8) (size 9 to 14) (size 15 to 20)
#    0.000    2.500    0.000    4.000    2.333    4.333 
#    0.000    3.333    0.000    0.000    0.000    0.000 
#    0.000    0.000    0.000    0.000    0.000    0.000 
#
# Total GULP energy -133921.941621 kJ/mol
# GULP energy per Si atom -5580.080901 kJ/mol
# Density = 2.195736 g / cm^3
# Si number density = 22.007449 Si / 1000 Ang^3
#
#
#
# Elastic Constant Matrix: (Units=GPa)
#
#
# Indices 1 2 3 4 5 6 
#
# 1 94.3026 11.8729 -5.4598 0.0000 -14.1379 0.0000
# 2 11.8729 76.3507 11.2154 0.0000 -5.6540 0.0000
# 3 -5.4598 11.2154 43.6911 0.0000 5.1936 0.0000
# 4 0.0000 0.0000 0.0000 19.6793 0.0000 -1.6945
# 5 -14.1379 -5.6540 5.1936 0.0000 34.1030 0.0000
# 6 0.0000 0.0000 0.0000 -1.6945 0.0000 21.7780
#
#
#
# Elastic Compliance Matrix: (Units=1/GPa)
#
#
# Indices 1 2 3 4 5 6 
#
# 1 0.011538 -0.001676 0.001361 0.000000 0.004298 0.000000
# 2 -0.001676 0.014130 -0.004107 0.000000 0.002273 0.000000
# 3 0.001361 -0.004107 0.024571 0.000000 -0.003859 0.000000
# 4 0.000000 0.000000 0.000000 0.051157 0.000000 0.003980
# 5 0.004298 0.002273 -0.003859 0.000000 0.032069 0.000000
# 6 0.000000 0.000000 0.000000 0.003980 0.000000 0.046228
#
#
# Mechanical properties :
#
#
# Convention : Reuss Voigt Hill
#
# Bulk Modulus (GPa) = 24.15694 27.73349 25.94522
# Shear Modulus (GPa) = 24.71150 28.22646 26.46898
#
# Velocity S-wave (km/s) = 3.35456 3.58521 3.47180
# Velocity P-wave (km/s) = 5.09947 5.45596 5.28073
#
# Compressibility (1/GPa) = 0.04139597
#
# Stress axis : x y z
#
# Youngs Moduli (GPa) = 86.66741 70.77313 40.69853
#
# Poissons Ratio (x) = 0.11861 -0.05540
# Poissons Ratio (y) = 0.14525 0.16714
# Poissons Ratio (z) = -0.11797 0.29064
#
# Static dielectric constant tensor:
#      x y z
#    x 2.033270 0.000000 -0.081390 
#    y 0.000000 1.780760 0.000000 
#    z -0.081390 0.000000 1.944870 
# 
# From -- ./inp_files/314491.got.cif
#   From: 2010.05.17/outbox.cif.g08.bks.cpg/sg12_158_cif.got.tgz:314491.got - 2010.06.03 13:09:07.
