data_PCOD9206760
_publ_section_title
;
Structure prediction by ZEFSAII (Michael W. Deem and Ramdas Pophale) SiO2 
 PCOD9206760
Probable space group: C 2/M
;
_chemical_formula_sum "Si O2"
_cell_formula_units_Z 44
_cell_length_a 19.176763
_cell_length_b 20.297401
_cell_length_c 5.113208
_cell_angle_alpha 90.000000
_cell_angle_beta 101.798402
_cell_angle_gamma 90.000000
_cell_volume 1948.209169
_symmetry_space_group_name_H-M "C 2/M"
_symmetry_group_IT_number 12
_symmetry_cell_setting 'monoclinic'
loop_
_space_group_symop_operation_xyz
x,y,z
-x,y,-z
-x,-y,-z
x,-y,z
1/2+x,1/2+y,z
1/2-x,1/2+y,-z
1/2-x,1/2-y,-z
1/2+x,1/2-y,z
loop_
_atom_site_type_symbol
_atom_site_label
_atom_site_fract_x
_atom_site_fract_y
_atom_site_fract_z
Si Si1 0.500000 0.686171 0.000000
Si Si2 0.380957 0.574697 0.900518
Si Si3 0.919116 0.606138 0.383269
Si Si4 0.813189 0.871519 0.360633
Si Si5 0.577975 0.257076 0.459984
Si Si6 0.831480 0.426573 0.816406
O O1 0.441269 0.628288 0.892467
O O2 0.440815 0.742021 0.860260
O O3 0.404320 0.500000 0.880392
O O4 0.319732 0.592755 0.645290
O O5 0.354867 0.586878 0.174147
O O6 0.916107 0.685065 0.421839
O O7 0.867451 0.576677 0.562037
O O8 0.000000 0.585468 0.500000
O O9 0.890831 0.586703 0.079037
O O10 0.855811 0.802536 0.412486
O O11 0.731070 0.872451 0.217515
O O12 0.500000 0.288104 0.500000
O O13 0.800625 0.500000 0.836086
#
# Coordination Sequence:
#
# PCOD9206760 Si02
#       6
#     4   8   8   8   8   8
#     4  10  21  36  62  90 133 176 212 280 306 370
#     4  11  21  36  59  94 132 179 222 254 309 377
#     4  11  27  44  74  99 125 171 216 281 336 393
#     4  11  24  41  67  95 137 179 212 270 322 384
#     4  10  22  42  66  98 137 171 225 264 321 384
#     4  12  26  46  68  99 134 171 218 271 335 396
#
# _framework density 22.584842999999999
#
# number of rings (size 3 to 8) (size 9 to 14) (size 15 to 20)
#    0.000    1.091    1.818    4.091    5.091    3.636 
#    0.000    2.727    0.000    0.000    0.000    0.000 
#    0.000    0.000    0.000    0.000    0.000    0.000 
#
# Total GULP energy -122525.538066 kJ/mol
# GULP energy per Si atom -5569.342639 kJ/mol
# Density = 2.253344 g / cm^3
# Si number density = 22.584843 Si / 1000 Ang^3
#
#
#
# Elastic Constant Matrix: (Units=GPa)
#
#
# Indices 1 2 3 4 5 6 
#
# 1 93.6316 -5.1242 -6.8025 0.0000 12.9493 0.0000
# 2 -5.1242 91.4560 10.3152 0.0000 5.0130 0.0000
# 3 -6.8025 10.3152 58.9067 0.0000 17.9020 0.0000
# 4 0.0000 0.0000 0.0000 20.3770 0.0000 -6.3000
# 5 12.9493 5.0130 17.9020 0.0000 40.7634 0.0000
# 6 0.0000 0.0000 0.0000 -6.3000 0.0000 16.6513
#
#
#
# Elastic Compliance Matrix: (Units=1/GPa)
#
#
# Indices 1 2 3 4 5 6 
#
# 1 0.011599 0.000613 0.002741 0.000000 -0.004964 0.000000
# 2 0.000613 0.011199 -0.001630 0.000000 -0.000856 0.000000
# 3 0.002741 -0.001630 0.020520 0.000000 -0.009682 0.000000
# 4 0.000000 0.000000 0.000000 0.055576 0.000000 0.021027
# 5 -0.004964 -0.000856 -0.009682 0.000000 0.030466 0.000000
# 6 0.000000 0.000000 0.000000 0.021027 0.000000 0.068011
#
#
# Mechanical properties :
#
#
# Convention : Reuss Voigt Hill
#
# Bulk Modulus (GPa) = 21.38322 26.75235 24.06779
# Shear Modulus (GPa) = 23.86478 31.93207 27.89843
#
# Velocity S-wave (km/s) = 3.25418 3.76423 3.51846
# Velocity P-wave (km/s) = 4.85881 5.54649 5.21400
#
# Compressibility (1/GPa) = 0.04676564
#
# Stress axis : x y z
#
# Youngs Moduli (GPa) = 86.21217 89.29094 48.73208
#
# Poissons Ratio (x) = -0.05472 -0.13356
# Poissons Ratio (y) = -0.05284 0.07944
# Poissons Ratio (z) = -0.23628 0.14556
#
# Static dielectric constant tensor:
#      x y z
#    x 1.809660 0.000000 0.073890 
#    y 0.000000 1.810260 0.000000 
#    z 0.073890 0.000000 1.609800 
# 
# From -- ./inp_files/16211.got.cif
#   From: 2010.05.17/outbox.cif.g08.bks.cpg/sg12_9_cif.got.tgz:16211.got - 2010.06.03 13:09:07.
