data_PCOD9206497
_publ_section_title
;
Structure prediction by ZEFSAII (Michael W. Deem and Ramdas Pophale) SiO2 
 PCOD9206497
Probable space group: C 2/M
;
_chemical_formula_sum "Si O2"
_cell_formula_units_Z 48
_cell_length_a 28.934726
_cell_length_b 12.701716
_cell_length_c 14.314140
_cell_angle_alpha 90.000000
_cell_angle_beta 26.132684
_cell_angle_gamma 90.000000
_cell_volume 2317.101189
_symmetry_space_group_name_H-M "C 2/M"
_symmetry_group_IT_number 12
_symmetry_cell_setting 'monoclinic'
loop_
_space_group_symop_operation_xyz
x,y,z
-x,y,-z
-x,-y,-z
x,-y,z
1/2+x,1/2+y,z
1/2-x,1/2+y,-z
1/2-x,1/2-y,-z
1/2+x,1/2-y,z
loop_
_atom_site_type_symbol
_atom_site_label
_atom_site_fract_x
_atom_site_fract_y
_atom_site_fract_z
Si Si1 0.235287 0.698986 0.424861
Si Si2 0.058715 0.127127 0.254144
Si Si3 0.015965 0.339667 0.864397
Si Si4 0.293152 0.878968 0.180899
Si Si5 0.339760 0.372698 0.745570
Si Si6 0.556990 0.619215 0.040095
O O1 0.250000 0.750000 0.500000
O O2 0.234906 0.796954 0.353777
O O3 0.334998 0.631190 0.212389
O O4 0.128680 0.632632 0.619577
O O5 0.141550 0.164604 0.182301
O O6 0.943035 0.161400 0.499035
O O7 0.057740 0.000000 0.260760
O O8 0.077652 0.148575 0.111348
O O9 0.915558 0.372690 0.986243
O O10 0.016419 0.211779 0.863910
O O11 0.000000 0.375169 0.000000
O O12 0.261951 0.848884 0.131815
O O13 0.258475 0.000000 0.259426
O O14 0.342665 0.500000 0.745058
O O15 0.516665 0.500000 0.107413
#
# Coordination Sequence:
#
# PCOD9206497 Si02
#       6
#     8   8   8   8   8   8
#     4  11  22  40  52  75 114 146 181 236 278 312
#     4   8  14  28  53  85 115 138 173 227 278 325
#     4  11  22  40  52  75 114 146 181 235 276 313
#     4  10  21  36  59  82 104 146 190 222 267 335
#     4   8  14  28  53  85 114 139 175 225 275 327
#     4  10  21  36  59  84 106 144 187 226 275 331
#
# _framework density 20.715539
#
# number of rings (size 3 to 8) (size 9 to 14) (size 15 to 20)
#    0.000    2.333    3.333    2.000    0.000    4.000 
#    0.000    3.333    0.000    3.000    0.000    4.667 
#    0.000    0.000    0.000    0.000    0.000    0.000 
#
# Total GULP energy -133849.202026 kJ/mol
# GULP energy per Si atom -5577.050084 kJ/mol
# Density = 2.066839 g / cm^3
# Si number density = 20.715539 Si / 1000 Ang^3
#
#
#
# Elastic Constant Matrix: (Units=GPa)
#
#
# Indices 1 2 3 4 5 6 
#
# 1 143.1391 0.6299 26.3967 0.0000 2.6403 0.0000
# 2 0.6299 72.9575 -10.9415 0.0000 8.7078 0.0000
# 3 26.3967 -10.9415 79.4803 0.0000 0.8133 0.0000
# 4 0.0000 0.0000 0.0000 7.0225 0.0000 -7.7971
# 5 2.6403 8.7078 0.8133 0.0000 34.3702 0.0000
# 6 0.0000 0.0000 0.0000 -7.7971 0.0000 7.0699
#
#
#
# Elastic Compliance Matrix: (Units=1/GPa)
#
#
# Indices 1 2 3 4 5 6 
#
# 1 0.007462 -0.000394 -0.002528 0.000000 -0.000413 0.000000
# 2 -0.000394 0.014474 0.002161 0.000000 -0.003688 0.000000
# 3 -0.002528 0.002161 0.013726 0.000000 -0.000678 0.000000
# 4 0.000000 0.000000 0.000000 -0.634233 0.000000 -0.699475
# 5 -0.000413 -0.003688 -0.000678 0.000000 0.030077 0.000000
# 6 0.000000 0.000000 0.000000 -0.699475 0.000000 -0.629983
#
#
# Mechanical properties :
#
#
# Convention : Reuss Voigt Hill
#
# Bulk Modulus (GPa) = 29.29152 36.41634 32.85393
# Shear Modulus (GPa) = -4.21736 28.32531 12.05397
#
# Velocity S-wave (km/s) = -1.42838 3.70178 2.41484
# Velocity P-wave (km/s) = 3.38382 5.99068 4.86510
#
# Compressibility (1/GPa) = 0.03413957
#
# Stress axis : x y z
#
# Youngs Moduli (GPa) = 134.01574 69.08790 72.85514
#
# Poissons Ratio (x) = 0.02724 0.18419
# Poissons Ratio (y) = 0.05283 -0.15746
# Poissons Ratio (z) = 0.33882 -0.14932
#
# Static dielectric constant tensor:
#      x y z
#    x 1.779790 0.000000 -0.020520 
#    y 0.000000 1.762510 0.000000 
#    z -0.020520 0.000000 1.775330 
# 
# From -- ./inp_files/183675.got.cif
#   From: 2010.05.17/outbox.cif.g08.bks.cpg/sg12_92_cif.got.tgz:183675.got - 2010.06.03 13:09:07.
