data_PCOD9206364
_publ_section_title
;
Structure prediction by ZEFSAII (Michael W. Deem and Ramdas Pophale) SiO2 
 PCOD9206364
Probable space group: C 2/M
;
_chemical_formula_sum "Si O2"
_cell_formula_units_Z 56
_cell_length_a 21.286477
_cell_length_b 21.959397
_cell_length_c 17.165792
_cell_angle_alpha 90.000000
_cell_angle_beta 159.259056
_cell_angle_gamma 90.000000
_cell_volume 2841.626464
_symmetry_space_group_name_H-M "C 2/M"
_symmetry_group_IT_number 12
_symmetry_cell_setting 'monoclinic'
loop_
_space_group_symop_operation_xyz
x,y,z
-x,y,-z
-x,-y,-z
x,-y,z
1/2+x,1/2+y,z
1/2-x,1/2+y,-z
1/2-x,1/2-y,-z
1/2+x,1/2-y,z
loop_
_atom_site_type_symbol
_atom_site_label
_atom_site_fract_x
_atom_site_fract_y
_atom_site_fract_z
Si Si1 0.495892 0.320856 0.586724
Si Si2 0.000624 0.190669 0.908240
Si Si3 0.563989 0.433400 0.258010
Si Si4 0.249838 0.608304 0.003587
Si Si5 0.606642 0.814561 0.695624
Si Si6 0.885168 0.318031 0.789617
Si Si7 0.963152 0.565208 0.786070
O O1 0.500000 0.339242 0.500000
O O2 0.653795 0.348269 0.821408
O O3 0.506724 0.247583 0.600355
O O4 0.311155 0.337685 0.413178
O O5 0.946871 0.127105 0.806830
O O6 0.887941 0.250703 0.754514
O O7 0.200654 0.204004 0.113021
O O8 0.000000 0.181899 0.000000
O O9 0.535449 0.500000 0.186485
O O10 0.410234 0.425548 0.144801
O O11 0.761590 0.434175 0.521547
O O12 0.142570 0.645089 0.812792
O O13 0.107314 0.568867 0.884741
O O14 0.500000 0.844719 0.500000
O O15 0.976890 0.372425 0.849601
O O16 0.000000 0.308947 0.000000
O O17 0.989209 0.500000 0.858428
#
# Coordination Sequence:
#
# PCOD9206364 Si02
#       7
#     8   8   8   8   8   8   8
#     4  11  21  37  60  91 130 162 201 263 311 372
#     4  10  21  37  63  91 122 162 205 260 315 365
#     4  10  23  42  61  90 125 164 209 256 309 369
#     4  11  22  40  64  89 121 169 208 258 310 369
#     4  10  21  36  57  91 129 161 207 256 311 373
#     4  11  22  39  63  93 125 159 209 258 313 375
#     4  11  24  41  64  88 124 166 205 257 311 369
#
# _framework density 19.707023
#
# number of rings (size 3 to 8) (size 9 to 14) (size 15 to 20)
#    0.000    1.429    1.429    6.000    4.000    2.286 
#    0.000    0.000    0.000    4.286    0.000    0.000 
#    0.000    0.000    0.000    0.000    0.000    0.000 
#
# Total GULP energy -156218.830859 kJ/mol
# GULP energy per Si atom -5579.243959 kJ/mol
# Density = 1.966217 g / cm^3
# Si number density = 19.707023 Si / 1000 Ang^3
#
#
#
# Elastic Constant Matrix: (Units=GPa)
#
#
# Indices 1 2 3 4 5 6 
#
# 1 76.7948 58.6476 25.5474 0.0000 5.0154 0.0000
# 2 58.6476 141.5445 23.5035 0.0000 -7.3085 0.0000
# 3 25.5474 23.5035 72.2609 0.0000 -4.8378 0.0000
# 4 0.0000 0.0000 0.0000 4.8797 0.0000 12.7190
# 5 5.0154 -7.3085 -4.8378 0.0000 38.6333 0.0000
# 6 0.0000 0.0000 0.0000 12.7190 0.0000 30.0498
#
#
#
# Elastic Compliance Matrix: (Units=1/GPa)
#
#
# Indices 1 2 3 4 5 6 
#
# 1 0.021383 -0.008252 -0.005210 0.000001 -0.004989 0.000000
# 2 -0.008252 0.010701 -0.000359 0.000000 0.003051 0.000000
# 3 -0.005210 -0.000359 0.015972 -0.000001 0.002608 0.000000
# 4 0.000001 0.000000 -0.000001 -1.984658 -0.000001 0.840037
# 5 -0.004989 0.003051 0.002608 -0.000001 0.027436 0.000001
# 6 0.000000 0.000000 0.000000 0.840037 0.000001 -0.322281
#
#
# Mechanical properties :
#
#
# Convention : Reuss Voigt Hill
#
# Bulk Modulus (GPa) = 48.98515 56.22192 52.60353
# Shear Modulus (GPa) = -2.27583 26.90600 12.31508
#
# Velocity S-wave (km/s) = -1.07580 3.69900 2.50253
# Velocity P-wave (km/s) = 4.83400 6.84356 5.92460
#
# Compressibility (1/GPa) = 0.02041435
#
# Stress axis : x y z
#
# Youngs Moduli (GPa) = 46.76625 93.44638 62.60970
#
# Poissons Ratio (x) = 0.77115 0.32618
# Poissons Ratio (y) = 0.38593 0.02247
# Poissons Ratio (z) = 0.24364 0.03354
#
# Static dielectric constant tensor:
#      x y z
#    x 1.700190 0.000000 0.008380 
#    y 0.000000 1.729610 0.000000 
#    z 0.008380 0.000000 1.727570 
# 
# From -- ./inp_files/286096.got.cif
#   From: 2010.05.17/outbox.cif.g08.bks.cpg/sg12_144_cif.got.tgz:286096.got - 2010.06.03 13:09:07.
