data_PCOD9206460
_publ_section_title
;
Structure prediction by ZEFSAII (Michael W. Deem and Ramdas Pophale) SiO2 
 PCOD9206460
Probable space group: C 2/M
;
_chemical_formula_sum "Si O2"
_cell_formula_units_Z 50
_cell_length_a 28.436053
_cell_length_b 7.637785
_cell_length_c 11.398996
_cell_angle_alpha 90.000000
_cell_angle_beta 110.389501
_cell_angle_gamma 90.000000
_cell_volume 2320.615586
_symmetry_space_group_name_H-M "C 2/M"
_symmetry_group_IT_number 12
_symmetry_cell_setting 'monoclinic'
loop_
_space_group_symop_operation_xyz
x,y,z
-x,y,-z
-x,-y,-z
x,-y,z
1/2+x,1/2+y,z
1/2-x,1/2+y,-z
1/2-x,1/2-y,-z
1/2+x,1/2-y,z
loop_
_atom_site_type_symbol
_atom_site_label
_atom_site_fract_x
_atom_site_fract_y
_atom_site_fract_z
Si Si1 0.124089 0.788463 0.597434
Si Si2 0.000000 0.500000 0.000000
Si Si3 0.933010 0.212687 0.682682
Si Si4 0.969544 0.200163 0.349645
Si Si5 0.824646 0.297459 0.979414
Si Si6 0.280000 0.206913 0.185474
Si Si7 0.424832 0.299755 0.943797
O O1 0.104267 0.729063 0.453121
O O2 0.084184 0.722137 0.661312
O O3 0.180390 0.739081 0.677608
O O4 0.120295 0.000000 0.596024
O O5 0.963271 0.655592 0.021298
O O6 0.917334 0.255549 0.800458
O O7 0.988862 0.279886 0.699784
O O8 0.935150 0.000000 0.677349
O O9 0.000000 0.191365 0.500000
O O10 0.960236 0.000000 0.301044
O O11 0.837851 0.500000 0.007610
O O12 0.775329 0.285547 0.854650
O O13 0.872578 0.206873 0.966420
O O14 0.806245 0.224033 0.088816
O O15 0.272886 0.000000 0.165003
O O16 0.443266 0.500000 0.963483
#
# Coordination Sequence:
#
# PCOD9206460 Si02
#       7
#     8   2   8   8   8   8   8
#     4   9  16  30  55  86 118 152 199 250 301 364
#     4  12  26  44  60  94 126 164 218 252 294 366
#     4   8  16  32  55  85 118 159 201 243 301 367
#     4   7  11  23  46  75 108 146 188 233 285 346
#     4  10  21  41  62  84 119 159 206 260 316 366
#     4  10  21  36  58  89 120 153 202 260 314 374
#     4  11  23  42  66  90 125 168 206 254 308 366
#
# _framework density 21.546005000000001
#
# number of rings (size 3 to 8) (size 9 to 14) (size 15 to 20)
#    0.000    2.720    0.800    3.120    0.000    3.200 
#    1.440    2.400    0.000    1.440    0.000    0.000 
#    0.000    0.000    0.000    0.000    0.000    0.000 
#
# Total GULP energy -139266.799250 kJ/mol
# GULP energy per Si atom -5570.671970 kJ/mol
# Density = 2.149697 g / cm^3
# Si number density = 21.546005 Si / 1000 Ang^3
#
#
#
# Elastic Constant Matrix: (Units=GPa)
#
#
# Indices 1 2 3 4 5 6 
#
# 1 107.4965 24.1295 20.8308 0.0000 2.7785 0.0000
# 2 24.1295 83.7395 13.1216 0.0000 -0.7143 0.0000
# 3 20.8308 13.1216 80.7816 0.0000 9.0756 0.0000
# 4 0.0000 0.0000 0.0000 13.0150 0.0000 15.1595
# 5 2.7785 -0.7143 9.0756 0.0000 27.5534 0.0000
# 6 0.0000 0.0000 0.0000 15.1595 0.0000 44.4909
#
#
#
# Elastic Compliance Matrix: (Units=1/GPa)
#
#
# Indices 1 2 3 4 5 6 
#
# 1 0.010329 -0.002636 -0.002192 0.000000 -0.000388 0.000000
# 2 -0.002636 0.012954 -0.001549 0.000000 0.001112 0.000000
# 3 -0.002192 -0.001549 0.013682 0.000000 -0.004326 0.000000
# 4 0.000000 0.000000 0.000000 0.127393 0.000000 -0.043407
# 5 -0.000388 0.001112 -0.004326 0.000000 0.037786 0.000000
# 6 0.000000 0.000000 0.000000 -0.043407 0.000000 0.037267
#
#
# Mechanical properties :
#
#
# Convention : Reuss Voigt Hill
#
# Bulk Modulus (GPa) = 41.30476 43.13128 42.21802
# Shear Modulus (GPa) = 19.21343 31.27426 25.24385
#
# Velocity S-wave (km/s) = 2.98944 3.81400 3.42661
# Velocity P-wave (km/s) = 5.57923 6.28149 5.94075
#
# Compressibility (1/GPa) = 0.02421028
#
# Stress axis : x y z
#
# Youngs Moduli (GPa) = 96.81367 77.19828 73.08950
#
# Poissons Ratio (x) = 0.20351 0.16019
# Poissons Ratio (y) = 0.25522 0.11323
# Poissons Ratio (z) = 0.21219 0.11960
#
# Static dielectric constant tensor:
#      x y z
#    x 1.771130 0.000000 0.000440 
#    y 0.000000 1.803760 0.000000 
#    z 0.000440 0.000000 1.826070 
# 
# From -- ./inp_files/180183.got.cif
#   From: 2010.05.17/outbox.cif.g08.bks.cpg/sg12_91_cif.got.tgz:180183.got - 2010.06.03 13:09:07.
