data_PCOD9206056
_publ_section_title
;
Structure prediction by ZEFSAII (Michael W. Deem and Ramdas Pophale) SiO2 
 PCOD9206056
Probable space group: C 2/M
;
_chemical_formula_sum "Si O2"
_cell_formula_units_Z 48
_cell_length_a 16.967684
_cell_length_b 7.748400
_cell_length_c 14.752353
_cell_angle_alpha 90.000000
_cell_angle_beta 88.380102
_cell_angle_gamma 90.000000
_cell_volume 1938.752178
_symmetry_space_group_name_H-M "C 2/M"
_symmetry_group_IT_number 12
_symmetry_cell_setting 'monoclinic'
loop_
_space_group_symop_operation_xyz
x,y,z
-x,y,-z
-x,-y,-z
x,-y,z
1/2+x,1/2+y,z
1/2-x,1/2+y,-z
1/2-x,1/2-y,-z
1/2+x,1/2-y,z
loop_
_atom_site_type_symbol
_atom_site_label
_atom_site_fract_x
_atom_site_fract_y
_atom_site_fract_z
Si Si1 0.922577 0.289616 0.381241
Si Si2 0.417132 0.802007 0.718169
Si Si3 0.672455 0.201865 0.782605
Si Si4 0.082938 0.209667 0.954014
Si Si5 0.827714 0.198224 0.553077
Si Si6 0.180514 0.199529 0.115713
O O1 0.923489 0.500000 0.385222
O O2 0.854858 0.230008 0.313207
O O3 0.899703 0.225683 0.480808
O O4 0.005290 0.233564 0.335325
O O5 0.348060 0.794799 0.645044
O O6 0.390384 0.705852 0.809272
O O7 0.431856 0.000000 0.742989
O O8 0.745807 0.282394 0.834252
O O9 0.690816 0.000000 0.767001
O O10 0.599812 0.218385 0.854399
O O11 0.150492 0.272615 0.021762
O O12 0.084772 0.000000 0.949624
O O13 0.000000 0.260233 0.000000
O O14 0.750000 0.250000 0.500000
O O15 0.819844 0.000000 0.578899
O O16 0.200253 0.000000 0.097000
#
# Coordination Sequence:
#
# PCOD9206056 Si02
#       6
#     8   8   8   8   8   8
#     4  10  22  40  60  86 120 154 194 245 295 347
#     4  11  23  39  61  88 118 154 195 241 294 350
#     4  10  21  37  58  83 112 150 193 239 292 348
#     4  10  21  36  55  82 116 152 192 242 295 346
#     4  12  25  41  63  89 118 154 195 239 290 348
#     4  10  21  37  57  83 116 154 197 244 294 350
#
# _framework density 24.758192999999999
#
# number of rings (size 3 to 8) (size 9 to 14) (size 15 to 20)
#    0.000    1.500    0.000    5.000    0.000    7.000 
#    0.000    0.000    0.000    0.000    0.000    0.000 
#    0.000    0.000    0.000    0.000    0.000    0.000 
#
# Total GULP energy -134360.313421 kJ/mol
# GULP energy per Si atom -5598.346393 kJ/mol
# Density = 2.470184 g / cm^3
# Si number density = 24.758193 Si / 1000 Ang^3
#
#
#
# Elastic Constant Matrix: (Units=GPa)
#
#
# Indices 1 2 3 4 5 6 
#
# 1 68.1911 -0.3290 -6.1532 0.0000 0.0842 0.0000
# 2 -0.3290 53.6321 -8.6014 0.0000 2.8083 0.0000
# 3 -6.1532 -8.6014 117.3661 0.0000 1.7642 0.0000
# 4 0.0000 0.0000 0.0000 18.3477 0.0000 -8.7109
# 5 0.0842 2.8083 1.7642 0.0000 46.0332 0.0000
# 6 0.0000 0.0000 0.0000 -8.7109 0.0000 17.9798
#
#
#
# Elastic Compliance Matrix: (Units=1/GPa)
#
#
# Indices 1 2 3 4 5 6 
#
# 1 0.014737 0.000221 0.000790 0.000000 -0.000071 0.000000
# 2 0.000221 0.018938 0.001418 0.000000 -0.001210 0.000000
# 3 0.000790 0.001418 0.008672 0.000000 -0.000420 0.000000
# 4 0.000000 0.000000 0.000000 0.070784 0.000000 0.034294
# 5 -0.000071 -0.001210 -0.000420 0.000000 0.021813 0.000000
# 6 0.000000 0.000000 0.000000 0.034294 0.000000 0.072233
#
#
# Mechanical properties :
#
#
# Convention : Reuss Voigt Hill
#
# Bulk Modulus (GPa) = 21.18498 23.22469 22.20483
# Shear Modulus (GPa) = 22.93003 33.42368 28.17685
#
# Velocity S-wave (km/s) = 3.04659 3.67823 3.37721
# Velocity P-wave (km/s) = 4.57722 5.23833 4.91889
#
# Compressibility (1/GPa) = 0.04720326
#
# Stress axis : x y z
#
# Youngs Moduli (GPa) = 67.85598 52.80499 115.31403
#
# Poissons Ratio (x) = -0.01166 -0.09108
# Poissons Ratio (y) = -0.01498 -0.16347
# Poissons Ratio (z) = -0.05360 -0.07486
#
# Static dielectric constant tensor:
#      x y z
#    x 2.047660 0.000000 0.022260 
#    y 0.000000 1.893380 0.000000 
#    z 0.022260 0.000000 1.894590 
# 
# From -- ./inp_files/221535.got.cif
#   From: 2010.05.17/outbox.cif.g08.bks.cpg/sg12_111_cif.got.tgz:221535.got - 2010.06.03 13:09:07.
