data_PCOD9206961
_publ_section_title
;
Structure prediction by ZEFSAII (Michael W. Deem and Ramdas Pophale) SiO2 
 PCOD9206961
Probable space group: C 2/M
;
_chemical_formula_sum "Si O2"
_cell_formula_units_Z 56
_cell_length_a 28.336839
_cell_length_b 13.746399
_cell_length_c 8.529810
_cell_angle_alpha 90.000000
_cell_angle_beta 123.675653
_cell_angle_gamma 90.000000
_cell_volume 2765.044368
_symmetry_space_group_name_H-M "C 2/M"
_symmetry_group_IT_number 12
_symmetry_cell_setting 'monoclinic'
loop_
_space_group_symop_operation_xyz
x,y,z
-x,y,-z
-x,-y,-z
x,-y,z
1/2+x,1/2+y,z
1/2-x,1/2+y,-z
1/2-x,1/2-y,-z
1/2+x,1/2-y,z
loop_
_atom_site_type_symbol
_atom_site_label
_atom_site_fract_x
_atom_site_fract_y
_atom_site_fract_z
Si Si1 0.176692 0.605506 0.086486
Si Si2 0.327097 0.685912 0.857734
Si Si3 0.578758 0.392072 0.767515
Si Si4 0.124262 0.220983 0.563977
Si Si5 0.206860 0.108854 0.531141
Si Si6 0.290636 0.112737 0.216608
Si Si7 0.969733 0.112892 0.778611
O O1 0.147444 0.500000 0.045303
O O2 0.147052 0.707655 0.061082
O O3 0.227273 0.608343 0.306251
O O4 0.202626 0.610761 0.959117
O O5 0.310543 0.674163 0.646842
O O6 0.267931 0.664891 0.840463
O O7 0.374328 0.613012 0.008739
O O8 0.581158 0.500000 0.698126
O O9 0.595199 0.310238 0.672564
O O10 0.517608 0.379641 0.732684
O O11 0.175389 0.145950 0.627248
O O12 0.155238 0.325145 0.622384
O O13 0.078770 0.191094 0.348078
O O14 0.189570 0.000000 0.459132
O O15 0.289574 0.000000 0.269819
O O16 0.948851 0.000000 0.740344
O O17 0.000000 0.129560 0.000000
#
# Coordination Sequence:
#
# PCOD9206961 Si02
#       7
#     8   8   8   8   8   8   8
#     4  10  21  37  55  80 118 157 198 242 289 348
#     4  12  21  39  56  88 122 162 197 243 297 351
#     4  11  22  36  61  89 117 154 198 242 294 357
#     4  12  22  38  60  85 121 156 196 240 297 350
#     4  11  22  34  55  85 121 161 197 237 292 353
#     4  11  23  39  59  85 120 158 201 246 291 349
#     4  10  22  41  63  90 120 150 190 243 300 356
#
# _framework density 20.252839000000002
#
# number of rings (size 3 to 8) (size 9 to 14) (size 15 to 20)
#    0.000    1.000    2.857    5.571    0.000    3.429 
#    0.000    0.000    0.000    3.000    0.000    0.000 
#    0.000    0.000    0.000    0.000    0.000    0.000 
#
# Total GULP energy -156355.491491 kJ/mol
# GULP energy per Si atom -5584.124696 kJ/mol
# Density = 2.020674 g / cm^3
# Si number density = 20.252839 Si / 1000 Ang^3
#
#
#
# Elastic Constant Matrix: (Units=GPa)
#
#
# Indices 1 2 3 4 5 6 
#
# 1 23.2850 17.4107 -4.2638 0.0000 3.9415 0.0000
# 2 17.4107 131.2754 23.5419 0.0000 8.6577 0.0000
# 3 -4.2638 23.5419 87.5125 0.0000 7.9406 0.0000
# 4 0.0000 0.0000 0.0000 26.3867 0.0000 -5.0284
# 5 3.9415 8.6577 7.9406 0.0000 28.8283 0.0000
# 6 0.0000 0.0000 0.0000 -5.0284 0.0000 11.2246
#
#
#
# Elastic Compliance Matrix: (Units=1/GPa)
#
#
# Indices 1 2 3 4 5 6 
#
# 1 0.050215 -0.007141 0.004919 0.000000 -0.006076 0.000000
# 2 -0.007141 0.009117 -0.002708 0.000000 -0.001016 0.000000
# 3 0.004919 -0.002708 0.012700 0.000000 -0.003357 0.000000
# 4 0.000000 0.000000 0.000000 0.041435 0.000000 0.018562
# 5 -0.006076 -0.001016 -0.003357 0.000000 0.036749 0.000000
# 6 0.000000 0.000000 0.000000 0.018562 0.000000 0.097405
#
#
# Mechanical properties :
#
#
# Convention : Reuss Voigt Hill
#
# Bulk Modulus (GPa) = 16.08481 35.05007 25.56744
# Shear Modulus (GPa) = 17.97229 26.98021 22.47625
#
# Velocity S-wave (km/s) = 2.98215 3.65385 3.33495
# Velocity P-wave (km/s) = 4.45162 5.92829 5.24221
#
# Compressibility (1/GPa) = 0.06217044
#
# Stress axis : x y z
#
# Youngs Moduli (GPa) = 19.91444 109.68040 78.74126
#
# Poissons Ratio (x) = 0.78326 -0.38732
# Poissons Ratio (y) = 0.14221 0.21327
# Poissons Ratio (z) = -0.09796 0.29706
#
# Static dielectric constant tensor:
#      x y z
#    x 1.719800 0.000000 -0.020360 
#    y 0.000000 1.764840 0.000000 
#    z -0.020360 0.000000 1.741100 
# 
# From -- ./inp_files/96982.got.cif
#   From: 2010.05.17/outbox.cif.g08.bks.cpg/sg12_49_cif.got.tgz:96982.got - 2010.06.03 13:09:07.
