data_PCOD9206165
_publ_section_title
;
Structure prediction by ZEFSAII (Michael W. Deem and Ramdas Pophale) SiO2 
 PCOD9206165
Probable space group: C 2/M
;
_chemical_formula_sum "Si O2"
_cell_formula_units_Z 32
_cell_length_a 17.445347
_cell_length_b 10.713884
_cell_length_c 24.571459
_cell_angle_alpha 90.000000
_cell_angle_beta 19.148010
_cell_angle_gamma 90.000000
_cell_volume 1506.412931
_symmetry_space_group_name_H-M "C 2/M"
_symmetry_group_IT_number 12
_symmetry_cell_setting 'monoclinic'
loop_
_space_group_symop_operation_xyz
x,y,z
-x,y,-z
-x,-y,-z
x,-y,z
1/2+x,1/2+y,z
1/2-x,1/2+y,-z
1/2-x,1/2-y,-z
1/2+x,1/2-y,z
loop_
_atom_site_type_symbol
_atom_site_label
_atom_site_fract_x
_atom_site_fract_y
_atom_site_fract_z
Si Si1 0.743341 0.643251 0.114619
Si Si2 0.714840 0.364086 0.652176
Si Si3 0.481819 0.243570 0.381210
Si Si4 0.268102 0.861644 0.275073
O O1 0.732889 0.500000 0.144148
O O2 0.535431 0.650519 0.209859
O O3 0.685982 0.745554 0.199284
O O4 0.991166 0.657002 0.919638
O O5 0.720162 0.500000 0.675568
O O6 0.910033 0.360402 0.473393
O O7 0.743795 0.249391 0.673583
O O8 0.250000 0.250000 0.500000
O O9 0.558720 0.351389 0.371827
O O10 0.272453 0.000000 0.296824
#
# Coordination Sequence:
#
# PCOD9206165 Si02
#       4
#     8   8   8   8
#     4   9  19  38  62  88 118 153 196 247 299 351
#     4  10  22  40  60  85 121 160 195 238 297 359
#     4  10  21  36  56  84 118 154 193 240 293 346
#     4  11  22  37  62  92 118 151 199 249 295 348
#
# _framework density 21.242515000000001
#
# number of rings (size 3 to 8) (size 9 to 14) (size 15 to 20)
#    0.000    2.000    0.000    3.000    0.000    8.000 
#    0.000    5.000    0.000    3.000    0.000    0.000 
#    0.000    0.000    0.000    0.000    0.000    0.000 
#
# Total GULP energy -89072.787665 kJ/mol
# GULP energy per Si atom -5567.049229 kJ/mol
# Density = 2.119417 g / cm^3
# Si number density = 21.242515 Si / 1000 Ang^3
#
#
#
# Elastic Constant Matrix: (Units=GPa)
#
#
# Indices 1 2 3 4 5 6 
#
# 1 107.8106 69.6164 38.9236 -0.0125 -3.0257 0.0057
# 2 69.6164 150.1867 49.8893 0.0097 14.7904 0.0104
# 3 38.9236 49.8893 130.3494 0.0353 9.0794 0.0317
# 4 -0.0125 0.0097 0.0353 23.2466 0.0496 8.5194
# 5 -3.0257 14.7904 9.0794 0.0496 30.9503 -0.0100
# 6 0.0057 0.0104 0.0317 8.5194 -0.0100 27.7453
#
#
#
# Elastic Compliance Matrix: (Units=1/GPa)
#
#
# Indices 1 2 3 4 5 6 
#
# 1 0.014364 -0.006438 -0.002182 0.000002 0.005121 0.000003
# 2 -0.006438 0.010767 -0.001834 0.000008 -0.005237 -0.000005
# 3 -0.002182 -0.001834 0.009166 -0.000007 -0.002026 -0.000008
# 4 0.000002 0.000008 -0.000007 0.048472 -0.000084 -0.014884
# 5 0.005121 -0.005237 -0.002026 -0.000084 0.035907 0.000042
# 6 0.000003 -0.000005 -0.000008 -0.014884 0.000042 0.040612
#
#
# Mechanical properties :
#
#
# Convention : Reuss Voigt Hill
#
# Bulk Modulus (GPa) = 74.67992 78.35612 76.51802
# Shear Modulus (GPa) = 27.07684 31.71628 29.39656
#
# Velocity S-wave (km/s) = 3.57410 3.86820 3.72406
# Velocity P-wave (km/s) = 7.22942 7.54435 7.38856
#
# Compressibility (1/GPa) = 0.01339048
#
# Stress axis : x y z
#
# Youngs Moduli (GPa) = 69.61851 92.87327 109.09550
#
# Poissons Ratio (x) = 0.59789 0.23805
# Poissons Ratio (y) = 0.44818 0.20007
# Poissons Ratio (z) = 0.15191 0.17032
#
# Static dielectric constant tensor:
#      x y z
#    x 1.798910 0.000000 -0.003600 
#    y 0.000000 1.740560 0.000020 
#    z -0.003600 0.000020 1.795400 
# 
# From -- ./inp_files/70721.got.cif
#   From: 2010.05.17/outbox.cif.g08.bks.cpg/sg12_36_cif.got.tgz:70721.got - 2010.06.03 13:09:07.
