data_PCOD9206795
_publ_section_title
;
Structure prediction by ZEFSAII (Michael W. Deem and Ramdas Pophale) SiO2 
 PCOD9206795
Probable space group: C 2/M
;
_chemical_formula_sum "Si O2"
_cell_formula_units_Z 44
_cell_length_a 11.559050
_cell_length_b 24.228512
_cell_length_c 12.586690
_cell_angle_alpha 90.000000
_cell_angle_beta 34.432546
_cell_angle_gamma 90.000000
_cell_volume 1993.166474
_symmetry_space_group_name_H-M "C 2/M"
_symmetry_group_IT_number 12
_symmetry_cell_setting 'monoclinic'
loop_
_space_group_symop_operation_xyz
x,y,z
-x,y,-z
-x,-y,-z
x,-y,z
1/2+x,1/2+y,z
1/2-x,1/2+y,-z
1/2-x,1/2-y,-z
1/2+x,1/2-y,z
loop_
_atom_site_type_symbol
_atom_site_label
_atom_site_fract_x
_atom_site_fract_y
_atom_site_fract_z
Si Si1 0.038916 0.762544 0.808685
Si Si2 0.450652 0.393043 0.198570
Si Si3 0.160756 0.232947 0.242026
Si Si4 0.240423 0.564953 0.560946
Si Si5 0.500000 0.363103 0.500000
Si Si6 0.686261 0.064940 0.219012
O O1 0.250416 0.756700 0.713720
O O2 0.999047 0.828283 0.835454
O O3 0.008311 0.741196 0.710766
O O4 0.861888 0.733775 0.013854
O O5 0.402822 0.420983 0.346140
O O6 0.310514 0.400509 0.608676
O O7 0.633141 0.424545 0.001432
O O8 0.069810 0.175383 0.350227
O O9 0.235118 0.500000 0.586897
O O10 0.253042 0.598057 0.272639
O O11 0.023164 0.582245 0.677337
O O12 0.673067 0.000000 0.256587
#
# Coordination Sequence:
#
# PCOD9206795 Si02
#       6
#     8   8   8   8   4   8
#     4  10  22  42  64  94 129 174 217 279 326 399
#     4  11  20  41  68  96 130 172 212 269 346 390
#     4  10  22  41  63  90 131 167 225 266 331 391
#     4  11  24  43  65  97 135 172 221 273 325 396
#     4  12  25  44  62  94 130 182 219 274 332 388
#     4  10  21  36  63  99 131 167 218 273 331 398
#
# _framework density 22.075427999999999
#
# number of rings (size 3 to 8) (size 9 to 14) (size 15 to 20)
#    0.000    1.455    1.818    5.182    0.000    8.000 
#    6.545    0.000    0.000    3.273    0.000    0.000 
#    0.000    0.000    0.000    0.000    0.000    0.000 
#
# Total GULP energy -122848.327256 kJ/mol
# GULP energy per Si atom -5584.014875 kJ/mol
# Density = 2.202518 g / cm^3
# Si number density = 22.075428 Si / 1000 Ang^3
#
#
#
# Elastic Constant Matrix: (Units=GPa)
#
#
# Indices 1 2 3 4 5 6 
#
# 1 154.4269 36.0719 33.4442 -0.0006 17.2363 0.0000
# 2 36.0719 62.4903 11.0899 -0.0001 -5.3641 0.0000
# 3 33.4442 11.0899 47.6880 -0.0006 1.3425 0.0001
# 4 -0.0006 -0.0001 -0.0006 -338.8292 0.0006 66.8103
# 5 17.2363 -5.3641 1.3425 0.0006 26.2349 -0.0001
# 6 0.0000 0.0000 0.0001 66.8103 -0.0001 28.6906
#
#
#
# Elastic Compliance Matrix: (Units=1/GPa)
#
#
# Indices 1 2 3 4 5 6 
#
# 1 0.009655 -0.005236 -0.005352 0.000000 -0.007140 0.000000
# 2 -0.005236 0.019881 -0.001164 0.000000 0.007565 0.000000
# 3 -0.005352 -0.001164 0.024938 0.000000 0.002002 0.000000
# 4 0.000000 0.000000 0.000000 -0.002023 0.000000 0.004710
# 5 -0.007140 0.007565 0.002002 0.000000 0.044252 0.000000
# 6 0.000000 0.000000 0.000000 0.004710 0.000000 0.023887
#
#
# Mechanical properties :
#
#
# Convention : Reuss Voigt Hill
#
# Bulk Modulus (GPa) = 32.29123 47.31302 39.80213
# Shear Modulus (GPa) = 32.37978 -44.51412 -6.06717
#
# Velocity S-wave (km/s) = 3.83401 -4.49537 -1.65962
# Velocity P-wave (km/s) = 5.85311 2.33784 3.79430
#
# Compressibility (1/GPa) = 0.03096816
#
# Stress axis : x y z
#
# Youngs Moduli (GPa) = 103.57669 50.29957 40.10000
#
# Poissons Ratio (x) = 0.26337 0.21463
# Poissons Ratio (y) = 0.54234 0.04668
# Poissons Ratio (z) = 0.55437 0.05856
#
# Static dielectric constant tensor:
#      x y z
#    x 1.844660 0.000000 -0.017930 
#    y 0.000000 1.777270 0.000000 
#    z -0.017930 0.000000 1.789920 
# 
# From -- ./inp_files/135746.got.cif
#   From: 2010.05.17/outbox.cif.g08.bks.cpg/sg12_68_cif.got.tgz:135746.got - 2010.06.03 13:09:07.
