data_PCOD9206539
_publ_section_title
;
Structure prediction by ZEFSAII (Michael W. Deem and Ramdas Pophale) SiO2 
 PCOD9206539
Probable space group: C 2/M
;
_chemical_formula_sum "Si O2"
_cell_formula_units_Z 42
_cell_length_a 19.850113
_cell_length_b 7.566999
_cell_length_c 15.082919
_cell_angle_alpha 90.000000
_cell_angle_beta 54.750139
_cell_angle_gamma 90.000000
_cell_volume 1850.138663
_symmetry_space_group_name_H-M "C 2/M"
_symmetry_group_IT_number 12
_symmetry_cell_setting 'monoclinic'
loop_
_space_group_symop_operation_xyz
x,y,z
-x,y,-z
-x,-y,-z
x,-y,z
1/2+x,1/2+y,z
1/2-x,1/2+y,-z
1/2-x,1/2-y,-z
1/2+x,1/2-y,z
loop_
_atom_site_type_symbol
_atom_site_label
_atom_site_fract_x
_atom_site_fract_y
_atom_site_fract_z
Si Si1 0.227154 0.785137 0.172654
Si Si2 0.000000 0.500000 0.000000
Si Si3 0.553102 0.287460 0.227849
Si Si4 0.761480 0.295851 0.343258
Si Si5 0.127891 0.291275 0.583566
Si Si6 0.901902 0.204566 0.997993
O O1 0.137446 0.724544 0.208860
O O2 0.246946 0.719812 0.257248
O O3 0.225909 0.000000 0.172152
O O4 0.304094 0.720560 0.056356
O O5 0.070910 0.342577 0.948564
O O6 0.556470 0.500000 0.222495
O O7 0.469429 0.235853 0.339976
O O8 0.552368 0.228928 0.125830
O O9 0.783899 0.500000 0.312643
O O10 0.830428 0.218909 0.357330
O O11 0.676674 0.288219 0.463767
O O12 0.145145 0.500000 0.567405
O O13 0.921013 0.000000 0.001338
#
# Coordination Sequence:
#
# PCOD9206539 Si02
#       6
#     8   2   8   8   8   8
#     4  10  21  41  65  90 126 171 211 263 321 378
#     4  12  26  44  68  94 136 164 216 268 312 384
#     4  10  23  40  62  91 126 167 213 259 318 388
#     4   9  20  38  61  85 117 163 210 260 326 381
#     4  10  21  36  59  88 121 161 207 266 327 372
#     4  11  25  42  66  99 130 169 211 260 322 376
#
# _framework density 22.701001000000002
#
# number of rings (size 3 to 8) (size 9 to 14) (size 15 to 20)
#    0.000    1.905    0.952    1.429    4.000    3.048 
#    0.000    3.810    0.000    0.000    0.000    0.000 
#    0.000    0.000    0.000    0.000    0.000    0.000 
#
# Total GULP energy -117116.137655 kJ/mol
# GULP energy per Si atom -5576.958936 kJ/mol
# Density = 2.264933 g / cm^3
# Si number density = 22.701001 Si / 1000 Ang^3
#
#
#
# Elastic Constant Matrix: (Units=GPa)
#
#
# Indices 1 2 3 4 5 6 
#
# 1 80.8715 13.6955 6.7890 0.0000 -27.1918 0.0001
# 2 13.6955 97.1394 -4.7801 -0.0002 5.8580 0.0002
# 3 6.7890 -4.7801 36.0639 -0.0001 -10.6766 0.0000
# 4 0.0000 -0.0002 -0.0001 14.6358 0.0001 -18.6325
# 5 -27.1918 5.8580 -10.6766 0.0001 40.7828 0.0000
# 6 0.0001 0.0002 0.0000 -18.6325 0.0000 11.5882
#
#
#
# Elastic Compliance Matrix: (Units=1/GPa)
#
#
# Indices 1 2 3 4 5 6 
#
# 1 0.016800 -0.003075 -0.000134 0.000000 0.011608 0.000000
# 2 -0.003075 0.010982 0.001041 0.000000 -0.003355 0.000000
# 3 -0.000134 0.001041 0.030158 0.000000 0.007657 0.000000
# 4 0.000000 0.000000 0.000000 -0.065260 0.000000 -0.104931
# 5 0.011608 -0.003355 0.007657 0.000000 0.034746 0.000000
# 6 0.000000 0.000000 0.000000 -0.104931 0.000000 -0.082423
#
#
# Mechanical properties :
#
#
# Convention : Reuss Voigt Hill
#
# Bulk Modulus (GPa) = 18.65500 27.27594 22.96547
# Shear Modulus (GPa) = -152.47397 26.62605 -62.92396
#
# Velocity S-wave (km/s) = -8.20439 3.42848 -5.27056
# Velocity P-wave (km/s) = 9.02850 5.26441 5.18651
#
# Compressibility (1/GPa) = 0.05360493
#
# Stress axis : x y z
#
# Youngs Moduli (GPa) = 59.52220 91.06105 33.15829
#
# Poissons Ratio (x) = 0.28004 0.00443
# Poissons Ratio (y) = 0.18305 -0.03452
# Poissons Ratio (z) = 0.00796 -0.09481
#
# Static dielectric constant tensor:
#      x y z
#    x 1.888160 0.000000 0.033130 
#    y 0.000000 1.843760 0.000000 
#    z 0.033130 0.000000 1.852890 
# 
# From -- ./inp_files/221432.got.cif
#   From: 2010.05.17/outbox.cif.g08.bks.cpg/sg12_111_cif.got.tgz:221432.got - 2010.06.03 13:09:07.
