data_PCOD9206845
_publ_section_title
;
Structure prediction by ZEFSAII (Michael W. Deem and Ramdas Pophale) SiO2 
 PCOD9206845
Probable space group: C 2/M
;
_chemical_formula_sum "Si O2"
_cell_formula_units_Z 42
_cell_length_a 15.762542
_cell_length_b 10.305489
_cell_length_c 12.449600
_cell_angle_alpha 90.000000
_cell_angle_beta 108.919391
_cell_angle_gamma 90.000000
_cell_volume 1913.067218
_symmetry_space_group_name_H-M "C 2/M"
_symmetry_group_IT_number 12
_symmetry_cell_setting 'monoclinic'
loop_
_space_group_symop_operation_xyz
x,y,z
-x,y,-z
-x,-y,-z
x,-y,z
1/2+x,1/2+y,z
1/2-x,1/2+y,-z
1/2-x,1/2-y,-z
1/2+x,1/2-y,z
loop_
_atom_site_type_symbol
_atom_site_label
_atom_site_fract_x
_atom_site_fract_y
_atom_site_fract_z
Si Si1 0.699917 0.348977 0.557229
Si Si2 0.414200 0.145353 0.821078
Si Si3 0.448307 0.355691 0.663734
Si Si4 0.337439 0.651138 0.219491
Si Si5 0.393854 0.756968 0.035337
Si Si6 0.000000 0.000000 0.000000
O O1 0.728243 0.500000 0.556028
O O2 0.750000 0.250000 0.500000
O O3 0.597472 0.346305 0.470951
O O4 0.905064 0.250385 0.723715
O O5 0.206359 0.187387 0.684793
O O6 0.520324 0.157077 0.893551
O O7 0.392876 0.000000 0.779622
O O8 0.363063 0.183552 0.909587
O O9 0.427769 0.500000 0.700114
O O10 0.554991 0.342839 0.710734
O O11 0.316417 0.500000 0.189014
O O12 0.329453 0.739447 0.110583
O O13 0.435568 0.615414 0.025217
#
# Coordination Sequence:
#
# PCOD9206845 Si02
#       6
#     8   8   8   8   8   2
#     4  10  21  37  53  73  99 134 172 211 256 303
#     4   9  17  26  42  70 108 135 155 194 253 307
#     4   9  18  31  53  76  98 129 170 214 249 292
#     4   9  16  29  52  79 103 127 167 214 253 291
#     4   9  15  23  44  71 106 132 158 196 249 297
#     4   8  12  20  38  72  98 124 154 192 238 288
#
# _framework density 21.954272
#
# number of rings (size 3 to 8) (size 9 to 14) (size 15 to 20)
#    0.000    3.048    0.952    1.714    8.000    3.048 
#    0.000    4.762    0.000    6.857    0.000    0.000 
#    0.000    0.000    0.000    0.000    0.000    0.000 
#
# Total GULP energy -116993.736576 kJ/mol
# GULP energy per Si atom -5571.130313 kJ/mol
# Density = 2.190430 g / cm^3
# Si number density = 21.954272 Si / 1000 Ang^3
#
#
#
# Elastic Constant Matrix: (Units=GPa)
#
#
# Indices 1 2 3 4 5 6 
#
# 1 120.5954 53.1022 24.9248 0.0000 -36.2085 0.0000
# 2 53.1022 128.7405 33.1258 0.0000 -26.2800 0.0000
# 3 24.9248 33.1258 107.9823 0.0000 -23.0549 0.0000
# 4 0.0000 0.0000 0.0000 13.5758 0.0000 -6.7794
# 5 -36.2085 -26.2800 -23.0549 0.0000 49.6954 0.0000
# 6 0.0000 0.0000 0.0000 -6.7794 0.0000 25.5771
#
#
#
# Elastic Compliance Matrix: (Units=1/GPa)
#
#
# Indices 1 2 3 4 5 6 
#
# 1 0.011886 -0.003469 -0.000246 0.000000 0.006711 0.000000
# 2 -0.003469 0.010076 -0.001878 0.000000 0.001929 0.000000
# 3 -0.000246 -0.001878 0.010704 0.000000 0.003793 0.000000
# 4 0.000000 0.000000 0.000000 0.084898 0.000000 0.022503
# 5 0.006711 0.001929 0.003793 0.000000 0.027792 0.000000
# 6 0.000000 0.000000 0.000000 0.022503 0.000000 0.045062
#
#
# Mechanical properties :
#
#
# Convention : Reuss Voigt Hill
#
# Bulk Modulus (GPa) = 46.56071 64.40264 55.48167
# Shear Modulus (GPa) = 23.95053 34.18069 29.06561
#
# Velocity S-wave (km/s) = 3.30650 3.95004 3.64251
# Velocity P-wave (km/s) = 5.98593 7.08536 6.55872
#
# Compressibility (1/GPa) = 0.02147734
#
# Stress axis : x y z
#
# Youngs Moduli (GPa) = 84.13446 99.24957 93.42609
#
# Poissons Ratio (x) = 0.34432 0.02302
# Poissons Ratio (y) = 0.29188 0.17548
# Poissons Ratio (z) = 0.02073 0.18642
#
# Static dielectric constant tensor:
#      x y z
#    x 1.837250 0.000000 0.034920 
#    y 0.000000 1.740270 0.000000 
#    z 0.034920 0.000000 1.883290 
# 
# From -- ./inp_files/315012.got.cif
#   From: 2010.05.17/outbox.cif.g08.bks.cpg/sg12_158_cif.got.tgz:315012.got - 2010.06.03 13:09:07.
