data_PCOD9206312
_publ_section_title
;
Structure prediction by ZEFSAII (Michael W. Deem and Ramdas Pophale) SiO2 
 PCOD9206312
Probable space group: C 2/M
;
_chemical_formula_sum "Si O2"
_cell_formula_units_Z 46
_cell_length_a 14.768651
_cell_length_b 7.575768
_cell_length_c 28.859558
_cell_angle_alpha 90.000000
_cell_angle_beta 139.487582
_cell_angle_gamma 90.000000
_cell_volume 2097.547332
_symmetry_space_group_name_H-M "C 2/M"
_symmetry_group_IT_number 12
_symmetry_cell_setting 'monoclinic'
loop_
_space_group_symop_operation_xyz
x,y,z
-x,y,-z
-x,-y,-z
x,-y,z
1/2+x,1/2+y,z
1/2-x,1/2+y,-z
1/2-x,1/2-y,-z
1/2+x,1/2-y,z
loop_
_atom_site_type_symbol
_atom_site_label
_atom_site_fract_x
_atom_site_fract_y
_atom_site_fract_z
Si Si1 0.487216 0.714370 0.097441
Si Si2 0.500000 0.249726 0.000000
Si Si3 0.777191 0.288327 0.260062
Si Si4 0.312014 0.693306 0.380404
Si Si5 0.000000 0.500000 0.500000
Si Si6 0.508469 0.705586 0.275719
Si Si7 0.194173 0.215278 0.885650
O O1 0.485426 0.500000 0.087822
O O2 0.476959 0.810823 0.044345
O O3 0.632304 0.761137 0.178907
O O4 0.365594 0.752975 0.086792
O O5 0.339360 0.309694 0.931036
O O6 0.778467 0.500000 0.262712
O O7 0.790137 0.218348 0.316862
O O8 0.905188 0.226058 0.278513
O O9 0.371868 0.500000 0.412091
O O10 0.155881 0.703653 0.340282
O O11 0.406401 0.846092 0.437670
O O12 0.540160 0.500000 0.279726
O O13 0.422550 0.767170 0.197209
O O14 0.215878 0.000000 0.889656
#
# Coordination Sequence:
#
# PCOD9206312 Si02
#       7
#     8   4   8   8   2   8   8
#     4  10  21  36  57  86 130 184 236 299 369 419
#     4  12  20  36  56  88 132 178 252 308 358 428
#     4  11  21  41  69 101 139 188 244 298 352 427
#     4  12  25  47  79 111 146 188 235 284 353 437
#     4  12  26  52  80 114 156 186 214 288 372 418
#     4  11  21  41  69 101 139 188 244 298 352 427
#     4  10  21  36  57  86 130 184 236 299 369 419
#
# _framework density 21.930375000000002
#
# number of rings (size 3 to 8) (size 9 to 14) (size 15 to 20)
#    0.000    1.043    5.217    2.348    0.000    0.000 
#    0.000    0.870    0.000    0.000    0.000    0.000 
#    0.000    0.000    0.000    0.000    0.000    0.000 
#
# Total GULP energy -128183.454887 kJ/mol
# GULP energy per Si atom -5573.193691 kJ/mol
# Density = 2.188046 g / cm^3
# Si number density = 21.930375 Si / 1000 Ang^3
#
#
#
# Elastic Constant Matrix: (Units=GPa)
#
#
# Indices 1 2 3 4 5 6 
#
# 1 112.2291 -5.8144 8.0339 0.0000 -4.9091 0.0000
# 2 -5.8144 122.0133 36.7560 0.0000 1.8189 0.0000
# 3 8.0339 36.7560 104.2315 0.0000 7.2847 0.0000
# 4 0.0000 0.0000 0.0000 -227.0425 0.0000 43.1313
# 5 -4.9091 1.8189 7.2847 0.0000 -4.6337 0.0000
# 6 0.0000 0.0000 0.0000 43.1313 0.0000 -12.0853
#
#
#
# Elastic Compliance Matrix: (Units=1/GPa)
#
#
# Indices 1 2 3 4 5 6 
#
# 1 0.008557 0.000615 -0.000234 0.000000 -0.009192 0.000000
# 2 0.000615 0.009205 -0.003154 0.000000 -0.001997 0.000000
# 3 -0.000234 -0.003154 0.009725 0.000000 0.014299 0.000000
# 4 0.000000 0.000000 0.000000 -0.013678 0.000000 -0.048815
# 5 -0.009192 -0.001997 0.014299 0.000000 -0.184378 0.000000
# 6 0.000000 0.000000 0.000000 -0.048815 0.000000 -0.256959
#
#
# Mechanical properties :
#
#
# Convention : Reuss Voigt Hill
#
# Bulk Modulus (GPa) = 45.57578 46.26943 45.92261
# Shear Modulus (GPa) = -12.05782 -28.78575 -20.42178
#
# Velocity S-wave (km/s) = -2.34737 -3.62691 -3.05488
# Velocity P-wave (km/s) = 3.67155 1.89864 2.92277
#
# Compressibility (1/GPa) = 0.02194148
#
# Stress axis : x y z
#
# Youngs Moduli (GPa) = 116.86466 108.63641 102.82855
#
# Poissons Ratio (x) = -0.06685 0.02407
# Poissons Ratio (y) = -0.07191 0.32431
# Poissons Ratio (z) = 0.02736 0.34263
#
# Static dielectric constant tensor:
#      x y z
#    x 1.769580 0.000000 0.001360 
#    y 0.000000 1.884890 0.000000 
#    z 0.001360 0.000000 1.746920 
# 
# From -- ./inp_files/360350.got.cif
#   From: 2010.05.17/outbox.cif.g08.bks.cpg/sg12_181_cif.got.tgz:360350.got - 2010.06.03 13:09:07.
