data_PCOD9206860
_publ_section_title
;
Structure prediction by ZEFSAII (Michael W. Deem and Ramdas Pophale) SiO2 
 PCOD9206860
Probable space group: C 2/M
;
_chemical_formula_sum "Si O2"
_cell_formula_units_Z 64
_cell_length_a 32.675046
_cell_length_b 8.603703
_cell_length_c 16.303752
_cell_angle_alpha 90.000000
_cell_angle_beta 53.170501
_cell_angle_gamma 90.000000
_cell_volume 3668.670090
_symmetry_space_group_name_H-M "C 2/M"
_symmetry_group_IT_number 12
_symmetry_cell_setting 'monoclinic'
loop_
_space_group_symop_operation_xyz
x,y,z
-x,y,-z
-x,-y,-z
x,-y,z
1/2+x,1/2+y,z
1/2-x,1/2+y,-z
1/2-x,1/2-y,-z
1/2+x,1/2-y,z
loop_
_atom_site_type_symbol
_atom_site_label
_atom_site_fract_x
_atom_site_fract_y
_atom_site_fract_z
Si Si1 0.362305 0.812545 0.024941
Si Si2 0.224589 0.686912 0.448623
Si Si3 0.240414 0.813898 0.772362
Si Si4 0.385312 0.811764 0.483110
Si Si5 0.973881 0.689604 0.947821
Si Si6 0.600928 0.812390 0.199557
Si Si7 0.010180 0.310627 0.726732
Si Si8 0.152484 0.184657 0.300749
O O1 0.312114 0.741515 0.124941
O O2 0.358992 0.000000 0.032861
O O3 0.414608 0.765178 0.008356
O O4 0.370359 0.770357 0.919697
O O5 0.225565 0.500000 0.450839
O O6 0.250000 0.750000 0.500000
O O7 0.253671 0.735435 0.330137
O O8 0.165420 0.734905 0.506645
O O9 0.289641 0.746771 0.760161
O O10 0.243668 0.000000 0.770840
O O11 0.437671 0.757832 0.378197
O O12 0.377708 0.750944 0.584213
O O13 0.385770 0.000000 0.485748
O O14 0.974620 0.500000 0.947663
O O15 0.003274 0.738302 0.829683
O O16 0.000000 0.744230 0.000000
O O17 0.541600 0.765384 0.258624
O O18 0.626731 0.740529 0.247912
O O19 0.602196 0.000000 0.204752
O O20 0.010972 0.500000 0.726081
O O21 0.152941 0.000000 0.304117
#
# Coordination Sequence:
#
# PCOD9206860 Si02
#       8
#     8   8   8   8   8   8   8   8
#     4   9  18  32  52  78 104 132 168 208 249 293
#     4   9  19  33  50  73 100 130 164 204 247 292
#     4  10  21  37  54  73 100 133 168 206 251 301
#     4   9  18  34  53  74 101 133 169 206 247 295
#     4   8  14  26  47  77 108 133 163 205 245 285
#     4   9  18  34  53  74 102 133 166 204 246 296
#     4   8  15  29  50  73  98 133 171 201 238 293
#     4  11  22  35  52  74  99 129 167 209 254 300
#
# _framework density 17.445012999999999
#
# number of rings (size 3 to 8) (size 9 to 14) (size 15 to 20)
#    0.000    2.875    0.000    3.750    0.000    5.000 
#    0.000    5.625    0.000    1.125    0.000    0.000 
#    0.000    0.000    0.000    0.000    0.000    0.000 
#
# Total GULP energy -178413.239064 kJ/mol
# GULP energy per Si atom -5575.413721 kJ/mol
# Density = 1.740531 g / cm^3
# Si number density = 17.445013 Si / 1000 Ang^3
#
#
#
# Elastic Constant Matrix: (Units=GPa)
#
#
# Indices 1 2 3 4 5 6 
#
# 1 170.8369 37.2422 135.9723 0.0000 14.4673 0.0000
# 2 37.2422 22.3949 37.4692 0.0000 -0.4458 0.0002
# 3 135.9723 37.4692 162.2275 0.0000 -17.7838 0.0000
# 4 0.0000 0.0000 0.0000 24.0435 0.0000 -1.5883
# 5 14.4673 -0.4458 -17.7838 0.0000 34.1801 0.0000
# 6 0.0000 0.0002 0.0000 -1.5883 0.0000 20.7352
#
#
#
# Elastic Compliance Matrix: (Units=1/GPa)
#
#
# Indices 1 2 3 4 5 6 
#
# 1 0.033746 -0.006332 -0.030115 0.000000 -0.030035 0.000000
# 2 -0.006332 0.076237 -0.012618 0.000000 -0.002891 -0.000001
# 3 -0.030115 -0.012618 0.037858 0.000000 0.032279 0.000000
# 4 0.000000 0.000000 0.000000 0.041803 0.000000 0.003202
# 5 -0.030035 -0.002891 0.032279 0.000000 0.058727 0.000000
# 6 0.000000 -0.000001 0.000000 0.003202 0.000000 0.048473
#
#
# Mechanical properties :
#
#
# Convention : Reuss Voigt Hill
#
# Bulk Modulus (GPa) = 20.11598 86.31408 53.21503
# Shear Modulus (GPa) = 12.14943 25.44347 18.79645
#
# Velocity S-wave (km/s) = 2.64188 3.82317 3.28604
# Velocity P-wave (km/s) = 4.56751 8.31108 6.70583
#
# Compressibility (1/GPa) = 0.04971172
#
# Stress axis : x y z
#
# Youngs Moduli (GPa) = 29.63300 13.11708 26.41449
#
# Poissons Ratio (x) = 0.08305 0.79546
# Poissons Ratio (y) = 0.18762 0.33330
# Poissons Ratio (z) = 0.89239 0.16551
#
# Static dielectric constant tensor:
#      x y z
#    x 1.575430 0.000000 -0.004280 
#    y 0.000000 1.600930 0.000000 
#    z -0.004280 0.000000 1.579600 
# 
# From -- ./inp_files/249112.got.cif
#   From: 2010.05.17/outbox.cif.g08.bks.cpg/sg12_125_cif.got.tgz:249112.got - 2010.06.03 13:09:07.
