data_PCOD9206402
_publ_section_title
;
Structure prediction by ZEFSAII (Michael W. Deem and Ramdas Pophale) SiO2 
 PCOD9206402
Probable space group: C 2/M
;
_chemical_formula_sum "Si O2"
_cell_formula_units_Z 52
_cell_length_a 31.385835
_cell_length_b 11.064997
_cell_length_c 13.605570
_cell_angle_alpha 90.000000
_cell_angle_beta 40.141675
_cell_angle_gamma 90.000000
_cell_volume 3046.111641
_symmetry_space_group_name_H-M "C 2/M"
_symmetry_group_IT_number 12
_symmetry_cell_setting 'monoclinic'
loop_
_space_group_symop_operation_xyz
x,y,z
-x,y,-z
-x,-y,-z
x,-y,z
1/2+x,1/2+y,z
1/2-x,1/2+y,-z
1/2-x,1/2-y,-z
1/2+x,1/2-y,z
loop_
_atom_site_type_symbol
_atom_site_label
_atom_site_fract_x
_atom_site_fract_y
_atom_site_fract_z
Si Si1 0.992568 0.500000 0.764822
Si Si2 0.217207 0.734667 0.811853
Si Si3 0.489250 0.231422 0.404273
Si Si4 0.350494 0.355851 0.678757
Si Si5 0.626605 0.357775 0.134023
Si Si6 0.235817 0.634621 0.457407
Si Si7 0.889110 0.500000 0.296534
Si Si8 0.639823 0.000000 0.879964
O O1 0.005657 0.616541 0.674788
O O2 0.042348 0.500000 0.769057
O O3 0.918543 0.500000 0.937348
O O4 0.286209 0.695906 0.739106
O O5 0.232517 0.835406 0.703075
O O6 0.184214 0.618571 0.818106
O O7 0.167643 0.783552 0.981938
O O8 0.500000 0.196918 0.500000
O O9 0.418249 0.295239 0.522446
O O10 0.549728 0.320076 0.270620
O O11 0.353903 0.500000 0.658572
O O12 0.347062 0.333043 0.802159
O O13 0.633176 0.500000 0.103372
O O14 0.258453 0.500000 0.453720
O O15 0.250000 0.750000 0.500000
O O16 0.156813 0.613445 0.590064
O O17 0.890310 0.500000 0.176466
#
# Coordination Sequence:
#
# PCOD9206402 Si02
#       8
#     4   8   8   8   8   8   4   4
#     4  12  22  40  58  88 118 153 203 243 300 360
#     4  12  20  38  58  88 118 154 198 244 306 354
#     4  10  21  38  59  84 118 159 200 245 297 355
#     4  10  21  36  58  85 117 159 201 245 290 361
#     4  10  21  37  57  84 119 157 201 244 299 357
#     4  10  21  38  62  88 116 149 193 244 298 356
#     4  10  23  41  61  90 112 154 199 246 298 358
#     4  12  23  37  63  84 117 161 193 247 304 369
#
# _framework density 17.070944000000001
#
# number of rings (size 3 to 8) (size 9 to 14) (size 15 to 20)
#    0.462    0.923    3.846    2.769    0.000    1.846 
#    1.385    0.000    0.000    0.000    0.000    2.154 
#    0.000    0.000    0.000    0.000    0.000    0.000 
#
# Total GULP energy -145036.541111 kJ/mol
# GULP energy per Si atom -5578.328504 kJ/mol
# Density = 1.703209 g / cm^3
# Si number density = 17.070944 Si / 1000 Ang^3
#
#
#
# Elastic Constant Matrix: (Units=GPa)
#
#
# Indices 1 2 3 4 5 6 
#
# 1 89.7905 37.0309 36.2294 0.0000 -8.6120 0.0000
# 2 37.0309 90.2888 34.6354 0.0000 6.7270 0.0000
# 3 36.2294 34.6354 108.3289 0.0000 3.5439 0.0000
# 4 0.0000 0.0000 0.0000 36.6704 0.0000 3.3432
# 5 -8.6120 6.7270 3.5439 0.0000 19.5181 0.0000
# 6 0.0000 0.0000 0.0000 3.3432 0.0000 21.0464
#
#
#
# Elastic Compliance Matrix: (Units=1/GPa)
#
#
# Indices 1 2 3 4 5 6 
#
# 1 0.016019 -0.005836 -0.003811 0.000000 0.009771 0.000000
# 2 -0.005836 0.015012 -0.002610 0.000000 -0.007275 0.000000
# 3 -0.003811 -0.002610 0.011434 0.000000 -0.002858 0.000000
# 4 0.000000 0.000000 0.000000 0.027671 0.000000 -0.004395
# 5 0.009771 -0.007275 -0.002858 0.000000 0.058573 0.000000
# 6 0.000000 0.000000 0.000000 -0.004395 0.000000 0.048212
#
#
# Mechanical properties :
#
#
# Convention : Reuss Voigt Hill
#
# Bulk Modulus (GPa) = 55.70812 56.02219 55.86516
# Shear Modulus (GPa) = 24.10589 27.48113 25.79351
#
# Velocity S-wave (km/s) = 3.76187 4.01661 3.89132
# Velocity P-wave (km/s) = 7.18144 7.37559 7.27916
#
# Compressibility (1/GPa) = 0.01795070
#
# Stress axis : x y z
#
# Youngs Moduli (GPa) = 62.42653 66.61147 87.46068
#
# Poissons Ratio (x) = 0.38875 0.33332
# Poissons Ratio (y) = 0.36432 0.22828
# Poissons Ratio (z) = 0.23791 0.17386
#
# Static dielectric constant tensor:
#      x y z
#    x 1.562810 0.000000 0.009620 
#    y 0.000000 1.561200 0.000000 
#    z 0.009620 0.000000 1.564080 
# 
# From -- ./inp_files/188679.got.cif
#   From: 2010.05.17/outbox.cif.g08.bks.cpg/sg12_95_cif.got.tgz:188679.got - 2010.06.03 13:09:07.
