data_PCOD9206699
_publ_section_title
;
Structure prediction by ZEFSAII (Michael W. Deem and Ramdas Pophale) SiO2 
 PCOD9206699
Probable space group: C 2/M
;
_chemical_formula_sum "Si O2"
_cell_formula_units_Z 44
_cell_length_a 11.329396
_cell_length_b 23.198820
_cell_length_c 11.948149
_cell_angle_alpha 90.000000
_cell_angle_beta 45.518945
_cell_angle_gamma 90.000000
_cell_volume 2240.559107
_symmetry_space_group_name_H-M "C 2/M"
_symmetry_group_IT_number 12
_symmetry_cell_setting 'monoclinic'
loop_
_space_group_symop_operation_xyz
x,y,z
-x,y,-z
-x,-y,-z
x,-y,z
1/2+x,1/2+y,z
1/2-x,1/2+y,-z
1/2-x,1/2-y,-z
1/2+x,1/2-y,z
loop_
_atom_site_type_symbol
_atom_site_label
_atom_site_fract_x
_atom_site_fract_y
_atom_site_fract_z
Si Si1 0.920200 0.587712 0.886884
Si Si2 0.291277 0.000000 0.342688
Si Si3 0.286212 0.500000 0.844301
Si Si4 0.688866 0.402382 0.831774
Si Si5 0.850330 0.000000 0.316411
Si Si6 0.488230 0.777220 0.840725
Si Si7 0.251690 0.770650 0.809736
O O1 0.806352 0.577669 0.854007
O O2 0.942409 0.655741 0.888829
O O3 0.090756 0.555427 0.750697
O O4 0.824501 0.555403 0.050098
O O5 0.215083 0.000000 0.514898
O O6 0.173751 0.000000 0.313010
O O7 0.451171 0.500000 0.807262
O O8 0.705377 0.443927 0.715320
O O9 0.737537 0.336257 0.778460
O O10 0.500000 0.404365 0.000000
O O11 0.428486 0.761319 0.754284
O O12 0.675409 0.766921 0.759268
O O13 0.375085 0.739839 0.001528
#
# Coordination Sequence:
#
# PCOD9206699 Si02
#       7
#     8   4   4   8   4   8   8
#     4  10  21  36  61  88 114 144 194 242 290 324
#     4  11  26  40  49  88 119 154 192 231 283 367
#     4  11  22  37  57  83 114 150 196 241 274 357
#     4  11  19  36  58  89 110 144 195 243 274 348
#     4  12  24  38  62  75 120 159 186 233 306 325
#     4   9  17  30  52  84 119 145 171 243 293 330
#     4   9  18  29  50  85 119 136 187 232 290 330
#
# _framework density 19.637955999999999
#
# number of rings (size 3 to 8) (size 9 to 14) (size 15 to 20)
#    0.000    1.818    3.636    2.727    5.091    1.455 
#    0.000    0.000    0.000    1.091    0.000    0.000 
#    0.000    0.000    0.000    0.000    0.000    0.000 
#
# Total GULP energy -122698.498074 kJ/mol
# GULP energy per Si atom -5577.204458 kJ/mol
# Density = 1.959326 g / cm^3
# Si number density = 19.637956 Si / 1000 Ang^3
#
#
#
# Elastic Constant Matrix: (Units=GPa)
#
#
# Indices 1 2 3 4 5 6 
#
# 1 178.8707 55.6991 20.1762 0.0000 19.0024 0.0000
# 2 55.6991 104.8377 25.6192 0.0000 14.9631 0.0000
# 3 20.1762 25.6192 46.7586 0.0000 18.7823 0.0000
# 4 0.0000 0.0000 0.0000 -0.9626 0.0000 -5.2388
# 5 19.0024 14.9631 18.7823 0.0000 21.8346 0.0000
# 6 0.0000 0.0000 0.0000 -5.2388 0.0000 19.7561
#
#
#
# Elastic Compliance Matrix: (Units=1/GPa)
#
#
# Indices 1 2 3 4 5 6 
#
# 1 0.006995 -0.003219 0.000465 0.000000 -0.004282 0.000000
# 2 -0.003219 0.012683 -0.004880 0.000000 -0.001692 0.000000
# 3 0.000465 -0.004880 0.034652 0.000000 -0.026869 0.000000
# 4 0.000000 0.000000 0.000000 -0.425218 0.000000 -0.112756
# 5 -0.004282 -0.001692 -0.026869 0.000000 0.073798 0.000000
# 6 0.000000 0.000000 0.000000 -0.112756 0.000000 0.020717
#
#
# Mechanical properties :
#
#
# Convention : Reuss Voigt Hill
#
# Bulk Modulus (GPa) = 25.59993 59.27288 42.43641
# Shear Modulus (GPa) = -20.15456 23.39047 1.61795
#
# Velocity S-wave (km/s) = -3.20708 3.45495 0.90867
# Velocity P-wave (km/s) = 0.80594 6.79441 4.77045
#
# Compressibility (1/GPa) = 0.03906261
#
# Stress axis : x y z
#
# Youngs Moduli (GPa) = 142.94914 78.84614 28.85802
#
# Poissons Ratio (x) = 0.25382 -0.01343
# Poissons Ratio (y) = 0.46017 0.14084
# Poissons Ratio (z) = -0.06653 0.38480
#
# Static dielectric constant tensor:
#      x y z
#    x 1.758490 0.000000 -0.008840 
#    y 0.000000 1.684240 0.000000 
#    z -0.008840 0.000000 1.646920 
# 
# From -- ./inp_files/79009.got.cif
#   From: 2010.05.17/outbox.cif.g08.bks.cpg/sg12_40_cif.got.tgz:79009.got - 2010.06.03 13:09:07.
