data_PCOD9206255
_publ_section_title
;
Structure prediction by ZEFSAII (Michael W. Deem and Ramdas Pophale) SiO2 
 PCOD9206255
Probable space group: C 2/M
;
_chemical_formula_sum "Si O2"
_cell_formula_units_Z 56
_cell_length_a 16.660396
_cell_length_b 17.682698
_cell_length_c 12.689668
_cell_angle_alpha 90.000000
_cell_angle_beta 120.917686
_cell_angle_gamma 90.000000
_cell_volume 3207.184834
_symmetry_space_group_name_H-M "C 2/M"
_symmetry_group_IT_number 12
_symmetry_cell_setting 'monoclinic'
loop_
_space_group_symop_operation_xyz
x,y,z
-x,y,-z
-x,-y,-z
x,-y,z
1/2+x,1/2+y,z
1/2-x,1/2+y,-z
1/2-x,1/2-y,-z
1/2+x,1/2-y,z
loop_
_atom_site_type_symbol
_atom_site_label
_atom_site_fract_x
_atom_site_fract_y
_atom_site_fract_z
Si Si1 0.827704 0.799995 0.495169
Si Si2 0.156835 0.409863 0.847682
Si Si3 0.412833 0.188467 0.378387
Si Si4 0.485911 0.841039 0.866724
Si Si5 0.683110 0.590697 0.880655
Si Si6 0.992000 0.199441 0.252704
Si Si7 0.218464 0.590174 0.277672
O O1 0.750000 0.750000 0.500000
O O2 0.864919 0.743115 0.430187
O O3 0.785343 0.872442 0.408923
O O4 0.909196 0.824414 0.630658
O O5 0.156142 0.500000 0.837503
O O6 0.149359 0.370476 0.728653
O O7 0.066594 0.384301 0.855739
O O8 0.248804 0.387526 0.976603
O O9 0.500000 0.151480 0.500000
O O10 0.451437 0.244162 0.314337
O O11 0.491696 0.753366 0.836521
O O12 0.383577 0.873978 0.774009
O O13 0.500000 0.850983 0.000000
O O14 0.668581 0.500000 0.873670
O O15 0.585319 0.635238 0.817247
O O16 0.739037 0.608008 0.809659
O O17 0.212789 0.500000 0.282399
#
# Coordination Sequence:
#
# PCOD9206255 Si02
#       7
#     8   8   8   8   8   8   8
#     4  11  21  39  59  81 115 153 189 241 290 338
#     4  10  21  36  57  83 118 157 190 237 292 345
#     4   9  20  36  55  81 113 147 195 239 283 343
#     4  11  21  35  57  88 117 152 190 240 292 343
#     4  10  21  37  59  86 117 151 190 241 291 344
#     4  10  21  37  58  84 113 149 195 240 285 346
#     4  11  22  36  58  89 118 148 189 240 296 343
#
# _framework density 17.460795999999998
#
# number of rings (size 3 to 8) (size 9 to 14) (size 15 to 20)
#    0.000    1.714    4.286    0.429    0.000    4.857 
#    0.000    2.143    0.000    0.429    0.000    0.000 
#    0.000    0.000    0.000    0.000    0.000    0.000 
#
# Total GULP energy -156158.578982 kJ/mol
# GULP energy per Si atom -5577.092107 kJ/mol
# Density = 1.742105 g / cm^3
# Si number density = 17.460796 Si / 1000 Ang^3
#
#
#
# Elastic Constant Matrix: (Units=GPa)
#
#
# Indices 1 2 3 4 5 6 
#
# 1 56.2730 23.9086 16.1760 0.0000 23.7121 0.0000
# 2 23.9086 56.2661 32.4888 0.0000 21.0092 0.0000
# 3 16.1760 32.4888 75.5376 0.0000 36.0608 0.0000
# 4 0.0000 0.0000 0.0000 32.5924 0.0000 2.9362
# 5 23.7121 21.0092 36.0608 0.0000 34.4781 0.0000
# 6 0.0000 0.0000 0.0000 2.9362 0.0000 31.5344
#
#
#
# Elastic Compliance Matrix: (Units=1/GPa)
#
#
# Indices 1 2 3 4 5 6 
#
# 1 0.028960 -0.008470 0.008959 0.000000 -0.024125 0.000000
# 2 -0.008470 0.027144 -0.009478 0.000000 -0.000802 0.000000
# 3 0.008959 -0.009478 0.031118 0.000000 -0.032932 0.000000
# 4 0.000000 0.000000 0.000000 0.030942 0.000000 -0.002881
# 5 -0.024125 -0.000802 -0.032932 0.000000 0.080528 0.000000
# 6 0.000000 0.000000 0.000000 -0.002881 0.000000 0.031980
#
#
# Mechanical properties :
#
#
# Convention : Reuss Voigt Hill
#
# Bulk Modulus (GPa) = 14.44204 37.02485 25.73344
# Shear Modulus (GPa) = 18.40052 27.42122 22.91087
#
# Velocity S-wave (km/s) = 3.24978 3.96718 3.62627
# Velocity P-wave (km/s) = 4.72975 6.49887 5.68357
#
# Compressibility (1/GPa) = 0.06924230
#
# Stress axis : x y z
#
# Youngs Moduli (GPa) = 34.53046 36.84058 32.13584
#
# Poissons Ratio (x) = 0.31205 -0.28789
# Poissons Ratio (y) = 0.29248 0.30459
# Poissons Ratio (z) = -0.30935 0.34918
#
# Static dielectric constant tensor:
#      x y z
#    x 1.602550 0.000000 0.013480 
#    y 0.000000 1.580280 0.000000 
#    z 0.013480 0.000000 1.614190 
# 
# From -- ./inp_files/146015.got.cif
#   From: 2010.05.17/outbox.cif.g08.bks.cpg/sg12_74_cif.got.tgz:146015.got - 2010.06.03 13:09:07.
