data_PCOD9206672
_publ_section_title
;
Structure prediction by ZEFSAII (Michael W. Deem and Ramdas Pophale) SiO2 
 PCOD9206672
Probable space group: C 2/M
;
_chemical_formula_sum "Si O2"
_cell_formula_units_Z 64
_cell_length_a 28.866061
_cell_length_b 16.994313
_cell_length_c 9.757949
_cell_angle_alpha 90.000000
_cell_angle_beta 41.131267
_cell_angle_gamma 90.000000
_cell_volume 3148.723724
_symmetry_space_group_name_H-M "C 2/M"
_symmetry_group_IT_number 12
_symmetry_cell_setting 'monoclinic'
loop_
_space_group_symop_operation_xyz
x,y,z
-x,y,-z
-x,-y,-z
x,-y,z
1/2+x,1/2+y,z
1/2-x,1/2+y,-z
1/2-x,1/2-y,-z
1/2+x,1/2-y,z
loop_
_atom_site_type_symbol
_atom_site_label
_atom_site_fract_x
_atom_site_fract_y
_atom_site_fract_z
Si Si1 0.742309 0.905085 0.244704
Si Si2 0.272461 0.588059 0.494315
Si Si3 0.391634 0.207348 0.502588
Si Si4 0.988275 0.413172 0.688612
Si Si5 0.845803 0.659528 0.084683
Si Si6 0.427753 0.416444 0.077095
Si Si7 0.421809 0.752347 0.141941
Si Si8 0.822104 0.215563 0.902710
O O1 0.760963 0.884090 0.362167
O O2 0.670573 0.858573 0.366412
O O3 0.736609 0.000000 0.246213
O O4 0.802228 0.869243 0.010343
O O5 0.242503 0.500000 0.562842
O O6 0.356197 0.583590 0.324794
O O7 0.232357 0.631886 0.704253
O O8 0.463560 0.157263 0.360256
O O9 0.390304 0.255693 0.364011
O O10 0.378371 0.267113 0.657853
O O11 0.009320 0.500000 0.694752
O O12 0.000000 0.412136 0.500000
O O13 0.905291 0.400222 0.899778
O O14 0.842542 0.729275 0.983852
O O15 0.875291 0.686902 0.164803
O O16 0.423404 0.500000 0.005266
O O17 0.427731 0.325416 0.032634
O O18 0.500000 0.420302 0.000000
O O19 0.500000 0.780617 0.000000
O O20 0.750000 0.250000 0.000000
#
# Coordination Sequence:
#
# PCOD9206672 Si02
#       8
#     8   8   8   8   8   8   8   8
#     4  10  21  39  60  88 124 162 201 255 321 374
#     4  10  21  36  60  93 124 156 202 259 320 377
#     4  11  21  41  60  91 125 164 213 256 303 375
#     4  11  23  40  62  91 130 175 210 250 310 379
#     4  12  22  39  61  94 126 165 207 259 311 373
#     4   9  20  38  57  82 117 158 199 252 310 366
#     4  11  22  36  63  94 123 161 210 254 316 375
#     4  10  24  39  59  85 116 166 215 258 305 362
#
# _framework density 20.325695
#
# number of rings (size 3 to 8) (size 9 to 14) (size 15 to 20)
#    0.000    1.500    3.750    1.500    3.500    1.000 
#    0.000    1.875    0.000    0.000    0.000    0.875 
#    0.000    0.000    0.000    0.000    0.000    0.000 
#
# Total GULP energy -178142.039506 kJ/mol
# GULP energy per Si atom -5566.938735 kJ/mol
# Density = 2.027943 g / cm^3
# Si number density = 20.325695 Si / 1000 Ang^3
#
#
#
# Elastic Constant Matrix: (Units=GPa)
#
#
# Indices 1 2 3 4 5 6 
#
# 1 47.2624 16.8000 39.5909 0.0000 -3.9139 0.0000
# 2 16.8000 54.1087 13.6843 0.0000 6.0602 0.0000
# 3 39.5909 13.6843 96.9612 0.0000 3.7373 0.0000
# 4 0.0000 0.0000 0.0000 20.0263 0.0000 -11.2045
# 5 -3.9139 6.0602 3.7373 0.0000 38.3715 0.0000
# 6 0.0000 0.0000 0.0000 -11.2045 0.0000 21.2528
#
#
#
# Elastic Compliance Matrix: (Units=1/GPa)
#
#
# Indices 1 2 3 4 5 6 
#
# 1 0.036337 -0.008487 -0.013886 0.000000 0.006399 0.000000
# 2 -0.008487 0.021446 0.000605 0.000000 -0.004312 0.000000
# 3 -0.013886 0.000605 0.016016 0.000000 -0.003072 0.000000
# 4 0.000000 0.000000 0.000000 0.070825 0.000000 0.037339
# 5 0.006399 -0.004312 -0.003072 0.000000 0.027694 0.000000
# 6 0.000000 0.000000 0.000000 0.037339 0.000000 0.066738
#
#
# Mechanical properties :
#
#
# Convention : Reuss Voigt Hill
#
# Bulk Modulus (GPa) = 33.04308 37.60919 35.32614
# Shear Modulus (GPa) = 17.08346 24.48060 20.78203
#
# Velocity S-wave (km/s) = 2.90226 3.47424 3.20105
# Velocity P-wave (km/s) = 5.24623 5.88534 5.57495
#
# Compressibility (1/GPa) = 0.03026352
#
# Stress axis : x y z
#
# Youngs Moduli (GPa) = 27.51992 46.62793 62.43621
#
# Poissons Ratio (x) = 0.39574 0.86699
# Poissons Ratio (y) = 0.23356 -0.03776
# Poissons Ratio (z) = 0.38214 -0.02820
#
# Static dielectric constant tensor:
#      x y z
#    x 1.736970 0.000000 -0.008580 
#    y 0.000000 1.795810 0.000000 
#    z -0.008580 0.000000 1.764490 
# 
# From -- ./inp_files/112837.got.cif
#   From: 2010.05.17/outbox.cif.g08.bks.cpg/sg12_57_cif.got.tgz:112837.got - 2010.06.03 13:09:07.
