data_PCOD9206966
_publ_section_title
;
Structure prediction by ZEFSAII (Michael W. Deem and Ramdas Pophale) SiO2 
 PCOD9206966
Probable space group: C 2/M
;
_chemical_formula_sum "Si O2"
_cell_formula_units_Z 48
_cell_length_a 16.813708
_cell_length_b 29.678756
_cell_length_c 8.026321
_cell_angle_alpha 90.000000
_cell_angle_beta 148.067394
_cell_angle_gamma 90.000000
_cell_volume 2118.443298
_symmetry_space_group_name_H-M "C 2/M"
_symmetry_group_IT_number 12
_symmetry_cell_setting 'monoclinic'
loop_
_space_group_symop_operation_xyz
x,y,z
-x,y,-z
-x,-y,-z
x,-y,z
1/2+x,1/2+y,z
1/2-x,1/2+y,-z
1/2-x,1/2-y,-z
1/2+x,1/2-y,z
loop_
_atom_site_type_symbol
_atom_site_label
_atom_site_fract_x
_atom_site_fract_y
_atom_site_fract_z
Si Si1 0.639684 0.278998 0.627096
Si Si2 0.529413 0.643722 0.860433
Si Si3 0.821710 0.446774 0.714742
Si Si4 0.665372 0.184511 0.737933
Si Si5 0.641701 0.052243 0.854433
Si Si6 0.631118 0.448482 0.044803
O O1 0.500000 0.271307 0.500000
O O2 0.584812 0.321411 0.425316
O O3 0.664804 0.227877 0.609873
O O4 0.775131 0.295418 0.981559
O O5 0.500000 0.652533 0.000000
O O6 0.699449 0.653416 0.092961
O O7 0.507876 0.590096 0.800113
O O8 0.786387 0.500000 0.663031
O O9 0.731953 0.433905 0.385445
O O10 0.809481 0.427200 0.881650
O O11 0.000000 0.441512 0.000000
O O12 0.500000 0.167801 0.500000
O O13 0.500000 0.071224 0.500000
O O14 0.772978 0.051358 0.953197
O O15 0.597886 0.000000 0.815428
O O16 0.578155 0.500000 0.974002
#
# Coordination Sequence:
#
# PCOD9206966 Si02
#       6
#     8   8   8   8   8   8
#     4   8  17  39  70  98 132 169 203 263 344 414
#     4  11  24  41  61  99 140 174 216 273 342 395
#     4   9  15  28  51  80 118 165 222 290 345 381
#     4   9  18  40  73 100 123 166 217 265 335 411
#     4   9  15  27  52  82 114 166 228 285 344 385
#     4  10  21  37  55  82 130 188 234 270 322 400
#
# _framework density 22.658147
#
# number of rings (size 3 to 8) (size 9 to 14) (size 15 to 20)
#    0.000    2.667    1.667    1.000    0.000    1.667 
#    9.000    0.833    0.000    4.500    0.000    0.000 
#    0.000    0.000    0.000    0.000    0.000    0.000 
#
# Total GULP energy -133610.157922 kJ/mol
# GULP energy per Si atom -5567.089913 kJ/mol
# Density = 2.260658 g / cm^3
# Si number density = 22.658147 Si / 1000 Ang^3
#
#
#
# Elastic Constant Matrix: (Units=GPa)
#
#
# Indices 1 2 3 4 5 6 
#
# 1 118.2473 9.9476 42.0224 0.0000 -14.4150 0.0000
# 2 9.9476 129.1058 45.4070 0.0000 -19.1472 0.0000
# 3 42.0224 45.4070 102.0739 0.0000 -0.6846 0.0000
# 4 0.0000 0.0000 0.0000 31.7142 0.0000 7.3483
# 5 -14.4150 -19.1472 -0.6846 0.0000 29.0365 0.0000
# 6 0.0000 0.0000 0.0000 7.3483 0.0000 23.8462
#
#
#
# Elastic Compliance Matrix: (Units=1/GPa)
#
#
# Indices 1 2 3 4 5 6 
#
# 1 0.011020 0.002042 -0.005400 0.000000 0.006690 0.000000
# 2 0.002042 0.010722 -0.005557 0.000000 0.007953 0.000000
# 3 -0.005400 -0.005557 0.014452 0.000000 -0.006005 0.000000
# 4 0.000000 0.000000 0.000000 0.033956 0.000000 -0.010464
# 5 0.006690 0.007953 -0.006005 0.000000 0.042864 0.000000
# 6 0.000000 0.000000 0.000000 -0.010464 0.000000 0.045160
#
#
# Mechanical properties :
#
#
# Convention : Reuss Voigt Hill
#
# Bulk Modulus (GPa) = 54.45553 60.46457 57.46005
# Shear Modulus (GPa) = 27.45361 33.72271 30.58816
#
# Velocity S-wave (km/s) = 3.48464 3.86207 3.67820
# Velocity P-wave (km/s) = 6.34634 6.82868 6.59193
#
# Compressibility (1/GPa) = 0.01836361
#
# Stress axis : x y z
#
# Youngs Moduli (GPa) = 90.74588 93.26376 69.19484
#
# Poissons Ratio (x) = -0.19049 0.37368
# Poissons Ratio (y) = -0.18535 0.38453
# Poissons Ratio (z) = 0.49006 0.51829
#
# Static dielectric constant tensor:
#      x y z
#    x 1.836240 0.000000 0.008550 
#    y 0.000000 1.953930 0.000000 
#    z 0.008550 0.000000 1.825680 
# 
# From -- ./inp_files/80852.got.cif
#   From: 2010.05.17/outbox.cif.g08.bks.cpg/sg12_41_cif.got.tgz:80852.got - 2010.06.03 13:09:07.
