data_PCOD9206311
_publ_section_title
;
Structure prediction by ZEFSAII (Michael W. Deem and Ramdas Pophale) SiO2 
 PCOD9206311
Probable space group: C 2/M
;
_chemical_formula_sum "Si O2"
_cell_formula_units_Z 44
_cell_length_a 10.794813
_cell_length_b 27.394586
_cell_length_c 13.938219
_cell_angle_alpha 90.000000
_cell_angle_beta 147.353517
_cell_angle_gamma 90.000000
_cell_volume 2223.522999
_symmetry_space_group_name_H-M "C 2/M"
_symmetry_group_IT_number 12
_symmetry_cell_setting 'monoclinic'
loop_
_space_group_symop_operation_xyz
x,y,z
-x,y,-z
-x,-y,-z
x,-y,z
1/2+x,1/2+y,z
1/2-x,1/2+y,-z
1/2-x,1/2-y,-z
1/2+x,1/2-y,z
loop_
_atom_site_type_symbol
_atom_site_label
_atom_site_fract_x
_atom_site_fract_y
_atom_site_fract_z
Si Si1 0.229435 0.699120 0.314091
Si Si2 0.835833 0.894740 0.061218
Si Si3 0.008485 0.633970 0.683856
Si Si4 0.000000 0.634854 0.000000
Si Si5 0.120792 0.193021 0.181907
Si Si6 0.230137 0.554282 0.585947
O O1 0.500000 0.693098 0.500000
O O2 0.172839 0.756047 0.265186
O O3 0.101620 0.675472 0.321408
O O4 0.140099 0.669385 0.163751
O O5 0.669190 0.896610 0.043741
O O6 0.951371 0.840885 0.132667
O O7 0.044210 0.932294 0.206151
O O8 0.687158 0.896376 0.866916
O O9 0.155096 0.660860 0.697212
O O10 0.816447 0.597433 0.519638
O O11 0.000000 0.202175 0.000000
O O12 0.254778 0.500000 0.560180
O O13 0.000000 0.554307 0.500000
#
# Coordination Sequence:
#
# PCOD9206311 Si02
#       6
#     8   8   8   4   8   8
#     4  11  23  35  58  88 125 173 204 241 292 358
#     4  10  22  40  62  86 125 163 199 254 298 360
#     4  10  23  40  59  90 129 159 201 252 301 356
#     4  10  22  40  59  84 126 166 211 236 292 360
#     4  10  21  36  57  86 127 163 204 247 291 352
#     4  11  23  41  67  94 118 151 202 262 319 362
#
# _framework density 19.788416999999999
#
# number of rings (size 3 to 8) (size 9 to 14) (size 15 to 20)
#    0.000    1.636    2.727    1.091    5.091    3.636 
#    0.000    2.273    0.000   10.364    0.000    0.000 
#    0.000    0.000    0.000    0.000    0.000    0.000 
#
# Total GULP energy -122965.329153 kJ/mol
# GULP energy per Si atom -5589.333143 kJ/mol
# Density = 1.974338 g / cm^3
# Si number density = 19.788417 Si / 1000 Ang^3
#
#
#
# Elastic Constant Matrix: (Units=GPa)
#
#
# Indices 1 2 3 4 5 6 
#
# 1 76.6272 13.4030 16.2602 0.0000 5.2098 0.0000
# 2 13.4030 82.3049 28.7585 0.0000 -5.1820 0.0000
# 3 16.2602 28.7585 92.7858 0.0000 11.9038 0.0000
# 4 0.0000 0.0000 0.0000 12.2261 0.0000 -7.6308
# 5 5.2098 -5.1820 11.9038 0.0000 22.3508 0.0000
# 6 0.0000 0.0000 0.0000 -7.6308 0.0000 9.1011
#
#
#
# Elastic Compliance Matrix: (Units=1/GPa)
#
#
# Indices 1 2 3 4 5 6 
#
# 1 0.013897 -0.001935 -0.001462 0.000000 -0.002909 0.000000
# 2 -0.001935 0.014635 -0.005034 0.000000 0.006525 0.000000
# 3 -0.001462 -0.005034 0.013631 0.000000 -0.008086 0.000000
# 4 0.000000 0.000000 0.000000 0.171583 0.000000 0.143864
# 5 -0.002909 0.006525 -0.008086 0.000000 0.051239 0.000000
# 6 0.000000 0.000000 0.000000 0.143864 0.000000 0.230499
#
#
# Mechanical properties :
#
#
# Convention : Reuss Voigt Hill
#
# Bulk Modulus (GPa) = 39.52569 40.95127 40.23848
# Shear Modulus (GPa) = 9.60097 21.62200 15.61149
#
# Velocity S-wave (km/s) = 2.20507 3.30913 2.81182
# Velocity P-wave (km/s) = 5.14788 5.94474 5.56060
#
# Compressibility (1/GPa) = 0.02530000
#
# Stress axis : x y z
#
# Youngs Moduli (GPa) = 71.95915 68.32988 73.35975
#
# Poissons Ratio (x) = 0.13223 0.10727
# Poissons Ratio (y) = 0.13926 0.36929
# Poissons Ratio (z) = 0.10523 0.34397
#
# Static dielectric constant tensor:
#      x y z
#    x 1.698470 0.000000 0.002040 
#    y 0.000000 1.662960 0.000000 
#    z 0.002040 0.000000 1.726130 
# 
# From -- ./inp_files/137071.got.cif
#   From: 2010.05.17/outbox.cif.g08.bks.cpg/sg12_69_cif.got.tgz:137071.got - 2010.06.03 13:09:07.
