data_PCOD9206708
_publ_section_title
;
Structure prediction by ZEFSAII (Michael W. Deem and Ramdas Pophale) SiO2 
 PCOD9206708
Probable space group: C 2/M
;
_chemical_formula_sum "Si O2"
_cell_formula_units_Z 44
_cell_length_a 23.578202
_cell_length_b 12.206763
_cell_length_c 11.069223
_cell_angle_alpha 90.000000
_cell_angle_beta 129.193720
_cell_angle_gamma 90.000000
_cell_volume 2469.094693
_symmetry_space_group_name_H-M "C 2/M"
_symmetry_group_IT_number 12
_symmetry_cell_setting 'monoclinic'
loop_
_space_group_symop_operation_xyz
x,y,z
-x,y,-z
-x,-y,-z
x,-y,z
1/2+x,1/2+y,z
1/2-x,1/2+y,-z
1/2-x,1/2-y,-z
1/2+x,1/2-y,z
loop_
_atom_site_type_symbol
_atom_site_label
_atom_site_fract_x
_atom_site_fract_y
_atom_site_fract_z
Si Si1 0.237422 0.286523 0.847670
Si Si2 0.632434 0.711095 0.365670
Si Si3 0.915463 0.000000 0.342294
Si Si4 0.083010 0.238397 0.561436
Si Si5 0.664166 0.500000 0.023847
Si Si6 0.217310 0.368659 0.310701
Si Si7 0.420736 0.500000 0.841916
O O1 0.151244 0.307450 0.704946
O O2 0.284700 0.395005 0.904467
O O3 0.269483 0.196874 0.796497
O O4 0.250000 0.250000 0.000000
O O5 0.587392 0.748825 0.422819
O O6 0.708799 0.658631 0.515270
O O7 0.653208 0.808618 0.301345
O O8 0.592172 0.609981 0.250145
O O9 0.890828 0.885326 0.366704
O O10 0.000000 0.000000 0.500000
O O11 0.890528 0.000000 0.167526
O O12 0.000000 0.255522 0.500000
O O13 0.627119 0.500000 0.103233
O O14 0.208275 0.500000 0.285400
O O15 0.500000 0.500000 0.000000
#
# Coordination Sequence:
#
# PCOD9206708 Si02
#       7
#     8   8   4   8   4   8   4
#     4  11  23  37  62  92 123 164 206 259 308 365
#     4  10  21  38  59  92 119 160 207 253 308 374
#     4  10  21  36  61  89 126 160 194 249 314 374
#     4  10  22  38  61  88 122 164 209 250 310 375
#     4  12  24  42  59  97 132 153 211 264 303 368
#     4  10  21  39  65  87 121 161 209 254 307 376
#     4  12  25  36  60  95 129 157 195 264 321 362
#
# _framework density 17.820295999999999
#
# number of rings (size 3 to 8) (size 9 to 14) (size 15 to 20)
#    0.000    1.455    4.545    0.545   10.182    0.000 
#    0.000    0.455    0.000    0.545    0.000    0.000 
#    0.000    0.000    0.000    0.000    0.000    0.000 
#
# Total GULP energy -122580.945924 kJ/mol
# GULP energy per Si atom -5571.861178 kJ/mol
# Density = 1.777974 g / cm^3
# Si number density = 17.820296 Si / 1000 Ang^3
#
#
#
# Elastic Constant Matrix: (Units=GPa)
#
#
# Indices 1 2 3 4 5 6 
#
# 1 140.3593 36.9007 66.6255 0.0000 -7.0515 0.0000
# 2 36.9007 100.2268 51.1535 0.0000 -6.5795 0.0000
# 3 66.6255 51.1535 120.7517 0.0000 -9.8080 0.0000
# 4 0.0000 0.0000 0.0000 23.2735 0.0000 -12.8777
# 5 -7.0515 -6.5795 -9.8080 0.0000 27.5407 0.0000
# 6 0.0000 0.0000 0.0000 -12.8777 0.0000 28.0411
#
#
#
# Elastic Compliance Matrix: (Units=1/GPa)
#
#
# Indices 1 2 3 4 5 6 
#
# 1 0.009749 -0.001061 -0.004889 0.000000 0.000502 0.000000
# 2 -0.001061 0.012881 -0.004782 0.000000 0.001103 0.000000
# 3 -0.004889 -0.004782 0.013192 0.000000 0.002304 0.000000
# 4 0.000000 0.000000 0.000000 0.057605 0.000000 0.026455
# 5 0.000502 0.001103 0.002304 0.000000 0.037522 0.000000
# 6 0.000000 0.000000 0.000000 0.026455 0.000000 0.047811
#
#
# Mechanical properties :
#
#
# Convention : Reuss Voigt Hill
#
# Bulk Modulus (GPa) = 69.64564 74.52190 72.08377
# Shear Modulus (GPa) = 24.38903 29.54828 26.96866
#
# Velocity S-wave (km/s) = 3.70349 4.07643 3.89442
# Velocity P-wave (km/s) = 7.57989 8.00410 7.79488
#
# Compressibility (1/GPa) = 0.01435840
#
# Stress axis : x y z
#
# Youngs Moduli (GPa) = 102.56939 77.63440 75.80539
#
# Poissons Ratio (x) = 0.08240 0.37061
# Poissons Ratio (y) = 0.10886 0.36246
# Poissons Ratio (z) = 0.50146 0.37121
#
# Static dielectric constant tensor:
#      x y z
#    x 1.560950 0.000000 0.017820 
#    y 0.000000 1.368900 0.000000 
#    z 0.017820 0.000000 1.612120 
# 
# From -- ./inp_files/175437.got.cif
#   From: 2010.05.17/outbox.cif.g08.bks.cpg/sg12_88_cif.got.tgz:175437.got - 2010.06.03 13:09:07.
