data_PCOD9206053
_publ_section_title
;
Structure prediction by ZEFSAII (Michael W. Deem and Ramdas Pophale) SiO2 
 PCOD9206053
Probable space group: C 2/M
;
_chemical_formula_sum "Si O2"
_cell_formula_units_Z 56
_cell_length_a 24.407439
_cell_length_b 7.373091
_cell_length_c 13.540555
_cell_angle_alpha 90.000000
_cell_angle_beta 77.654143
_cell_angle_gamma 90.000000
_cell_volume 2380.384762
_symmetry_space_group_name_H-M "C 2/M"
_symmetry_group_IT_number 12
_symmetry_cell_setting 'monoclinic'
loop_
_space_group_symop_operation_xyz
x,y,z
-x,y,-z
-x,-y,-z
x,-y,z
1/2+x,1/2+y,z
1/2-x,1/2+y,-z
1/2-x,1/2-y,-z
1/2+x,1/2-y,z
loop_
_atom_site_type_symbol
_atom_site_label
_atom_site_fract_x
_atom_site_fract_y
_atom_site_fract_z
Si Si1 0.767291 0.705183 0.826287
Si Si2 0.683771 0.216223 0.540978
Si Si3 0.363356 0.777869 0.649316
Si Si4 0.827298 0.222226 0.006697
Si Si5 0.988430 0.720626 0.617773
Si Si6 0.090308 0.280437 0.721180
Si Si7 0.439649 0.288673 0.042562
O O1 0.756518 0.500000 0.796176
O O2 0.810136 0.788675 0.732507
O O3 0.800237 0.705436 0.917632
O O4 0.708093 0.783834 0.883507
O O5 0.750000 0.250000 0.500000
O O6 0.648676 0.276896 0.458492
O O7 0.649508 0.281618 0.650313
O O8 0.679096 0.000000 0.545091
O O9 0.424436 0.721584 0.664856
O O10 0.363230 0.000000 0.653003
O O11 0.823967 0.000000 0.005078
O O12 0.890209 0.286044 0.994654
O O13 0.989213 0.500000 0.619431
O O14 0.000000 0.773932 0.500000
O O15 0.038010 0.778842 0.671875
O O16 0.090203 0.500000 0.721888
O O17 0.078890 0.221029 0.836796
O O18 0.443122 0.500000 0.013348
O O19 0.500000 0.205907 0.000000
#
# Coordination Sequence:
#
# PCOD9206053 Si02
#       7
#     8   8   8   8   8   8   8
#     4   9  18  32  54  80 100 129 175 222 267 315
#     4  10  21  36  55  82 115 147 181 219 263 324
#     4   9  17  30  52  79 105 136 174 214 264 324
#     4   9  19  36  53  72 102 138 176 219 268 319
#     4   9  15  29  52  78 107 134 166 216 269 310
#     4  10  21  36  57  85 109 137 183 233 272 309
#     4  10  23  40  56  76 108 150 187 217 267 336
#
# _framework density 23.525608999999999
#
# number of rings (size 3 to 8) (size 9 to 14) (size 15 to 20)
#    0.000    2.571    1.429    0.000    4.000    1.429 
#    0.000    0.714    0.000    1.286    0.000    0.000 
#    0.000    0.000    0.000    0.000    0.000    0.000 
#
# Total GULP energy -156345.858927 kJ/mol
# GULP energy per Si atom -5583.780676 kJ/mol
# Density = 2.347206 g / cm^3
# Si number density = 23.525609 Si / 1000 Ang^3
#
#
#
# Elastic Constant Matrix: (Units=GPa)
#
#
# Indices 1 2 3 4 5 6 
#
# 1 121.4938 -2.7100 -1.3357 0.0000 -25.0879 0.0000
# 2 -2.7100 86.6676 -14.7996 0.0000 -6.8693 0.0000
# 3 -1.3357 -14.7996 59.1926 0.0000 -29.8209 0.0000
# 4 0.0000 0.0000 0.0000 23.2398 0.0000 49.3266
# 5 -25.0879 -6.8693 -29.8209 0.0000 39.0806 0.0000
# 6 0.0000 0.0000 0.0000 49.3266 0.0000 139.9696
#
#
#
# Elastic Compliance Matrix: (Units=1/GPa)
#
#
# Indices 1 2 3 4 5 6 
#
# 1 0.011193 0.002764 0.007812 0.000000 0.013632 0.000000
# 2 0.002764 0.014117 0.009318 0.000000 0.011366 0.000000
# 3 0.007812 0.009318 0.036960 0.000000 0.034855 0.000000
# 4 0.000000 0.000000 0.000000 0.170747 0.000000 -0.060173
# 5 0.013632 0.011366 0.034855 0.000000 0.062934 0.000000
# 6 0.000000 0.000000 0.000000 -0.060173 0.000000 0.028350
#
#
# Mechanical properties :
#
#
# Convention : Reuss Voigt Hill
#
# Bulk Modulus (GPa) = 9.79821 25.51815 17.65818
# Shear Modulus (GPa) = 15.69698 59.53794 37.61746
#
# Velocity S-wave (km/s) = 2.58588 5.03614 4.00309
# Velocity P-wave (km/s) = 3.61796 6.68486 5.37480
#
# Compressibility (1/GPa) = 0.10205944
#
# Stress axis : x y z
#
# Youngs Moduli (GPa) = 89.33798 70.83700 27.05620
#
# Poissons Ratio (x) = -0.19583 -0.21135
# Poissons Ratio (y) = -0.24697 -0.25212
# Poissons Ratio (z) = -0.69788 -0.66008
#
# Static dielectric constant tensor:
#      x y z
#    x 1.892630 0.000000 -0.049930 
#    y 0.000000 1.918620 0.000000 
#    z -0.049930 0.000000 1.863930 
# 
# From -- ./inp_files/237331.got.cif
#   From: 2010.05.17/outbox.cif.g08.bks.cpg/sg12_119_cif.got.tgz:237331.got - 2010.06.03 13:09:07.
