data_PCOD9206757
_publ_section_title
;
Structure prediction by ZEFSAII (Michael W. Deem and Ramdas Pophale) SiO2 
 PCOD9206757
Probable space group: C 2/M
;
_chemical_formula_sum "Si O2"
_cell_formula_units_Z 36
_cell_length_a 8.887280
_cell_length_b 26.016825
_cell_length_c 13.601488
_cell_angle_alpha 90.000000
_cell_angle_beta 35.251441
_cell_angle_gamma 90.000000
_cell_volume 1815.139956
_symmetry_space_group_name_H-M "C 2/M"
_symmetry_group_IT_number 12
_symmetry_cell_setting 'monoclinic'
loop_
_space_group_symop_operation_xyz
x,y,z
-x,y,-z
-x,-y,-z
x,-y,z
1/2+x,1/2+y,z
1/2-x,1/2+y,-z
1/2-x,1/2-y,-z
1/2+x,1/2-y,z
loop_
_atom_site_type_symbol
_atom_site_label
_atom_site_fract_x
_atom_site_fract_y
_atom_site_fract_z
Si Si1 0.748544 0.311965 0.826688
Si Si2 0.581973 0.441725 0.340051
Si Si3 0.572333 0.292817 0.190039
Si Si4 0.320902 0.654411 0.498454
Si Si5 0.500000 0.122057 0.000000
O O1 0.653649 0.294944 0.770036
O O2 0.788153 0.261986 0.874402
O O3 0.020675 0.340089 0.681800
O O4 0.500000 0.342647 0.000000
O O5 0.500000 0.445330 0.500000
O O6 0.577438 0.500000 0.304779
O O7 0.371810 0.399865 0.416645
O O8 0.850602 0.413618 0.160677
O O9 0.427354 0.301857 0.370690
O O10 0.785666 0.338752 0.067967
O O11 0.500000 0.656735 0.500000
#
# Coordination Sequence:
#
# PCOD9206757 Si02
#       5
#     8   8   8   8   4
#     4  12  24  36  59  84 124 160 202 243 296 353
#     4   9  19  36  63  89 118 153 202 254 305 361
#     4  11  23  38  57  85 123 163 203 244 296 361
#     4  10  22  39  61  85 119 159 202 248 304 359
#     4  10  21  36  62  90 124 154 207 246 308 356
#
# _framework density 19.833182000000001
#
# number of rings (size 3 to 8) (size 9 to 14) (size 15 to 20)
#    0.000    1.556    1.111    3.667    9.333    0.000 
#    0.000    0.000    0.000   12.667    0.000    0.000 
#    0.000    0.000    0.000    0.000    0.000    0.000 
#
# Total GULP energy -100293.496740 kJ/mol
# GULP energy per Si atom -5571.860930 kJ/mol
# Density = 1.978804 g / cm^3
# Si number density = 19.833182 Si / 1000 Ang^3
#
#
#
# Elastic Constant Matrix: (Units=GPa)
#
#
# Indices 1 2 3 4 5 6 
#
# 1 104.9711 12.9939 29.8879 0.0000 -19.4382 0.0000
# 2 12.9939 93.7218 58.2077 0.0000 -14.7272 0.0000
# 3 29.8879 58.2077 176.6319 0.0000 -25.5199 0.0000
# 4 0.0000 0.0000 0.0000 32.3477 0.0000 5.6632
# 5 -19.4382 -14.7272 -25.5199 0.0000 35.5013 0.0000
# 6 0.0000 0.0000 0.0000 5.6632 0.0000 8.5066
#
#
#
# Elastic Compliance Matrix: (Units=1/GPa)
#
#
# Indices 1 2 3 4 5 6 
#
# 1 0.010784 -0.000021 -0.001078 0.000000 0.005121 0.000000
# 2 -0.000021 0.013645 -0.004103 0.000000 0.002700 0.000000
# 3 -0.001078 -0.004103 0.007660 0.000000 0.003214 0.000000
# 4 0.000000 0.000000 0.000000 0.034993 0.000000 -0.023296
# 5 0.005121 0.002700 0.003214 0.000000 0.034402 0.000000
# 6 0.000000 0.000000 0.000000 -0.023296 0.000000 0.133064
#
#
# Mechanical properties :
#
#
# Convention : Reuss Voigt Hill
#
# Bulk Modulus (GPa) = 46.11287 64.16712 55.13999
# Shear Modulus (GPa) = 19.82696 33.55347 26.69021
#
# Velocity S-wave (km/s) = 3.16521 4.11759 3.67241
# Velocity P-wave (km/s) = 6.05466 7.41820 6.77084
#
# Compressibility (1/GPa) = 0.02168592
#
# Stress axis : x y z
#
# Youngs Moduli (GPa) = 92.72757 73.28525 130.54042
#
# Poissons Ratio (x) = 0.00153 0.14072
# Poissons Ratio (y) = 0.00194 0.53562
# Poissons Ratio (z) = 0.09996 0.30070
#
# Static dielectric constant tensor:
#      x y z
#    x 1.718690 0.000000 0.059650 
#    y 0.000000 1.745980 0.000000 
#    z 0.059650 0.000000 1.776710 
# 
# From -- ./inp_files/39528.got.cif
#   From: 2010.05.17/outbox.cif.g08.bks.cpg/sg12_20_cif.got.tgz:39528.got - 2010.06.03 13:09:07.
