data_PCOD9206604
_publ_section_title
;
Structure prediction by ZEFSAII (Michael W. Deem and Ramdas Pophale) SiO2 
 PCOD9206604
Probable space group: C 2/M
;
_chemical_formula_sum "Si O2"
_cell_formula_units_Z 60
_cell_length_a 17.070377
_cell_length_b 18.401090
_cell_length_c 29.397496
_cell_angle_alpha 90.000000
_cell_angle_beta 21.104707
_cell_angle_gamma 90.000000
_cell_volume 3324.972852
_symmetry_space_group_name_H-M "C 2/M"
_symmetry_group_IT_number 12
_symmetry_cell_setting 'monoclinic'
loop_
_space_group_symop_operation_xyz
x,y,z
-x,y,-z
-x,-y,-z
x,-y,z
1/2+x,1/2+y,z
1/2-x,1/2+y,-z
1/2-x,1/2-y,-z
1/2+x,1/2-y,z
loop_
_atom_site_type_symbol
_atom_site_label
_atom_site_fract_x
_atom_site_fract_y
_atom_site_fract_z
Si Si1 0.712125 0.730117 0.073063
Si Si2 0.000000 0.823475 0.500000
Si Si3 0.442913 0.414486 0.372675
Si Si4 0.179033 0.298786 0.834951
Si Si5 0.459999 0.082657 0.467751
Si Si6 0.246078 0.168087 0.868044
Si Si7 0.682198 0.913061 0.607319
Si Si8 0.749964 0.785535 0.297697
O O1 0.706574 0.802951 0.106727
O O2 0.474515 0.695079 0.201698
O O3 0.750000 0.750000 0.000000
O O4 0.920662 0.684795 0.977287
O O5 0.829110 0.873423 0.565658
O O6 0.880560 0.770310 0.599970
O O7 0.496465 0.500000 0.346125
O O8 0.657190 0.365823 0.254005
O O9 0.286206 0.401872 0.414317
O O10 0.295838 0.396784 0.496973
O O11 0.237810 0.241524 0.842370
O O12 0.208231 0.255410 0.772013
O O13 0.500000 0.087361 0.500000
O O14 0.613505 0.142402 0.362603
O O15 0.507319 0.000000 0.427186
O O16 0.438144 0.117827 0.745163
O O17 0.000000 0.136825 0.000000
O O18 0.682715 0.000000 0.612766
#
# Coordination Sequence:
#
# PCOD9206604 Si02
#       8
#     8   4   8   8   8   8   8   8
#     4   9  20  37  56  83 116 145 188 241 281 332
#     4  12  21  34  57  88 114 148 188 238 281 344
#     4  10  22  38  57  85 122 153 188 243 297 343
#     4  10  21  36  60  85 112 150 195 238 284 337
#     4  10  22  36  52  81 115 146 183 236 290 335
#     4  10  21  37  58  84 112 149 194 235 281 340
#     4  11  23  38  57  87 122 151 184 236 292 346
#     4  11  20  35  59  84 112 149 195 232 282 345
#
# _framework density 18.045261
#
# number of rings (size 3 to 8) (size 9 to 14) (size 15 to 20)
#    0.000    1.733    3.333    1.000    3.733    1.333 
#    0.000    0.667    0.000    8.400    0.000    0.000 
#    0.000    0.000    0.000    0.000    0.000    0.000 
#
# Total GULP energy -167343.176171 kJ/mol
# GULP energy per Si atom -5578.105872 kJ/mol
# Density = 1.800419 g / cm^3
# Si number density = 18.045261 Si / 1000 Ang^3
#
#
#
# Elastic Constant Matrix: (Units=GPa)
#
#
# Indices 1 2 3 4 5 6 
#
# 1 80.8668 32.7082 30.0775 0.0401 -8.6339 0.0162
# 2 32.7082 75.5786 62.1375 -0.0332 -25.8317 0.0000
# 3 30.0775 62.1375 115.3550 0.1533 -27.4907 0.0679
# 4 0.0401 -0.0332 0.1533 21.5593 0.0273 -6.7072
# 5 -8.6339 -25.8317 -27.4907 0.0273 40.5324 -0.0027
# 6 0.0162 0.0000 0.0679 -6.7072 -0.0027 17.4332
#
#
#
# Elastic Compliance Matrix: (Units=1/GPa)
#
#
# Indices 1 2 3 4 5 6 
#
# 1 0.015085 -0.006276 -0.000883 -0.000038 -0.001385 -0.000025
# 2 -0.006276 0.028565 -0.011607 0.000163 0.008995 0.000115
# 3 -0.000883 -0.011607 0.015916 -0.000173 0.003210 -0.000127
# 4 -0.000038 0.000163 -0.000173 0.052692 -0.000056 0.020274
# 5 -0.001385 0.008995 0.003210 -0.000056 0.032287 -0.000028
# 6 -0.000025 0.000115 -0.000127 0.020274 -0.000028 0.065162
#
#
# Mechanical properties :
#
#
# Convention : Reuss Voigt Hill
#
# Bulk Modulus (GPa) = 45.38246 57.96076 51.67161
# Shear Modulus (GPa) = 19.63991 25.69678 22.66835
#
# Velocity S-wave (km/s) = 3.30262 3.77771 3.54813
# Velocity P-wave (km/s) = 6.30452 7.15664 6.74405
#
# Compressibility (1/GPa) = 0.02203495
#
# Stress axis : x y z
#
# Youngs Moduli (GPa) = 66.29140 35.00840 62.82788
#
# Poissons Ratio (x) = 0.21972 0.05545
# Poissons Ratio (y) = 0.41606 0.72923
# Poissons Ratio (z) = 0.05850 0.40634
#
# Static dielectric constant tensor:
#      x y z
#    x 1.661570 0.000000 0.002710 
#    y 0.000000 1.577830 0.000020 
#    z 0.002710 0.000020 1.647150 
# 
# From -- ./inp_files/158272.got.cif
#   From: 2010.05.17/outbox.cif.g08.bks.cpg/sg12_80_cif.got.tgz:158272.got - 2010.06.03 13:09:07.
