data_PCOD9206868
_publ_section_title
;
Structure prediction by ZEFSAII (Michael W. Deem and Ramdas Pophale) SiO2 
 PCOD9206868
Probable space group: C 2/M
;
_chemical_formula_sum "Si O2"
_cell_formula_units_Z 64
_cell_length_a 14.542473
_cell_length_b 8.810169
_cell_length_c 27.070580
_cell_angle_alpha 90.000000
_cell_angle_beta 88.730194
_cell_angle_gamma 90.000000
_cell_volume 3467.475506
_symmetry_space_group_name_H-M "C 2/M"
_symmetry_group_IT_number 12
_symmetry_cell_setting 'monoclinic'
loop_
_space_group_symop_operation_xyz
x,y,z
-x,y,-z
-x,-y,-z
x,-y,z
1/2+x,1/2+y,z
1/2-x,1/2+y,-z
1/2-x,1/2-y,-z
1/2+x,1/2-y,z
loop_
_atom_site_type_symbol
_atom_site_label
_atom_site_fract_x
_atom_site_fract_y
_atom_site_fract_z
Si Si1 0.138569 0.316924 0.860533
Si Si2 0.998580 0.181598 0.786658
Si Si3 0.511547 0.182778 0.056191
Si Si4 0.828056 0.818205 0.384429
Si Si5 0.020609 0.318800 0.679552
Si Si6 0.849327 0.182921 0.869875
Si Si7 0.385804 0.817798 0.592705
Si Si8 0.352368 0.317974 0.492685
O O1 0.136602 0.500000 0.855206
O O2 0.087752 0.243944 0.814404
O O3 0.076807 0.277159 0.909090
O O4 0.243920 0.268404 0.865465
O O5 0.994372 0.247889 0.732069
O O6 0.911338 0.226633 0.821746
O O7 0.002045 0.000000 0.784588
O O8 0.599691 0.250303 0.082993
O O9 0.519348 0.000000 0.056049
O O10 0.500000 0.234325 0.000000
O O11 0.879312 0.735473 0.339631
O O12 0.720084 0.781448 0.391426
O O13 0.876441 0.775512 0.436126
O O14 0.835605 0.000000 0.378255
O O15 0.017601 0.500000 0.683158
O O16 0.951143 0.270131 0.636669
O O17 0.850855 0.000000 0.873324
O O18 0.406546 0.743599 0.539309
O O19 0.391513 0.000000 0.586776
O O20 0.349334 0.500000 0.495017
O O21 0.250000 0.250000 0.500000
#
# Coordination Sequence:
#
# PCOD9206868 Si02
#       8
#     8   8   8   8   8   8   8   8
#     4   9  18  35  56  77 105 140 178 217 257 305
#     4  10  21  37  54  74 101 131 170 219 265 310
#     4   9  18  32  51  79 115 149 178 212 255 302
#     4   9  19  36  54  75 104 135 168 208 254 306
#     4  11  23  37  54  77 103 133 170 212 261 313
#     4   9  19  35  55  78 103 137 179 219 260 304
#     4   9  20  37  54  75 105 137 169 207 254 309
#     4   9  17  31  53  77 103 135 169 206 251 304
#
# _framework density 18.457232000000001
#
# number of rings (size 3 to 8) (size 9 to 14) (size 15 to 20)
#    0.000    2.625    0.000    1.875    0.000    6.750 
#    0.000    5.000    0.000    0.000    0.000    0.000 
#    0.000    0.000    0.000    0.000    0.000    0.000 
#
# Total GULP energy -178530.429995 kJ/mol
# GULP energy per Si atom -5579.075937 kJ/mol
# Density = 1.841522 g / cm^3
# Si number density = 18.457232 Si / 1000 Ang^3
#
#
#
# Elastic Constant Matrix: (Units=GPa)
#
#
# Indices 1 2 3 4 5 6 
#
# 1 106.7327 20.8510 45.6188 0.0000 11.5105 0.0000
# 2 20.8510 16.8184 32.2203 0.0000 1.5900 0.0000
# 3 45.6188 32.2203 132.0483 0.0000 8.6988 0.0000
# 4 0.0000 0.0000 0.0000 30.8998 0.0000 6.2682
# 5 11.5105 1.5900 8.6988 0.0000 12.3686 0.0000
# 6 0.0000 0.0000 0.0000 6.2682 0.0000 19.2722
#
#
#
# Elastic Compliance Matrix: (Units=1/GPa)
#
#
# Indices 1 2 3 4 5 6 
#
# 1 0.013622 -0.015408 -0.000253 0.000000 -0.010518 0.000000
# 2 -0.015408 0.129380 -0.027363 0.000000 0.016952 0.000000
# 3 -0.000253 -0.027363 0.014774 0.000000 -0.006638 0.000000
# 4 0.000000 0.000000 0.000000 0.034649 0.000000 -0.011269
# 5 -0.010518 0.016952 -0.006638 0.000000 0.093127 0.000000
# 6 0.000000 0.000000 0.000000 -0.011269 0.000000 0.055553
#
#
# Mechanical properties :
#
#
# Convention : Reuss Voigt Hill
#
# Bulk Modulus (GPa) = 13.94167 50.33109 32.13638
# Shear Modulus (GPa) = 11.08489 22.96875 17.02682
#
# Velocity S-wave (km/s) = 2.45332 3.53148 3.04057
# Velocity P-wave (km/s) = 3.94904 6.62998 5.45672
#
# Compressibility (1/GPa) = 0.07172740
#
# Stress axis : x y z
#
# Youngs Moduli (GPa) = 73.41098 7.72915 67.68442
#
# Poissons Ratio (x) = 0.11909 0.01715
# Poissons Ratio (y) = 1.13114 1.85204
# Poissons Ratio (z) = 0.01860 0.21149
#
# Static dielectric constant tensor:
#      x y z
#    x 1.636340 0.000000 -0.005700 
#    y 0.000000 1.614750 0.000000 
#    z -0.005700 0.000000 1.617420 
# 
# From -- ./inp_files/338826.got.cif
#   From: 2010.05.17/outbox.cif.g08.bks.cpg/sg12_170_cif.got.tgz:338826.got - 2010.06.03 13:09:07.
