data_PCOD9206660
_publ_section_title
;
Structure prediction by ZEFSAII (Michael W. Deem and Ramdas Pophale) SiO2 
 PCOD9206660
Probable space group: C 2/M
;
_chemical_formula_sum "Si O2"
_cell_formula_units_Z 42
_cell_length_a 20.878521
_cell_length_b 7.306436
_cell_length_c 12.378463
_cell_angle_alpha 90.000000
_cell_angle_beta 67.277571
_cell_angle_gamma 90.000000
_cell_volume 1741.747472
_symmetry_space_group_name_H-M "C 2/M"
_symmetry_group_IT_number 12
_symmetry_cell_setting 'monoclinic'
loop_
_space_group_symop_operation_xyz
x,y,z
-x,y,-z
-x,-y,-z
x,-y,z
1/2+x,1/2+y,z
1/2-x,1/2+y,-z
1/2-x,1/2-y,-z
1/2+x,1/2-y,z
loop_
_atom_site_type_symbol
_atom_site_label
_atom_site_fract_x
_atom_site_fract_y
_atom_site_fract_z
Si Si1 0.243347 0.788061 0.825436
Si Si2 0.141460 0.220750 0.071598
Si Si3 0.947572 0.277475 0.377654
Si Si4 0.199258 0.717431 0.433756
Si Si5 0.000000 0.000000 0.500000
Si Si6 0.987841 0.706083 0.125500
O O1 0.308951 0.777903 0.863083
O O2 0.266444 0.705911 0.697089
O O3 0.225716 0.000000 0.817053
O O4 0.178995 0.714121 0.936652
O O5 0.064472 0.295345 0.127235
O O6 0.138830 0.000000 0.072479
O O7 0.956026 0.500000 0.376874
O O8 0.877427 0.216887 0.485426
O O9 0.005320 0.161876 0.402143
O O10 0.941940 0.223055 0.254626
O O11 0.190970 0.500000 0.423835
O O12 0.250000 0.750000 0.500000
O O13 0.962503 0.500000 0.120537
O O14 0.000000 0.794825 0.000000
#
# Coordination Sequence:
#
# PCOD9206660 Si02
#       6
#     8   8   8   8   2   8
#     4   9  20  39  59  86 120 160 202 255 315 372
#     4  10  21  36  60  92 119 154 208 262 310 371
#     4  10  25  45  66 101 134 173 224 276 333 395
#     4  10  23  41  63  88 127 169 213 269 327 388
#     4  12  26  44  74  98 136 176 222 278 336 404
#     4  10  23  42  63  87 127 173 211 259 325 388
#
# _framework density 24.113714000000002
#
# number of rings (size 3 to 8) (size 9 to 14) (size 15 to 20)
#    0.000    2.095    0.000    0.857    8.000    1.905 
#    0.000    0.000    0.000    0.000    0.000    0.000 
#    0.000    0.000    0.000    0.000    0.000    0.000 
#
# Total GULP energy -117064.057408 kJ/mol
# GULP energy per Si atom -5574.478924 kJ/mol
# Density = 2.405883 g / cm^3
# Si number density = 24.113714 Si / 1000 Ang^3
#
#
#
# Elastic Constant Matrix: (Units=GPa)
#
#
# Indices 1 2 3 4 5 6 
#
# 1 30.8093 -15.8619 6.3164 0.0000 -11.5156 0.0000
# 2 -15.8619 121.1210 19.9804 0.0000 6.4596 0.0000
# 3 6.3164 19.9804 200.0866 0.0000 21.3098 0.0000
# 4 0.0000 0.0000 0.0000 -5.9254 0.0000 12.0832
# 5 -11.5156 6.4596 21.3098 0.0000 29.9746 0.0000
# 6 0.0000 0.0000 0.0000 12.0832 0.0000 10.2983
#
#
#
# Elastic Compliance Matrix: (Units=1/GPa)
#
#
# Indices 1 2 3 4 5 6 
#
# 1 0.042641 0.005251 -0.003781 0.000000 0.017938 0.000000
# 2 0.005251 0.009089 -0.001168 0.000000 0.000889 0.000000
# 3 -0.003781 -0.001168 0.005801 0.000000 -0.005325 0.000000
# 4 0.000000 0.000000 0.000000 -0.049744 0.000000 0.058366
# 5 0.017938 0.000889 -0.005325 0.000000 0.043847 0.000000
# 6 0.000000 0.000000 0.000000 0.058366 0.000000 0.028622
#
#
# Mechanical properties :
#
#
# Convention : Reuss Voigt Hill
#
# Bulk Modulus (GPa) = 17.20107 41.43187 29.31647
# Shear Modulus (GPa) = 50.48976 29.64164 40.06570
#
# Velocity S-wave (km/s) = 4.58079 3.50986 4.08061
# Velocity P-wave (km/s) = 5.92680 5.80040 5.86394
#
# Compressibility (1/GPa) = 0.05813592
#
# Stress axis : x y z
#
# Youngs Moduli (GPa) = 23.45143 110.02085 172.38519
#
# Poissons Ratio (x) = -0.57775 0.65179
# Poissons Ratio (y) = -0.12315 0.20136
# Poissons Ratio (z) = 0.08867 0.12852
#
# Static dielectric constant tensor:
#      x y z
#    x 2.078640 0.000000 -0.036590 
#    y 0.000000 1.907370 0.000000 
#    z -0.036590 0.000000 1.969560 
# 
# From -- ./inp_files/163042.got.cif
#   From: 2010.05.17/outbox.cif.g08.bks.cpg/sg12_82_cif.got.tgz:163042.got - 2010.06.03 13:09:07.
