data_PCOD9206951
_publ_section_title
;
Structure prediction by ZEFSAII (Michael W. Deem and Ramdas Pophale) SiO2 
 PCOD9206951
Probable space group: C 2/M
;
_chemical_formula_sum "Si O2"
_cell_formula_units_Z 40
_cell_length_a 31.940306
_cell_length_b 7.672035
_cell_length_c 20.156011
_cell_angle_alpha 90.000000
_cell_angle_beta 24.864031
_cell_angle_gamma 90.000000
_cell_volume 2076.755823
_symmetry_space_group_name_H-M "C 2/M"
_symmetry_group_IT_number 12
_symmetry_cell_setting 'monoclinic'
loop_
_space_group_symop_operation_xyz
x,y,z
-x,y,-z
-x,-y,-z
x,-y,z
1/2+x,1/2+y,z
1/2-x,1/2+y,-z
1/2-x,1/2-y,-z
1/2+x,1/2-y,z
loop_
_atom_site_type_symbol
_atom_site_label
_atom_site_fract_x
_atom_site_fract_y
_atom_site_fract_z
Si Si1 0.534600 0.700779 0.519897
Si Si2 0.985335 0.000000 0.131342
Si Si3 0.767133 0.203582 0.694821
Si Si4 0.639864 0.207495 0.133330
Si Si5 0.412713 0.798211 0.940743
Si Si6 0.166488 0.000000 0.763232
O O1 0.500000 0.781912 0.500000
O O2 0.563743 0.500000 0.462869
O O3 0.630957 0.772812 0.418913
O O4 0.441596 0.705855 0.702617
O O5 0.004939 0.830277 0.147893
O O6 0.883328 0.000000 0.237194
O O7 0.074200 0.000000 0.948492
O O8 0.730323 0.328883 0.689183
O O9 0.778788 0.000000 0.658038
O O10 0.682518 0.209838 0.873482
O O11 0.621597 0.257405 0.083209
O O12 0.625956 0.000000 0.157850
O O13 0.750000 0.250000 0.000000
O O14 0.445611 0.000000 0.891169
#
# Coordination Sequence:
#
# PCOD9206951 Si02
#       6
#     8   4   8   8   8   4
#     4  10  21  37  55  79 111 148 183 224 272 328
#     4   9  18  32  56  82 109 142 173 233 282 318
#     4   9  18  34  55  78 111 147 177 228 277 321
#     4  11  23  36  54  81 110 146 184 225 268 328
#     4   9  19  35  54  80 110 144 183 224 273 326
#     4   9  18  32  53  86 110 132 186 227 274 336
#
# _framework density 19.260811
#
# number of rings (size 3 to 8) (size 9 to 14) (size 15 to 20)
#    0.000    2.400    0.000    1.800    4.200    4.400 
#    3.600    4.000    0.000    1.200    0.000    0.000 
#    0.000    0.000    0.000    0.000    0.000    0.000 
#
# Total GULP energy -111598.568712 kJ/mol
# GULP energy per Si atom -5579.928436 kJ/mol
# Density = 1.921697 g / cm^3
# Si number density = 19.260811 Si / 1000 Ang^3
#
#
#
# Elastic Constant Matrix: (Units=GPa)
#
#
# Indices 1 2 3 4 5 6 
#
# 1 197.7102 77.6452 46.3727 -0.0005 -37.6638 0.0005
# 2 77.6452 88.0890 25.8559 -0.0161 -16.9822 0.0187
# 3 46.3727 25.8559 40.0364 -0.0044 -20.8224 0.0017
# 4 -0.0005 -0.0161 -0.0044 -8.7243 -0.0004 26.6548
# 5 -37.6638 -16.9822 -20.8224 -0.0004 32.2768 0.0013
# 6 0.0005 0.0187 0.0017 26.6548 0.0013 -6.3933
#
#
#
# Elastic Compliance Matrix: (Units=1/GPa)
#
#
# Indices 1 2 3 4 5 6 
#
# 1 0.009412 -0.006043 -0.004425 0.000003 0.004948 -0.000003
# 2 -0.006043 0.018003 -0.005069 -0.000011 -0.000850 0.000006
# 3 -0.004425 -0.005069 0.044100 0.000001 0.020619 0.000005
# 4 0.000003 -0.000011 0.000001 0.009765 -0.000003 0.040713
# 5 0.004948 -0.000850 0.020619 -0.000003 0.049611 0.000003
# 6 -0.000003 0.000006 0.000005 0.040713 0.000003 0.013326
#
#
# Mechanical properties :
#
#
# Convention : Reuss Voigt Hill
#
# Bulk Modulus (GPa) = 24.72756 69.50924 47.11840
# Shear Modulus (GPa) = 26.48728 15.16264 20.82496
#
# Velocity S-wave (km/s) = 3.71238 2.80880 3.29174
# Velocity P-wave (km/s) = 5.58944 6.83271 6.24210
#
# Compressibility (1/GPa) = 0.04044070
#
# Stress axis : x y z
#
# Youngs Moduli (GPa) = 106.25097 55.54710 22.67583
#
# Poissons Ratio (x) = 0.33567 0.10034
# Poissons Ratio (y) = 0.64208 0.11494
# Poissons Ratio (z) = 0.47016 0.28155
#
# Static dielectric constant tensor:
#      x y z
#    x 1.663290 0.000000 0.000160 
#    y 0.000000 1.704370 0.000000 
#    z 0.000160 0.000000 1.644930 
# 
# From -- ./inp_files/220620.got.cif
#   From: 2010.05.17/outbox.cif.g08.bks.cpg/sg12_111_cif.got.tgz:220620.got - 2010.06.03 13:09:07.
