data_PCOD9206900
_publ_section_title
;
Structure prediction by ZEFSAII (Michael W. Deem and Ramdas Pophale) SiO2 
 PCOD9206900
Probable space group: C 2/M
;
_chemical_formula_sum "Si O2"
_cell_formula_units_Z 56
_cell_length_a 8.325194
_cell_length_b 29.572331
_cell_length_c 15.009922
_cell_angle_alpha 90.000000
_cell_angle_beta 121.469913
_cell_angle_gamma 90.000000
_cell_volume 3151.837464
_symmetry_space_group_name_H-M "C 2/M"
_symmetry_group_IT_number 12
_symmetry_cell_setting 'monoclinic'
loop_
_space_group_symop_operation_xyz
x,y,z
-x,y,-z
-x,-y,-z
x,-y,z
1/2+x,1/2+y,z
1/2-x,1/2+y,-z
1/2-x,1/2-y,-z
1/2+x,1/2-y,z
loop_
_atom_site_type_symbol
_atom_site_label
_atom_site_fract_x
_atom_site_fract_y
_atom_site_fract_z
Si Si1 0.572907 0.450264 0.873668
Si Si2 0.983860 0.147312 0.178595
Si Si3 0.689826 0.049615 0.881938
Si Si4 0.396859 0.856497 0.212068
Si Si5 0.317130 0.805842 0.597396
Si Si6 0.971398 0.206085 0.632590
Si Si7 0.170491 0.699231 0.980316
O O1 0.588522 0.500000 0.835140
O O2 0.570635 0.404677 0.815753
O O3 0.377955 0.450264 0.874346
O O4 0.735484 0.446337 0.995439
O O5 0.189051 0.146670 0.193505
O O6 0.990786 0.179828 0.265567
O O7 0.835902 0.166809 0.064367
O O8 0.576092 0.093841 0.821757
O O9 0.600032 0.000000 0.845341
O O10 0.548372 0.845352 0.331007
O O11 0.402139 0.819342 0.135121
O O12 0.216635 0.811112 0.472857
O O13 0.435956 0.759448 0.633794
O O14 0.148149 0.800579 0.618977
O O15 0.250000 0.750000 0.000000
O O16 0.000000 0.697827 0.000000
#
# Coordination Sequence:
#
# PCOD9206900 Si02
#       7
#     8   8   8   8   8   8   8
#     4   8  14  27  49  76 104 133 167 207 250 298
#     4  11  20  33  54  79 105 133 170 212 258 304
#     4   8  14  27  49  76 104 133 167 207 250 298
#     4  11  20  33  54  79 105 133 170 212 258 304
#     4  10  21  37  55  75 101 135 175 215 256 304
#     4  10  21  37  55  75 101 135 175 215 256 304
#     4  12  24  36  49  70 105 141 172 205 251 308
#
# _framework density 17.767413000000001
#
# number of rings (size 3 to 8) (size 9 to 14) (size 15 to 20)
#    0.000    2.000    1.429    4.714    0.000    1.714 
#    0.000    0.000    0.000    5.143    0.000    6.000 
#    0.000    0.000    0.000    0.000    0.000    0.000 
#
# Total GULP energy -156268.982414 kJ/mol
# GULP energy per Si atom -5581.035086 kJ/mol
# Density = 1.772697 g / cm^3
# Si number density = 17.767413 Si / 1000 Ang^3
#
#
#
# Elastic Constant Matrix: (Units=GPa)
#
#
# Indices 1 2 3 4 5 6 
#
# 1 28.5062 -10.7627 -10.7139 0.0000 9.9680 0.0000
# 2 -10.7627 78.0961 5.7868 0.0000 17.9481 0.0000
# 3 -10.7139 5.7868 41.4020 0.0000 8.9298 0.0000
# 4 0.0000 0.0000 0.0000 23.9756 0.0000 4.9602
# 5 9.9680 17.9481 8.9298 0.0000 22.3150 0.0000
# 6 0.0000 0.0000 0.0000 4.9602 0.0000 3.4679
#
#
#
# Elastic Compliance Matrix: (Units=1/GPa)
#
#
# Indices 1 2 3 4 5 6 
#
# 1 0.080196 0.024361 0.032068 0.000000 -0.068249 0.000000
# 2 0.024361 0.023121 0.010321 0.000000 -0.033609 0.000000
# 3 0.032068 0.010321 0.039280 0.000000 -0.038345 0.000000
# 4 0.000000 0.000000 0.000000 0.059239 0.000000 -0.084730
# 5 -0.068249 -0.033609 -0.038345 0.000000 0.117675 0.000000
# 6 0.000000 0.000000 0.000000 -0.084730 0.000000 0.409550
#
#
# Mechanical properties :
#
#
# Convention : Reuss Voigt Hill
#
# Bulk Modulus (GPa) = 3.62192 12.95830 8.29011
# Shear Modulus (GPa) = 7.27175 20.86463 14.06819
#
# Velocity S-wave (km/s) = 2.02525 3.43055 2.81694
# Velocity P-wave (km/s) = 2.74076 4.79591 3.90593
#
# Compressibility (1/GPa) = 0.27609700
#
# Stress axis : x y z
#
# Youngs Moduli (GPa) = 12.46951 43.25049 25.45845
#
# Poissons Ratio (x) = -1.05362 -0.81641
# Poissons Ratio (y) = -0.30377 -0.26276
# Poissons Ratio (z) = -0.39987 -0.44640
#
# Static dielectric constant tensor:
#      x y z
#    x 1.620110 0.000000 0.007090 
#    y 0.000000 1.627040 0.000000 
#    z 0.007090 0.000000 1.587540 
# 
# From -- ./inp_files/200989.got.cif
#   From: 2010.05.17/outbox.cif.g08.bks.cpg/sg12_101_cif.got.tgz:200989.got - 2010.06.03 13:09:07.
