data_PCOD9206692
_publ_section_title
;
Structure prediction by ZEFSAII (Michael W. Deem and Ramdas Pophale) SiO2 
 PCOD9206692
Probable space group: C 2/M
;
_chemical_formula_sum "Si O2"
_cell_formula_units_Z 44
_cell_length_a 8.525719
_cell_length_b 24.197036
_cell_length_c 12.081261
_cell_angle_alpha 90.000000
_cell_angle_beta 69.193210
_cell_angle_gamma 90.000000
_cell_volume 2329.788678
_symmetry_space_group_name_H-M "C 2/M"
_symmetry_group_IT_number 12
_symmetry_cell_setting 'monoclinic'
loop_
_space_group_symop_operation_xyz
x,y,z
-x,y,-z
-x,-y,-z
x,-y,z
1/2+x,1/2+y,z
1/2-x,1/2+y,-z
1/2-x,1/2-y,-z
1/2+x,1/2-y,z
loop_
_atom_site_type_symbol
_atom_site_label
_atom_site_fract_x
_atom_site_fract_y
_atom_site_fract_z
Si Si1 0.019712 0.404844 0.734333
Si Si2 0.878912 0.120853 0.626902
Si Si3 0.365185 0.000000 0.631554
Si Si4 0.365034 0.000000 0.130379
Si Si5 0.590539 0.310169 0.152443
Si Si6 0.266285 0.813572 0.879311
Si Si7 0.470652 0.500000 0.690128
O O1 0.185823 0.380233 0.636053
O O2 0.091766 0.445176 0.810963
O O3 0.909861 0.444953 0.687068
O O4 0.902806 0.357532 0.809353
O O5 0.889691 0.155008 0.739586
O O6 0.929385 0.056891 0.637093
O O7 0.000000 0.142690 0.500000
O O8 0.500000 0.000000 0.500000
O O9 0.168495 0.000000 0.658416
O O10 0.161294 0.000000 0.172443
O O11 0.500000 0.000000 0.000000
O O12 0.648649 0.246655 0.151222
O O13 0.400078 0.313812 0.155260
O O14 0.706915 0.328128 0.019282
#
# Coordination Sequence:
#
# PCOD9206692 Si02
#       7
#     8   8   4   4   8   8   4
#     4  10  22  36  58  86 117 150 198 238 292 348
#     4  11  22  39  60  88 119 158 197 241 292 354
#     4  11  21  39  58  85 121 159 196 242 293 358
#     4   9  21  37  54  86 115 154 190 242 294 345
#     4  10  22  39  62  86 118 153 197 242 298 350
#     4  10  21  40  61  88 114 152 196 246 296 351
#     4  10  21  36  61  83 120 158 199 239 293 353
#
# _framework density 18.885832000000001
#
# number of rings (size 3 to 8) (size 9 to 14) (size 15 to 20)
#    0.000    1.818    0.000    4.091    5.091    1.455 
#    0.000    5.455    0.000    0.000    0.000    0.000 
#    0.000    0.000    0.000    0.000    0.000    0.000 
#
# Total GULP energy -122709.085581 kJ/mol
# GULP energy per Si atom -5577.685708 kJ/mol
# Density = 1.884285 g / cm^3
# Si number density = 18.885832 Si / 1000 Ang^3
#
#
#
# Elastic Constant Matrix: (Units=GPa)
#
#
# Indices 1 2 3 4 5 6 
#
# 1 127.4893 46.5314 52.1484 0.0000 -43.0371 0.0000
# 2 46.5314 90.4362 51.4237 0.0000 -14.4989 0.0000
# 3 52.1484 51.4237 102.1833 0.0000 -30.5892 0.0000
# 4 0.0000 0.0000 0.0000 20.8535 0.0000 -7.4909
# 5 -43.0371 -14.4989 -30.5892 0.0000 36.3513 0.0000
# 6 0.0000 0.0000 0.0000 -7.4909 0.0000 54.0223
#
#
#
# Elastic Compliance Matrix: (Units=1/GPa)
#
#
# Indices 1 2 3 4 5 6 
#
# 1 0.015093 -0.004956 -0.000603 0.000000 0.015385 0.000000
# 2 -0.004956 0.017125 -0.007754 0.000000 -0.005562 0.000000
# 3 -0.000603 -0.007754 0.017186 0.000000 0.010655 0.000000
# 4 0.000000 0.000000 0.000000 0.050467 0.000000 0.006998
# 5 0.015385 -0.005562 0.010655 0.000000 0.052471 0.000000
# 6 0.000000 0.000000 0.000000 0.006998 0.000000 0.019481
#
#
# Mechanical properties :
#
#
# Convention : Reuss Voigt Hill
#
# Bulk Modulus (GPa) = 43.90252 68.92396 56.41324
# Shear Modulus (GPa) = 24.26699 33.57911 28.92305
#
# Velocity S-wave (km/s) = 3.58848 4.22121 3.91764
# Velocity P-wave (km/s) = 6.36132 7.76740 7.09925
#
# Compressibility (1/GPa) = 0.02277774
#
# Stress axis : x y z
#
# Youngs Moduli (GPa) = 66.25703 58.39473 58.18779
#
# Poissons Ratio (x) = 0.28943 0.03507
# Poissons Ratio (y) = 0.32839 0.45117
# Poissons Ratio (z) = 0.03993 0.45278
#
# Static dielectric constant tensor:
#      x y z
#    x 1.658810 0.000000 0.004570 
#    y 0.000000 1.640080 0.000000 
#    z 0.004570 0.000000 1.665880 
# 
# From -- ./inp_files/120796.got.cif
#   From: 2010.05.17/outbox.cif.g08.bks.cpg/sg12_61_cif.got.tgz:120796.got - 2010.06.03 13:09:07.
