data_PCOD9206983
_publ_section_title
;
Structure prediction by ZEFSAII (Michael W. Deem and Ramdas Pophale) SiO2 
 PCOD9206983
Probable space group: C 2/M
;
_chemical_formula_sum "Si O2"
_cell_formula_units_Z 64
_cell_length_a 16.414503
_cell_length_b 7.431530
_cell_length_c 29.322494
_cell_angle_alpha 90.000000
_cell_angle_beta 137.524480
_cell_angle_gamma 90.000000
_cell_volume 2415.392093
_symmetry_space_group_name_H-M "C 2/M"
_symmetry_group_IT_number 12
_symmetry_cell_setting 'monoclinic'
loop_
_space_group_symop_operation_xyz
x,y,z
-x,y,-z
-x,-y,-z
x,-y,z
1/2+x,1/2+y,z
1/2-x,1/2+y,-z
1/2-x,1/2-y,-z
1/2+x,1/2-y,z
loop_
_atom_site_type_symbol
_atom_site_label
_atom_site_fract_x
_atom_site_fract_y
_atom_site_fract_z
Si Si1 0.708639 0.778343 0.288987
Si Si2 0.959162 0.793120 0.420038
Si Si3 0.857741 0.704021 0.835040
Si Si4 0.447645 0.219531 0.215752
Si Si5 0.980411 0.717946 0.658741
Si Si6 0.197122 0.790912 0.085463
Si Si7 0.113004 0.212642 0.958342
Si Si8 0.218457 0.785374 0.540065
O O1 0.824253 0.716052 0.365772
O O2 0.710868 0.718116 0.237025
O O3 0.578144 0.722895 0.252813
O O4 0.711587 0.000000 0.290741
O O5 0.984684 0.793032 0.375905
O O6 0.082858 0.714252 0.492314
O O7 0.950551 0.000000 0.431579
O O8 0.817563 0.500000 0.823353
O O9 0.843445 0.787744 0.878944
O O10 0.002021 0.703542 0.885065
O O11 0.437441 0.268941 0.264836
O O12 0.332039 0.287422 0.140876
O O13 0.446335 0.000000 0.213653
O O14 0.980367 0.500000 0.654314
O O15 0.842702 0.773903 0.614383
O O16 0.208101 0.000000 0.077262
O O17 0.112189 0.718242 0.010636
O O18 0.090197 0.000000 0.946018
O O19 0.250000 0.250000 0.000000
O O20 0.250000 0.750000 0.500000
O O21 0.210556 0.000000 0.543509
#
# Coordination Sequence:
#
# PCOD9206983 Si02
#       8
#     8   8   8   8   8   8   8   8
#     4   9  18  32  49  71  99 132 167 203 249 301
#     4   9  16  28  47  68  94 127 161 200 245 293
#     4  11  22  36  56  80 105 134 172 214 252 296
#     4   9  17  31  50  70  96 130 164 201 249 300
#     4   9  16  27  46  70  94 122 160 203 244 291
#     4  10  21  37  56  77 102 134 171 209 251 301
#     4  11  23  39  59  82 109 139 170 205 249 301
#     4   8  14  24  40  66  94 120 155 198 243 289
#
# _framework density 26.496731
#
# number of rings (size 3 to 8) (size 9 to 14) (size 15 to 20)
#    0.000    2.500    0.000    2.625    0.000    4.500 
#    0.000    1.250    0.000    6.750    0.000    0.000 
#    0.000   10.000    0.000    0.000    0.000    0.000 
#
# Total GULP energy -178905.687714 kJ/mol
# GULP energy per Si atom -5590.802741 kJ/mol
# Density = 2.643642 g / cm^3
# Si number density = 26.496731 Si / 1000 Ang^3
#
#
#
# Elastic Constant Matrix: (Units=GPa)
#
#
# Indices 1 2 3 4 5 6 
#
# 1 105.3183 -2.9655 12.1564 -0.0001 15.7510 0.0001
# 2 -2.9655 97.4803 6.4683 -0.0001 -0.4746 0.0002
# 3 12.1564 6.4683 144.9880 0.0000 16.2312 0.0000
# 4 -0.0001 -0.0001 0.0000 3.8210 0.0000 3.7447
# 5 15.7510 -0.4746 16.2312 0.0000 53.0576 0.0000
# 6 0.0001 0.0002 0.0000 3.7447 0.0000 6.1453
#
#
#
# Elastic Compliance Matrix: (Units=1/GPa)
#
#
# Indices 1 2 3 4 5 6 
#
# 1 0.009985 0.000326 -0.000539 0.000001 -0.002796 -0.000001
# 2 0.000326 0.010303 -0.000504 0.000002 0.000149 -0.000001
# 3 -0.000539 -0.000504 0.007194 0.000000 -0.002045 0.000000
# 4 0.000001 0.000002 0.000000 0.649751 0.000000 -0.395936
# 5 -0.002796 0.000149 -0.002045 0.000000 0.020305 0.000000
# 6 -0.000001 -0.000001 0.000000 -0.395936 0.000000 0.403996
#
#
# Mechanical properties :
#
#
# Convention : Reuss Voigt Hill
#
# Bulk Modulus (GPa) = 38.39070 42.12278 40.25674
# Shear Modulus (GPa) = 4.49783 34.74660 19.62221
#
# Velocity S-wave (km/s) = 1.30430 3.62519 2.72426
# Velocity P-wave (km/s) = 4.09738 5.78399 5.01214
#
# Compressibility (1/GPa) = 0.02604797
#
# Stress axis : x y z
#
# Youngs Moduli (GPa) = 100.15433 97.06336 139.01012
#
# Poissons Ratio (x) = -0.03163 0.07488
# Poissons Ratio (y) = -0.03264 0.07002
# Poissons Ratio (z) = 0.05395 0.04889
#
# Static dielectric constant tensor:
#      x y z
#    x 2.092290 0.000000 -0.026300 
#    y 0.000000 2.165480 0.000000 
#    z -0.026300 0.000000 2.031810 
# 
# From -- ./inp_files/378483.got.cif
#   From: 2010.05.17/outbox.cif.g08.bks.cpg/sg12_190_cif.got.tgz:378483.got - 2010.06.03 13:09:07.
