data_PCOD9206883
_publ_section_title
;
Structure prediction by ZEFSAII (Michael W. Deem and Ramdas Pophale) SiO2 
 PCOD9206883
Probable space group: C 2/M
;
_chemical_formula_sum "Si O2"
_cell_formula_units_Z 56
_cell_length_a 27.495599
_cell_length_b 8.717274
_cell_length_c 19.078042
_cell_angle_alpha 90.000000
_cell_angle_beta 139.357459
_cell_angle_gamma 90.000000
_cell_volume 2978.406381
_symmetry_space_group_name_H-M "C 2/M"
_symmetry_group_IT_number 12
_symmetry_cell_setting 'monoclinic'
loop_
_space_group_symop_operation_xyz
x,y,z
-x,y,-z
-x,-y,-z
x,-y,z
1/2+x,1/2+y,z
1/2-x,1/2+y,-z
1/2-x,1/2-y,-z
1/2+x,1/2-y,z
loop_
_atom_site_type_symbol
_atom_site_label
_atom_site_fract_x
_atom_site_fract_y
_atom_site_fract_z
Si Si1 0.008375 0.817230 0.667106
Si Si2 0.696114 0.685753 0.252978
Si Si3 0.377864 0.182894 0.314787
Si Si4 0.719435 0.182606 0.123090
Si Si5 0.466352 0.313480 0.888369
Si Si6 0.081271 0.185538 0.893905
Si Si7 0.860637 0.316282 0.460025
O O1 0.922593 0.764626 0.574451
O O2 0.050058 0.740757 0.647190
O O3 0.052152 0.771793 0.785386
O O4 0.011842 0.000000 0.664154
O O5 0.696354 0.500000 0.246572
O O6 0.696699 0.751454 0.174776
O O7 0.620269 0.733270 0.208657
O O8 0.774064 0.729267 0.374874
O O9 0.303275 0.258465 0.201623
O O10 0.378621 0.221203 0.398196
O O11 0.371969 0.000000 0.302922
O O12 0.718551 0.000000 0.124068
O O13 0.660108 0.244468 0.002350
O O14 0.467357 0.500000 0.888812
O O15 0.519549 0.263507 0.883640
O O16 0.500000 0.264649 0.000000
O O17 0.086910 0.000000 0.903424
O O18 0.866612 0.500000 0.474825
#
# Coordination Sequence:
#
# PCOD9206883 Si02
#       7
#     8   8   8   8   8   8   8
#     4  11  23  36  53  78 110 144 178 224 273 314
#     4   9  17  33  57  83 107 139 182 224 263 309
#     4  10  21  38  60  80 103 140 184 223 262 318
#     4  11  21  33  53  83 113 139 172 221 276 320
#     4   9  15  29  59  84 101 137 186 223 253 308
#     4  10  21  37  54  77 110 146 183 218 262 323
#     4   9  19  35  56  79 105 139 181 223 263 315
#
# _framework density 18.802
#
# number of rings (size 3 to 8) (size 9 to 14) (size 15 to 20)
#    0.000    2.143    1.429    3.429    0.000    6.286 
#    0.000    2.143    0.000    0.000    0.000    0.000 
#    0.000    0.000    0.000    0.000    0.000    0.000 
#
# Total GULP energy -156310.726909 kJ/mol
# GULP energy per Si atom -5582.525961 kJ/mol
# Density = 1.875921 g / cm^3
# Si number density = 18.802000 Si / 1000 Ang^3
#
#
#
# Elastic Constant Matrix: (Units=GPa)
#
#
# Indices 1 2 3 4 5 6 
#
# 1 30.1695 2.0401 3.7440 0.0000 19.2973 0.0000
# 2 2.0401 24.3268 27.0474 0.0000 3.5961 0.0000
# 3 3.7440 27.0474 109.6480 0.0000 27.6172 0.0000
# 4 0.0000 0.0000 0.0000 27.2509 0.0000 2.5603
# 5 19.2973 3.5961 27.6172 0.0000 26.7051 0.0000
# 6 0.0000 0.0000 0.0000 2.5603 0.0000 4.8876
#
#
#
# Elastic Compliance Matrix: (Units=1/GPa)
#
#
# Indices 1 2 3 4 5 6 
#
# 1 0.083335 -0.019973 0.022408 0.000000 -0.080702 0.000000
# 2 -0.019973 0.063160 -0.022164 0.000000 0.028848 0.000000
# 3 0.022408 -0.022164 0.023189 0.000000 -0.037188 0.000000
# 4 0.000000 0.000000 0.000000 0.038596 0.000000 -0.020218
# 5 -0.080702 0.028848 -0.037188 0.000000 0.130336 0.000000
# 6 0.000000 0.000000 0.000000 -0.020218 0.000000 0.215192
#
#
# Mechanical properties :
#
#
# Convention : Reuss Voigt Hill
#
# Bulk Modulus (GPa) = 7.67891 25.53414 16.60652
# Shear Modulus (GPa) = 7.85330 20.52290 14.18810
#
# Velocity S-wave (km/s) = 2.04595 3.30741 2.74999
# Velocity P-wave (km/s) = 3.11033 5.30993 4.35141
#
# Compressibility (1/GPa) = 0.13022685
#
# Stress axis : x y z
#
# Youngs Moduli (GPa) = 11.99970 15.83274 43.12394
#
# Poissons Ratio (x) = 0.31622 -0.96631
# Poissons Ratio (y) = 0.23966 0.95580
# Poissons Ratio (z) = -0.26889 0.35092
#
# Static dielectric constant tensor:
#      x y z
#    x 1.642820 0.000000 0.017510 
#    y 0.000000 1.630150 0.000000 
#    z 0.017510 0.000000 1.652250 
# 
# From -- ./inp_files/292452.got.cif
#   From: 2010.05.17/outbox.cif.g08.bks.cpg/sg12_147_cif.got.tgz:292452.got - 2010.06.03 13:09:07.
