data_PCOD9206753
_publ_section_title
;
Structure prediction by ZEFSAII (Michael W. Deem and Ramdas Pophale) SiO2 
 PCOD9206753
Probable space group: C 2/M
;
_chemical_formula_sum "Si O2"
_cell_formula_units_Z 56
_cell_length_a 19.285734
_cell_length_b 12.091621
_cell_length_c 13.730330
_cell_angle_alpha 90.000000
_cell_angle_beta 68.366049
_cell_angle_gamma 90.000000
_cell_volume 2976.310625
_symmetry_space_group_name_H-M "C 2/M"
_symmetry_group_IT_number 12
_symmetry_cell_setting 'monoclinic'
loop_
_space_group_symop_operation_xyz
x,y,z
-x,y,-z
-x,-y,-z
x,-y,z
1/2+x,1/2+y,z
1/2-x,1/2+y,-z
1/2-x,1/2-y,-z
1/2+x,1/2-y,z
loop_
_atom_site_type_symbol
_atom_site_label
_atom_site_fract_x
_atom_site_fract_y
_atom_site_fract_z
Si Si1 0.069169 0.631244 0.538723
Si Si2 0.475718 0.273257 0.252542
Si Si3 0.836811 0.864536 0.211791
Si Si4 0.364294 0.500000 0.574448
Si Si5 0.280827 0.375838 0.030173
Si Si6 0.811287 0.241685 0.649434
Si Si7 0.361540 0.255076 0.847277
Si Si8 0.493169 0.500000 0.355597
O O1 0.079786 0.500000 0.544050
O O2 0.052834 0.689952 0.649580
O O3 0.138778 0.690055 0.451866
O O4 0.000000 0.649251 0.500000
O O5 0.412365 0.309123 0.210486
O O6 0.553880 0.228379 0.171446
O O7 0.497990 0.387928 0.293226
O O8 0.824326 0.837284 0.104302
O O9 0.768475 0.802354 0.301594
O O10 0.836886 0.000000 0.225714
O O11 0.317212 0.612387 0.615469
O O12 0.411051 0.500000 0.449144
O O13 0.435546 0.500000 0.610328
O O14 0.261720 0.500000 0.062712
O O15 0.200060 0.319265 0.066273
O O16 0.333497 0.369315 0.908766
O O17 0.847216 0.251064 0.739418
#
# Coordination Sequence:
#
# PCOD9206753 Si02
#       8
#     8   8   8   4   8   8   8   4
#     4  11  22  38  60  90 121 155 200 243 284 349
#     4  12  22  38  60  90 118 157 201 237 296 349
#     4  10  23  41  59  83 123 163 195 244 295 350
#     4  11  20  34  60  85 120 152 192 255 290 333
#     4   9  21  40  60  88 117 149 197 245 299 350
#     4  11  21  38  58  87 120 160 200 238 293 347
#     4  10  21  36  62  89 113 150 198 249 289 346
#     4  11  20  34  58  88 121 144 198 250 289 347
#
# _framework density 18.815239999999999
#
# number of rings (size 3 to 8) (size 9 to 14) (size 15 to 20)
#    0.000    1.429    5.000    0.429    2.000    2.286 
#    1.286    1.429    0.000    0.000    0.000    4.000 
#    0.000    0.000    0.000    0.000    0.000    0.000 
#
# Total GULP energy -156059.815537 kJ/mol
# GULP energy per Si atom -5573.564841 kJ/mol
# Density = 1.877242 g / cm^3
# Si number density = 18.815240 Si / 1000 Ang^3
#
#
#
# Elastic Constant Matrix: (Units=GPa)
#
#
# Indices 1 2 3 4 5 6 
#
# 1 117.8452 38.9959 42.3375 0.0000 -22.4637 0.0000
# 2 38.9959 65.1702 23.8082 0.0000 0.1301 0.0000
# 3 42.3375 23.8082 80.4361 0.0000 -27.9159 0.0000
# 4 0.0000 0.0000 0.0000 313.8756 0.0000 308.6586
# 5 -22.4637 0.1301 -27.9159 0.0000 19.3333 0.0000
# 6 0.0000 0.0000 0.0000 308.6586 0.0000 339.0584
#
#
#
# Elastic Compliance Matrix: (Units=1/GPa)
#
#
# Indices 1 2 3 4 5 6 
#
# 1 0.014798 -0.009675 0.002134 0.000000 0.020340 0.000000
# 2 -0.009675 0.026003 -0.013162 0.000000 -0.030422 0.000000
# 3 0.002134 -0.013162 0.032265 0.000000 0.049156 0.000000
# 4 0.000000 0.000000 0.000000 0.030403 0.000000 -0.027677
# 5 0.020340 -0.030422 0.049156 0.000000 0.146541 0.000000
# 6 0.000000 0.000000 0.000000 -0.027677 0.000000 0.028145
#
#
# Mechanical properties :
#
#
# Convention : Reuss Voigt Hill
#
# Bulk Modulus (GPa) = 31.58611 52.63719 42.11165
# Shear Modulus (GPa) = 15.14631 145.00745 80.07688
#
# Velocity S-wave (km/s) = 2.84033 8.78843 6.53085
# Velocity P-wave (km/s) = 5.25173 11.44633 8.90503
#
# Compressibility (1/GPa) = 0.03165948
#
# Stress axis : x y z
#
# Youngs Moduli (GPa) = 67.57782 38.45746 30.99347
#
# Poissons Ratio (x) = 0.37207 -0.06614
# Poissons Ratio (y) = 0.65380 0.40794
# Poissons Ratio (z) = -0.14422 0.50619
#
# Static dielectric constant tensor:
#      x y z
#    x 1.678690 0.000000 0.037340 
#    y 0.000000 1.841530 0.000000 
#    z 0.037340 0.000000 1.712320 
# 
# From -- ./inp_files/223764.got.cif
#   From: 2010.05.17/outbox.cif.g08.bks.cpg/sg12_112_cif.got.tgz:223764.got - 2010.06.03 13:09:07.
