data_PCOD9206893
_publ_section_title
;
Structure prediction by ZEFSAII (Michael W. Deem and Ramdas Pophale) SiO2 
 PCOD9206893
Probable space group: C 2/M
;
_chemical_formula_sum "Si O2"
_cell_formula_units_Z 50
_cell_length_a 14.865930
_cell_length_b 29.676598
_cell_length_c 5.217051
_cell_angle_alpha 90.000000
_cell_angle_beta 61.409309
_cell_angle_gamma 90.000000
_cell_volume 2020.951252
_symmetry_space_group_name_H-M "C 2/M"
_symmetry_group_IT_number 12
_symmetry_cell_setting 'monoclinic'
loop_
_space_group_symop_operation_xyz
x,y,z
-x,y,-z
-x,-y,-z
x,-y,z
1/2+x,1/2+y,z
1/2-x,1/2+y,-z
1/2-x,1/2-y,-z
1/2+x,1/2-y,z
loop_
_atom_site_type_symbol
_atom_site_label
_atom_site_fract_x
_atom_site_fract_y
_atom_site_fract_z
Si Si1 0.326012 0.606734 0.006547
Si Si2 0.394832 0.936831 0.279165
Si Si3 0.119634 0.203726 0.855084
Si Si4 0.117117 0.646462 0.429338
Si Si5 0.500000 0.000000 0.500000
Si Si6 0.374979 0.750413 0.651773
Si Si7 0.167407 0.050405 0.488497
O O1 0.371836 0.653640 0.044966
O O2 0.205430 0.620435 0.151309
O O3 0.345013 0.571363 0.211303
O O4 0.365164 0.585126 0.689578
O O5 0.384461 0.883106 0.311411
O O6 0.291100 0.953283 0.295343
O O7 0.416582 0.960680 0.522010
O O8 0.500000 0.950386 0.000000
O O9 0.159173 0.214388 0.516442
O O10 0.160371 0.237675 0.015164
O O11 0.000000 0.213670 0.000000
O O12 0.147053 0.698515 0.404993
O O13 0.000000 0.644188 0.500000
O O14 0.500000 0.748368 0.500000
O O15 0.123859 0.000000 0.524216
#
# Coordination Sequence:
#
# PCOD9206893 Si02
#       7
#     8   8   8   8   2   8   8
#     4  11  24  39  62  89 114 158 199 238 302 346
#     4  11  23  34  57  78 119 163 212 243 283 333
#     4  10  21  41  64  88 114 148 196 248 297 364
#     4  10  21  37  54  85 123 157 197 240 286 344
#     4  12  22  36  52  86 108 172 220 250 278 332
#     4   9  20  36  60  86 118 155 191 238 301 347
#     4  11  24  39  59  84 122 154 194 247 292 350
#
# _framework density 24.740825999999998
#
# number of rings (size 3 to 8) (size 9 to 14) (size 15 to 20)
#    0.000    1.600    1.600    2.640    2.240    7.040 
#    0.000    0.000    0.000    2.880    0.000    0.000 
#    0.000    0.000    0.000    0.000    0.000    0.000 
#
# Total GULP energy -139433.357657 kJ/mol
# GULP energy per Si atom -5577.334306 kJ/mol
# Density = 2.468451 g / cm^3
# Si number density = 24.740826 Si / 1000 Ang^3
#
#
#
# Elastic Constant Matrix: (Units=GPa)
#
#
# Indices 1 2 3 4 5 6 
#
# 1 68.5014 29.8442 21.1450 0.0000 21.4205 0.0000
# 2 29.8442 164.3754 23.8952 0.0000 39.5564 0.0000
# 3 21.1450 23.8952 61.6810 0.0000 27.7166 0.0000
# 4 0.0000 0.0000 0.0000 7.4391 0.0000 19.2972
# 5 21.4205 39.5564 27.7166 0.0000 25.6451 0.0000
# 6 0.0000 0.0000 0.0000 19.2972 0.0000 31.6632
#
#
#
# Elastic Compliance Matrix: (Units=1/GPa)
#
#
# Indices 1 2 3 4 5 6 
#
# 1 0.019891 0.000947 0.001821 0.000000 -0.020043 0.000000
# 2 0.000947 0.010897 0.006536 0.000000 -0.024663 0.000000
# 3 0.001821 0.006536 0.035521 0.000000 -0.049993 0.000000
# 4 0.000000 0.000000 0.000000 -0.231395 0.000000 0.141024
# 5 -0.020043 -0.024663 -0.049993 0.000000 0.147808 0.000000
# 6 0.000000 0.000000 0.000000 0.141024 0.000000 -0.054365
#
#
# Mechanical properties :
#
#
# Convention : Reuss Voigt Hill
#
# Bulk Modulus (GPa) = 11.77624 49.36962 30.57293
# Shear Modulus (GPa) = -80.71606 27.59435 -26.56085
#
# Velocity S-wave (km/s) = -5.71800 3.34329 -3.28008
# Velocity P-wave (km/s) = 6.23087 5.90775 1.40041
#
# Compressibility (1/GPa) = 0.08491676
#
# Stress axis : x y z
#
# Youngs Moduli (GPa) = 50.27374 91.77197 28.15266
#
# Poissons Ratio (x) = -0.08693 -0.05125
# Poissons Ratio (y) = -0.04762 -0.18402
# Poissons Ratio (z) = -0.09153 -0.59986
#
# Static dielectric constant tensor:
#      x y z
#    x 2.003970 0.000000 -0.022110 
#    y 0.000000 1.984350 0.000000 
#    z -0.022110 0.000000 2.046100 
# 
# From -- ./inp_files/17376.got.cif
#   From: 2010.05.17/outbox.cif.g08.bks.cpg/sg12_9_cif.got.tgz:17376.got - 2010.06.03 13:09:07.
