data_PCOD9206734
_publ_section_title
;
Structure prediction by ZEFSAII (Michael W. Deem and Ramdas Pophale) SiO2 
 PCOD9206734
Probable space group: C 2/M
;
_chemical_formula_sum "Si O2"
_cell_formula_units_Z 56
_cell_length_a 11.311379
_cell_length_b 19.454804
_cell_length_c 17.764442
_cell_angle_alpha 90.000000
_cell_angle_beta 129.833440
_cell_angle_gamma 90.000000
_cell_volume 3001.955116
_symmetry_space_group_name_H-M "C 2/M"
_symmetry_group_IT_number 12
_symmetry_cell_setting 'monoclinic'
loop_
_space_group_symop_operation_xyz
x,y,z
-x,y,-z
-x,-y,-z
x,-y,z
1/2+x,1/2+y,z
1/2-x,1/2+y,-z
1/2-x,1/2-y,-z
1/2+x,1/2-y,z
loop_
_atom_site_type_symbol
_atom_site_label
_atom_site_fract_x
_atom_site_fract_y
_atom_site_fract_z
Si Si1 0.096016 0.829103 0.967125
Si Si2 0.625388 0.811228 0.689525
Si Si3 0.074759 0.296881 0.844989
Si Si4 0.216619 0.330765 0.473028
Si Si5 0.896544 0.078001 0.796237
Si Si6 0.973322 0.080179 0.655834
Si Si7 0.261503 0.665364 0.316287
O O1 0.074264 0.774612 0.890483
O O2 0.018354 0.899000 0.908507
O O3 0.273915 0.834857 0.062197
O O4 0.000000 0.802713 0.000000
O O5 0.594551 0.787791 0.763356
O O6 0.465812 0.839253 0.591391
O O7 0.755692 0.868901 0.742575
O O8 0.680011 0.743716 0.668226
O O9 0.911520 0.334721 0.787521
O O10 0.250000 0.250000 0.500000
O O11 0.324013 0.377050 0.568720
O O12 0.255155 0.349699 0.402362
O O13 0.975933 0.083870 0.747102
O O14 0.843697 0.000000 0.784821
O O15 0.120872 0.115986 0.678471
O O16 0.962278 0.000000 0.629570
#
# Coordination Sequence:
#
# PCOD9206734 Si02
#       7
#     8   8   8   8   8   8   8
#     4  11  20  37  63  92 121 155 200 250 305 361
#     4  11  21  39  61  91 124 155 203 254 299 354
#     4  10  21  36  61  95 120 153 199 251 303 351
#     4  11  23  36  62  94 117 157 205 248 297 352
#     4  11  24  41  61  86 122 163 198 249 310 360
#     4  11  25  43  60  86 125 166 202 244 304 364
#     4  11  21  37  63  88 124 158 198 250 294 357
#
# _framework density 18.654510999999999
#
# number of rings (size 3 to 8) (size 9 to 14) (size 15 to 20)
#    0.000    1.143    4.286    2.143    0.000    4.857 
#    0.000    4.286    0.000    1.714    0.000    0.000 
#    0.000    0.000    0.000    0.000    0.000    0.000 
#
# Total GULP energy -156460.674566 kJ/mol
# GULP energy per Si atom -5587.881234 kJ/mol
# Density = 1.861205 g / cm^3
# Si number density = 18.654511 Si / 1000 Ang^3
#
#
#
# Elastic Constant Matrix: (Units=GPa)
#
#
# Indices 1 2 3 4 5 6 
#
# 1 77.0376 20.7047 18.3395 0.0000 16.5066 0.0000
# 2 20.7047 76.3041 4.7585 0.0000 6.6069 0.0000
# 3 18.3395 4.7585 67.0882 0.0000 20.1300 0.0000
# 4 0.0000 0.0000 0.0000 24.2661 0.0000 -2.0332
# 5 16.5066 6.6069 20.1300 0.0000 34.5488 0.0000
# 6 0.0000 0.0000 0.0000 -2.0332 0.0000 25.7203
#
#
#
# Elastic Compliance Matrix: (Units=1/GPa)
#
#
# Indices 1 2 3 4 5 6 
#
# 1 0.015689 -0.003640 -0.002412 0.000000 -0.005394 0.000000
# 2 -0.003640 0.014173 0.000341 0.000000 -0.001170 0.000000
# 3 -0.002412 0.000341 0.018438 0.000000 -0.009656 0.000000
# 4 0.000000 0.000000 0.000000 0.041485 0.000000 0.003279
# 5 -0.005394 -0.001170 -0.009656 0.000000 0.037372 0.000000
# 6 0.000000 0.000000 0.000000 0.003279 0.000000 0.039139
#
#
# Mechanical properties :
#
#
# Convention : Reuss Voigt Hill
#
# Bulk Modulus (GPa) = 27.11618 34.22614 30.67116
# Shear Modulus (GPa) = 26.31441 28.68218 27.49830
#
# Velocity S-wave (km/s) = 3.75990 3.92541 3.84354
# Velocity P-wave (km/s) = 5.78071 6.23958 6.01452
#
# Compressibility (1/GPa) = 0.03687835
#
# Stress axis : x y z
#
# Youngs Moduli (GPa) = 63.73930 70.55619 54.23519
#
# Poissons Ratio (x) = 0.25680 0.13082
# Poissons Ratio (y) = 0.23199 -0.01848
# Poissons Ratio (z) = 0.15374 -0.02404
#
# Static dielectric constant tensor:
#      x y z
#    x 1.654010 0.000000 -0.004950 
#    y 0.000000 1.615070 0.000000 
#    z -0.004950 0.000000 1.651150 
# 
# From -- ./inp_files/264311.got.cif
#   From: 2010.05.17/outbox.cif.g08.bks.cpg/sg12_133_cif.got.tgz:264311.got - 2010.06.03 13:09:07.
