data_PCOD9206202
_publ_section_title
;
Structure prediction by ZEFSAII (Michael W. Deem and Ramdas Pophale) SiO2 
 PCOD9206202
Probable space group: C 2/M
;
_chemical_formula_sum "Si O2"
_cell_formula_units_Z 50
_cell_length_a 22.074919
_cell_length_b 13.110514
_cell_length_c 9.187974
_cell_angle_alpha 90.000000
_cell_angle_beta 102.205527
_cell_angle_gamma 90.000000
_cell_volume 2599.015874
_symmetry_space_group_name_H-M "C 2/M"
_symmetry_group_IT_number 12
_symmetry_cell_setting 'monoclinic'
loop_
_space_group_symop_operation_xyz
x,y,z
-x,y,-z
-x,-y,-z
x,-y,z
1/2+x,1/2+y,z
1/2-x,1/2+y,-z
1/2-x,1/2-y,-z
1/2+x,1/2-y,z
loop_
_atom_site_type_symbol
_atom_site_label
_atom_site_fract_x
_atom_site_fract_y
_atom_site_fract_z
Si Si1 0.574088 0.152282 0.259086
Si Si2 0.567712 0.611490 0.962913
Si Si3 0.515661 0.305861 0.665012
Si Si4 0.500000 0.000000 0.000000
Si Si5 0.829369 0.274573 0.899041
Si Si6 0.718972 0.118371 0.835954
Si Si7 0.906981 0.610584 0.395199
O O1 0.543826 0.263156 0.278209
O O2 0.640944 0.162507 0.217390
O O3 0.582721 0.110057 0.426747
O O4 0.530923 0.088843 0.125572
O O5 0.592712 0.500000 0.015760
O O6 0.554564 0.620342 0.784906
O O7 0.500000 0.621805 0.000000
O O8 0.614505 0.701438 0.022691
O O9 0.500000 0.349970 0.500000
O O10 0.554086 0.202315 0.652311
O O11 0.772956 0.199364 0.831416
O O12 0.809252 0.347013 0.022237
O O13 0.663813 0.124486 0.690142
O O14 0.739351 0.000000 0.853438
O O15 0.927462 0.500000 0.345489
#
# Coordination Sequence:
#
# PCOD9206202 Si02
#       7
#     8   8   8   2   8   8   8
#     4  11  23  35  58  86 129 156 198 244 305 363
#     4  11  21  37  60  85 116 153 199 250 304 362
#     4  10  21  36  56  86 122 157 192 242 303 366
#     4  12  24  32  58 100 122 156 198 252 302 368
#     4  11  22  40  59  89 118 155 203 255 299 354
#     4  10  23  39  63  84 115 159 206 252 301 353
#     4  10  21  38  58  89 124 161 193 242 305 366
#
# _framework density 19.238052
#
# number of rings (size 3 to 8) (size 9 to 14) (size 15 to 20)
#    0.000    1.440    4.000    1.440    2.240    1.920 
#    0.000    0.000    0.000    0.000    0.000    0.000 
#    0.000    0.000    0.000    0.000    0.000    0.000 
#
# Total GULP energy -139214.447197 kJ/mol
# GULP energy per Si atom -5568.577888 kJ/mol
# Density = 1.919427 g / cm^3
# Si number density = 19.238052 Si / 1000 Ang^3
#
#
#
# Elastic Constant Matrix: (Units=GPa)
#
#
# Indices 1 2 3 4 5 6 
#
# 1 69.6481 9.3318 32.2190 0.0000 -3.7241 0.0000
# 2 9.3318 48.0779 18.2907 0.0000 3.0079 0.0000
# 3 32.2190 18.2907 86.6931 0.0000 8.2453 0.0000
# 4 0.0000 0.0000 0.0000 17.1235 0.0000 3.4134
# 5 -3.7241 3.0079 8.2453 0.0000 28.4056 0.0000
# 6 0.0000 0.0000 0.0000 3.4134 0.0000 8.9156
#
#
#
# Elastic Compliance Matrix: (Units=1/GPa)
#
#
# Indices 1 2 3 4 5 6 
#
# 1 0.017914 -0.001154 -0.006838 0.000000 0.004456 0.000000
# 2 -0.001154 0.022719 -0.004238 0.000000 -0.001327 0.000000
# 3 -0.006838 -0.004238 0.015439 0.000000 -0.004929 0.000000
# 4 0.000000 0.000000 0.000000 0.063225 0.000000 -0.024206
# 5 0.004456 -0.001327 -0.004929 0.000000 0.037360 0.000000
# 6 0.000000 0.000000 0.000000 -0.024206 0.000000 0.121431
#
#
# Mechanical properties :
#
#
# Convention : Reuss Voigt Hill
#
# Bulk Modulus (GPa) = 31.63410 36.01135 33.82272
# Shear Modulus (GPa) = 15.97010 20.52744 18.24877
#
# Velocity S-wave (km/s) = 2.88432 3.27007 3.08324
# Velocity P-wave (km/s) = 5.25087 5.74607 5.50404
#
# Compressibility (1/GPa) = 0.03161146
#
# Stress axis : x y z
#
# Youngs Moduli (GPa) = 55.82234 44.01599 64.77039
#
# Poissons Ratio (x) = 0.05081 0.44289
# Poissons Ratio (y) = 0.06444 0.27450
# Poissons Ratio (z) = 0.38170 0.18654
#
# Static dielectric constant tensor:
#      x y z
#    x 1.683760 0.000000 -0.012320 
#    y 0.000000 1.682640 0.000000 
#    z -0.012320 0.000000 1.675440 
# 
# From -- ./inp_files/85898.got.cif
#   From: 2010.05.17/outbox.cif.g08.bks.cpg/sg12_43_cif.got.tgz:85898.got - 2010.06.03 13:09:07.
