data_PCOD9206981
_publ_section_title
;
Structure prediction by ZEFSAII (Michael W. Deem and Ramdas Pophale) SiO2 
 PCOD9206981
Probable space group: C 2/M
;
_chemical_formula_sum "Si O2"
_cell_formula_units_Z 48
_cell_length_a 7.998377
_cell_length_b 33.393164
_cell_length_c 12.008306
_cell_angle_alpha 90.000000
_cell_angle_beta 41.422838
_cell_angle_gamma 90.000000
_cell_volume 2121.992169
_symmetry_space_group_name_H-M "C 2/M"
_symmetry_group_IT_number 12
_symmetry_cell_setting 'monoclinic'
loop_
_space_group_symop_operation_xyz
x,y,z
-x,y,-z
-x,-y,-z
x,-y,z
1/2+x,1/2+y,z
1/2-x,1/2+y,-z
1/2-x,1/2-y,-z
1/2+x,1/2-y,z
loop_
_atom_site_type_symbol
_atom_site_label
_atom_site_fract_x
_atom_site_fract_y
_atom_site_fract_z
Si Si1 0.393082 0.162917 0.675693
Si Si2 0.076800 0.260128 0.691316
Si Si3 0.137163 0.382126 0.745959
Si Si4 0.763026 0.807463 0.805965
Si Si5 0.562526 0.601712 0.090421
Si Si6 0.277984 0.454678 0.802430
O O1 0.500000 0.170892 0.500000
O O2 0.389112 0.203903 0.748454
O O3 0.591674 0.134860 0.645718
O O4 0.134594 0.137927 0.798754
O O5 0.250000 0.250000 0.500000
O O6 0.232656 0.279260 0.713260
O O7 0.953643 0.217878 0.785447
O O8 0.305128 0.351315 0.734493
O O9 0.243108 0.426292 0.712587
O O10 0.850788 0.382382 0.939379
O O11 0.500000 0.808286 0.000000
O O12 0.551235 0.569245 0.193806
O O13 0.500000 0.583419 0.000000
O O14 0.358712 0.500000 0.739982
O O15 0.000000 0.456361 0.000000
#
# Coordination Sequence:
#
# PCOD9206981 Si02
#       6
#     8   8   8   8   8   8
#     4  10  21  37  56  76 106 148 186 220 267 325
#     4  11  24  39  54  79 112 146 186 231 273 322
#     4   9  20  36  56  82 109 139 178 228 275 322
#     4  11  22  36  56  80 108 143 184 227 274 324
#     4   9  18  34  55  81 110 141 180 223 268 322
#     4   9  17  32  57  86 111 136 173 223 274 323
#
# _framework density 22.620253999999999
#
# number of rings (size 3 to 8) (size 9 to 14) (size 15 to 20)
#    0.000    2.167    0.000    3.500    0.000    9.000 
#    0.000    5.000    0.000    3.000    0.000    0.000 
#    0.000    0.000    0.000    0.000    0.000    0.000 
#
# Total GULP energy -134162.262642 kJ/mol
# GULP energy per Si atom -5590.094277 kJ/mol
# Density = 2.256877 g / cm^3
# Si number density = 22.620254 Si / 1000 Ang^3
#
#
#
# Elastic Constant Matrix: (Units=GPa)
#
#
# Indices 1 2 3 4 5 6 
#
# 1 98.4957 60.6591 2.0583 0.0000 -1.1850 0.0000
# 2 60.6591 172.8347 7.0784 0.0000 -10.5364 0.0000
# 3 2.0583 7.0784 42.5826 0.0000 -7.0444 0.0000
# 4 0.0000 0.0000 0.0000 -5.8525 0.0000 2.3885
# 5 -1.1850 -10.5364 -7.0444 0.0000 30.0333 0.0000
# 6 0.0000 0.0000 0.0000 2.3885 0.0000 34.2082
#
#
#
# Elastic Compliance Matrix: (Units=1/GPa)
#
#
# Indices 1 2 3 4 5 6 
#
# 1 0.012989 -0.004625 -0.000044 0.000000 -0.001120 0.000000
# 2 -0.004625 0.007577 -0.000652 0.000000 0.002323 0.000000
# 3 -0.000044 -0.000652 0.024507 0.000000 0.005518 0.000000
# 4 0.000000 0.000000 0.000000 -0.166134 0.000000 0.011600
# 5 -0.001120 0.002323 0.005518 0.000000 0.035361 0.000000
# 6 0.000000 0.000000 0.000000 0.011600 0.000000 0.028423
#
#
# Mechanical properties :
#
#
# Convention : Reuss Voigt Hill
#
# Bulk Modulus (GPa) = 29.04383 50.38941 39.71662
# Shear Modulus (GPa) = -142.21855 27.95227 -57.13314
#
# Velocity S-wave (km/s) = -7.93780 3.51909 -5.03114
# Velocity P-wave (km/s) = 8.43469 6.23190 4.01917
#
# Compressibility (1/GPa) = 0.03443072
#
# Stress axis : x y z
#
# Youngs Moduli (GPa) = 76.99102 131.97120 40.80457
#
# Poissons Ratio (x) = 0.61037 0.00181
# Poissons Ratio (y) = 0.35609 0.02659
# Poissons Ratio (z) = 0.00342 0.08601
#
# Static dielectric constant tensor:
#      x y z
#    x 1.933080 0.000000 -0.029780 
#    y 0.000000 1.835510 0.000000 
#    z -0.029780 0.000000 1.847580 
# 
# From -- ./inp_files/200770.got.cif
#   From: 2010.05.17/outbox.cif.g08.bks.cpg/sg12_101_cif.got.tgz:200770.got - 2010.06.03 13:09:07.
