data_PCOD9206185
_publ_section_title
;
Structure prediction by ZEFSAII (Michael W. Deem and Ramdas Pophale) SiO2 
 PCOD9206185
Probable space group: C 2/M
;
_chemical_formula_sum "Si O2"
_cell_formula_units_Z 44
_cell_length_a 9.646975
_cell_length_b 23.420278
_cell_length_c 13.357643
_cell_angle_alpha 90.000000
_cell_angle_beta 124.072524
_cell_angle_gamma 90.000000
_cell_volume 2499.861486
_symmetry_space_group_name_H-M "C 2/M"
_symmetry_group_IT_number 12
_symmetry_cell_setting 'monoclinic'
loop_
_space_group_symop_operation_xyz
x,y,z
-x,y,-z
-x,-y,-z
x,-y,z
1/2+x,1/2+y,z
1/2-x,1/2+y,-z
1/2-x,1/2-y,-z
1/2+x,1/2-y,z
loop_
_atom_site_type_symbol
_atom_site_label
_atom_site_fract_x
_atom_site_fract_y
_atom_site_fract_z
Si Si1 0.506100 0.065547 0.623140
Si Si2 0.751624 0.332386 0.280213
Si Si3 0.000000 0.247581 0.500000
Si Si4 0.819254 0.063010 0.375151
Si Si5 0.812945 0.741750 0.913708
Si Si6 0.456238 0.335920 0.305438
O O1 0.500000 0.069558 0.500000
O O2 0.631319 0.115448 0.706036
O O3 0.325953 0.075160 0.602517
O O4 0.556698 0.000000 0.667541
O O5 0.859419 0.288829 0.394588
O O6 0.684622 0.297522 0.157187
O O7 0.600272 0.354637 0.287545
O O8 0.041308 0.203765 0.426145
O O9 0.848755 0.113216 0.309317
O O10 0.000000 0.059863 0.500000
O O11 0.782834 0.000000 0.317088
O O12 0.677609 0.702191 0.806129
O O13 0.750000 0.750000 0.000000
O O14 0.000000 0.718182 0.000000
#
# Coordination Sequence:
#
# PCOD9206185 Si02
#       6
#     8   8   4   8   8   8
#     4  10  21  36  56  85 120 155 191 235 291 349
#     4  11  22  36  60  85 120 153 191 243 285 356
#     4  10  22  32  54  90 122 146 186 230 302 344
#     4  10  21  36  56  85 120 155 192 234 290 351
#     4  11  24  43  60  85 116 155 201 241 292 341
#     4  11  22  36  60  85 120 153 190 244 286 353
#
# _framework density 17.600975999999999
#
# number of rings (size 3 to 8) (size 9 to 14) (size 15 to 20)
#    0.000    1.455    3.636    1.636    2.545    3.636 
#    0.000    0.000    0.000    2.182    0.000    0.000 
#    0.000    0.000    0.000    0.000    0.000    0.000 
#
# Total GULP energy -122644.473052 kJ/mol
# GULP energy per Si atom -5574.748775 kJ/mol
# Density = 1.756092 g / cm^3
# Si number density = 17.600976 Si / 1000 Ang^3
#
#
#
# Elastic Constant Matrix: (Units=GPa)
#
#
# Indices 1 2 3 4 5 6 
#
# 1 146.8554 48.2803 21.3988 0.0000 -12.6947 0.0000
# 2 48.2803 87.2429 20.6441 0.0000 -13.0336 0.0000
# 3 21.3988 20.6441 72.4164 0.0000 -11.2524 0.0000
# 4 0.0000 0.0000 0.0000 8.1247 0.0000 4.6466
# 5 -12.6947 -13.0336 -11.2524 0.0000 27.8211 0.0000
# 6 0.0000 0.0000 0.0000 4.6466 0.0000 3.1986
#
#
#
# Elastic Compliance Matrix: (Units=1/GPa)
#
#
# Indices 1 2 3 4 5 6 
#
# 1 0.008480 -0.004220 -0.001076 0.000000 0.001457 0.000000
# 2 -0.004220 0.014978 -0.002381 0.000000 0.004128 0.000000
# 3 -0.001076 -0.002381 0.015532 0.000000 0.004676 0.000000
# 4 0.000000 0.000000 0.000000 0.727497 0.000000 -1.056827
# 5 0.001457 0.004128 0.004676 0.000000 0.040434 0.000000
# 6 0.000000 0.000000 0.000000 -1.056827 0.000000 1.847877
#
#
# Mechanical properties :
#
#
# Convention : Reuss Voigt Hill
#
# Bulk Modulus (GPa) = 42.31149 54.12901 48.22025
# Shear Modulus (GPa) = 1.86704 22.24164 12.05434
#
# Velocity S-wave (km/s) = 1.03105 3.55866 2.61984
# Velocity P-wave (km/s) = 5.05063 6.90692 6.05039
#
# Compressibility (1/GPa) = 0.02363424
#
# Stress axis : x y z
#
# Youngs Moduli (GPa) = 117.92928 66.76468 64.38151
#
# Poissons Ratio (x) = 0.28177 0.06929
# Poissons Ratio (y) = 0.49770 0.15331
# Poissons Ratio (z) = 0.12692 0.15899
#
# Static dielectric constant tensor:
#      x y z
#    x 1.420450 0.000000 -0.014370 
#    y 0.000000 1.637500 0.000000 
#    z -0.014370 0.000000 1.570010 
# 
# From -- ./inp_files/122338.got.cif
#   From: 2010.05.17/outbox.cif.g08.bks.cpg/sg12_62_cif.got.tgz:122338.got - 2010.06.03 13:09:07.
