data_PCOD9206016
_publ_section_title
;
Structure prediction by ZEFSAII (Michael W. Deem and Ramdas Pophale) SiO2 
 PCOD9206016
Probable space group: C 2/M
;
_chemical_formula_sum "Si O2"
_cell_formula_units_Z 40
_cell_length_a 17.498848
_cell_length_b 9.084587
_cell_length_c 14.091002
_cell_angle_alpha 90.000000
_cell_angle_beta 69.079321
_cell_angle_gamma 90.000000
_cell_volume 2092.370457
_symmetry_space_group_name_H-M "C 2/M"
_symmetry_group_IT_number 12
_symmetry_cell_setting 'monoclinic'
loop_
_space_group_symop_operation_xyz
x,y,z
-x,y,-z
-x,-y,-z
x,-y,z
1/2+x,1/2+y,z
1/2-x,1/2+y,-z
1/2-x,1/2-y,-z
1/2+x,1/2-y,z
loop_
_atom_site_type_symbol
_atom_site_label
_atom_site_fract_x
_atom_site_fract_y
_atom_site_fract_z
Si Si1 0.410361 0.270590 0.560234
Si Si2 0.616090 0.324858 0.633238
Si Si3 0.952471 0.666763 0.742038
Si Si4 0.707783 0.675527 0.108591
Si Si5 0.235878 0.339450 0.710304
O O1 0.500000 0.341623 0.500000
O O2 0.379962 0.234617 0.467741
O O3 0.432122 0.162875 0.637517
O O4 0.331173 0.348746 0.638652
O O5 0.615605 0.500000 0.613454
O O6 0.531535 0.270297 0.717053
O O7 0.690153 0.280786 0.668252
O O8 0.966627 0.500000 0.767926
O O9 0.876579 0.741628 0.828982
O O10 0.694910 0.500000 0.101177
O O11 0.763581 0.692638 0.178197
O O12 0.750000 0.750000 0.000000
O O13 0.197978 0.500000 0.708868
#
# Coordination Sequence:
#
# PCOD9206016 Si02
#       5
#     8   8   8   8   8
#     4   9  20  34  54  81 112 150 189 226 270 323
#     4  11  22  35  54  81 116 153 187 229 278 328
#     4  10  21  37  58  83 112 148 190 232 275 329
#     4  10  21  39  63  87 111 142 182 230 282 334
#     4  10  21  36  55  81 113 147 185 228 275 331
#
# _framework density 19.117073999999999
#
# number of rings (size 3 to 8) (size 9 to 14) (size 15 to 20)
#    0.000    2.000    0.000    3.000    0.000   18.000 
#    0.000    1.000    0.000    6.000    0.000    0.000 
#    0.000    0.000    0.000    0.000    0.000    0.000 
#
# Total GULP energy -111338.458026 kJ/mol
# GULP energy per Si atom -5566.922901 kJ/mol
# Density = 1.907356 g / cm^3
# Si number density = 19.117074 Si / 1000 Ang^3
#
#
#
# Elastic Constant Matrix: (Units=GPa)
#
#
# Indices 1 2 3 4 5 6 
#
# 1 77.0797 38.2550 40.7067 0.0000 -1.4963 0.0000
# 2 38.2550 75.6919 38.1470 0.0000 -5.9991 0.0000
# 3 40.7067 38.1470 137.0581 0.0000 -6.2293 0.0000
# 4 0.0000 0.0000 0.0000 -8.3210 0.0000 -6.6348
# 5 -1.4963 -5.9991 -6.2293 0.0000 19.2302 0.0000
# 6 0.0000 0.0000 0.0000 -6.6348 0.0000 12.4806
#
#
#
# Elastic Compliance Matrix: (Units=1/GPa)
#
#
# Indices 1 2 3 4 5 6 
#
# 1 0.018654 -0.007857 -0.003450 0.000000 -0.002117 0.000000
# 2 -0.007857 0.018906 -0.002729 0.000000 0.004403 0.000000
# 3 -0.003450 -0.002729 0.009164 0.000000 0.001849 0.000000
# 4 0.000000 0.000000 0.000000 -0.084402 0.000000 -0.044868
# 5 -0.002117 0.004403 0.001849 0.000000 0.053809 0.000000
# 6 0.000000 0.000000 0.000000 -0.044868 0.000000 0.056272
#
#
# Mechanical properties :
#
#
# Convention : Reuss Voigt Hill
#
# Bulk Modulus (GPa) = 53.60730 58.22744 55.91737
# Shear Modulus (GPa) = 46.86373 16.19269 31.52821
#
# Velocity S-wave (km/s) = 4.95654 2.91353 4.06546
# Velocity P-wave (km/s) = 7.80121 6.46859 7.16594
#
# Compressibility (1/GPa) = 0.01865417
#
# Stress axis : x y z
#
# Youngs Moduli (GPa) = 53.60865 52.89195 109.12042
#
# Poissons Ratio (x) = 0.41557 0.37643
# Poissons Ratio (y) = 0.42120 0.29774
# Poissons Ratio (z) = 0.18493 0.14432
#
# Static dielectric constant tensor:
#      x y z
#    x 1.672930 0.000000 0.000980 
#    y 0.000000 1.685850 0.000000 
#    z 0.000980 0.000000 1.662850 
# 
# From -- ./inp_files/220581.got.cif
#   From: 2010.05.17/outbox.cif.g08.bks.cpg/sg12_111_cif.got.tgz:220581.got - 2010.06.03 13:09:07.
