data_PCOD9206709
_publ_section_title
;
Structure prediction by ZEFSAII (Michael W. Deem and Ramdas Pophale) SiO2 
 PCOD9206709
Probable space group: C 2/M
;
_chemical_formula_sum "Si O2"
_cell_formula_units_Z 32
_cell_length_a 27.209181
_cell_length_b 10.018859
_cell_length_c 5.247274
_cell_angle_alpha 90.000000
_cell_angle_beta 101.010286
_cell_angle_gamma 90.000000
_cell_volume 1404.102753
_symmetry_space_group_name_H-M "C 2/M"
_symmetry_group_IT_number 12
_symmetry_cell_setting 'monoclinic'
loop_
_space_group_symop_operation_xyz
x,y,z
-x,y,-z
-x,-y,-z
x,-y,z
1/2+x,1/2+y,z
1/2-x,1/2+y,-z
1/2-x,1/2-y,-z
1/2+x,1/2-y,z
loop_
_atom_site_type_symbol
_atom_site_label
_atom_site_fract_x
_atom_site_fract_y
_atom_site_fract_z
Si Si1 0.844421 0.276525 0.260375
Si Si2 0.914696 0.152966 0.986854
Si Si3 0.805462 0.000000 0.418059
Si Si4 0.948046 0.720750 0.514238
Si Si5 0.738404 0.000000 0.848893
O O1 0.894010 0.347640 0.421756
O O2 0.796795 0.370069 0.211901
O O3 0.835854 0.136822 0.399594
O O4 0.863158 0.231570 0.997900
O O5 0.945418 0.220301 0.792565
O O6 0.904773 0.000000 0.918920
O O7 0.943550 0.167629 0.285440
O O8 0.778633 0.000000 0.662774
O O9 0.764654 0.000000 0.149124
O O10 0.000000 0.650149 0.500000
#
# Coordination Sequence:
#
# PCOD9206709 Si02
#       5
#     8   8   4   8   4
#     4  10  25  43  65  94 128 164 206 263 306 373
#     4  10  21  36  61  89 134 160 205 251 313 358
#     4  12  26  44  65  95 123 163 212 268 312 361
#     4  10  22  37  62  94 131 163 203 250 316 373
#     4  12  28  42  69  89 125 167 220 250 318 365
#
# _framework density 22.790357
#
# number of rings (size 3 to 8) (size 9 to 14) (size 15 to 20)
#    1.500    0.000    1.250    3.000    8.750    3.000 
#    0.000    0.625    0.000    1.500    0.000    0.000 
#    0.000    0.000    0.000    0.000    0.000    0.000 
#
# Total GULP energy -89254.778814 kJ/mol
# GULP energy per Si atom -5578.423676 kJ/mol
# Density = 2.273849 g / cm^3
# Si number density = 22.790357 Si / 1000 Ang^3
#
#
#
# Elastic Constant Matrix: (Units=GPa)
#
#
# Indices 1 2 3 4 5 6 
#
# 1 130.6061 38.1463 19.9646 0.0000 -15.5692 0.0000
# 2 38.1463 111.3479 13.1099 0.0000 -11.9394 0.0000
# 3 19.9646 13.1099 113.1902 0.0000 -24.0815 0.0000
# 4 0.0000 0.0000 0.0000 -4.6618 0.0000 3.5228
# 5 -15.5692 -11.9394 -24.0815 0.0000 48.0616 0.0000
# 6 0.0000 0.0000 0.0000 3.5228 0.0000 15.9636
#
#
#
# Elastic Compliance Matrix: (Units=1/GPa)
#
#
# Indices 1 2 3 4 5 6 
#
# 1 0.008792 -0.002724 -0.000866 0.000000 0.001738 0.000000
# 2 -0.002724 0.010113 -0.000385 0.000000 0.001437 0.000000
# 3 -0.000866 -0.000385 0.010020 0.000000 0.004645 0.000000
# 4 0.000000 0.000000 0.000000 -0.183851 0.000000 0.040572
# 5 0.001738 0.001437 0.004645 0.000000 0.024054 0.000000
# 6 0.000000 0.000000 0.000000 0.040572 0.000000 0.053689
#
#
# Mechanical properties :
#
#
# Convention : Reuss Voigt Hill
#
# Bulk Modulus (GPa) = 47.67284 55.28732 51.48008
# Shear Modulus (GPa) = -80.33116 30.80093 -24.76511
#
# Velocity S-wave (km/s) = -5.94343 3.68025 -3.30001
# Velocity P-wave (km/s) = 5.11232 6.50928 2.84912
#
# Compressibility (1/GPa) = 0.02097630
#
# Stress axis : x y z
#
# Youngs Moduli (GPa) = 113.74559 98.87891 99.79943
#
# Poissons Ratio (x) = 0.26931 0.08638
# Poissons Ratio (y) = 0.30980 0.03845
# Poissons Ratio (z) = 0.09845 0.03809
#
# Static dielectric constant tensor:
#      x y z
#    x 1.916570 0.000000 0.053160 
#    y 0.000000 1.783340 0.000000 
#    z 0.053160 0.000000 1.848170 
# 
# From -- ./inp_files/30252.got.cif
#   From: 2010.05.17/outbox.cif.g08.bks.cpg/sg12_16_cif.got.tgz:30252.got - 2010.06.03 13:09:07.
