data_PCOD9206866
_publ_section_title
;
Structure prediction by ZEFSAII (Michael W. Deem and Ramdas Pophale) SiO2 
 PCOD9206866
Probable space group: C 2/M
;
_chemical_formula_sum "Si O2"
_cell_formula_units_Z 64
_cell_length_a 19.652875
_cell_length_b 9.645568
_cell_length_c 23.963617
_cell_angle_alpha 90.000000
_cell_angle_beta 58.799822
_cell_angle_gamma 90.000000
_cell_volume 3885.586234
_symmetry_space_group_name_H-M "C 2/M"
_symmetry_group_IT_number 12
_symmetry_cell_setting 'monoclinic'
loop_
_space_group_symop_operation_xyz
x,y,z
-x,y,-z
-x,-y,-z
x,-y,z
1/2+x,1/2+y,z
1/2-x,1/2+y,-z
1/2-x,1/2-y,-z
1/2+x,1/2-y,z
loop_
_atom_site_type_symbol
_atom_site_label
_atom_site_fract_x
_atom_site_fract_y
_atom_site_fract_z
Si Si1 0.593963 0.159285 0.468276
Si Si2 0.116551 0.160729 0.680821
Si Si3 0.219067 0.338628 0.321243
Si Si4 0.832145 0.165227 0.466030
Si Si5 0.537764 0.660310 0.072597
Si Si6 0.871123 0.160350 0.074240
Si Si7 0.294709 0.159450 0.197003
Si Si8 0.038126 0.340643 0.804681
O O1 0.500000 0.161916 0.500000
O O2 0.641557 0.190202 0.391097
O O3 0.618825 0.268185 0.504488
O O4 0.617532 0.000000 0.474086
O O5 0.204721 0.178694 0.670090
O O6 0.124426 0.186172 0.611802
O O7 0.057951 0.260418 0.739359
O O8 0.094324 0.000000 0.699850
O O9 0.218447 0.500000 0.303978
O O10 0.233378 0.240644 0.262498
O O11 0.750000 0.250000 0.500000
O O12 0.818929 0.000000 0.478378
O O13 0.550237 0.500000 0.083822
O O14 0.454227 0.663231 0.073765
O O15 0.525140 0.759370 0.130400
O O16 0.604808 0.700592 0.998961
O O17 0.811789 0.259676 0.132433
O O18 0.844438 0.000000 0.085928
O O19 0.378641 0.161377 0.195601
O O20 0.272736 0.000000 0.197528
O O21 0.016297 0.500000 0.804904
#
# Coordination Sequence:
#
# PCOD9206866 Si02
#       8
#     8   8   8   8   8   8   8   8
#     4  10  21  37  54  73  98 127 160 198 245 296
#     4   9  17  29  44  62  85 115 150 188 229 276
#     4   9  16  29  45  61  84 116 150 185 229 280
#     4  11  21  34  53  75  98 124 160 201 244 290
#     4   8  13  21  32  45  67 102 141 176 214 264
#     4   8  13  21  32  46  66 100 142 178 214 262
#     4   9  16  23  33  53  77 103 139 184 227 264
#     4   9  16  23  33  53  78 105 139 181 226 267
#
# _framework density 16.471131
#
# number of rings (size 3 to 8) (size 9 to 14) (size 15 to 20)
#    0.000    2.875    1.250    1.875    0.000    5.250 
#    0.000    2.500    0.000    0.000    0.000    0.000 
#    0.000    0.000    0.000    1.125    0.000   14.000 
#
# Total GULP energy -178236.856886 kJ/mol
# GULP energy per Si atom -5569.901778 kJ/mol
# Density = 1.643364 g / cm^3
# Si number density = 16.471131 Si / 1000 Ang^3
#
#
#
# Elastic Constant Matrix: (Units=GPa)
#
#
# Indices 1 2 3 4 5 6 
#
# 1 15.0103 23.5637 22.5084 0.0000 -1.1889 0.0000
# 2 23.5637 130.1598 120.0474 0.0000 5.2331 0.0000
# 3 22.5084 120.0474 170.5505 0.0000 2.1231 0.0000
# 4 0.0000 0.0000 0.0000 28.9831 0.0000 4.7886
# 5 -1.1889 5.2331 2.1231 0.0000 6.0638 0.0000
# 6 0.0000 0.0000 0.0000 4.7886 0.0000 10.5585
#
#
#
# Elastic Compliance Matrix: (Units=1/GPa)
#
#
# Indices 1 2 3 4 5 6 
#
# 1 0.100361 -0.019982 0.000362 0.000000 0.036795 0.000000
# 2 -0.019982 0.027049 -0.016133 0.000000 -0.021613 0.000000
# 3 0.000362 -0.016133 0.017072 0.000000 0.008017 0.000000
# 4 0.000000 0.000000 0.000000 0.037298 0.000000 -0.016916
# 5 0.036795 -0.021613 0.008017 0.000000 0.187973 0.000000
# 6 0.000000 0.000000 0.000000 -0.016916 0.000000 0.102382
#
#
# Mechanical properties :
#
#
# Convention : Reuss Voigt Hill
#
# Bulk Modulus (GPa) = 13.70328 71.99549 42.84939
# Shear Modulus (GPa) = 8.80333 19.09448 13.94891
#
# Velocity S-wave (km/s) = 2.31437 3.40850 2.91326
# Velocity P-wave (km/s) = 3.93438 7.70036 6.11453
#
# Compressibility (1/GPa) = 0.07297522
#
# Stress axis : x y z
#
# Youngs Moduli (GPa) = 9.96398 36.96991 58.57679
#
# Poissons Ratio (x) = 0.73874 -0.02120
# Poissons Ratio (y) = 0.19910 0.94503
# Poissons Ratio (z) = -0.00361 0.59644
#
# Static dielectric constant tensor:
#      x y z
#    x 1.519950 0.000000 0.003830 
#    y 0.000000 1.555050 0.000000 
#    z 0.003830 0.000000 1.554550 
# 
# From -- ./inp_files/367044.got.cif
#   From: 2010.05.17/outbox.cif.g08.bks.cpg/sg12_184_cif.got.tgz:367044.got - 2010.06.03 13:09:07.
