data_PCOD9206846
_publ_section_title
;
Structure prediction by ZEFSAII (Michael W. Deem and Ramdas Pophale) SiO2 
 PCOD9206846
Probable space group: C 2/M
;
_chemical_formula_sum "Si O2"
_cell_formula_units_Z 48
_cell_length_a 28.218993
_cell_length_b 7.887085
_cell_length_c 11.145268
_cell_angle_alpha 90.000000
_cell_angle_beta 60.082046
_cell_angle_gamma 90.000000
_cell_volume 2149.995943
_symmetry_space_group_name_H-M "C 2/M"
_symmetry_group_IT_number 12
_symmetry_cell_setting 'monoclinic'
loop_
_space_group_symop_operation_xyz
x,y,z
-x,y,-z
-x,-y,-z
x,-y,z
1/2+x,1/2+y,z
1/2-x,1/2+y,-z
1/2-x,1/2-y,-z
1/2+x,1/2-y,z
loop_
_atom_site_type_symbol
_atom_site_label
_atom_site_fract_x
_atom_site_fract_y
_atom_site_fract_z
Si Si1 0.176431 0.199323 0.850002
Si Si2 0.219509 0.202651 0.414393
Si Si3 0.478372 0.203735 0.341789
Si Si4 0.618668 0.297544 0.680567
Si Si5 0.583421 0.208220 0.338954
Si Si6 0.311701 0.807882 0.907739
O O1 0.240890 0.220598 0.735706
O O2 0.142032 0.264441 0.778661
O O3 0.165845 0.000000 0.880038
O O4 0.164061 0.292991 0.988746
O O5 0.250000 0.250000 0.500000
O O6 0.158348 0.265872 0.522038
O O7 0.219435 0.000000 0.396910
O O8 0.443788 0.260006 0.270954
O O9 0.540416 0.258539 0.288781
O O10 0.443743 0.262323 0.502115
O O11 0.478368 0.000000 0.342311
O O12 0.626472 0.500000 0.673557
O O13 0.644008 0.276037 0.236145
O O14 0.584541 0.000000 0.338762
O O15 0.307916 0.000000 0.873459
O O16 0.250000 0.750000 0.000000
#
# Coordination Sequence:
#
# PCOD9206846 Si02
#       6
#     8   8   8   8   8   8
#     4  10  21  37  53  75 111 150 188 229 274 327
#     4   9  17  30  48  74 109 145 180 223 270 322
#     4   9  17  34  61  84 105 140 184 226 274 328
#     4   9  19  33  51  80 113 140 176 228 280 324
#     4   8  18  37  57  81 110 141 182 229 271 324
#     4  11  23  39  58  81 112 148 185 226 275 335
#
# _framework density 22.325624000000001
#
# number of rings (size 3 to 8) (size 9 to 14) (size 15 to 20)
#    0.000    2.667    0.000    3.500    2.333    4.000 
#    0.000    5.000    0.000    5.000    0.000    0.000 
#    0.000    0.000    0.000    0.000    0.000    0.000 
#
# Total GULP energy -133862.846651 kJ/mol
# GULP energy per Si atom -5577.618610 kJ/mol
# Density = 2.227481 g / cm^3
# Si number density = 22.325624 Si / 1000 Ang^3
#
#
#
# Elastic Constant Matrix: (Units=GPa)
#
#
# Indices 1 2 3 4 5 6 
#
# 1 118.6571 3.7231 14.2749 0.0000 -12.0524 0.0000
# 2 3.7231 26.1591 -1.8630 0.0000 -4.7215 0.0000
# 3 14.2749 -1.8630 58.5173 0.0000 -11.7268 0.0000
# 4 0.0000 0.0000 0.0000 14.1493 0.0000 1.0647
# 5 -12.0524 -4.7215 -11.7268 0.0000 31.9833 0.0000
# 6 0.0000 0.0000 0.0000 1.0647 0.0000 22.3361
#
#
#
# Elastic Compliance Matrix: (Units=1/GPa)
#
#
# Indices 1 2 3 4 5 6 
#
# 1 0.008924 -0.000919 -0.001683 0.000000 0.002610 0.000000
# 2 -0.000919 0.039740 0.002801 0.000000 0.006547 0.000000
# 3 -0.001683 0.002801 0.018936 0.000000 0.006722 0.000000
# 4 0.000000 0.000000 0.000000 0.070929 0.000000 -0.003381
# 5 0.002610 0.006547 0.006722 0.000000 0.035681 0.000000
# 6 0.000000 0.000000 0.000000 -0.003381 0.000000 0.044932
#
#
# Mechanical properties :
#
#
# Convention : Reuss Voigt Hill
#
# Bulk Modulus (GPa) = 14.70623 26.17816 20.44219
# Shear Modulus (GPa) = 20.71174 26.17366 23.44270
#
# Velocity S-wave (km/s) = 3.04914 3.42769 3.24394
# Velocity P-wave (km/s) = 4.35865 5.23607 4.81738
#
# Compressibility (1/GPa) = 0.06799839
#
# Stress axis : x y z
#
# Youngs Moduli (GPa) = 112.05628 25.16380 52.80982
#
# Poissons Ratio (x) = 0.02312 0.08889
# Poissons Ratio (y) = 0.10297 -0.14794
# Poissons Ratio (z) = 0.18861 -0.07050
#
# Static dielectric constant tensor:
#      x y z
#    x 1.876150 0.000000 -0.028210 
#    y 0.000000 1.803140 0.000000 
#    z -0.028210 0.000000 1.855050 
# 
# From -- ./inp_files/179720.got.cif
#   From: 2010.05.17/outbox.cif.g08.bks.cpg/sg12_90_cif.got.tgz:179720.got - 2010.06.03 13:09:07.
