data_PCOD9206647
_publ_section_title
;
Structure prediction by ZEFSAII (Michael W. Deem and Ramdas Pophale) SiO2 
 PCOD9206647
Probable space group: C 2/M
;
_chemical_formula_sum "Si O2"
_cell_formula_units_Z 56
_cell_length_a 12.978660
_cell_length_b 23.173475
_cell_length_c 10.407364
_cell_angle_alpha 90.000000
_cell_angle_beta 65.021374
_cell_angle_gamma 90.000000
_cell_volume 2837.350486
_symmetry_space_group_name_H-M "C 2/M"
_symmetry_group_IT_number 12
_symmetry_cell_setting 'monoclinic'
loop_
_space_group_symop_operation_xyz
x,y,z
-x,y,-z
-x,-y,-z
x,-y,z
1/2+x,1/2+y,z
1/2-x,1/2+y,-z
1/2-x,1/2-y,-z
1/2+x,1/2-y,z
loop_
_atom_site_type_symbol
_atom_site_label
_atom_site_fract_x
_atom_site_fract_y
_atom_site_fract_z
Si Si1 0.451073 0.069164 0.164511
Si Si2 0.184360 0.930366 0.346250
Si Si3 0.912460 0.225407 0.666189
Si Si4 0.447996 0.569026 0.327546
Si Si5 0.485604 0.150979 0.654882
Si Si6 0.952131 0.176286 0.167050
Si Si7 0.194745 0.276531 0.655664
O O1 0.315912 0.083758 0.246194
O O2 0.524543 0.099462 0.238508
O O3 0.461259 0.000000 0.169743
O O4 0.500000 0.087268 0.000000
O O5 0.137025 0.912956 0.511939
O O6 0.078061 0.919028 0.306111
O O7 0.185529 0.000000 0.351757
O O8 0.097277 0.317133 0.652657
O O9 0.796151 0.196343 0.683676
O O10 0.000000 0.219371 0.500000
O O11 0.960049 0.198411 0.770275
O O12 0.437556 0.500000 0.309915
O O13 0.420240 0.611432 0.225160
O O14 0.500000 0.131036 0.500000
O O15 0.399384 0.205322 0.693710
O O16 0.855809 0.224439 0.234566
O O17 0.000000 0.177459 0.000000
O O18 0.250000 0.250000 0.500000
#
# Coordination Sequence:
#
# PCOD9206647 Si02
#       7
#     8   8   8   8   8   8   8
#     4  10  22  39  60  88 124 161 200 246 299 358
#     4   8  17  34  58  86 110 151 205 242 279 354
#     4  10  21  39  63  88 113 161 205 242 299 356
#     4   9  19  35  60  89 119 152 197 249 297 357
#     4  10  21  36  60  91 119 150 203 249 299 355
#     4  11  25  38  57  94 125 152 199 247 302 362
#     4  11  21  40  65  85 115 161 199 250 294 361
#
# _framework density 19.736720999999999
#
# number of rings (size 3 to 8) (size 9 to 14) (size 15 to 20)
#    0.000    2.143    4.286    0.857    6.000    3.429 
#    2.571    0.000    0.000    0.857    0.000    0.000 
#    0.000    0.000    0.000    0.000    0.000    0.000 
#
# Total GULP energy -156079.707704 kJ/mol
# GULP energy per Si atom -5574.275275 kJ/mol
# Density = 1.969180 g / cm^3
# Si number density = 19.736721 Si / 1000 Ang^3
#
#
#
# Elastic Constant Matrix: (Units=GPa)
#
#
# Indices 1 2 3 4 5 6 
#
# 1 91.9820 15.6329 38.4392 0.0000 1.8631 0.0000
# 2 15.6329 78.9399 61.7102 0.0000 8.9624 0.0000
# 3 38.4392 61.7102 138.5489 0.0000 9.1346 0.0000
# 4 0.0000 0.0000 0.0000 28.0684 0.0000 5.4698
# 5 1.8631 8.9624 9.1346 0.0000 27.8694 0.0000
# 6 0.0000 0.0000 0.0000 5.4698 0.0000 19.7189
#
#
#
# Elastic Compliance Matrix: (Units=1/GPa)
#
#
# Indices 1 2 3 4 5 6 
#
# 1 0.012306 0.000333 -0.003578 0.000000 0.000243 0.000000
# 2 0.000333 0.019781 -0.008669 0.000000 -0.003542 0.000000
# 3 -0.003578 -0.008669 0.012135 0.000000 -0.000950 0.000000
# 4 0.000000 0.000000 0.000000 0.037663 0.000000 -0.010447
# 5 0.000243 -0.003542 -0.000950 0.000000 0.037316 0.000000
# 6 0.000000 0.000000 0.000000 -0.010447 0.000000 0.053611
#
#
# Mechanical properties :
#
#
# Convention : Reuss Voigt Hill
#
# Bulk Modulus (GPa) = 49.04038 60.11505 54.57771
# Shear Modulus (GPa) = 24.57745 28.04392 26.31068
#
# Velocity S-wave (km/s) = 3.53266 3.77357 3.65510
# Velocity P-wave (km/s) = 6.44522 7.03641 6.74729
#
# Compressibility (1/GPa) = 0.02039136
#
# Stress axis : x y z
#
# Youngs Moduli (GPa) = 81.26387 50.55258 82.40965
#
# Poissons Ratio (x) = -0.01682 0.29489
# Poissons Ratio (y) = -0.02704 0.71445
# Poissons Ratio (z) = 0.29079 0.43826
#
# Static dielectric constant tensor:
#      x y z
#    x 1.725920 0.000000 -0.021440 
#    y 0.000000 1.768700 0.000000 
#    z -0.021440 0.000000 1.652250 
# 
# From -- ./inp_files/54611.got.cif
#   From: 2010.05.17/outbox.cif.g08.bks.cpg/sg12_28_cif.got.tgz:54611.got - 2010.06.03 13:09:07.
