data_PCOD9206023
_publ_section_title
;
Structure prediction by ZEFSAII (Michael W. Deem and Ramdas Pophale) SiO2 
 PCOD9206023
Probable space group: C 2/M
;
_chemical_formula_sum "Si O2"
_cell_formula_units_Z 56
_cell_length_a 13.784607
_cell_length_b 15.511920
_cell_length_c 27.998933
_cell_angle_alpha 90.000000
_cell_angle_beta 22.901545
_cell_angle_gamma 90.000000
_cell_volume 2329.791792
_symmetry_space_group_name_H-M "C 2/M"
_symmetry_group_IT_number 12
_symmetry_cell_setting 'monoclinic'
loop_
_space_group_symop_operation_xyz
x,y,z
-x,y,-z
-x,-y,-z
x,-y,z
1/2+x,1/2+y,z
1/2-x,1/2+y,-z
1/2-x,1/2-y,-z
1/2+x,1/2-y,z
loop_
_atom_site_type_symbol
_atom_site_label
_atom_site_fract_x
_atom_site_fract_y
_atom_site_fract_z
Si Si1 0.935247 0.784358 0.580406
Si Si2 0.257562 0.095039 0.785566
Si Si3 0.045157 0.404340 0.409836
Si Si4 0.232353 0.656722 0.032238
Si Si5 0.915475 0.906580 0.784004
Si Si6 0.160669 0.097482 0.291534
Si Si7 0.845380 0.720571 0.832396
O O1 0.056027 0.689143 0.528370
O O2 0.976813 0.840514 0.608693
O O3 0.636575 0.775920 0.714182
O O4 0.000000 0.825402 0.500000
O O5 0.404852 0.103186 0.669400
O O6 0.319971 0.170903 0.794078
O O7 0.308600 0.000000 0.783226
O O8 0.962452 0.102118 0.908038
O O9 0.930075 0.500000 0.471044
O O10 0.314868 0.408043 0.313343
O O11 0.278944 0.670112 0.067602
O O12 0.954913 0.620115 0.152732
O O13 0.250000 0.750000 0.000000
O O14 0.945079 0.897951 0.713648
O O15 0.771849 0.820550 0.864187
O O16 0.796733 0.000000 0.847491
O O17 0.142157 0.000000 0.318153
#
# Coordination Sequence:
#
# PCOD9206023 Si02
#       7
#     8   8   8   8   8   8   8
#     4  10  21  38  60  83 110 146 186 233 286 336
#     4  11  22  37  58  83 115 152 186 226 280 337
#     4   9  19  37  59  83 112 144 184 234 283 335
#     4  11  21  35  57  83 114 150 187 228 277 332
#     4   9  17  34  57  77 105 146 184 225 278 326
#     4  10  21  36  55  81 114 149 187 230 273 327
#     4  10  21  36  56  82 113 145 184 233 276 330
#
# _framework density 24.036483
#
# number of rings (size 3 to 8) (size 9 to 14) (size 15 to 20)
#    0.000    2.000    0.000    5.143    0.000    4.000 
#    0.000    9.286    0.000   17.143    0.000    0.000 
#    0.000    0.000    0.000    0.000    0.000    0.000 
#
# Total GULP energy -156588.010762 kJ/mol
# GULP energy per Si atom -5592.428956 kJ/mol
# Density = 2.398177 g / cm^3
# Si number density = 24.036483 Si / 1000 Ang^3
#
#
#
# Elastic Constant Matrix: (Units=GPa)
#
#
# Indices 1 2 3 4 5 6 
#
# 1 96.8710 19.0981 12.4409 0.4406 -2.9699 0.3658
# 2 19.0981 107.2047 3.1795 0.2054 -21.5306 0.1687
# 3 12.4409 3.1795 50.5482 0.3574 -8.7384 0.3045
# 4 0.4406 0.2054 0.3574 44.4968 -0.1293 38.2498
# 5 -2.9699 -21.5306 -8.7384 -0.1293 18.9145 -0.1131
# 6 0.3658 0.1687 0.3045 38.2498 -0.1131 71.6478
#
#
#
# Elastic Compliance Matrix: (Units=1/GPa)
#
#
# Indices 1 2 3 4 5 6 
#
# 1 0.011100 -0.002354 -0.002983 -0.000084 -0.002315 0.000003
# 2 -0.002354 0.012737 0.002414 -0.000013 0.015245 0.000003
# 3 -0.002983 0.002414 0.022562 -0.000127 0.012702 0.000002
# 4 -0.000084 -0.000013 -0.000127 0.041536 0.000065 -0.022173
# 5 -0.002315 0.015245 0.012702 0.000065 0.075728 0.000007
# 6 0.000003 0.000003 0.000002 -0.022173 0.000007 0.025794
#
#
# Mechanical properties :
#
#
# Convention : Reuss Voigt Hill
#
# Bulk Modulus (GPa) = 24.65973 36.00675 30.33324
# Shear Modulus (GPa) = 23.94385 41.67217 32.80801
#
# Velocity S-wave (km/s) = 3.15960 4.16830 3.69850
# Velocity P-wave (km/s) = 4.85720 6.17890 5.55748
#
# Compressibility (1/GPa) = 0.04055194
#
# Stress axis : x y z
#
# Youngs Moduli (GPa) = 90.09340 78.50926 44.32182
#
# Poissons Ratio (x) = 0.18479 0.13223
# Poissons Ratio (y) = 0.21205 -0.10697
# Poissons Ratio (z) = 0.26879 -0.18949
#
# Static dielectric constant tensor:
#      x y z
#    x 1.914730 0.000010 -0.038090 
#    y 0.000010 1.938790 0.000010 
#    z -0.038090 0.000010 1.937620 
# 
# From -- ./inp_files/246586.got.cif
#   From: 2010.05.17/outbox.cif.g08.bks.cpg/sg12_124_cif.got.tgz:246586.got - 2010.06.03 13:09:07.
