data_PCOD9206741
_publ_section_title
;
Structure prediction by ZEFSAII (Michael W. Deem and Ramdas Pophale) SiO2 
 PCOD9206741
Probable space group: C 2/M
;
_chemical_formula_sum "Si O2"
_cell_formula_units_Z 48
_cell_length_a 27.738272
_cell_length_b 14.229713
_cell_length_c 9.006862
_cell_angle_alpha 90.000000
_cell_angle_beta 139.841242
_cell_angle_gamma 90.000000
_cell_volume 2292.696864
_symmetry_space_group_name_H-M "C 2/M"
_symmetry_group_IT_number 12
_symmetry_cell_setting 'monoclinic'
loop_
_space_group_symop_operation_xyz
x,y,z
-x,y,-z
-x,-y,-z
x,-y,z
1/2+x,1/2+y,z
1/2-x,1/2+y,-z
1/2-x,1/2-y,-z
1/2+x,1/2-y,z
loop_
_atom_site_type_symbol
_atom_site_label
_atom_site_fract_x
_atom_site_fract_y
_atom_site_fract_z
Si Si1 0.753994 0.892060 0.592935
Si Si2 0.833532 0.257192 0.394457
Si Si3 0.088275 0.302551 0.706890
Si Si4 0.096839 0.894555 0.872225
Si Si5 0.953815 0.897295 0.739914
Si Si6 0.219495 0.391288 0.164242
O O1 0.703060 0.822332 0.567225
O O2 0.743384 0.878383 0.392419
O O3 0.733205 0.000000 0.575695
O O4 0.839212 0.881049 0.851538
O O5 0.871414 0.318595 0.355127
O O6 0.897832 0.188376 0.604888
O O7 0.769423 0.183702 0.192035
O O8 0.101336 0.191839 0.771440
O O9 0.000000 0.321180 0.500000
O O10 0.133917 0.361475 0.935969
O O11 0.015543 0.890526 0.756213
O O12 0.106968 0.000000 0.832994
O O13 0.915587 0.000000 0.639568
O O14 0.000000 0.896309 0.000000
O O15 0.230443 0.500000 0.148998
#
# Coordination Sequence:
#
# PCOD9206741 Si02
#       6
#     8   8   8   8   8   8
#     4  10  23  43  69  96 122 161 212 265 319 367
#     4  12  23  39  67  95 129 164 209 260 313 376
#     4  12  26  43  61  93 130 173 213 247 316 375
#     4  10  21  40  64  91 130 164 202 261 318 376
#     4  10  21  36  61  97 129 164 207 259 321 375
#     4  11  25  44  66  94 126 164 213 264 312 372
#
# _framework density 20.936043000000002
#
# number of rings (size 3 to 8) (size 9 to 14) (size 15 to 20)
#    0.000    1.167    3.333    2.500    2.333    5.333 
#    0.000    0.000    0.000    2.500    0.000    0.000 
#    0.000    0.000    0.000    0.000    0.000    0.000 
#
# Total GULP energy -134225.868092 kJ/mol
# GULP energy per Si atom -5592.744504 kJ/mol
# Density = 2.088839 g / cm^3
# Si number density = 20.936043 Si / 1000 Ang^3
#
#
#
# Elastic Constant Matrix: (Units=GPa)
#
#
# Indices 1 2 3 4 5 6 
#
# 1 59.3700 38.0676 16.4359 0.0000 18.0044 0.0000
# 2 38.0676 86.7671 30.5435 0.0000 11.7230 0.0000
# 3 16.4359 30.5435 109.5936 0.0000 26.5391 0.0000
# 4 0.0000 0.0000 0.0000 30.3410 0.0000 3.2307
# 5 18.0044 11.7230 26.5391 0.0000 27.0211 0.0000
# 6 0.0000 0.0000 0.0000 3.2307 0.0000 14.2702
#
#
#
# Elastic Compliance Matrix: (Units=1/GPa)
#
#
# Indices 1 2 3 4 5 6 
#
# 1 0.028332 -0.011187 0.002972 0.000000 -0.016943 0.000000
# 2 -0.011187 0.017346 -0.004119 0.000000 0.003974 0.000000
# 3 0.002972 -0.004119 0.012955 0.000000 -0.012917 0.000000
# 4 0.000000 0.000000 0.000000 0.033773 0.000000 -0.007646
# 5 -0.016943 0.003974 -0.012917 0.000000 0.059260 0.000000
# 6 0.000000 0.000000 0.000000 -0.007646 0.000000 0.071807
#
#
# Mechanical properties :
#
#
# Convention : Reuss Voigt Hill
#
# Bulk Modulus (GPa) = 29.44248 47.31384 38.37816
# Shear Modulus (GPa) = 19.27055 25.70537 22.48796
#
# Velocity S-wave (km/s) = 3.03718 3.50781 3.28094
# Velocity P-wave (km/s) = 5.13740 6.24936 5.72046
#
# Compressibility (1/GPa) = 0.03396454
#
# Stress axis : x y z
#
# Youngs Moduli (GPa) = 35.29567 57.64919 77.19148
#
# Poissons Ratio (x) = 0.64493 -0.22940
# Poissons Ratio (y) = 0.39486 0.31795
# Poissons Ratio (z) = -0.10489 0.23745
#
# Static dielectric constant tensor:
#      x y z
#    x 1.759100 0.000000 -0.008330 
#    y 0.000000 1.749460 0.000000 
#    z -0.008330 0.000000 1.776290 
# 
# From -- ./inp_files/105032.got.cif
#   From: 2010.05.17/outbox.cif.g08.bks.cpg/sg12_53_cif.got.tgz:105032.got - 2010.06.03 13:09:07.
