data_PCOD9206197
_publ_section_title
;
Structure prediction by ZEFSAII (Michael W. Deem and Ramdas Pophale) SiO2 
 PCOD9206197
Probable space group: C 2/M
;
_chemical_formula_sum "Si O2"
_cell_formula_units_Z 56
_cell_length_a 9.990596
_cell_length_b 23.087817
_cell_length_c 14.410907
_cell_angle_alpha 90.000000
_cell_angle_beta 60.229913
_cell_angle_gamma 90.000000
_cell_volume 2885.344776
_symmetry_space_group_name_H-M "C 2/M"
_symmetry_group_IT_number 12
_symmetry_cell_setting 'monoclinic'
loop_
_space_group_symop_operation_xyz
x,y,z
-x,y,-z
-x,-y,-z
x,-y,z
1/2+x,1/2+y,z
1/2-x,1/2+y,-z
1/2-x,1/2-y,-z
1/2+x,1/2-y,z
loop_
_atom_site_type_symbol
_atom_site_label
_atom_site_fract_x
_atom_site_fract_y
_atom_site_fract_z
Si Si1 0.352349 0.435543 0.984394
Si Si2 0.784617 0.354281 0.245334
Si Si3 0.842951 0.224135 0.878688
Si Si4 0.968258 0.064593 0.732266
Si Si5 0.661604 0.341913 0.744171
Si Si6 0.632382 0.855711 0.160172
Si Si7 0.180939 0.240920 0.423017
O O1 0.285024 0.500000 0.028018
O O2 0.409755 0.436556 0.859375
O O3 0.500000 0.428381 0.000000
O O4 0.236430 0.382557 0.041895
O O5 0.753908 0.314304 0.162610
O O6 0.671274 0.408435 0.276709
O O7 0.738010 0.315531 0.348946
O O8 0.959445 0.374444 0.198209
O O9 0.883272 0.286434 0.820953
O O10 0.005544 0.189918 0.839160
O O11 0.750000 0.250000 0.000000
O O12 0.103026 0.111640 0.689726
O O13 0.011864 0.000000 0.689762
O O14 0.766645 0.373014 0.785082
O O15 0.761953 0.293770 0.659631
O O16 0.250000 0.250000 0.500000
O O17 0.000000 0.238858 0.500000
#
# Coordination Sequence:
#
# PCOD9206197 Si02
#       7
#     8   8   8   8   8   8   8
#     4  10  21  36  56  86 118 174 225 246 288 362
#     4  11  24  40  58  97 127 159 217 255 322 389
#     4  11  22  35  55  84 134 173 192 244 312 381
#     4  10  22  41  62  85 131 174 214 254 300 374
#     4  11  22  39  60  94 122 163 217 249 318 389
#     4  12  20  34  57  82 127 156 205 265 295 354
#     4  12  23  42  68  89 123 159 203 275 330 381
#
# _framework density 19.408425999999999
#
# number of rings (size 3 to 8) (size 9 to 14) (size 15 to 20)
#    0.000    1.000    4.286    4.286    0.000    4.000 
#    0.000    1.429    0.000    4.286    0.000    0.000 
#    0.000    0.000    0.000    0.000    0.000    0.000 
#
# Total GULP energy -156195.557233 kJ/mol
# GULP energy per Si atom -5578.412758 kJ/mol
# Density = 1.936425 g / cm^3
# Si number density = 19.408426 Si / 1000 Ang^3
#
#
#
# Elastic Constant Matrix: (Units=GPa)
#
#
# Indices 1 2 3 4 5 6 
#
# 1 92.3039 -14.8643 10.8176 0.0000 -0.4200 0.0000
# 2 -14.8643 71.6682 -12.8057 0.0000 -6.7125 0.0000
# 3 10.8176 -12.8057 64.6069 0.0000 2.0631 0.0000
# 4 0.0000 0.0000 0.0000 13.7879 0.0000 -0.3068
# 5 -0.4200 -6.7125 2.0631 0.0000 30.8651 0.0000
# 6 0.0000 0.0000 0.0000 -0.3068 0.0000 17.7561
#
#
#
# Elastic Compliance Matrix: (Units=1/GPa)
#
#
# Indices 1 2 3 4 5 6 
#
# 1 0.011360 0.002156 -0.001498 0.000000 0.000724 0.000000
# 2 0.002156 0.015150 0.002541 0.000000 0.003154 0.000000
# 3 -0.001498 0.002541 0.016250 0.000000 -0.000554 0.000000
# 4 0.000000 0.000000 0.000000 0.072555 0.000000 0.001254
# 5 0.000724 0.003154 -0.000554 0.000000 0.033132 0.000000
# 6 0.000000 0.000000 0.000000 0.001254 0.000000 0.056340
#
#
# Mechanical properties :
#
#
# Convention : Reuss Voigt Hill
#
# Bulk Modulus (GPa) = 20.34208 21.65268 20.99738
# Shear Modulus (GPa) = 23.28017 28.84390 26.06204
#
# Velocity S-wave (km/s) = 3.46712 3.85925 3.66843
# Velocity P-wave (km/s) = 5.15089 5.57126 5.36520
#
# Compressibility (1/GPa) = 0.04915919
#
# Stress axis : x y z
#
# Youngs Moduli (GPa) = 88.02943 66.00708 61.53709
#
# Poissons Ratio (x) = -0.14233 0.09217
# Poissons Ratio (y) = -0.18981 -0.15637
# Poissons Ratio (z) = 0.13185 -0.16773
#
# Static dielectric constant tensor:
#      x y z
#    x 1.785120 0.000000 0.089710 
#    y 0.000000 1.729630 0.000000 
#    z 0.089710 0.000000 1.754300 
# 
# From -- ./inp_files/198773.got.cif
#   From: 2010.05.17/outbox.cif.g08.bks.cpg/sg12_100_cif.got.tgz:198773.got - 2010.06.03 13:09:07.
