data_PCOD9206927
_publ_section_title
;
Structure prediction by ZEFSAII (Michael W. Deem and Ramdas Pophale) SiO2 
 PCOD9206927
Probable space group: C 2/M
;
_chemical_formula_sum "Si O2"
_cell_formula_units_Z 56
_cell_length_a 12.234982
_cell_length_b 13.005493
_cell_length_c 25.501693
_cell_angle_alpha 90.000000
_cell_angle_beta 37.176867
_cell_angle_gamma 90.000000
_cell_volume 2452.085274
_symmetry_space_group_name_H-M "C 2/M"
_symmetry_group_IT_number 12
_symmetry_cell_setting 'monoclinic'
loop_
_space_group_symop_operation_xyz
x,y,z
-x,y,-z
-x,-y,-z
x,-y,z
1/2+x,1/2+y,z
1/2-x,1/2+y,-z
1/2-x,1/2-y,-z
1/2+x,1/2-y,z
loop_
_atom_site_type_symbol
_atom_site_label
_atom_site_fract_x
_atom_site_fract_y
_atom_site_fract_z
Si Si1 0.674707 0.381678 0.399928
Si Si2 0.988934 0.382171 0.650408
Si Si3 0.964925 0.376477 0.927116
Si Si4 0.214175 0.124221 0.111174
Si Si5 0.974821 0.117769 0.290346
Si Si6 0.161613 0.616076 0.478813
Si Si7 0.269596 0.200836 0.250511
O O1 0.500000 0.342594 0.500000
O O2 0.626547 0.500000 0.403943
O O3 0.726383 0.323814 0.327041
O O4 0.855131 0.386225 0.365958
O O5 0.930484 0.500000 0.661607
O O6 0.818391 0.311431 0.729094
O O7 0.085274 0.338327 0.561220
O O8 0.957325 0.500000 0.921151
O O9 0.121405 0.356187 0.910933
O O10 0.032138 0.320802 0.848818
O O11 0.781659 0.344876 0.027800
O O12 0.037382 0.162534 0.210481
O O13 0.195723 0.000000 0.116130
O O14 0.818616 0.167671 0.384953
O O15 0.145728 0.122399 0.263478
O O16 0.917764 0.000000 0.302400
O O17 0.225792 0.500000 0.469508
O O18 0.000000 0.605979 0.500000
#
# Coordination Sequence:
#
# PCOD9206927 Si02
#       7
#     8   8   8   8   8   8   8
#     4  10  21  37  55  77 109 145 182 229 279 325
#     4  10  23  39  51  72 111 153 188 224 268 317
#     4   8  13  24  45  77 109 132 163 216 279 329
#     4   7  11  21  40  71 111 138 154 205 286 337
#     4   9  16  27  47  80 113 136 170 225 280 325
#     4   9  18  33  51  71 103 147 185 216 258 316
#     4  11  20  31  53  78 102 142 187 222 265 324
#
# _framework density 22.837705
#
# number of rings (size 3 to 8) (size 9 to 14) (size 15 to 20)
#    0.000    2.857    0.000    3.857    0.000    6.286 
#    0.000    0.000    0.000    1.714    0.000   33.000 
#    0.000   18.286    0.000    2.000    0.000    0.571 
#
# Total GULP energy -156263.280857 kJ/mol
# GULP energy per Si atom -5580.831459 kJ/mol
# Density = 2.278573 g / cm^3
# Si number density = 22.837705 Si / 1000 Ang^3
#
#
#
# Elastic Constant Matrix: (Units=GPa)
#
#
# Indices 1 2 3 4 5 6 
#
# 1 57.7729 4.6831 26.6699 0.0000 21.5502 0.0000
# 2 4.6831 93.7053 48.5840 0.0000 7.8677 0.0000
# 3 26.6699 48.5840 199.5897 0.0001 31.8042 0.0000
# 4 0.0000 0.0000 0.0001 -5.2303 0.0000 -1.3006
# 5 21.5502 7.8677 31.8042 0.0000 34.6188 0.0000
# 6 0.0000 0.0000 0.0000 -1.3006 0.0000 19.7819
#
#
#
# Elastic Compliance Matrix: (Units=1/GPa)
#
#
# Indices 1 2 3 4 5 6 
#
# 1 0.022708 0.000522 -0.001043 0.000000 -0.013296 0.000000
# 2 0.000522 0.012225 -0.002989 0.000000 -0.000358 0.000000
# 3 -0.001043 -0.002989 0.006637 0.000000 -0.004769 0.000000
# 4 0.000000 0.000000 0.000000 -0.188117 0.000000 -0.012369
# 5 -0.013296 -0.000358 -0.004769 0.000000 0.041626 0.000000
# 6 0.000000 0.000000 0.000000 -0.012369 0.000000 0.049738
#
#
# Mechanical properties :
#
#
# Convention : Reuss Voigt Hill
#
# Bulk Modulus (GPa) = 28.94195 56.77133 42.85664
# Shear Modulus (GPa) = -136.43486 27.90946 -54.26270
#
# Velocity S-wave (km/s) = -7.73762 3.49962 -4.87973
# Velocity P-wave (km/s) = 8.19312 6.42202 3.59757
#
# Compressibility (1/GPa) = 0.03455192
#
# Stress axis : x y z
#
# Youngs Moduli (GPa) = 44.03744 81.79805 150.66941
#
# Poissons Ratio (x) = -0.04271 0.15710
# Poissons Ratio (y) = -0.02299 0.45029
# Poissons Ratio (z) = 0.04592 0.24446
#
# Static dielectric constant tensor:
#      x y z
#    x 1.842510 0.000000 -0.026080 
#    y 0.000000 1.879430 0.000000 
#    z -0.026080 0.000000 1.944360 
# 
# From -- ./inp_files/361407.got.cif
#   From: 2010.05.17/outbox.cif.g08.bks.cpg/sg12_181_cif.got.tgz:361407.got - 2010.06.03 13:09:07.
