data_PCOD9206904
_publ_section_title
;
Structure prediction by ZEFSAII (Michael W. Deem and Ramdas Pophale) SiO2 
 PCOD9206904
Probable space group: C 2/M
;
_chemical_formula_sum "Si O2"
_cell_formula_units_Z 32
_cell_length_a 14.267763
_cell_length_b 14.916532
_cell_length_c 6.970538
_cell_angle_alpha 90.000000
_cell_angle_beta 78.986300
_cell_angle_gamma 90.000000
_cell_volume 1456.184581
_symmetry_space_group_name_H-M "C 2/M"
_symmetry_group_IT_number 12
_symmetry_cell_setting 'monoclinic'
loop_
_space_group_symop_operation_xyz
x,y,z
-x,y,-z
-x,-y,-z
x,-y,z
1/2+x,1/2+y,z
1/2-x,1/2+y,-z
1/2-x,1/2-y,-z
1/2+x,1/2-y,z
loop_
_atom_site_type_symbol
_atom_site_label
_atom_site_fract_x
_atom_site_fract_y
_atom_site_fract_z
Si Si1 0.156805 0.277390 0.654592
Si Si2 0.792108 0.605023 0.998914
Si Si3 0.984622 0.395382 0.773551
Si Si4 0.902683 0.902008 0.156191
O O1 0.250000 0.250000 0.500000
O O2 0.196907 0.326792 0.830400
O O3 0.069319 0.343549 0.634220
O O4 0.103389 0.183601 0.709095
O O5 0.810629 0.500000 0.049185
O O6 0.687725 0.607201 0.949665
O O7 0.872479 0.629098 0.808026
O O8 0.994405 0.500000 0.727121
O O9 0.000000 0.382511 0.000000
O O10 0.894975 0.000000 0.255022
O O11 0.000000 0.899450 0.000000
#
# Coordination Sequence:
#
# PCOD9206904 Si02
#       4
#     8   8   8   8
#     4  11  21  32  52  82 112 137 165 219 279 322
#     4   9  18  36  60  78  98 138 186 224 259 307
#     4   8  15  31  55  77  97 129 176 220 257 305
#     4  10  21  37  55  75 104 145 187 218 250 310
#
# _framework density 21.975238000000001
#
# number of rings (size 3 to 8) (size 9 to 14) (size 15 to 20)
#    0.000    2.500    0.000    5.250    0.000    2.000 
#    0.000    5.000    0.000    9.000    0.000    0.000 
#    0.000    0.000    0.000    0.000    0.000    0.000 
#
# Total GULP energy -89258.906979 kJ/mol
# GULP energy per Si atom -5578.681686 kJ/mol
# Density = 2.192522 g / cm^3
# Si number density = 21.975238 Si / 1000 Ang^3
#
#
#
# Elastic Constant Matrix: (Units=GPa)
#
#
# Indices 1 2 3 4 5 6 
#
# 1 142.2552 34.0434 44.5107 0.0000 -54.7050 0.0000
# 2 34.0434 138.8734 58.3541 0.0000 -39.3789 0.0000
# 3 44.5107 58.3541 115.1720 0.0000 -46.2597 0.0000
# 4 0.0000 0.0000 0.0000 4.3606 0.0000 -31.8735
# 5 -54.7050 -39.3789 -46.2597 0.0000 41.1135 0.0000
# 6 0.0000 0.0000 0.0000 -31.8735 0.0000 25.6909
#
#
#
# Elastic Compliance Matrix: (Units=1/GPa)
#
#
# Indices 1 2 3 4 5 6 
#
# 1 0.015949 0.002369 0.003779 0.000000 0.027741 0.000000
# 2 0.002369 0.010553 -0.001709 0.000000 0.011337 0.000000
# 3 0.003779 -0.001709 0.017243 0.000000 0.022792 0.000000
# 4 0.000000 0.000000 0.000000 -0.028423 0.000000 -0.035263
# 5 0.027741 0.011337 0.022792 0.000000 0.097739 0.000000
# 6 0.000000 0.000000 0.000000 -0.035263 0.000000 -0.004824
#
#
# Mechanical properties :
#
#
# Convention : Reuss Voigt Hill
#
# Bulk Modulus (GPa) = 19.00347 74.45745 46.73046
# Shear Modulus (GPa) = 42.77189 31.52584 37.14887
#
# Velocity S-wave (km/s) = 4.41655 3.79173 4.11601
# Velocity P-wave (km/s) = 5.88849 7.28873 6.62571
#
# Compressibility (1/GPa) = 0.05262197
#
# Stress axis : x y z
#
# Youngs Moduli (GPa) = 62.70175 94.76137 57.99554
#
# Poissons Ratio (x) = -0.22449 -0.21914
# Poissons Ratio (y) = -0.14854 0.09909
# Poissons Ratio (z) = -0.23693 0.16192
#
# Static dielectric constant tensor:
#      x y z
#    x 1.844340 0.000000 0.044560 
#    y 0.000000 1.829080 0.000000 
#    z 0.044560 0.000000 1.839620 
# 
# From -- ./inp_files/58216.got.cif
#   From: 2010.05.17/outbox.cif.g08.bks.cpg/sg12_30_cif.got.tgz:58216.got - 2010.06.03 13:09:07.
