data_PCOD9206476
_publ_section_title
;
Structure prediction by ZEFSAII (Michael W. Deem and Ramdas Pophale) SiO2 
 PCOD9206476
Probable space group: C 2/M
;
_chemical_formula_sum "Si O2"
_cell_formula_units_Z 64
_cell_length_a 29.001201
_cell_length_b 8.584014
_cell_length_c 25.381866
_cell_angle_alpha 90.000000
_cell_angle_beta 149.698364
_cell_angle_gamma 90.000000
_cell_volume 3188.130703
_symmetry_space_group_name_H-M "C 2/M"
_symmetry_group_IT_number 12
_symmetry_cell_setting 'monoclinic'
loop_
_space_group_symop_operation_xyz
x,y,z
-x,y,-z
-x,-y,-z
x,-y,z
1/2+x,1/2+y,z
1/2-x,1/2+y,-z
1/2-x,1/2-y,-z
1/2+x,1/2-y,z
loop_
_atom_site_type_symbol
_atom_site_label
_atom_site_fract_x
_atom_site_fract_y
_atom_site_fract_z
Si Si1 0.085886 0.817635 0.954740
Si Si2 0.598723 0.182981 0.246111
Si Si3 0.248372 0.686644 0.313935
Si Si4 0.603259 0.311651 0.087053
Si Si5 0.851829 0.814140 0.597290
Si Si6 0.487173 0.686254 0.318695
Si Si7 0.957712 0.190712 0.514074
Si Si8 0.148000 0.684423 0.904295
O O1 0.113123 0.733036 0.927964
O O2 0.977945 0.788062 0.856269
O O3 0.104249 0.000000 0.965676
O O4 0.127986 0.762870 0.051554
O O5 0.697771 0.217457 0.319441
O O6 0.596779 0.226704 0.305022
O O7 0.579191 0.000000 0.218817
O O8 0.251104 0.500000 0.310306
O O9 0.179825 0.752902 0.202565
O O10 0.352173 0.743107 0.413568
O O11 0.601316 0.500000 0.085899
O O12 0.500000 0.257475 0.000000
O O13 0.750000 0.750000 0.500000
O O14 0.910371 0.785568 0.602624
O O15 0.851562 0.000000 0.606042
O O16 0.473033 0.500000 0.304396
O O17 0.486931 0.741301 0.379037
O O18 0.415825 0.754325 0.206301
O O19 0.000000 0.238888 0.500000
O O20 0.957694 0.000000 0.515284
O O21 0.149530 0.500000 0.902522
O O22 0.250000 0.750000 0.000000
#
# Coordination Sequence:
#
# PCOD9206476 Si02
#       8
#     8   8   8   8   8   8   8   8
#     4  11  22  39  61  87 122 163 207 252 309 371
#     4  11  21  34  55  85 121 157 200 254 312 372
#     4  10  21  36  58  90 124 159 209 263 308 366
#     4  10  21  37  58  86 124 167 207 252 313 379
#     4  11  22  35  56  85 122 162 204 254 312 374
#     4  10  21  40  64  90 124 162 203 256 310 362
#     4   9  19  38  63  89 119 159 204 253 305 360
#     4  12  26  44  67  94 126 163 209 258 311 372
#
# _framework density 20.074459999999998
#
# number of rings (size 3 to 8) (size 9 to 14) (size 15 to 20)
#    0.000    1.500    2.500    3.000    0.000    5.250 
#    0.000    1.875    0.000    0.750    0.000    0.000 
#    0.000    0.000    0.000    0.000    0.000    0.000 
#
# Total GULP energy -178664.859464 kJ/mol
# GULP energy per Si atom -5583.276858 kJ/mol
# Density = 2.002877 g / cm^3
# Si number density = 20.074460 Si / 1000 Ang^3
#
#
#
# Elastic Constant Matrix: (Units=GPa)
#
#
# Indices 1 2 3 4 5 6 
#
# 1 134.4583 38.4045 63.4005 0.0000 -16.5238 0.0000
# 2 38.4045 34.5213 25.7782 0.0000 -5.6191 0.0000
# 3 63.4005 25.7782 102.2498 0.0000 -11.5581 0.0000
# 4 0.0000 0.0000 0.0000 28.9339 0.0000 3.6374
# 5 -16.5238 -5.6191 -11.5581 0.0000 38.8898 0.0000
# 6 0.0000 0.0000 0.0000 3.6374 0.0000 20.3718
#
#
#
# Elastic Compliance Matrix: (Units=1/GPa)
#
#
# Indices 1 2 3 4 5 6 
#
# 1 0.013189 -0.010307 -0.005292 0.000000 0.002542 0.000000
# 2 -0.010307 0.043990 -0.004632 0.000000 0.000600 0.000000
# 3 -0.005292 -0.004632 0.014382 0.000000 0.001357 0.000000
# 4 0.000000 0.000000 0.000000 0.035355 0.000000 -0.006313
# 5 0.002542 0.000600 0.001357 0.000000 0.027284 0.000000
# 6 0.000000 0.000000 0.000000 -0.006313 0.000000 0.050215
#
#
# Mechanical properties :
#
#
# Convention : Reuss Voigt Hill
#
# Bulk Modulus (GPa) = 32.15409 58.48844 45.32126
# Shear Modulus (GPa) = 21.25461 27.21551 24.23506
#
# Velocity S-wave (km/s) = 3.25743 3.68602 3.47833
# Velocity P-wave (km/s) = 5.49545 6.87856 6.22554
#
# Compressibility (1/GPa) = 0.03110024
#
# Stress axis : x y z
#
# Youngs Moduli (GPa) = 75.82160 22.73222 69.52969
#
# Poissons Ratio (x) = 0.23430 0.36795
# Poissons Ratio (y) = 0.78149 0.32204
# Poissons Ratio (z) = 0.40125 0.10529
#
# Static dielectric constant tensor:
#      x y z
#    x 1.731850 0.000000 0.001720 
#    y 0.000000 1.681580 0.000000 
#    z 0.001720 0.000000 1.705730 
# 
# From -- ./inp_files/249068.got.cif
#   From: 2010.05.17/outbox.cif.g08.bks.cpg/sg12_125_cif.got.tgz:249068.got - 2010.06.03 13:09:07.
