data_PCOD9206485
_publ_section_title
;
Structure prediction by ZEFSAII (Michael W. Deem and Ramdas Pophale) SiO2 
 PCOD9206485
Probable space group: C 2/M
;
_chemical_formula_sum "Si O2"
_cell_formula_units_Z 64
_cell_length_a 14.184733
_cell_length_b 23.332187
_cell_length_c 17.096560
_cell_angle_alpha 90.000000
_cell_angle_beta 145.536949
_cell_angle_gamma 90.000000
_cell_volume 3201.883983
_symmetry_space_group_name_H-M "C 2/M"
_symmetry_group_IT_number 12
_symmetry_cell_setting 'monoclinic'
loop_
_space_group_symop_operation_xyz
x,y,z
-x,y,-z
-x,-y,-z
x,-y,z
1/2+x,1/2+y,z
1/2-x,1/2+y,-z
1/2-x,1/2-y,-z
1/2+x,1/2-y,z
loop_
_atom_site_type_symbol
_atom_site_label
_atom_site_fract_x
_atom_site_fract_y
_atom_site_fract_z
Si Si1 0.156908 0.933085 0.276330
Si Si2 0.806656 0.431918 0.209824
Si Si3 0.822973 0.275364 0.416771
Si Si4 0.320676 0.619804 0.030449
Si Si5 0.177979 0.138030 0.585877
Si Si6 0.840442 0.378028 0.538459
Si Si7 0.497020 0.138718 0.088949
Si Si8 0.995792 0.775795 0.088655
O O1 0.219285 0.917535 0.232185
O O2 0.295868 0.917664 0.434472
O O3 0.990244 0.900221 0.186820
O O4 0.122848 0.000000 0.252824
O O5 0.846671 0.500000 0.237860
O O6 0.969869 0.392646 0.310873
O O7 0.692646 0.417035 0.057932
O O8 0.825087 0.207026 0.429896
O O9 0.811956 0.313665 0.486882
O O10 0.669062 0.287696 0.252966
O O11 0.000000 0.291654 0.500000
O O12 0.352180 0.685924 0.029019
O O13 0.157410 0.611861 0.970342
O O14 0.226091 0.111201 0.535537
O O15 0.328465 0.126147 0.749014
O O16 0.000000 0.121394 0.500000
O O17 0.470532 0.207640 0.075078
O O18 0.500000 0.122442 0.000000
O O19 0.000000 0.791671 0.000000
#
# Coordination Sequence:
#
# PCOD9206485 Si02
#       8
#     8   8   8   8   8   8   8   8
#     4  11  24  40  62  93 123 153 196 248 304 361
#     4  11  24  42  64  89 121 155 198 252 304 357
#     4  10  21  36  58  91 126 160 197 241 293 356
#     4  12  22  39  63  90 121 163 200 241 299 358
#     4  10  23  41  61  89 123 160 202 247 292 347
#     4  12  22  39  63  90 121 163 200 241 299 358
#     4  10  23  41  61  89 123 160 202 247 292 347
#     4  10  21  36  58  91 126 160 197 241 293 356
#
# _framework density 19.988232
#
# number of rings (size 3 to 8) (size 9 to 14) (size 15 to 20)
#    0.000    1.250    2.500    3.750    3.500    2.000 
#    0.000    0.000    0.000    4.500    0.000    0.000 
#    0.000    0.000    0.000    0.000    0.000    0.000 
#
# Total GULP energy -178809.295285 kJ/mol
# GULP energy per Si atom -5587.790478 kJ/mol
# Density = 1.994274 g / cm^3
# Si number density = 19.988232 Si / 1000 Ang^3
#
#
#
# Elastic Constant Matrix: (Units=GPa)
#
#
# Indices 1 2 3 4 5 6 
#
# 1 124.2477 1.0501 24.9407 0.0000 4.2553 0.0000
# 2 1.0501 23.8706 -10.4245 0.0000 -1.4596 0.0000
# 3 24.9407 -10.4245 52.2614 0.0002 0.8143 0.0001
# 4 0.0000 0.0000 0.0002 13.4972 0.0001 0.5900
# 5 4.2553 -1.4596 0.8143 0.0001 32.0184 0.0001
# 6 0.0000 0.0000 0.0001 0.5900 0.0001 12.5365
#
#
#
# Elastic Compliance Matrix: (Units=1/GPa)
#
#
# Indices 1 2 3 4 5 6 
#
# 1 0.009081 -0.002582 -0.004830 0.000000 -0.001202 0.000000
# 2 -0.002582 0.046735 0.010520 0.000000 0.002206 0.000000
# 3 -0.004830 0.010520 0.023530 0.000000 0.000523 0.000000
# 4 0.000000 0.000000 0.000000 0.074242 0.000000 -0.003494
# 5 -0.001202 0.002206 0.000523 0.000000 0.031479 0.000000
# 6 0.000000 0.000000 0.000000 -0.003494 0.000000 0.079932
#
#
# Mechanical properties :
#
#
# Convention : Reuss Voigt Hill
#
# Bulk Modulus (GPa) = 11.68749 25.72359 18.70554
# Shear Modulus (GPa) = 17.40316 23.93131 20.66723
#
# Velocity S-wave (km/s) = 2.95391 3.46391 3.21903
# Velocity P-wave (km/s) = 4.18258 5.37546 4.81610
#
# Compressibility (1/GPa) = 0.08556160
#
# Stress axis : x y z
#
# Youngs Moduli (GPa) = 110.12035 21.39716 42.49912
#
# Poissons Ratio (x) = 0.05525 0.20527
# Poissons Ratio (y) = 0.28436 -0.44710
# Poissons Ratio (z) = 0.53189 -0.22510
#
# Static dielectric constant tensor:
#      x y z
#    x 1.679160 0.000000 -0.005380 
#    y 0.000000 1.711180 0.000000 
#    z -0.005380 0.000000 1.666670 
# 
# From -- ./inp_files/209407.got.cif
#   From: 2010.05.17/outbox.cif.g08.bks.cpg/sg12_105_cif.got.tgz:209407.got - 2010.06.03 13:09:07.
