data_PCOD9206857
_publ_section_title
;
Structure prediction by ZEFSAII (Michael W. Deem and Ramdas Pophale) SiO2 
 PCOD9206857
Probable space group: C 2/M
;
_chemical_formula_sum "Si O2"
_cell_formula_units_Z 64
_cell_length_a 19.321557
_cell_length_b 8.904617
_cell_length_c 36.708198
_cell_angle_alpha 90.000000
_cell_angle_beta 35.068524
_cell_angle_gamma 90.000000
_cell_volume 3628.712604
_symmetry_space_group_name_H-M "C 2/M"
_symmetry_group_IT_number 12
_symmetry_cell_setting 'monoclinic'
loop_
_space_group_symop_operation_xyz
x,y,z
-x,y,-z
-x,-y,-z
x,-y,z
1/2+x,1/2+y,z
1/2-x,1/2+y,-z
1/2-x,1/2-y,-z
1/2+x,1/2-y,z
loop_
_atom_site_type_symbol
_atom_site_label
_atom_site_fract_x
_atom_site_fract_y
_atom_site_fract_z
Si Si1 0.229056 0.678277 0.602825
Si Si2 0.771623 0.821325 0.735567
Si Si3 0.118071 0.181969 0.866428
Si Si4 0.939857 0.677539 0.467945
Si Si5 0.774611 0.321868 0.657115
Si Si6 0.854088 0.824930 0.065962
Si Si7 0.665325 0.318274 0.005610
Si Si8 0.966388 0.679660 0.374103
O O1 0.229492 0.500000 0.608092
O O2 0.355193 0.730061 0.530937
O O3 0.209982 0.760033 0.649286
O O4 0.126422 0.716711 0.617671
O O5 0.687541 0.752968 0.802947
O O6 0.737713 0.758313 0.710303
O O7 0.908154 0.765536 0.683529
O O8 0.766022 0.000000 0.738063
O O9 0.170328 0.236857 0.883147
O O10 0.975472 0.216982 0.926564
O O11 0.128657 0.000000 0.861020
O O12 0.920175 0.500000 0.483216
O O13 0.912281 0.711464 0.437450
O O14 0.082144 0.707351 0.410555
O O15 0.759980 0.500000 0.667338
O O16 0.817827 0.000000 0.082460
O O17 0.806435 0.763074 0.048002
O O18 0.000000 0.822841 0.000000
O O19 0.675782 0.500000 0.001229
O O20 0.750000 0.250000 0.000000
O O21 0.991273 0.500000 0.362785
#
# Coordination Sequence:
#
# PCOD9206857 Si02
#       8
#     8   8   8   8   8   8   8   8
#     4  11  21  32  51  79 105 130 166 213 261 308
#     4  11  22  36  55  77  99 129 175 221 256 300
#     4   9  17  33  56  75  97 136 176 206 245 299
#     4   9  18  33  52  73  99 135 172 205 253 315
#     4  10  21  37  54  72 101 139 173 209 258 313
#     4   7  12  26  49  74  97 127 169 202 226 274
#     4   9  17  30  51  80 110 137 165 202 249 296
#     4   9  20  37  53  72 102 136 168 207 258 311
#
# _framework density 17.63711
#
# number of rings (size 3 to 8) (size 9 to 14) (size 15 to 20)
#    0.000    2.625    0.000    4.875    0.000    5.500 
#    0.000    1.875    0.000    6.750    0.000    0.000 
#    0.000    0.000    0.000    0.000    0.000    0.000 
#
# Total GULP energy -178422.176715 kJ/mol
# GULP energy per Si atom -5575.693022 kJ/mol
# Density = 1.759697 g / cm^3
# Si number density = 17.637110 Si / 1000 Ang^3
#
#
#
# Elastic Constant Matrix: (Units=GPa)
#
#
# Indices 1 2 3 4 5 6 
#
# 1 114.8278 35.6261 43.8474 -0.0016 39.4203 0.0029
# 2 35.6261 32.8116 39.0179 0.0487 14.7087 -0.0153
# 3 43.8474 39.0179 96.1704 0.0090 32.5458 -0.0025
# 4 -0.0016 0.0487 0.0090 17.9556 0.0020 3.8818
# 5 39.4203 14.7087 32.5458 0.0020 24.3490 -0.0040
# 6 0.0029 -0.0153 -0.0025 3.8818 -0.0040 29.1270
#
#
#
# Elastic Compliance Matrix: (Units=1/GPa)
#
#
# Indices 1 2 3 4 5 6 
#
# 1 0.027758 -0.024872 0.013802 0.000075 -0.048364 -0.000031
# 2 -0.024872 0.081769 -0.034229 -0.000228 0.036625 0.000078
# 3 0.013802 -0.034229 0.033885 0.000090 -0.046960 -0.000035
# 4 0.000075 -0.000228 0.000090 0.057346 -0.000110 -0.007643
# 5 -0.048364 0.036625 -0.046960 -0.000110 0.160015 0.000056
# 6 -0.000031 0.000078 -0.000035 -0.007643 0.000056 0.035351
#
#
# Mechanical properties :
#
#
# Convention : Reuss Voigt Hill
#
# Bulk Modulus (GPa) = 18.93446 53.42140 36.17793
# Shear Modulus (GPa) = 9.91422 22.64087 16.27755
#
# Velocity S-wave (km/s) = 2.37348 3.58677 3.04125
# Velocity P-wave (km/s) = 4.27436 6.89262 5.73491
#
# Compressibility (1/GPa) = 0.05281377
#
# Stress axis : x y z
#
# Youngs Moduli (GPa) = 36.02520 12.22960 29.51161
#
# Poissons Ratio (x) = 0.30417 -0.40733
# Poissons Ratio (y) = 0.89602 1.01017
# Poissons Ratio (z) = -0.49723 0.41861
#
# Static dielectric constant tensor:
#      x y z
#    x 1.620410 0.000000 0.023410 
#    y 0.000000 1.588570 0.000000 
#    z 0.023410 0.000000 1.585600 
# 
# From -- ./inp_files/378037.got.cif
#   From: 2010.05.17/outbox.cif.g08.bks.cpg/sg12_190_cif.got.tgz:378037.got - 2010.06.03 13:09:07.
