data_PCOD9206333
_publ_section_title
;
Structure prediction by ZEFSAII (Michael W. Deem and Ramdas Pophale) SiO2 
 PCOD9206333
Probable space group: C 2/M
;
_chemical_formula_sum "Si O2"
_cell_formula_units_Z 64
_cell_length_a 14.749606
_cell_length_b 8.906244
_cell_length_c 25.402610
_cell_angle_alpha 90.000000
_cell_angle_beta 88.683772
_cell_angle_gamma 90.000000
_cell_volume 3336.097560
_symmetry_space_group_name_H-M "C 2/M"
_symmetry_group_IT_number 12
_symmetry_cell_setting 'monoclinic'
loop_
_space_group_symop_operation_xyz
x,y,z
-x,y,-z
-x,-y,-z
x,-y,z
1/2+x,1/2+y,z
1/2-x,1/2+y,-z
1/2-x,1/2-y,-z
1/2+x,1/2-y,z
loop_
_atom_site_type_symbol
_atom_site_label
_atom_site_fract_x
_atom_site_fract_y
_atom_site_fract_z
Si Si1 0.954116 0.176919 0.737364
Si Si2 0.790507 0.822326 0.399222
Si Si3 0.854583 0.679179 0.288175
Si Si4 0.256709 0.820581 0.917258
Si Si5 0.104960 0.819043 0.003500
Si Si6 0.216500 0.180640 0.195957
Si Si7 0.393609 0.325537 0.620369
Si Si8 0.549043 0.175072 0.555276
O O1 0.885070 0.222738 0.784171
O O2 0.898885 0.189330 0.683278
O O3 0.044985 0.271996 0.730529
O O4 0.977425 0.000000 0.743070
O O5 0.827208 0.761836 0.342431
O O6 0.686139 0.774014 0.402358
O O7 0.850569 0.741677 0.442809
O O8 0.800729 0.000000 0.402323
O O9 0.849620 0.500000 0.297182
O O10 0.785418 0.719026 0.242210
O O11 0.341599 0.753811 0.948534
O O12 0.256251 0.755856 0.858812
O O13 0.263439 0.000000 0.915951
O O14 0.165714 0.780976 0.951401
O O15 0.106841 0.000000 0.009654
O O16 0.000000 0.772687 0.000000
O O17 0.218102 0.000000 0.190301
O O18 0.378213 0.500000 0.608027
O O19 0.488703 0.269712 0.596566
O O20 0.500000 0.188992 0.500000
O O21 0.550529 0.000000 0.570198
#
# Coordination Sequence:
#
# PCOD9206333 Si02
#       8
#     8   8   8   8   8   8   8   8
#     4  10  21  38  59  86 116 155 199 241 295 358
#     4  12  24  39  63  91 121 159 200 244 298 360
#     4  11  22  38  60  87 119 157 201 247 296 354
#     4  10  21  36  57  88 119 149 196 250 292 343
#     4   9  19  38  62  84 113 157 199 237 295 357
#     4  10  22  40  58  81 122 163 195 237 297 356
#     4  11  22  40  65  91 120 155 200 248 298 358
#     4  11  25  44  65  91 122 156 198 250 306 364
#
# _framework density 19.184090000000001
#
# number of rings (size 3 to 8) (size 9 to 14) (size 15 to 20)
#    0.000    1.500    2.500    2.625    0.000    5.250 
#    0.000    3.750    0.000    0.000    0.000    0.000 
#    0.000    0.000    0.000    0.000    0.000    0.000 
#
# Total GULP energy -178851.041369 kJ/mol
# GULP energy per Si atom -5589.095043 kJ/mol
# Density = 1.914043 g / cm^3
# Si number density = 19.184090 Si / 1000 Ang^3
#
#
#
# Elastic Constant Matrix: (Units=GPa)
#
#
# Indices 1 2 3 4 5 6 
#
# 1 77.8786 2.1065 -13.5043 0.0000 9.6248 0.0000
# 2 2.1065 41.2121 10.1496 0.0000 5.2096 0.0000
# 3 -13.5043 10.1496 31.6866 0.0000 4.5119 0.0000
# 4 0.0000 0.0000 0.0000 28.8115 0.0000 4.9554
# 5 9.6248 5.2096 4.5119 0.0000 16.6085 0.0000
# 6 0.0000 0.0000 0.0000 4.9554 0.0000 28.5967
#
#
#
# Elastic Compliance Matrix: (Units=1/GPa)
#
#
# Indices 1 2 3 4 5 6 
#
# 1 0.015773 -0.001578 0.008799 0.000000 -0.011036 0.000000
# 2 -0.001578 0.027131 -0.008615 0.000000 -0.005255 0.000000
# 3 0.008799 -0.008615 0.039955 0.000000 -0.013251 0.000000
# 4 0.000000 0.000000 0.000000 0.035775 0.000000 -0.006199
# 5 -0.011036 -0.005255 -0.013251 0.000000 0.071854 0.000000
# 6 0.000000 0.000000 0.000000 -0.006199 0.000000 0.036043
#
#
# Mechanical properties :
#
#
# Convention : Reuss Voigt Hill
#
# Bulk Modulus (GPa) = 12.48881 16.47568 14.48224
# Shear Modulus (GPa) = 19.53049 24.93837 22.23443
#
# Velocity S-wave (km/s) = 3.19416 3.60939 3.40811
# Velocity P-wave (km/s) = 4.48639 5.09678 4.80129
#
# Compressibility (1/GPa) = 0.08007170
#
# Stress axis : x y z
#
# Youngs Moduli (GPa) = 63.40007 36.85777 25.02793
#
# Poissons Ratio (x) = 0.05817 -0.22022
# Poissons Ratio (y) = 0.10006 0.21561
# Poissons Ratio (z) = -0.55786 0.31752
#
# Static dielectric constant tensor:
#      x y z
#    x 1.656660 0.000000 -0.002880 
#    y 0.000000 1.635860 0.000000 
#    z -0.002880 0.000000 1.654110 
# 
# From -- ./inp_files/338697.got.cif
#   From: 2010.05.17/outbox.cif.g08.bks.cpg/sg12_170_cif.got.tgz:338697.got - 2010.06.03 13:09:07.
