data_PCOD9206105
_publ_section_title
;
Structure prediction by ZEFSAII (Michael W. Deem and Ramdas Pophale) SiO2 
 PCOD9206105
Probable space group: C 2/M
;
_chemical_formula_sum "Si O2"
_cell_formula_units_Z 64
_cell_length_a 20.899586
_cell_length_b 19.250029
_cell_length_c 20.575925
_cell_angle_alpha 90.000000
_cell_angle_beta 24.163241
_cell_angle_gamma 90.000000
_cell_volume 3388.521559
_symmetry_space_group_name_H-M "C 2/M"
_symmetry_group_IT_number 12
_symmetry_cell_setting 'monoclinic'
loop_
_space_group_symop_operation_xyz
x,y,z
-x,y,-z
-x,-y,-z
x,-y,z
1/2+x,1/2+y,z
1/2-x,1/2+y,-z
1/2-x,1/2-y,-z
1/2+x,1/2-y,z
loop_
_atom_site_type_symbol
_atom_site_label
_atom_site_fract_x
_atom_site_fract_y
_atom_site_fract_z
Si Si1 0.691037 0.581775 0.973032
Si Si2 0.747072 0.918712 0.559723
Si Si3 0.796563 0.820703 0.628585
Si Si4 0.880595 0.080592 0.811745
Si Si5 0.161380 0.332334 0.387128
Si Si6 0.669806 0.321888 0.257026
Si Si7 0.440331 0.918243 0.394595
Si Si8 0.854313 0.181465 0.094668
O O1 0.650767 0.500000 0.001925
O O2 0.603675 0.632992 0.004616
O O3 0.874403 0.590989 0.786461
O O4 0.661312 0.599936 0.075668
O O5 0.717582 0.869448 0.648634
O O6 0.647917 0.895963 0.589182
O O7 0.931420 0.914950 0.371249
O O8 0.711619 0.000000 0.606552
O O9 0.757653 0.738974 0.664318
O O10 0.771829 0.845516 0.725664
O O11 0.981952 0.820691 0.439861
O O12 0.801133 0.128134 0.830689
O O13 0.835962 0.000000 0.843748
O O14 0.122420 0.379039 0.484304
O O15 0.263178 0.363436 0.234135
O O16 0.000000 0.313153 0.500000
O O17 0.743738 0.245811 0.177069
O O18 0.409344 0.000000 0.431237
O O19 0.000000 0.210089 0.000000
#
# Coordination Sequence:
#
# PCOD9206105 Si02
#       8
#     8   8   8   8   8   8   8   8
#     4  10  21  38  55  76 109 145 175 213 265 318
#     4   9  19  34  54  84 110 135 176 222 260 309
#     4   9  16  33  59  78 107 139 174 219 264 313
#     4   9  19  35  56  80 109 141 176 215 263 317
#     4  11  19  37  57  76 104 139 178 219 264 315
#     4   9  17  35  56  78 108 140 175 216 267 314
#     4  10  21  36  56  80 108 140 177 217 260 313
#     4  11  23  37  54  80 108 137 179 225 263 308
#
# _framework density 18.887293
#
# number of rings (size 3 to 8) (size 9 to 14) (size 15 to 20)
#    0.000    2.250    3.750    0.000    1.750    2.500 
#    4.500    2.500    0.000    0.375    0.000    0.000 
#    0.000    0.000    0.000    0.000    0.000    0.000 
#
# Total GULP energy -178368.234140 kJ/mol
# GULP energy per Si atom -5574.007317 kJ/mol
# Density = 1.884430 g / cm^3
# Si number density = 18.887293 Si / 1000 Ang^3
#
#
#
# Elastic Constant Matrix: (Units=GPa)
#
#
# Indices 1 2 3 4 5 6 
#
# 1 124.9075 74.7597 17.4469 -0.0152 28.8173 0.0059
# 2 74.7597 66.8091 18.4272 -0.0302 22.2656 0.0158
# 3 17.4469 18.4272 27.2156 -0.0195 22.9488 0.0103
# 4 -0.0152 -0.0302 -0.0195 20.3709 -0.0057 10.9717
# 5 28.8173 22.2656 22.9488 -0.0057 36.8662 0.0021
# 6 0.0059 0.0158 0.0103 10.9717 0.0021 38.2371
#
#
#
# Elastic Compliance Matrix: (Units=1/GPa)
#
#
# Indices 1 2 3 4 5 6 
#
# 1 0.026036 -0.028944 0.011213 -0.000022 -0.009851 0.000012
# 2 -0.028944 0.051502 -0.019291 0.000052 0.003529 -0.000027
# 3 0.011213 -0.019291 0.084579 0.000064 -0.049763 -0.000032
# 4 -0.000022 0.000052 0.000064 0.058063 -0.000044 -0.016661
# 5 -0.009851 0.003529 -0.049763 -0.000044 0.063671 0.000023
# 6 0.000012 -0.000027 -0.000032 -0.016661 0.000023 0.030933
#
#
# Mechanical properties :
#
#
# Convention : Reuss Voigt Hill
#
# Bulk Modulus (GPa) = 11.35441 48.91108 30.13274
# Shear Modulus (GPa) = 11.95640 26.31473 19.13557
#
# Velocity S-wave (km/s) = 2.51876 3.73668 3.18645
# Velocity P-wave (km/s) = 3.80573 6.67604 5.43383
#
# Compressibility (1/GPa) = 0.08807154
#
# Stress axis : x y z
#
# Youngs Moduli (GPa) = 38.40816 19.41677 11.82334
#
# Poissons Ratio (x) = 0.56201 -0.13258
# Poissons Ratio (y) = 1.11170 0.22809
# Poissons Ratio (z) = -0.43068 0.37457
#
# Static dielectric constant tensor:
#      x y z
#    x 1.651410 0.000000 -0.016210 
#    y 0.000000 1.647960 0.000010 
#    z -0.016210 0.000010 1.701390 
# 
# From -- ./inp_files/279092.got.cif
#   From: 2010.05.17/outbox.cif.g08.bks.cpg/sg12_140_cif.got.tgz:279092.got - 2010.06.03 13:09:07.
