data_PCOD9206250
_publ_section_title
;
Structure prediction by ZEFSAII (Michael W. Deem and Ramdas Pophale) SiO2 
 PCOD9206250
Probable space group: C 2/M
;
_chemical_formula_sum "Si O2"
_cell_formula_units_Z 48
_cell_length_a 16.898590
_cell_length_b 24.120218
_cell_length_c 9.004961
_cell_angle_alpha 90.000000
_cell_angle_beta 132.503178
_cell_angle_gamma 90.000000
_cell_volume 2705.966052
_symmetry_space_group_name_H-M "C 2/M"
_symmetry_group_IT_number 12
_symmetry_cell_setting 'monoclinic'
loop_
_space_group_symop_operation_xyz
x,y,z
-x,y,-z
-x,-y,-z
x,-y,z
1/2+x,1/2+y,z
1/2-x,1/2+y,-z
1/2-x,1/2-y,-z
1/2+x,1/2-y,z
loop_
_atom_site_type_symbol
_atom_site_label
_atom_site_fract_x
_atom_site_fract_y
_atom_site_fract_z
Si Si1 0.948152 0.273559 0.577633
Si Si2 0.733748 0.660673 0.344427
Si Si3 0.618165 0.562138 0.718760
Si Si4 0.837695 0.253073 0.975187
Si Si5 0.111971 0.065573 0.062776
Si Si6 0.307355 0.332381 0.365486
O O1 0.851955 0.312762 0.508894
O O2 0.894820 0.216281 0.451596
O O3 0.000000 0.301983 0.500000
O O4 0.043052 0.259822 0.811217
O O5 0.675091 0.700733 0.150547
O O6 0.688851 0.660295 0.453576
O O7 0.711801 0.599814 0.253460
O O8 0.500000 0.559940 0.500000
O O9 0.666109 0.500000 0.762613
O O10 0.607620 0.574434 0.880292
O O11 0.674233 0.611823 0.702301
O O12 0.802550 0.305312 0.831607
O O13 0.750000 0.250000 0.000000
O O14 0.123108 0.000000 0.104292
O O15 0.000000 0.083417 0.000000
#
# Coordination Sequence:
#
# PCOD9206250 Si02
#       6
#     8   8   8   8   8   8
#     4  11  22  37  57  84 116 154 196 238 288 345
#     4  11  24  36  56  89 117 152 193 241 288 345
#     4  10  21  36  57  83 114 151 188 232 289 345
#     4  11  21  37  58  82 114 157 195 238 286 341
#     4  10  22  39  61  88 116 150 191 239 291 342
#     4  11  23  36  56  86 117 154 192 231 291 345
#
# _framework density 17.738582000000001
#
# number of rings (size 3 to 8) (size 9 to 14) (size 15 to 20)
#    0.000    1.333    3.333    4.500    4.667    4.000 
#    0.000    0.000    0.000    1.500    0.000    2.333 
#    0.000    0.000    0.000    0.000    0.000    0.000 
#
# Total GULP energy -133870.138513 kJ/mol
# GULP energy per Si atom -5577.922438 kJ/mol
# Density = 1.769821 g / cm^3
# Si number density = 17.738582 Si / 1000 Ang^3
#
#
#
# Elastic Constant Matrix: (Units=GPa)
#
#
# Indices 1 2 3 4 5 6 
#
# 1 69.0776 49.5836 32.3365 0.0000 -10.7277 0.0000
# 2 49.5836 95.2458 40.4571 0.0000 -8.3169 0.0000
# 3 32.3365 40.4571 126.4795 0.0000 4.5344 0.0000
# 4 0.0000 0.0000 0.0000 16.8976 0.0000 -8.1172
# 5 -10.7277 -8.3169 4.5344 0.0000 37.5799 0.0000
# 6 0.0000 0.0000 0.0000 -8.1172 0.0000 14.2254
#
#
#
# Elastic Compliance Matrix: (Units=1/GPa)
#
#
# Indices 1 2 3 4 5 6 
#
# 1 0.024594 -0.011144 -0.002899 0.000000 0.004904 0.000000
# 2 -0.011144 0.017588 -0.002814 0.000000 0.001051 0.000000
# 3 -0.002899 -0.002814 0.009642 0.000000 -0.002614 0.000000
# 4 0.000000 0.000000 0.000000 0.081527 0.000000 0.046520
# 5 0.004904 0.001051 -0.002614 0.000000 0.028558 0.000000
# 6 0.000000 0.000000 0.000000 0.046520 0.000000 0.096842
#
#
# Mechanical properties :
#
#
# Convention : Reuss Voigt Hill
#
# Bulk Modulus (GPa) = 55.22146 59.50637 57.36391
# Shear Modulus (GPa) = 16.75037 24.96897 20.85967
#
# Velocity S-wave (km/s) = 3.07626 3.75588 3.43293
# Velocity P-wave (km/s) = 6.61938 7.24072 6.93701
#
# Compressibility (1/GPa) = 0.01810890
#
# Stress axis : x y z
#
# Youngs Moduli (GPa) = 40.66010 56.85834 103.71745
#
# Poissons Ratio (x) = 0.63361 0.30070
# Poissons Ratio (y) = 0.45310 0.29190
# Poissons Ratio (z) = 0.11788 0.16002
#
# Static dielectric constant tensor:
#      x y z
#    x 1.364510 0.000000 -0.013390 
#    y 0.000000 1.629420 0.000000 
#    z -0.013390 0.000000 1.616870 
# 
# From -- ./inp_files/77677.got.cif
#   From: 2010.05.17/outbox.cif.g08.bks.cpg/sg12_39_cif.got.tgz:77677.got - 2010.06.03 13:09:07.
