data_PCOD9206087
_publ_section_title
;
Structure prediction by ZEFSAII (Michael W. Deem and Ramdas Pophale) SiO2 
 PCOD9206087
Probable space group: C 2/M
;
_chemical_formula_sum "Si O2"
_cell_formula_units_Z 40
_cell_length_a 15.476076
_cell_length_b 18.570603
_cell_length_c 7.472562
_cell_angle_alpha 90.000000
_cell_angle_beta 98.474778
_cell_angle_gamma 90.000000
_cell_volume 2124.164631
_symmetry_space_group_name_H-M "C 2/M"
_symmetry_group_IT_number 12
_symmetry_cell_setting 'monoclinic'
loop_
_space_group_symop_operation_xyz
x,y,z
-x,y,-z
-x,-y,-z
x,-y,z
1/2+x,1/2+y,z
1/2-x,1/2+y,-z
1/2-x,1/2-y,-z
1/2+x,1/2-y,z
loop_
_atom_site_type_symbol
_atom_site_label
_atom_site_fract_x
_atom_site_fract_y
_atom_site_fract_z
Si Si1 0.765041 0.582583 0.480482
Si Si2 0.058252 0.078970 0.339678
Si Si3 0.693918 0.817115 0.197693
Si Si4 0.842375 0.697158 0.229987
Si Si5 0.478626 0.738047 0.787100
O O1 0.792131 0.500000 0.466936
O O2 0.660755 0.586510 0.416190
O O3 0.785734 0.611658 0.684861
O O4 0.812651 0.634503 0.353671
O O5 0.000000 0.076904 0.500000
O O6 0.029405 0.152346 0.236523
O O7 0.046788 0.000000 0.246009
O O8 0.777219 0.764655 0.232761
O O9 0.614094 0.775876 0.270882
O O10 0.670490 0.827545 0.981412
O O11 0.940203 0.726547 0.291287
O O12 0.500000 0.751675 0.000000
#
# Coordination Sequence:
#
# PCOD9206087 Si02
#       5
#     8   8   8   8   8
#     4  11  23  39  60  86 119 158 193 235 295 346
#     4  10  21  36  55  86 121 149 184 235 296 354
#     4  10  21  38  59  87 117 153 197 241 286 337
#     4  10  21  38  61  87 116 152 199 241 282 344
#     4  10  21  36  59  87 113 150 194 239 289 339
#
# _framework density 18.830933000000002
#
# number of rings (size 3 to 8) (size 9 to 14) (size 15 to 20)
#    0.000    1.800    2.000    1.800    2.800    1.200 
#    0.000    2.000    0.000    3.600    0.000    0.000 
#    0.000    0.000    0.000    0.000    0.000    0.000 
#
# Total GULP energy -111617.058814 kJ/mol
# GULP energy per Si atom -5580.852941 kJ/mol
# Density = 1.878807 g / cm^3
# Si number density = 18.830933 Si / 1000 Ang^3
#
#
#
# Elastic Constant Matrix: (Units=GPa)
#
#
# Indices 1 2 3 4 5 6 
#
# 1 112.0223 29.6764 24.9494 0.0000 -18.4457 0.0000
# 2 29.6764 97.6655 33.5824 0.0000 -4.5419 0.0000
# 3 24.9494 33.5824 52.9693 0.0000 -4.4369 0.0000
# 4 0.0000 0.0000 0.0000 18.4689 0.0000 1.9181
# 5 -18.4457 -4.5419 -4.4369 0.0000 12.8086 0.0000
# 6 0.0000 0.0000 0.0000 1.9181 0.0000 32.3834
#
#
#
# Elastic Compliance Matrix: (Units=1/GPa)
#
#
# Indices 1 2 3 4 5 6 
#
# 1 0.012987 -0.001976 -0.003457 0.000000 0.016805 0.000000
# 2 -0.001976 0.013435 -0.007648 0.000000 -0.000731 0.000000
# 3 -0.003457 -0.007648 0.025450 0.000000 0.001126 0.000000
# 4 0.000000 0.000000 0.000000 0.054480 0.000000 -0.003227
# 5 0.016805 -0.000731 0.001126 0.000000 0.102404 0.000000
# 6 0.000000 0.000000 0.000000 -0.003227 0.000000 0.031071
#
#
# Mechanical properties :
#
#
# Convention : Reuss Voigt Hill
#
# Bulk Modulus (GPa) = 38.89460 48.78593 43.84026
# Shear Modulus (GPa) = 18.21085 24.36211 21.28648
#
# Velocity S-wave (km/s) = 3.11315 3.60075 3.36579
# Velocity P-wave (km/s) = 5.79843 6.57653 6.19970
#
# Compressibility (1/GPa) = 0.02571051
#
# Stress axis : x y z
#
# Youngs Moduli (GPa) = 76.99834 74.43003 39.29211
#
# Poissons Ratio (x) = 0.14709 0.13582
# Poissons Ratio (y) = 0.15216 0.30052
# Poissons Ratio (z) = 0.26616 0.56927
#
# Static dielectric constant tensor:
#      x y z
#    x 1.661690 0.000000 -0.002780 
#    y 0.000000 1.628950 0.000000 
#    z -0.002780 0.000000 1.670230 
# 
# From -- ./inp_files/62233.got.cif
#   From: 2010.05.17/outbox.cif.g08.bks.cpg/sg12_32_cif.got.tgz:62233.got - 2010.06.03 13:09:07.
