data_PCOD9206611
_publ_section_title
;
Structure prediction by ZEFSAII (Michael W. Deem and Ramdas Pophale) SiO2 
 PCOD9206611
Probable space group: C 2/M
;
_chemical_formula_sum "Si O2"
_cell_formula_units_Z 56
_cell_length_a 12.081680
_cell_length_b 17.059090
_cell_length_c 23.420533
_cell_angle_alpha 90.000000
_cell_angle_beta 147.655447
_cell_angle_gamma 90.000000
_cell_volume 2582.506511
_symmetry_space_group_name_H-M "C 2/M"
_symmetry_group_IT_number 12
_symmetry_cell_setting 'monoclinic'
loop_
_space_group_symop_operation_xyz
x,y,z
-x,y,-z
-x,-y,-z
x,-y,z
1/2+x,1/2+y,z
1/2-x,1/2+y,-z
1/2-x,1/2-y,-z
1/2+x,1/2-y,z
loop_
_atom_site_type_symbol
_atom_site_label
_atom_site_fract_x
_atom_site_fract_y
_atom_site_fract_z
Si Si1 0.696448 0.688963 0.653762
Si Si2 0.468168 0.910029 0.850780
Si Si3 0.722175 0.912174 0.610636
Si Si4 0.250103 0.317793 0.452248
Si Si5 0.833972 0.095780 0.179000
Si Si6 0.196202 0.647061 0.719737
Si Si7 0.648856 0.665244 0.940445
O O1 0.877334 0.638437 0.759214
O O2 0.739656 0.713252 0.607773
O O3 0.476056 0.643991 0.559850
O O4 0.686499 0.767448 0.686242
O O5 0.352178 0.885387 0.859150
O O6 0.417804 0.000000 0.820598
O O7 0.708975 0.895720 0.964192
O O8 0.500000 0.873825 0.500000
O O9 0.734031 0.912439 0.684381
O O10 0.950460 0.882148 0.694893
O O11 0.711169 0.000000 0.581408
O O12 0.250000 0.250000 0.500000
O O13 0.037568 0.366373 0.361270
O O14 0.827152 0.143304 0.116666
O O15 0.833236 0.000000 0.168482
O O16 0.405118 0.653622 0.847798
O O17 0.750000 0.750000 0.000000
#
# Coordination Sequence:
#
# PCOD9206611 Si02
#       7
#     8   8   8   8   8   8   8
#     4  10  21  40  60  94 120 154 213 256 311 373
#     4  11  23  41  65  90 125 169 215 265 314 367
#     4   9  19  32  53  89 125 155 197 250 307 374
#     4   9  21  38  62  89 122 159 198 252 317 380
#     4   9  20  38  62  90 123 168 213 259 315 367
#     4  10  21  36  60  85 123 162 198 256 317 369
#     4  11  21  38  55  91 128 162 212 264 308 366
#
# _framework density 21.684360000000002
#
# number of rings (size 3 to 8) (size 9 to 14) (size 15 to 20)
#    0.000    2.143    1.429    0.857    6.000    5.143 
#    2.571    2.857    0.000    0.857    0.000    0.000 
#    0.000    0.000    0.000    0.000    0.000    0.000 
#
# Total GULP energy -156041.181278 kJ/mol
# GULP energy per Si atom -5572.899331 kJ/mol
# Density = 2.163501 g / cm^3
# Si number density = 21.684360 Si / 1000 Ang^3
#
#
#
# Elastic Constant Matrix: (Units=GPa)
#
#
# Indices 1 2 3 4 5 6 
#
# 1 53.9752 9.8541 40.0735 -0.0002 6.8980 0.0001
# 2 9.8541 46.7409 16.1938 -0.0010 -10.6348 0.0002
# 3 40.0735 16.1938 175.1373 -0.0046 16.2946 0.0007
# 4 -0.0002 -0.0010 -0.0046 21.6667 0.0002 -2.4291
# 5 6.8980 -10.6348 16.2946 0.0002 37.7418 0.0001
# 6 0.0001 0.0002 0.0007 -2.4291 0.0001 17.9890
#
#
#
# Elastic Compliance Matrix: (Units=1/GPa)
#
#
# Indices 1 2 3 4 5 6 
#
# 1 0.023113 -0.004048 -0.004600 -0.000001 -0.003379 0.000000
# 2 -0.004048 0.024996 -0.002197 0.000001 0.008732 0.000000
# 3 -0.004600 -0.002197 0.007236 0.000001 -0.002902 0.000000
# 4 -0.000001 0.000001 0.000001 0.046863 -0.000001 0.006328
# 5 -0.003379 0.008732 -0.002902 -0.000001 0.030827 0.000000
# 6 0.000000 0.000000 0.000000 0.006328 0.000000 0.056444
#
#
# Mechanical properties :
#
#
# Convention : Reuss Voigt Hill
#
# Bulk Modulus (GPa) = 29.71408 45.34404 37.52906
# Shear Modulus (GPa) = 22.48330 29.46163 25.97247
#
# Velocity S-wave (km/s) = 3.22350 3.69000 3.46461
# Velocity P-wave (km/s) = 5.25237 6.25389 5.77488
#
# Compressibility (1/GPa) = 0.03365408
#
# Stress axis : x y z
#
# Youngs Moduli (GPa) = 43.26567 40.00643 138.20715
#
# Poissons Ratio (x) = 0.16194 0.63573
# Poissons Ratio (y) = 0.17514 0.30370
# Poissons Ratio (z) = 0.19902 0.08791
#
# Static dielectric constant tensor:
#      x y z
#    x 1.840380 0.000000 0.062280 
#    y 0.000000 1.815520 0.000000 
#    z 0.062280 0.000000 1.852110 
# 
# From -- ./inp_files/336802.got.cif
#   From: 2010.05.17/outbox.cif.g08.bks.cpg/sg12_169_cif.got.tgz:336802.got - 2010.06.03 13:09:07.
