data_PCOD9206813
_publ_section_title
;
Structure prediction by ZEFSAII (Michael W. Deem and Ramdas Pophale) SiO2 
 PCOD9206813
Probable space group: C 2/M
;
_chemical_formula_sum "Si O2"
_cell_formula_units_Z 48
_cell_length_a 13.395342
_cell_length_b 29.468385
_cell_length_c 10.720118
_cell_angle_alpha 90.000000
_cell_angle_beta 32.858165
_cell_angle_gamma 90.000000
_cell_volume 2295.929139
_symmetry_space_group_name_H-M "C 2/M"
_symmetry_group_IT_number 12
_symmetry_cell_setting 'monoclinic'
loop_
_space_group_symop_operation_xyz
x,y,z
-x,y,-z
-x,-y,-z
x,-y,z
1/2+x,1/2+y,z
1/2-x,1/2+y,-z
1/2-x,1/2-y,-z
1/2+x,1/2-y,z
loop_
_atom_site_type_symbol
_atom_site_label
_atom_site_fract_x
_atom_site_fract_y
_atom_site_fract_z
Si Si1 0.113235 0.587191 0.007362
Si Si2 0.625422 0.913739 0.491819
Si Si3 0.881618 0.000000 0.247812
Si Si4 0.378493 0.500000 0.751192
Si Si5 0.303537 0.714270 0.089820
Si Si6 0.569697 0.812998 0.120099
Si Si7 0.700718 0.680548 0.634736
O O1 0.148042 0.642048 0.970279
O O2 0.998361 0.585093 0.255069
O O3 0.262917 0.547217 0.865160
O O4 0.000000 0.577158 0.000000
O O5 0.500000 0.913702 0.500000
O O6 0.754832 0.869952 0.365813
O O7 0.753075 0.956779 0.370873
O O8 0.001478 0.000000 0.248240
O O9 0.000000 0.000000 0.000000
O O10 0.500000 0.500000 0.500000
O O11 0.137078 0.690341 0.192677
O O12 0.271390 0.709988 0.270068
O O13 0.343204 0.767223 0.025335
O O14 0.484302 0.689077 0.842119
O O15 0.346766 0.810823 0.369730
#
# Coordination Sequence:
#
# PCOD9206813 Si02
#       7
#     8   8   4   4   8   8   8
#     4  11  24  44  70  90 132 174 225 263 333 403
#     4  11  23  43  67  95 130 178 220 266 339 400
#     4  12  26  38  68 102 134 158 222 282 324 390
#     4  12  26  46  68  98 136 172 218 276 346 400
#     4  10  21  37  62  92 129 170 217 274 329 388
#     4  10  22  40  60  93 127 170 222 269 326 390
#     4  10  21  36  65  86 129 167 219 264 337 388
#
# _framework density 20.906568
#
# number of rings (size 3 to 8) (size 9 to 14) (size 15 to 20)
#    0.000    1.333    0.000    6.000    7.000    0.000 
#    0.000    1.667    0.000    0.000    0.000    0.000 
#    0.000    0.000    0.000    0.000    0.000    0.000 
#
# Total GULP energy -133878.118422 kJ/mol
# GULP energy per Si atom -5578.254934 kJ/mol
# Density = 2.085898 g / cm^3
# Si number density = 20.906568 Si / 1000 Ang^3
#
#
#
# Elastic Constant Matrix: (Units=GPa)
#
#
# Indices 1 2 3 4 5 6 
#
# 1 79.0323 41.9293 23.3792 0.0000 6.5028 0.0000
# 2 41.9293 168.8336 50.7811 0.0000 -11.6745 0.0000
# 3 23.3792 50.7811 62.7852 0.0000 -4.0522 0.0000
# 4 0.0000 0.0000 0.0000 -7.6459 0.0000 77.4972
# 5 6.5028 -11.6745 -4.0522 0.0000 31.0510 0.0000
# 6 0.0000 0.0000 0.0000 77.4972 0.0000 -126.9888
#
#
#
# Elastic Compliance Matrix: (Units=1/GPa)
#
#
# Indices 1 2 3 4 5 6 
#
# 1 0.015828 -0.003180 -0.003644 0.000000 -0.004986 0.000000
# 2 -0.003180 0.008609 -0.005574 0.000000 0.003175 0.000000
# 3 -0.003644 -0.005574 0.021891 0.000000 0.001524 0.000000
# 4 0.000000 0.000000 0.000000 0.025222 0.000000 0.015392
# 5 -0.004986 0.003175 0.001524 0.000000 0.034642 0.000000
# 6 0.000000 0.000000 0.000000 0.015392 0.000000 0.001519
#
#
# Mechanical properties :
#
#
# Convention : Reuss Voigt Hill
#
# Bulk Modulus (GPa) = 46.44100 60.31448 53.37774
# Shear Modulus (GPa) = 35.79549 -7.74598 14.02475
#
# Velocity S-wave (km/s) = 4.14232 -1.92694 2.59285
# Velocity P-wave (km/s) = 6.71865 4.89504 5.87799
#
# Compressibility (1/GPa) = 0.02153270
#
# Stress axis : x y z
#
# Youngs Moduli (GPa) = 63.17867 116.16194 45.68137
#
# Poissons Ratio (x) = 0.36935 0.16646
# Poissons Ratio (y) = 0.20088 0.25462
# Poissons Ratio (z) = 0.23022 0.64747
#
# Static dielectric constant tensor:
#      x y z
#    x 1.765620 0.000000 -0.019050 
#    y 0.000000 1.847710 0.000000 
#    z -0.019050 0.000000 1.700680 
# 
# From -- ./inp_files/149672.got.cif
#   From: 2010.05.17/outbox.cif.g08.bks.cpg/sg12_75_cif.got.tgz:149672.got - 2010.06.03 13:09:07.
