data_PCOD9206907
_publ_section_title
;
Structure prediction by ZEFSAII (Michael W. Deem and Ramdas Pophale) SiO2 
 PCOD9206907
Probable space group: C 2/M
;
_chemical_formula_sum "Si O2"
_cell_formula_units_Z 40
_cell_length_a 19.010366
_cell_length_b 14.038997
_cell_length_c 16.589314
_cell_angle_alpha 90.000000
_cell_angle_beta 23.735141
_cell_angle_gamma 90.000000
_cell_volume 1782.095227
_symmetry_space_group_name_H-M "C 2/M"
_symmetry_group_IT_number 12
_symmetry_cell_setting 'monoclinic'
loop_
_space_group_symop_operation_xyz
x,y,z
-x,y,-z
-x,-y,-z
x,-y,z
1/2+x,1/2+y,z
1/2-x,1/2+y,-z
1/2-x,1/2-y,-z
1/2+x,1/2-y,z
loop_
_atom_site_type_symbol
_atom_site_label
_atom_site_fract_x
_atom_site_fract_y
_atom_site_fract_z
Si Si1 0.878751 0.210523 0.297041
Si Si2 0.347203 0.106654 0.242869
Si Si3 0.292011 0.606788 0.230751
Si Si4 0.540563 0.608327 0.266311
Si Si5 0.311791 0.701611 0.738936
O O1 0.750000 0.250000 0.500000
O O2 0.945424 0.304226 0.180838
O O3 0.775229 0.148698 0.339010
O O4 0.018142 0.149044 0.199934
O O5 0.310504 0.134990 0.188775
O O6 0.154800 0.106754 0.488550
O O7 0.416383 0.000000 0.180198
O O8 0.220092 0.500000 0.297784
O O9 0.227076 0.687571 0.237758
O O10 0.500000 0.601766 0.000000
O O11 0.603650 0.500000 0.198851
O O12 0.661015 0.671281 0.197831
O O13 0.500000 0.685327 0.500000
#
# Coordination Sequence:
#
# PCOD9206907 Si02
#       5
#     8   8   8   8   8
#     4   9  17  30  50  76 102 132 178 224 257 302
#     4   8  14  25  43  68  98 130 164 208 260 310
#     4  10  21  37  55  75 106 148 182 211 261 326
#     4   9  15  25  45  72  99 128 168 219 265 301
#     4   9  17  30  49  75 101 131 176 222 261 306
#
# _framework density 22.445488000000001
#
# number of rings (size 3 to 8) (size 9 to 14) (size 15 to 20)
#    0.000    3.000    0.000    2.400    0.000    3.600 
#    0.000    2.000    0.000   15.000    0.000    0.000 
#    0.000    0.000    0.000    0.000    0.000    0.000 
#
# Total GULP energy -111679.024335 kJ/mol
# GULP energy per Si atom -5583.951217 kJ/mol
# Density = 2.239440 g / cm^3
# Si number density = 22.445488 Si / 1000 Ang^3
#
#
#
# Elastic Constant Matrix: (Units=GPa)
#
#
# Indices 1 2 3 4 5 6 
#
# 1 144.0427 111.5067 -0.4892 -0.0003 7.9806 0.0000
# 2 111.5067 218.4058 -6.5056 -0.0033 12.2766 0.0018
# 3 -0.4892 -6.5056 39.0388 -0.0019 8.3872 0.0014
# 4 -0.0003 -0.0033 -0.0019 24.8838 0.0014 -4.2944
# 5 7.9806 12.2766 8.3872 0.0014 25.5036 -0.0007
# 6 0.0000 0.0018 0.0014 -4.2944 -0.0007 17.9741
#
#
#
# Elastic Compliance Matrix: (Units=1/GPa)
#
#
# Indices 1 2 3 4 5 6 
#
# 1 0.011513 -0.005869 -0.000717 -0.000001 -0.000542 0.000000
# 2 -0.005869 0.007767 0.001753 0.000001 -0.002479 -0.000001
# 3 -0.000717 0.001753 0.028011 0.000003 -0.009831 -0.000002
# 4 -0.000001 0.000001 0.000003 0.041915 -0.000003 0.010014
# 5 -0.000542 -0.002479 -0.009831 -0.000003 0.043806 0.000002
# 6 0.000000 -0.000001 -0.000002 0.010014 0.000002 0.058028
#
#
# Mechanical properties :
#
#
# Convention : Reuss Voigt Hill
#
# Bulk Modulus (GPa) = 26.57847 67.83456 47.20652
# Shear Modulus (GPa) = 23.44689 33.47065 28.45877
#
# Velocity S-wave (km/s) = 3.23556 3.86579 3.56463
# Velocity P-wave (km/s) = 5.08188 7.08614 6.16599
#
# Compressibility (1/GPa) = 0.03762443
#
# Stress axis : x y z
#
# Youngs Moduli (GPa) = 86.85606 128.75649 35.70041
#
# Poissons Ratio (x) = 0.75567 0.02561
# Poissons Ratio (y) = 0.50976 -0.06259
# Poissons Ratio (z) = 0.06231 -0.22574
#
# Static dielectric constant tensor:
#      x y z
#    x 1.375840 -0.000010 0.266060 
#    y -0.000010 1.823560 0.000010 
#    z 0.266060 0.000010 1.742860 
# 
# From -- ./inp_files/72331.got.cif
#   From: 2010.05.17/outbox.cif.g08.bks.cpg/sg12_37_cif.got.tgz:72331.got - 2010.06.03 13:09:07.
