data_PCOD9206144
_publ_section_title
;
Structure prediction by ZEFSAII (Michael W. Deem and Ramdas Pophale) SiO2 
 PCOD9206144
Probable space group: C 2/M
;
_chemical_formula_sum "Si O2"
_cell_formula_units_Z 56
_cell_length_a 16.443050
_cell_length_b 8.817273
_cell_length_c 23.549674
_cell_angle_alpha 90.000000
_cell_angle_beta 58.726172
_cell_angle_gamma 90.000000
_cell_volume 2918.187964
_symmetry_space_group_name_H-M "C 2/M"
_symmetry_group_IT_number 12
_symmetry_cell_setting 'monoclinic'
loop_
_space_group_symop_operation_xyz
x,y,z
-x,y,-z
-x,-y,-z
x,-y,z
1/2+x,1/2+y,z
1/2-x,1/2+y,-z
1/2-x,1/2-y,-z
1/2+x,1/2-y,z
loop_
_atom_site_type_symbol
_atom_site_label
_atom_site_fract_x
_atom_site_fract_y
_atom_site_fract_z
Si Si1 0.555320 0.182791 0.921630
Si Si2 0.463684 0.317757 0.841780
Si Si3 0.763750 0.827048 0.434246
Si Si4 0.928342 0.323260 0.301707
Si Si5 0.226794 0.181108 0.154485
Si Si6 0.895405 0.168543 0.564166
Si Si7 0.405938 0.674460 0.695002
O O1 0.498529 0.253548 0.889253
O O2 0.665050 0.238789 0.887923
O O3 0.557976 0.000000 0.912225
O O4 0.500000 0.213874 0.000000
O O5 0.462406 0.500000 0.843794
O O6 0.539144 0.261895 0.767151
O O7 0.358289 0.265395 0.857203
O O8 0.750000 0.750000 0.500000
O O9 0.837338 0.743716 0.366221
O O10 0.663184 0.804849 0.440615
O O11 0.793369 0.000000 0.430701
O O12 0.916029 0.500000 0.294241
O O13 0.014549 0.290849 0.313771
O O14 0.186317 0.203926 0.232876
O O15 0.232624 0.000000 0.142680
O O16 0.893405 0.180381 0.632633
O O17 0.000000 0.170879 0.500000
O O18 0.854659 0.000000 0.564154
O O19 0.436452 0.500000 0.698224
#
# Coordination Sequence:
#
# PCOD9206144 Si02
#       7
#     8   8   8   8   8   8   8
#     4  10  21  37  59  89 123 161 205 253 303 366
#     4  10  21  39  61  87 119 159 203 250 308 368
#     4  12  25  40  58  83 116 154 198 245 294 351
#     4  11  22  38  61  87 116 151 193 244 301 357
#     4   8  17  35  57  82 117 161 199 240 304 367
#     4  10  21  36  56  83 114 152 193 238 297 355
#     4   9  18  35  58  82 113 152 191 238 298 359
#
# _framework density 19.189990000000002
#
# number of rings (size 3 to 8) (size 9 to 14) (size 15 to 20)
#    0.000    2.000    0.000    4.714    2.000    2.857 
#    0.000    3.571    0.000    0.000    0.000    0.000 
#    0.000    0.000    0.000    0.000    0.000    0.000 
#
# Total GULP energy -156205.430356 kJ/mol
# GULP energy per Si atom -5578.765370 kJ/mol
# Density = 1.914631 g / cm^3
# Si number density = 19.189990 Si / 1000 Ang^3
#
#
#
# Elastic Constant Matrix: (Units=GPa)
#
#
# Indices 1 2 3 4 5 6 
#
# 1 101.4138 31.6274 88.6690 0.0000 1.6827 0.0000
# 2 31.6274 59.1572 43.8839 0.0000 3.6771 0.0000
# 3 88.6690 43.8839 129.2962 0.0000 3.7895 0.0000
# 4 0.0000 0.0000 0.0000 24.3070 0.0000 4.0612
# 5 1.6827 3.6771 3.7895 0.0000 36.5845 0.0000
# 6 0.0000 0.0000 0.0000 4.0612 0.0000 33.0909
#
#
#
# Elastic Compliance Matrix: (Units=1/GPa)
#
#
# Indices 1 2 3 4 5 6 
#
# 1 0.024676 -0.000891 -0.016640 0.000000 0.000678 0.000000
# 2 -0.000891 0.022705 -0.007051 0.000000 -0.001511 0.000000
# 3 -0.016640 -0.007051 0.021561 0.000000 -0.000759 0.000000
# 4 0.000000 0.000000 0.000000 0.042002 0.000000 -0.005155
# 5 0.000678 -0.001511 -0.000759 0.000000 0.027533 0.000000
# 6 0.000000 0.000000 0.000000 -0.005155 0.000000 0.030852
#
#
# Mechanical properties :
#
#
# Convention : Reuss Voigt Hill
#
# Bulk Modulus (GPa) = 50.56057 68.69199 59.62628
# Shear Modulus (GPa) = 22.21390 27.17561 24.69476
#
# Velocity S-wave (km/s) = 3.40601 3.76724 3.59117
# Velocity P-wave (km/s) = 6.47089 7.40245 6.95229
#
# Compressibility (1/GPa) = 0.01977826
#
# Stress axis : x y z
#
# Youngs Moduli (GPa) = 40.52562 44.04356 46.38075
#
# Poissons Ratio (x) = 0.03925 0.77176
# Poissons Ratio (y) = 0.03611 0.32702
# Poissons Ratio (z) = 0.67433 0.31054
#
# Static dielectric constant tensor:
#      x y z
#    x 1.680830 0.000000 0.016050 
#    y 0.000000 1.672130 0.000000 
#    z 0.016050 0.000000 1.708830 
# 
# From -- ./inp_files/338448.got.cif
#   From: 2010.05.17/outbox.cif.g08.bks.cpg/sg12_170_cif.got.tgz:338448.got - 2010.06.03 13:09:07.
