data_PCOD9206377
_publ_section_title
;
Structure prediction by ZEFSAII (Michael W. Deem and Ramdas Pophale) SiO2 
 PCOD9206377
Probable space group: C 2/M
;
_chemical_formula_sum "Si O2"
_cell_formula_units_Z 56
_cell_length_a 22.866134
_cell_length_b 15.174336
_cell_length_c 24.525398
_cell_angle_alpha 90.000000
_cell_angle_beta 21.423778
_cell_angle_gamma 90.000000
_cell_volume 3108.310237
_symmetry_space_group_name_H-M "C 2/M"
_symmetry_group_IT_number 12
_symmetry_cell_setting 'monoclinic'
loop_
_space_group_symop_operation_xyz
x,y,z
-x,y,-z
-x,-y,-z
x,-y,z
1/2+x,1/2+y,z
1/2-x,1/2+y,-z
1/2-x,1/2-y,-z
1/2+x,1/2-y,z
loop_
_atom_site_type_symbol
_atom_site_label
_atom_site_fract_x
_atom_site_fract_y
_atom_site_fract_z
Si Si1 0.058221 0.399619 0.787454
Si Si2 0.152106 0.765083 0.228435
Si Si3 0.221301 0.154829 0.050021
Si Si4 0.070336 0.901674 0.769556
Si Si5 0.222899 0.753920 0.457887
Si Si6 0.396568 0.395386 0.034792
Si Si7 0.611953 0.900909 0.954399
O O1 0.115096 0.500000 0.742264
O O2 0.184842 0.337661 0.647824
O O3 0.889333 0.395368 0.902085
O O4 0.999350 0.368124 0.898578
O O5 0.173320 0.818085 0.152724
O O6 0.250807 0.673596 0.150577
O O7 0.244552 0.835626 0.185443
O O8 0.963297 0.753435 0.396501
O O9 0.083434 0.106793 0.136570
O O10 0.250000 0.250000 0.000000
O O11 0.193367 0.830097 0.641747
O O12 0.136513 0.000000 0.708923
O O13 0.009461 0.885240 0.883743
O O14 0.250000 0.750000 0.500000
O O15 0.348374 0.500000 0.078963
O O16 0.500000 0.376378 0.000000
O O17 0.668084 0.000000 0.921317
O O18 0.500000 0.907500 0.000000
#
# Coordination Sequence:
#
# PCOD9206377 Si02
#       7
#     8   8   8   8   8   8   8
#     4  10  21  36  58  83 113 152 190 233 287 336
#     4  11  21  35  61  84 119 154 187 234 295 342
#     4  11  17  36  59  83 112 142 192 248 282 336
#     4  11  22  38  61  84 114 156 195 239 293 339
#     4  12  24  39  52  83 128 155 183 233 284 357
#     4  10  22  41  64  88 112 148 203 251 283 330
#     4   9  19  38  63  88 112 145 195 243 281 333
#
# _framework density 18.016220000000001
#
# number of rings (size 3 to 8) (size 9 to 14) (size 15 to 20)
#    0.000    1.429    4.286    1.714    0.000    2.286 
#    0.000    2.857    0.000    5.143    0.000    0.000 
#    0.000    0.000    0.000    0.000    0.000    0.000 
#
# Total GULP energy -156034.426653 kJ/mol
# GULP energy per Si atom -5572.658095 kJ/mol
# Density = 1.797521 g / cm^3
# Si number density = 18.016220 Si / 1000 Ang^3
#
#
#
# Elastic Constant Matrix: (Units=GPa)
#
#
# Indices 1 2 3 4 5 6 
#
# 1 95.4279 38.7808 51.4740 0.0005 -6.7422 -0.0007
# 2 38.7808 115.8503 75.9899 0.0012 -10.2039 -0.0011
# 3 51.4740 75.9899 123.3446 -0.0017 -19.1269 -0.0006
# 4 0.0005 0.0012 -0.0017 11.8456 -0.0009 5.4405
# 5 -6.7422 -10.2039 -19.1269 -0.0009 22.5778 0.0013
# 6 -0.0007 -0.0011 -0.0006 5.4405 0.0013 22.3750
#
#
#
# Elastic Compliance Matrix: (Units=1/GPa)
#
#
# Indices 1 2 3 4 5 6 
#
# 1 0.013668 -0.001382 -0.004969 -0.000002 -0.000753 0.000001
# 2 -0.001382 0.014652 -0.008619 -0.000003 -0.001093 0.000001
# 3 -0.004969 -0.008619 0.016874 0.000005 0.008915 -0.000002
# 4 -0.000002 -0.000003 0.000005 0.095032 0.000008 -0.023107
# 5 -0.000753 -0.001093 0.008915 0.000008 0.051125 -0.000005
# 6 0.000001 0.000001 -0.000002 -0.023107 -0.000005 0.050311
#
#
# Mechanical properties :
#
#
# Convention : Reuss Voigt Hill
#
# Bulk Modulus (GPa) = 65.56382 74.12360 69.84371
# Shear Modulus (GPa) = 18.07091 22.58490 20.32790
#
# Velocity S-wave (km/s) = 3.17051 3.54444 3.36268
# Velocity P-wave (km/s) = 7.06211 7.61464 7.34358
#
# Compressibility (1/GPa) = 0.01525231
#
# Stress axis : x y z
#
# Youngs Moduli (GPa) = 73.16358 68.24992 59.26373
#
# Poissons Ratio (x) = 0.09434 0.29448
# Poissons Ratio (y) = 0.10114 0.51082
# Poissons Ratio (z) = 0.36355 0.58827
#
# Static dielectric constant tensor:
#      x y z
#    x 1.601640 -0.000010 -0.008810 
#    y -0.000010 1.626490 0.000010 
#    z -0.008810 0.000010 1.597120 
# 
# From -- ./inp_files/349724.got.cif
#   From: 2010.05.17/outbox.cif.g08.bks.cpg/sg12_175_cif.got.tgz:349724.got - 2010.06.03 13:09:07.
