data_PCOD9206744
_publ_section_title
;
Structure prediction by ZEFSAII (Michael W. Deem and Ramdas Pophale) SiO2 
 PCOD9206744
Probable space group: C 2/M
;
_chemical_formula_sum "Si O2"
_cell_formula_units_Z 48
_cell_length_a 24.940675
_cell_length_b 19.466866
_cell_length_c 6.278321
_cell_angle_alpha 90.000000
_cell_angle_beta 59.313155
_cell_angle_gamma 90.000000
_cell_volume 2621.384892
_symmetry_space_group_name_H-M "C 2/M"
_symmetry_group_IT_number 12
_symmetry_cell_setting 'monoclinic'
loop_
_space_group_symop_operation_xyz
x,y,z
-x,y,-z
-x,-y,-z
x,-y,z
1/2+x,1/2+y,z
1/2-x,1/2+y,-z
1/2-x,1/2-y,-z
1/2+x,1/2-y,z
loop_
_atom_site_type_symbol
_atom_site_label
_atom_site_fract_x
_atom_site_fract_y
_atom_site_fract_z
Si Si1 0.233937 0.921600 0.045863
Si Si2 0.844343 0.373361 0.096455
Si Si3 0.435294 0.075141 0.255943
Si Si4 0.255944 0.671188 0.355531
Si Si5 0.674595 0.706635 0.403833
Si Si6 0.571883 0.797737 0.406428
O O1 0.302505 0.913204 0.009773
O O2 0.192149 0.862944 0.244199
O O3 0.212968 0.000000 0.112835
O O4 0.237728 0.896815 0.795052
O O5 0.884491 0.419364 0.173225
O O6 0.794763 0.338804 0.355872
O O7 0.889331 0.320722 0.881356
O O8 0.427853 0.135799 0.439505
O O9 0.432987 0.000000 0.364759
O O10 0.500000 0.082798 0.000000
O O11 0.318421 0.689607 0.358467
O O12 0.226369 0.732034 0.272738
O O13 0.610578 0.738556 0.448903
O O14 0.500000 0.780952 0.500000
#
# Coordination Sequence:
#
# PCOD9206744 Si02
#       6
#     8   8   8   8   8   8
#     4  11  23  38  61  90 119 150 189 241 303 354
#     4  11  21  37  58  85 119 155 198 234 282 346
#     4  11  23  37  52  78 120 165 201 235 273 327
#     4  10  21  36  62  83 118 152 187 246 295 344
#     4  10  22  38  60  87 115 149 197 245 291 344
#     4  12  24  39  60  84 117 160 205 242 280 338
#
# _framework density 18.310931
#
# number of rings (size 3 to 8) (size 9 to 14) (size 15 to 20)
#    0.000    1.167    5.000    1.000    4.667    6.333 
#    0.000    0.000    0.000    0.500    0.000    1.167 
#    0.000    0.000    0.000    0.000    0.000    0.000 
#
# Total GULP energy -133917.417655 kJ/mol
# GULP energy per Si atom -5579.892402 kJ/mol
# Density = 1.826925 g / cm^3
# Si number density = 18.310931 Si / 1000 Ang^3
#
#
#
# Elastic Constant Matrix: (Units=GPa)
#
#
# Indices 1 2 3 4 5 6 
#
# 1 133.6907 59.7586 37.5496 0.0000 2.9158 0.0000
# 2 59.7586 126.3233 41.4453 0.0000 -7.3026 0.0000
# 3 37.5496 41.4453 72.4381 0.0000 5.7062 0.0000
# 4 0.0000 0.0000 0.0000 20.9771 0.0000 4.6711
# 5 2.9158 -7.3026 5.7062 0.0000 17.4225 0.0000
# 6 0.0000 0.0000 0.0000 4.6711 0.0000 12.6264
#
#
#
# Elastic Compliance Matrix: (Units=1/GPa)
#
#
# Indices 1 2 3 4 5 6 
#
# 1 0.010102 -0.004023 -0.002739 0.000000 -0.002480 0.000000
# 2 -0.004023 0.012016 -0.005378 0.000000 0.007471 0.000000
# 3 -0.002739 -0.005378 0.018931 0.000000 -0.007996 0.000000
# 4 0.000000 0.000000 0.000000 0.051951 0.000000 -0.019219
# 5 -0.002480 0.007471 -0.007996 0.000000 0.063563 0.000000
# 6 0.000000 0.000000 0.000000 -0.019219 0.000000 0.086309
#
#
# Mechanical properties :
#
#
# Convention : Reuss Voigt Hill
#
# Bulk Modulus (GPa) = 59.63537 67.77324 63.70430
# Shear Modulus (GPa) = 18.33239 23.11844 20.72541
#
# Velocity S-wave (km/s) = 3.16756 3.55709 3.36796
# Velocity P-wave (km/s) = 6.78357 7.34597 7.07037
#
# Compressibility (1/GPa) = 0.01676857
#
# Stress axis : x y z
#
# Youngs Moduli (GPa) = 98.99192 83.22373 52.82213
#
# Poissons Ratio (x) = 0.33485 0.14468
# Poissons Ratio (y) = 0.39829 0.28406
# Poissons Ratio (z) = 0.27115 0.44755
#
# Static dielectric constant tensor:
#      x y z
#    x 1.679760 0.000000 0.017140 
#    y 0.000000 1.655740 0.000000 
#    z 0.017140 0.000000 1.668110 
# 
# From -- ./inp_files/25318.got.cif
#   From: 2010.05.17/outbox.cif.g08.bks.cpg/sg12_13_cif.got.tgz:25318.got - 2010.06.03 13:09:07.
