data_PCOD9206284
_publ_section_title
;
Structure prediction by ZEFSAII (Michael W. Deem and Ramdas Pophale) SiO2 
 PCOD9206284
Probable space group: C 2/M
;
_chemical_formula_sum "Si O2"
_cell_formula_units_Z 56
_cell_length_a 19.947637
_cell_length_b 7.592476
_cell_length_c 14.726092
_cell_angle_alpha 90.000000
_cell_angle_beta 88.335661
_cell_angle_gamma 90.000000
_cell_volume 2229.354533
_symmetry_space_group_name_H-M "C 2/M"
_symmetry_group_IT_number 12
_symmetry_cell_setting 'monoclinic'
loop_
_space_group_symop_operation_xyz
x,y,z
-x,y,-z
-x,-y,-z
x,-y,z
1/2+x,1/2+y,z
1/2-x,1/2+y,-z
1/2-x,1/2-y,-z
1/2+x,1/2-y,z
loop_
_atom_site_type_symbol
_atom_site_label
_atom_site_fract_x
_atom_site_fract_y
_atom_site_fract_z
Si Si1 0.303288 0.702112 0.133616
Si Si2 0.531949 0.798364 0.713734
Si Si3 0.987668 0.289680 0.900158
Si Si4 0.757832 0.704510 0.325431
Si Si5 0.871034 0.715818 0.447497
Si Si6 0.888148 0.796581 0.655096
Si Si7 0.840859 0.788304 0.940622
O O1 0.321855 0.500000 0.145324
O O2 0.302216 0.786526 0.232585
O O3 0.226226 0.714066 0.101421
O O4 0.343941 0.776113 0.045700
O O5 0.531067 0.717578 0.814690
O O6 0.574869 0.723285 0.629555
O O7 0.454533 0.797549 0.686396
O O8 0.555030 0.000000 0.721994
O O9 0.998689 0.500000 0.902519
O O10 0.908659 0.259204 0.887053
O O11 0.000000 0.214790 0.000000
O O12 0.745457 0.500000 0.345942
O O13 0.800036 0.775136 0.408072
O O14 0.683970 0.780936 0.312575
O O15 0.872382 0.500000 0.453134
O O16 0.885743 0.787316 0.545951
O O17 0.893712 0.000000 0.685668
O O18 0.833470 0.000000 0.942362
#
# Coordination Sequence:
#
# PCOD9206284 Si02
#       7
#     8   8   8   8   8   8   8
#     4  10  21  36  57  85 115 152 196 241 289 347
#     4  10  22  40  61  87 117 155 201 242 289 350
#     4  10  22  38  60  88 117 153 197 243 291 346
#     4  10  22  38  60  88 119 153 193 242 299 353
#     4  10  22  40  62  87 117 156 198 243 294 350
#     4  11  23  39  60  89 120 153 195 244 298 353
#     4  10  21  37  56  82 116 154 196 241 292 345
#
# _framework density 25.119378000000001
#
# number of rings (size 3 to 8) (size 9 to 14) (size 15 to 20)
#    0.000    1.857    0.000    3.000    2.000    8.857 
#    0.000    0.000    0.000    0.000    0.000    0.000 
#    0.000    0.000    0.000    0.000    0.000    0.000 
#
# Total GULP energy -156673.425634 kJ/mol
# GULP energy per Si atom -5595.479487 kJ/mol
# Density = 2.506221 g / cm^3
# Si number density = 25.119378 Si / 1000 Ang^3
#
#
#
# Elastic Constant Matrix: (Units=GPa)
#
#
# Indices 1 2 3 4 5 6 
#
# 1 74.8373 3.7300 12.4387 0.0000 -10.1885 0.0000
# 2 3.7300 73.7948 -1.9646 0.0000 -0.2167 0.0000
# 3 12.4387 -1.9646 133.2148 0.0000 -16.6520 0.0000
# 4 0.0000 0.0000 0.0000 21.3064 0.0000 -0.9784
# 5 -10.1885 -0.2167 -16.6520 0.0000 48.3399 0.0000
# 6 0.0000 0.0000 0.0000 -0.9784 0.0000 13.7133
#
#
#
# Elastic Compliance Matrix: (Units=1/GPa)
#
#
# Indices 1 2 3 4 5 6 
#
# 1 0.013915 -0.000722 -0.000986 0.000000 0.002590 0.000000
# 2 -0.000722 0.013595 0.000268 0.000000 0.000001 0.000000
# 3 -0.000986 0.000268 0.007918 0.000000 0.002521 0.000000
# 4 0.000000 0.000000 0.000000 0.047088 0.000000 0.003360
# 5 0.002590 0.000001 0.002521 0.000000 0.022101 0.000000
# 6 0.000000 0.000000 0.000000 0.003360 0.000000 0.073162
#
#
# Mechanical properties :
#
#
# Convention : Reuss Voigt Hill
#
# Bulk Modulus (GPa) = 30.72471 34.47279 32.59875
# Shear Modulus (GPa) = 26.10858 34.51478 30.31168
#
# Velocity S-wave (km/s) = 3.22744 3.71081 3.47753
# Velocity P-wave (km/s) = 5.11337 5.66688 5.39722
#
# Compressibility (1/GPa) = 0.03254709
#
# Stress axis : x y z
#
# Youngs Moduli (GPa) = 71.86595 73.55798 126.29738
#
# Poissons Ratio (x) = 0.05311 0.12455
# Poissons Ratio (y) = 0.05189 -0.03385
# Poissons Ratio (z) = 0.07087 -0.01972
#
# Static dielectric constant tensor:
#      x y z
#    x 1.988330 0.000000 0.000410 
#    y 0.000000 1.916770 0.000000 
#    z 0.000410 0.000000 1.995860 
# 
# From -- ./inp_files/231066.got.cif
#   From: 2010.05.17/outbox.cif.g08.bks.cpg/sg12_116_cif.got.tgz:231066.got - 2010.06.03 13:09:07.
