data_PCOD9206286
_publ_section_title
;
Structure prediction by ZEFSAII (Michael W. Deem and Ramdas Pophale) SiO2 
 PCOD9206286
Probable space group: C 2/M
;
_chemical_formula_sum "Si O2"
_cell_formula_units_Z 64
_cell_length_a 31.020191
_cell_length_b 8.625025
_cell_length_c 15.025374
_cell_angle_alpha 90.000000
_cell_angle_beta 120.896461
_cell_angle_gamma 90.000000
_cell_volume 3449.580740
_symmetry_space_group_name_H-M "C 2/M"
_symmetry_group_IT_number 12
_symmetry_cell_setting 'monoclinic'
loop_
_space_group_symop_operation_xyz
x,y,z
-x,y,-z
-x,-y,-z
x,-y,z
1/2+x,1/2+y,z
1/2-x,1/2+y,-z
1/2-x,1/2-y,-z
1/2+x,1/2-y,z
loop_
_atom_site_type_symbol
_atom_site_label
_atom_site_fract_x
_atom_site_fract_y
_atom_site_fract_z
Si Si1 0.797427 0.187542 0.106144
Si Si2 0.006292 0.685679 0.787833
Si Si3 0.863500 0.314088 0.504357
Si Si4 0.721673 0.314587 0.711168
Si Si5 0.971255 0.311619 0.555742
Si Si6 0.383967 0.313136 0.065330
Si Si7 0.901412 0.814243 0.730903
Si Si8 0.167147 0.187080 0.175186
O O1 0.793946 0.237583 0.205343
O O2 0.848729 0.235831 0.110738
O O3 0.795263 0.000000 0.101584
O O4 0.750000 0.250000 0.000000
O O5 0.004427 0.500000 0.789821
O O6 0.997289 0.735075 0.675576
O O7 0.958298 0.751125 0.789698
O O8 0.060480 0.744336 0.874543
O O9 0.862448 0.500000 0.508781
O O10 0.814876 0.254014 0.402129
O O11 0.913045 0.266383 0.500681
O O12 0.873108 0.248726 0.613188
O O13 0.718472 0.500000 0.705278
O O14 0.778518 0.261465 0.755500
O O15 0.972418 0.500000 0.554438
O O16 0.000000 0.252123 0.500000
O O17 0.387907 0.500000 0.071412
O O18 0.355409 0.268832 0.944445
O O19 0.870830 0.768292 0.786367
O O20 0.903113 0.000000 0.728268
O O21 0.172479 0.000000 0.182219
#
# Coordination Sequence:
#
# PCOD9206286 Si02
#       8
#     8   8   8   8   8   8   8   8
#     4  10  21  37  58  83 117 155 190 234 287 338
#     4  10  21  36  57  85 116 150 190 232 284 342
#     4  10  21  37  59  84 115 153 189 232 287 344
#     4  11  23  37  57  88 120 151 190 237 287 340
#     4   8  16  32  52  77 107 141 184 228 269 324
#     4  10  21  38  58  83 117 152 191 234 281 342
#     4  10  21  40  63  84 112 148 191 244 291 336
#     4  10  22  40  62  84 109 152 199 237 287 343
#
# _framework density 18.552979000000001
#
# number of rings (size 3 to 8) (size 9 to 14) (size 15 to 20)
#    0.000    2.125    1.250    2.250    1.750    3.500 
#    0.000    2.500    0.000    2.250    0.000    0.000 
#    0.000    0.000    0.000    0.000    0.000    0.000 
#
# Total GULP energy -178662.193669 kJ/mol
# GULP energy per Si atom -5583.193552 kJ/mol
# Density = 1.851075 g / cm^3
# Si number density = 18.552979 Si / 1000 Ang^3
#
#
#
# Elastic Constant Matrix: (Units=GPa)
#
#
# Indices 1 2 3 4 5 6 
#
# 1 139.5684 32.4420 46.3066 0.0000 4.7934 0.0000
# 2 32.4420 27.3394 18.8800 0.0000 6.6336 0.0000
# 3 46.3066 18.8800 55.9867 0.0000 34.6407 0.0000
# 4 0.0000 0.0000 0.0000 28.7662 0.0000 6.4397
# 5 4.7934 6.6336 34.6407 0.0000 31.8302 0.0000
# 6 0.0000 0.0000 0.0000 6.4397 0.0000 26.2405
#
#
#
# Elastic Compliance Matrix: (Units=1/GPa)
#
#
# Indices 1 2 3 4 5 6 
#
# 1 0.022204 -0.006285 -0.045883 0.000000 0.047900 0.000000
# 2 -0.006285 0.055770 -0.021439 0.000000 0.012655 0.000000
# 3 -0.045883 -0.021439 0.171447 0.000000 -0.175207 0.000000
# 4 0.000000 0.000000 0.000000 0.036784 0.000000 -0.009027
# 5 0.047900 0.012655 -0.175207 0.000000 0.212243 0.000000
# 6 0.000000 0.000000 0.000000 -0.009027 0.000000 0.040324
#
#
# Mechanical properties :
#
#
# Convention : Reuss Voigt Hill
#
# Bulk Modulus (GPa) = 9.78401 46.46130 28.12265
# Shear Modulus (GPa) = 6.94393 25.71843 16.33118
#
# Velocity S-wave (km/s) = 1.93672 3.72723 2.97011
# Velocity P-wave (km/s) = 3.20721 6.60453 5.19163
#
# Compressibility (1/GPa) = 0.10220763
#
# Stress axis : x y z
#
# Youngs Moduli (GPa) = 45.03708 17.93092 5.83272
#
# Poissons Ratio (x) = 0.11270 0.26762
# Poissons Ratio (y) = 0.28306 0.12505
# Poissons Ratio (z) = 2.06642 0.38441
#
# Static dielectric constant tensor:
#      x y z
#    x 1.637770 0.000000 -0.011560 
#    y 0.000000 1.632240 0.000000 
#    z -0.011560 0.000000 1.614660 
# 
# From -- ./inp_files/249916.got.cif
#   From: 2010.05.17/outbox.cif.g08.bks.cpg/sg12_125_cif.got.tgz:249916.got - 2010.06.03 13:09:07.
