data_PCOD9206764
_publ_section_title
;
Structure prediction by ZEFSAII (Michael W. Deem and Ramdas Pophale) SiO2 
 PCOD9206764
Probable space group: C 2/M
;
_chemical_formula_sum "Si O2"
_cell_formula_units_Z 48
_cell_length_a 26.801881
_cell_length_b 13.202975
_cell_length_c 5.706194
_cell_angle_alpha 90.000000
_cell_angle_beta 98.750719
_cell_angle_gamma 90.000000
_cell_volume 1995.715332
_symmetry_space_group_name_H-M "C 2/M"
_symmetry_group_IT_number 12
_symmetry_cell_setting 'monoclinic'
loop_
_space_group_symop_operation_xyz
x,y,z
-x,y,-z
-x,-y,-z
x,-y,z
1/2+x,1/2+y,z
1/2-x,1/2+y,-z
1/2-x,1/2-y,-z
1/2+x,1/2-y,z
loop_
_atom_site_type_symbol
_atom_site_label
_atom_site_fract_x
_atom_site_fract_y
_atom_site_fract_z
Si Si1 0.587821 0.386855 0.108263
Si Si2 0.286337 0.198304 0.338599
Si Si3 0.858534 0.611751 0.734915
Si Si4 0.059122 0.884202 0.586002
Si Si5 0.314288 0.310673 0.963852
Si Si6 0.521735 0.880437 0.263926
O O1 0.564950 0.500000 0.104713
O O2 0.568595 0.338481 0.850583
O O3 0.578733 0.338530 0.355563
O O4 0.647474 0.390059 0.112268
O O5 0.250000 0.250000 0.500000
O O6 0.324385 0.120164 0.477414
O O7 0.243702 0.160498 0.127639
O O8 0.317508 0.288983 0.241051
O O9 0.852043 0.500000 0.838735
O O10 0.835782 0.703850 0.872290
O O11 0.917467 0.622782 0.714353
O O12 0.000000 0.891645 0.500000
O O13 0.080463 0.000000 0.616795
O O14 0.500000 0.839832 0.500000
O O15 0.507016 0.000000 0.255394
O O16 0.500000 0.838811 0.000000
#
# Coordination Sequence:
#
# PCOD9206764 Si02
#       6
#     8   8   8   8   8   8
#     4  10  21  36  62  92 123 167 206 255 320 373
#     4   9  21  41  62  85 116 163 202 260 326 369
#     4  10  22  39  65  93 124 171 215 257 317 386
#     4   9  18  35  59  89 125 166 211 254 308 378
#     4  10  22  40  63  89 127 159 206 270 317 376
#     4   9  19  36  59  88 125 166 209 258 310 363
#
# _framework density 24.051525999999999
#
# number of rings (size 3 to 8) (size 9 to 14) (size 15 to 20)
#    0.000    2.500    0.000    0.500    7.000    3.333 
#    0.000    9.167    0.000    0.000    0.000    0.000 
#    0.000    0.000    0.000    0.000    0.000    0.000 
#
# Total GULP energy -133782.397548 kJ/mol
# GULP energy per Si atom -5574.266564 kJ/mol
# Density = 2.399678 g / cm^3
# Si number density = 24.051526 Si / 1000 Ang^3
#
#
#
# Elastic Constant Matrix: (Units=GPa)
#
#
# Indices 1 2 3 4 5 6 
#
# 1 127.9394 7.7661 56.7706 0.0000 0.3605 0.0000
# 2 7.7661 92.4646 24.9713 0.0000 -4.1116 0.0000
# 3 56.7706 24.9713 175.3993 0.0000 -9.1652 0.0000
# 4 0.0000 0.0000 0.0000 131.3610 0.0000 -16.3441
# 5 0.3605 -4.1116 -9.1652 0.0000 45.0478 0.0000
# 6 0.0000 0.0000 0.0000 -16.3441 0.0000 25.9435
#
#
#
# Elastic Compliance Matrix: (Units=1/GPa)
#
#
# Indices 1 2 3 4 5 6 
#
# 1 0.009148 0.000011 -0.002998 0.000000 -0.000682 0.000000
# 2 0.000011 0.011270 -0.001571 0.000000 0.000709 0.000000
# 3 -0.002998 -0.001571 0.006963 0.000000 0.001297 0.000000
# 4 0.000000 0.000000 0.000000 0.008260 0.000000 0.005204
# 5 -0.000682 0.000709 0.001297 0.000000 0.022533 0.000000
# 6 0.000000 0.000000 0.000000 0.005204 0.000000 0.041824
#
#
# Mechanical properties :
#
#
# Convention : Reuss Voigt Hill
#
# Bulk Modulus (GPa) = 54.75053 63.86880 59.30967
# Shear Modulus (GPa) = 43.40233 60.89016 52.14624
#
# Velocity S-wave (km/s) = 4.25262 5.03701 4.66134
# Velocity P-wave (km/s) = 6.85027 7.77440 7.32692
#
# Compressibility (1/GPa) = 0.01826466
#
# Stress axis : x y z
#
# Youngs Moduli (GPa) = 109.31624 88.73261 143.61470
#
# Poissons Ratio (x) = -0.00098 0.43056
# Poissons Ratio (y) = -0.00120 0.22562
# Poissons Ratio (z) = 0.32773 0.13940
#
# Static dielectric constant tensor:
#      x y z
#    x 1.929450 0.000000 0.037610 
#    y 0.000000 1.980090 0.000000 
#    z 0.037610 0.000000 2.071350 
# 
# From -- ./inp_files/28161.got.cif
#   From: 2010.05.17/outbox.cif.g08.bks.cpg/sg12_15_cif.got.tgz:28161.got - 2010.06.03 13:09:07.
