data_PCOD9206657
_publ_section_title
;
Structure prediction by ZEFSAII (Michael W. Deem and Ramdas Pophale) SiO2 
 PCOD9206657
Probable space group: C 2/M
;
_chemical_formula_sum "Si O2"
_cell_formula_units_Z 48
_cell_length_a 12.594991
_cell_length_b 14.608484
_cell_length_c 20.626715
_cell_angle_alpha 90.000000
_cell_angle_beta 148.543267
_cell_angle_gamma 90.000000
_cell_volume 1980.535118
_symmetry_space_group_name_H-M "C 2/M"
_symmetry_group_IT_number 12
_symmetry_cell_setting 'monoclinic'
loop_
_space_group_symop_operation_xyz
x,y,z
-x,y,-z
-x,-y,-z
x,-y,z
1/2+x,1/2+y,z
1/2-x,1/2+y,-z
1/2-x,1/2-y,-z
1/2+x,1/2-y,z
loop_
_atom_site_type_symbol
_atom_site_label
_atom_site_fract_x
_atom_site_fract_y
_atom_site_fract_z
Si Si1 0.445373 0.600497 0.693517
Si Si2 0.244374 0.391249 0.320207
Si Si3 0.312417 0.892904 0.070667
Si Si4 0.822349 0.159644 0.501920
Si Si5 0.623716 0.607300 0.204537
Si Si6 0.216389 0.244093 0.137213
O O1 0.536982 0.500000 0.753721
O O2 0.318367 0.593751 0.561497
O O3 0.313998 0.624035 0.688838
O O4 0.614986 0.677668 0.771950
O O5 0.289478 0.500000 0.340270
O O6 0.444136 0.340070 0.400578
O O7 0.204377 0.366967 0.374952
O O8 0.045046 0.371677 0.173499
O O9 0.265274 0.828468 0.106099
O O10 0.312172 0.000000 0.089760
O O11 0.123910 0.880916 0.924275
O O12 0.750000 0.250000 0.500000
O O13 0.664909 0.500000 0.208392
O O14 0.703141 0.680581 0.194524
O O15 0.000000 0.283230 0.000000
#
# Coordination Sequence:
#
# PCOD9206657 Si02
#       6
#     8   8   8   8   8   8
#     4  11  24  40  59  90 130 163 198 254 321 375
#     4  10  21  40  64  88 117 155 201 249 299 359
#     4   9  18  36  64  95 125 163 213 261 303 358
#     4  11  23  40  62  87 114 150 200 254 307 362
#     4   9  20  39  62  91 130 170 206 252 310 367
#     4  10  21  36  60  91 127 170 216 254 297 362
#
# _framework density 24.235873999999999
#
# number of rings (size 3 to 8) (size 9 to 14) (size 15 to 20)
#    0.000    2.000    0.000    3.500    0.000   10.333 
#    0.000    1.667    0.000    1.000    0.000   38.500 
#    0.000    0.000    0.000    0.000    0.000    0.000 
#
# Total GULP energy -134153.311210 kJ/mol
# GULP energy per Si atom -5589.721300 kJ/mol
# Density = 2.418071 g / cm^3
# Si number density = 24.235874 Si / 1000 Ang^3
#
#
#
# Elastic Constant Matrix: (Units=GPa)
#
#
# Indices 1 2 3 4 5 6 
#
# 1 85.2495 55.0685 9.1545 -0.0001 -31.1357 -0.0003
# 2 55.0685 124.1826 15.9863 0.0003 -7.1570 -0.0004
# 3 9.1545 15.9863 24.3637 0.0010 -15.8437 -0.0006
# 4 -0.0001 0.0003 0.0010 42.7628 0.0001 17.8034
# 5 -31.1357 -7.1570 -15.8437 0.0001 41.7429 -0.0004
# 6 -0.0003 -0.0004 -0.0006 17.8034 -0.0004 73.5820
#
#
#
# Elastic Compliance Matrix: (Units=1/GPa)
#
#
# Indices 1 2 3 4 5 6 
#
# 1 0.026246 -0.011960 0.012458 0.000000 0.022255 0.000000
# 2 -0.011960 0.014272 -0.012056 0.000000 -0.011050 0.000000
# 3 0.012458 -0.012056 0.065022 -0.000002 0.031905 0.000001
# 4 0.000000 0.000000 -0.000002 0.026004 -0.000001 -0.006292
# 5 0.022255 -0.011050 0.031905 -0.000001 0.050771 0.000001
# 6 0.000000 0.000000 0.000001 -0.006292 0.000001 0.015113
#
#
# Mechanical properties :
#
#
# Convention : Reuss Voigt Hill
#
# Bulk Modulus (GPa) = 12.13242 43.80160 27.96701
# Shear Modulus (GPa) = 20.15976 41.85664 31.00820
#
# Velocity S-wave (km/s) = 2.88725 4.16029 3.58080
# Velocity P-wave (km/s) = 4.01644 6.41792 5.35357
#
# Compressibility (1/GPa) = 0.08242377
#
# Stress axis : x y z
#
# Youngs Moduli (GPa) = 38.10034 70.06968 15.37939
#
# Poissons Ratio (x) = 0.83804 -0.19160
# Poissons Ratio (y) = 0.45568 0.18542
# Poissons Ratio (z) = -0.47466 0.84477
#
# Static dielectric constant tensor:
#      x y z
#    x 1.950750 0.000000 -0.007320 
#    y 0.000000 1.786280 0.000000 
#    z -0.007320 0.000000 2.027270 
# 
# From -- ./inp_files/305688.got.cif
#   From: 2010.05.17/outbox.cif.g08.bks.cpg/sg12_153_cif.got.tgz:305688.got - 2010.06.03 13:09:07.
