data_PCOD9206188
_publ_section_title
;
Structure prediction by ZEFSAII (Michael W. Deem and Ramdas Pophale) SiO2 
 PCOD9206188
Probable space group: C 2/M
;
_chemical_formula_sum "Si O2"
_cell_formula_units_Z 60
_cell_length_a 22.775067
_cell_length_b 14.775478
_cell_length_c 12.460374
_cell_angle_alpha 90.000000
_cell_angle_beta 133.466349
_cell_angle_gamma 90.000000
_cell_volume 3043.241362
_symmetry_space_group_name_H-M "C 2/M"
_symmetry_group_IT_number 12
_symmetry_cell_setting 'monoclinic'
loop_
_space_group_symop_operation_xyz
x,y,z
-x,y,-z
-x,-y,-z
x,-y,z
1/2+x,1/2+y,z
1/2-x,1/2+y,-z
1/2-x,1/2-y,-z
1/2+x,1/2-y,z
loop_
_atom_site_type_symbol
_atom_site_label
_atom_site_fract_x
_atom_site_fract_y
_atom_site_fract_z
Si Si1 0.285425 0.605558 0.135639
Si Si2 0.588903 0.605514 0.132673
Si Si3 0.650508 0.106754 0.785051
Si Si4 0.552329 0.275985 0.674350
Si Si5 0.714282 0.000000 0.463086
Si Si6 0.737151 0.155654 0.672897
Si Si7 0.939073 0.900384 0.654809
Si Si8 0.729791 0.362973 0.645185
O O1 0.309531 0.500000 0.160378
O O2 0.363562 0.669391 0.226986
O O3 0.244464 0.623489 0.199590
O O4 0.221855 0.622690 0.960859
O O5 0.587538 0.500000 0.096820
O O6 0.667191 0.648675 0.178687
O O7 0.598164 0.607158 0.273078
O O8 0.500000 0.644463 0.000000
O O9 0.575412 0.171397 0.718266
O O10 0.683707 0.137310 0.710681
O O11 0.631567 0.000000 0.760452
O O12 0.500000 0.286879 0.500000
O O13 0.500253 0.321602 0.702835
O O14 0.718725 0.079163 0.562448
O O15 0.719861 0.079016 0.375656
O O16 0.724970 0.256680 0.614818
O O17 0.862660 0.897699 0.480400
O O18 0.978484 0.000000 0.697589
#
# Coordination Sequence:
#
# PCOD9206188 Si02
#       8
#     8   8   8   8   4   8   8   8
#     4  11  23  40  62  93 130 171 208 266 329 384
#     4  10  21  36  56  85 121 161 201 255 324 380
#     4  11  25  43  64  92 133 177 220 268 323 388
#     4  12  24  39  62  94 125 169 219 262 327 387
#     4  12  22  40  61  93 126 162 208 265 317 380
#     4  12  22  40  65  93 124 168 212 264 321 388
#     4  11  21  38  58  88 128 159 202 268 325 384
#     4  12  22  38  66  93 128 166 213 267 323 386
#
# _framework density 19.715820999999998
#
# number of rings (size 3 to 8) (size 9 to 14) (size 15 to 20)
#    0.000    0.667    6.667    1.200    1.867    0.800 
#    0.000    0.000    0.000    0.000    0.000    0.467 
#    0.000    0.000    0.000    0.000    0.000    0.000 
#
# Total GULP energy -167079.602927 kJ/mol
# GULP energy per Si atom -5569.320098 kJ/mol
# Density = 1.967095 g / cm^3
# Si number density = 19.715821 Si / 1000 Ang^3
#
#
#
# Elastic Constant Matrix: (Units=GPa)
#
#
# Indices 1 2 3 4 5 6 
#
# 1 43.0078 24.3299 2.8309 0.0000 -1.7090 0.0000
# 2 24.3299 153.3847 22.1876 0.0000 -3.1403 0.0000
# 3 2.8309 22.1876 34.2782 0.0000 -14.8742 0.0000
# 4 0.0000 0.0000 0.0000 22.4935 0.0000 6.8647
# 5 -1.7090 -3.1403 -14.8742 0.0000 28.8650 0.0000
# 6 0.0000 0.0000 0.0000 6.8647 0.0000 11.0281
#
#
#
# Elastic Compliance Matrix: (Units=1/GPa)
#
#
# Indices 1 2 3 4 5 6 
#
# 1 0.025623 -0.004229 0.001391 0.000000 0.001774 0.000000
# 2 -0.004229 0.007990 -0.005865 0.000000 -0.002404 0.000000
# 3 0.001391 -0.005865 0.042006 0.000000 0.021090 0.000000
# 4 0.000000 0.000000 0.000000 0.054883 0.000000 -0.034163
# 5 0.001774 -0.002404 0.021090 0.000000 0.045355 0.000000
# 6 0.000000 0.000000 0.000000 -0.034163 0.000000 0.111943
#
#
# Mechanical properties :
#
#
# Convention : Reuss Voigt Hill
#
# Bulk Modulus (GPa) = 17.17851 36.59637 26.88744
# Shear Modulus (GPa) = 15.40306 24.56550 19.98428
#
# Velocity S-wave (km/s) = 2.79812 3.53367 3.18719
# Velocity P-wave (km/s) = 4.37850 5.93728 5.21645
#
# Compressibility (1/GPa) = 0.05821227
#
# Stress axis : x y z
#
# Youngs Moduli (GPa) = 39.02741 125.16254 23.80599
#
# Poissons Ratio (x) = 0.52934 -0.03312
# Poissons Ratio (y) = 0.16506 0.13963
# Poissons Ratio (z) = -0.05429 0.73411
#
# Static dielectric constant tensor:
#      x y z
#    x 1.687010 0.000000 0.005570 
#    y 0.000000 1.710210 0.000000 
#    z 0.005570 0.000000 1.728380 
# 
# From -- ./inp_files/176485.got.cif
#   From: 2010.05.17/outbox.cif.g08.bks.cpg/sg12_89_cif.got.tgz:176485.got - 2010.06.03 13:09:07.
