data_PCOD9206439
_publ_section_title
;
Structure prediction by ZEFSAII (Michael W. Deem and Ramdas Pophale) SiO2 
 PCOD9206439
Probable space group: C 2/M
;
_chemical_formula_sum "Si O2"
_cell_formula_units_Z 56
_cell_length_a 20.749814
_cell_length_b 8.560573
_cell_length_c 29.604374
_cell_angle_alpha 90.000000
_cell_angle_beta 149.491837
_cell_angle_gamma 90.000000
_cell_volume 2669.603879
_symmetry_space_group_name_H-M "C 2/M"
_symmetry_group_IT_number 12
_symmetry_cell_setting 'monoclinic'
loop_
_space_group_symop_operation_xyz
x,y,z
-x,y,-z
-x,-y,-z
x,-y,z
1/2+x,1/2+y,z
1/2-x,1/2+y,-z
1/2-x,1/2-y,-z
1/2+x,1/2-y,z
loop_
_atom_site_type_symbol
_atom_site_label
_atom_site_fract_x
_atom_site_fract_y
_atom_site_fract_z
Si Si1 0.800179 0.319624 0.457962
Si Si2 0.650747 0.313931 0.209942
Si Si3 0.921205 0.317506 0.617979
Si Si4 0.859107 0.181869 0.403297
Si Si5 0.611802 0.689010 0.900861
Si Si6 0.628897 0.815485 0.097955
Si Si7 0.880099 0.816533 0.198054
O O1 0.805280 0.500000 0.446335
O O2 0.918008 0.283204 0.562540
O O3 0.680513 0.290450 0.417978
O O4 0.789522 0.208571 0.408996
O O5 0.648829 0.500000 0.211675
O O6 0.769671 0.256030 0.311488
O O7 0.512894 0.258134 0.146295
O O8 0.665147 0.261989 0.166996
O O9 0.885214 0.500000 0.600291
O O10 0.048765 0.283257 0.721301
O O11 0.000000 0.248684 0.500000
O O12 0.874762 0.000000 0.401848
O O13 0.616733 0.500000 0.905897
O O14 0.592460 0.732670 0.836514
O O15 0.750000 0.750000 0.000000
O O16 0.733352 0.802986 0.122063
O O17 0.611573 0.000000 0.097174
O O18 0.500000 0.748201 0.000000
O O19 0.916207 0.000000 0.224462
#
# Coordination Sequence:
#
# PCOD9206439 Si02
#       7
#     8   8   8   8   8   8   8
#     4  10  21  38  59  85 119 157 199 248 302 357
#     4  11  24  41  64  94 130 167 208 260 320 382
#     4  10  21  36  58  88 118 154 197 246 301 360
#     4  11  25  42  62  89 122 164 214 260 307 372
#     4  10  22  40  63  92 121 157 203 254 313 373
#     4  10  22  41  64  90 123 166 211 257 312 373
#     4  10  21  37  60  87 118 155 201 252 303 363
#
# _framework density 20.976894000000001
#
# number of rings (size 3 to 8) (size 9 to 14) (size 15 to 20)
#    0.000    1.714    0.000    3.429    2.000    7.714 
#    0.000    0.000    0.000    0.000    0.000    0.000 
#    0.000    0.000    0.000    0.000    0.000    0.000 
#
# Total GULP energy -156342.519114 kJ/mol
# GULP energy per Si atom -5583.661397 kJ/mol
# Density = 2.092915 g / cm^3
# Si number density = 20.976894 Si / 1000 Ang^3
#
#
#
# Elastic Constant Matrix: (Units=GPa)
#
#
# Indices 1 2 3 4 5 6 
#
# 1 56.8383 -2.3404 -6.7915 0.0000 -5.6143 0.0001
# 2 -2.3404 23.5539 3.0009 0.0001 3.5328 0.0005
# 3 -6.7915 3.0009 67.7846 0.0002 -0.1968 0.0000
# 4 0.0000 0.0001 0.0002 30.7316 0.0000 1.8962
# 5 -5.6143 3.5328 -0.1968 0.0000 27.1246 0.0000
# 6 0.0001 0.0005 0.0000 1.8962 0.0000 21.5776
#
#
#
# Elastic Compliance Matrix: (Units=1/GPa)
#
#
# Indices 1 2 3 4 5 6 
#
# 1 0.018210 0.001034 0.001789 0.000000 0.003648 0.000000
# 2 0.001034 0.043615 -0.001843 0.000000 -0.005480 -0.000001
# 3 0.001789 -0.001843 0.015016 0.000000 0.000719 0.000000
# 4 0.000000 0.000000 0.000000 0.032717 0.000000 -0.002875
# 5 0.003648 -0.005480 0.000719 0.000000 0.038341 0.000000
# 6 0.000000 -0.000001 0.000000 -0.002875 0.000000 0.046597
#
#
# Mechanical properties :
#
#
# Convention : Reuss Voigt Hill
#
# Bulk Modulus (GPa) = 12.68996 15.10165 13.89581
# Shear Modulus (GPa) = 22.85162 26.17393 24.51278
#
# Velocity S-wave (km/s) = 3.30414 3.53618 3.42213
# Velocity P-wave (km/s) = 4.54083 4.88749 4.71735
#
# Compressibility (1/GPa) = 0.07880244
#
# Stress axis : x y z
#
# Youngs Moduli (GPa) = 54.91346 22.92775 66.59752
#
# Poissons Ratio (x) = -0.02372 -0.11917
# Poissons Ratio (y) = -0.05680 0.12275
# Poissons Ratio (z) = -0.09826 0.04226
#
# Static dielectric constant tensor:
#      x y z
#    x 1.751960 0.000000 0.031560 
#    y 0.000000 1.726580 0.000000 
#    z 0.031560 0.000000 1.814200 
# 
# From -- ./inp_files/380816.got.cif
#   From: 2010.05.17/outbox.cif.g08.bks.cpg/sg12_191_cif.got.tgz:380816.got - 2010.06.03 13:09:07.
