data_PCOD9206066
_publ_section_title
;
Structure prediction by ZEFSAII (Michael W. Deem and Ramdas Pophale) SiO2 
 PCOD9206066
Probable space group: C 2/M
;
_chemical_formula_sum "Si O2"
_cell_formula_units_Z 48
_cell_length_a 24.649184
_cell_length_b 8.503099
_cell_length_c 12.251283
_cell_angle_alpha 90.000000
_cell_angle_beta 88.964002
_cell_angle_gamma 90.000000
_cell_volume 2567.381193
_symmetry_space_group_name_H-M "C 2/M"
_symmetry_group_IT_number 12
_symmetry_cell_setting 'monoclinic'
loop_
_space_group_symop_operation_xyz
x,y,z
-x,y,-z
-x,-y,-z
x,-y,z
1/2+x,1/2+y,z
1/2-x,1/2+y,-z
1/2-x,1/2-y,-z
1/2+x,1/2-y,z
loop_
_atom_site_type_symbol
_atom_site_label
_atom_site_fract_x
_atom_site_fract_y
_atom_site_fract_z
Si Si1 0.914588 0.191413 0.467481
Si Si2 0.261533 0.310019 0.170091
Si Si3 0.706231 0.690532 0.587843
Si Si4 0.481662 0.309837 0.674425
Si Si5 0.044935 0.311945 0.084796
Si Si6 0.335444 0.688128 0.964301
O O1 0.854262 0.245251 0.441823
O O2 0.937136 0.239189 0.585379
O O3 0.959861 0.238289 0.376861
O O4 0.914157 0.000000 0.467300
O O5 0.259077 0.500000 0.168757
O O6 0.277783 0.258758 0.290504
O O7 0.204056 0.245248 0.130997
O O8 0.306096 0.261011 0.078044
O O9 0.705969 0.500000 0.586682
O O10 0.750000 0.750000 0.500000
O O11 0.480917 0.500000 0.679580
O O12 0.469781 0.244253 0.793443
O O13 0.044964 0.500000 0.082989
O O14 0.104479 0.253089 0.050450
O O15 0.000000 0.254183 0.000000
O O16 0.337458 0.500000 0.963113
#
# Coordination Sequence:
#
# PCOD9206066 Si02
#       6
#     8   8   8   8   8   8
#     4   8  17  35  59  85 113 143 183 235 282 323
#     4   9  20  38  59  84 116 151 186 233 288 333
#     4  10  21  36  55  83 117 150 186 229 276 331
#     4   9  18  36  62  86 108 144 190 234 279 332
#     4  11  25  40  55  82 120 152 182 232 287 334
#     4  10  21  38  62  86 109 147 194 236 278 335
#
# _framework density 18.696093999999999
#
# number of rings (size 3 to 8) (size 9 to 14) (size 15 to 20)
#    0.000    2.500    0.000    2.000    4.667    2.667 
#    0.000    2.500    0.000    0.000    0.000    0.000 
#    0.000    0.000    0.000    0.000    0.000    0.000 
#
# Total GULP energy -133968.048354 kJ/mol
# GULP energy per Si atom -5582.002015 kJ/mol
# Density = 1.865354 g / cm^3
# Si number density = 18.696094 Si / 1000 Ang^3
#
#
#
# Elastic Constant Matrix: (Units=GPa)
#
#
# Indices 1 2 3 4 5 6 
#
# 1 210.8903 31.5785 124.9542 0.0000 15.9423 0.0000
# 2 31.5785 14.0912 27.6985 0.0000 3.6319 0.0000
# 3 124.9542 27.6985 168.8583 0.0000 14.8497 0.0000
# 4 0.0000 0.0000 0.0000 23.1471 0.0000 -0.5309
# 5 15.9423 3.6319 14.8497 0.0000 17.1677 0.0000
# 6 0.0000 0.0000 0.0000 -0.5309 0.0000 19.4512
#
#
#
# Elastic Compliance Matrix: (Units=1/GPa)
#
#
# Indices 1 2 3 4 5 6 
#
# 1 0.009546 -0.010809 -0.005101 0.000000 -0.002166 0.000000
# 2 -0.010809 0.117974 -0.010868 0.000000 -0.005520 0.000000
# 3 -0.005101 -0.010868 0.011755 0.000000 -0.003132 0.000000
# 4 0.000000 0.000000 0.000000 0.043229 0.000000 0.001180
# 5 -0.002166 -0.005520 -0.003132 0.000000 0.064137 0.000000
# 6 0.000000 0.000000 0.000000 0.001180 0.000000 0.051443
#
#
# Mechanical properties :
#
#
# Convention : Reuss Voigt Hill
#
# Bulk Modulus (GPa) = 11.66582 84.70025 48.18304
# Shear Modulus (GPa) = 13.15054 25.92711 19.53883
#
# Velocity S-wave (km/s) = 2.65502 3.72797 3.23627
# Velocity P-wave (km/s) = 3.95627 7.99578 6.30811
#
# Compressibility (1/GPa) = 0.08572049
#
# Stress axis : x y z
#
# Youngs Moduli (GPa) = 104.75362 8.47644 85.07230
#
# Poissons Ratio (x) = 0.09162 0.43392
# Poissons Ratio (y) = 1.13224 0.92456
# Poissons Ratio (z) = 0.53431 0.09212
#
# Static dielectric constant tensor:
#      x y z
#    x 1.625780 0.000000 0.008260 
#    y 0.000000 1.642490 0.000000 
#    z 0.008260 0.000000 1.626970 
# 
# From -- ./inp_files/172245.got.cif
#   From: 2010.05.17/outbox.cif.g08.bks.cpg/sg12_87_cif.got.tgz:172245.got - 2010.06.03 13:09:07.
