data_PCOD9206776
_publ_section_title
;
Structure prediction by ZEFSAII (Michael W. Deem and Ramdas Pophale) SiO2 
 PCOD9206776
Probable space group: C 2/M
;
_chemical_formula_sum "Si O2"
_cell_formula_units_Z 56
_cell_length_a 10.748012
_cell_length_b 20.249473
_cell_length_c 13.160423
_cell_angle_alpha 90.000000
_cell_angle_beta 71.656050
_cell_angle_gamma 90.000000
_cell_volume 2718.706229
_symmetry_space_group_name_H-M "C 2/M"
_symmetry_group_IT_number 12
_symmetry_cell_setting 'monoclinic'
loop_
_space_group_symop_operation_xyz
x,y,z
-x,y,-z
-x,-y,-z
x,-y,z
1/2+x,1/2+y,z
1/2-x,1/2+y,-z
1/2-x,1/2-y,-z
1/2+x,1/2-y,z
loop_
_atom_site_type_symbol
_atom_site_label
_atom_site_fract_x
_atom_site_fract_y
_atom_site_fract_z
Si Si1 0.130035 0.845274 0.532544
Si Si2 0.919893 0.075217 0.123584
Si Si3 0.111771 0.574689 0.192703
Si Si4 0.241914 0.778597 0.313271
Si Si5 0.003058 0.296949 0.119738
Si Si6 0.466428 0.314488 0.760292
Si Si7 0.369343 0.136815 0.599895
O O1 0.224261 0.806462 0.430902
O O2 0.240281 0.886317 0.568420
O O3 0.000000 0.869042 0.500000
O O4 0.063648 0.800712 0.638582
O O5 0.767390 0.083035 0.137416
O O6 0.967759 0.128179 0.192349
O O7 0.939721 0.000000 0.155286
O O8 0.000000 0.084429 0.000000
O O9 0.073465 0.500000 0.176978
O O10 0.094625 0.588868 0.316806
O O11 0.039330 0.630213 0.146362
O O12 0.374283 0.774192 0.215467
O O13 0.162489 0.833414 0.268734
O O14 0.171336 0.707076 0.338173
O O15 0.092527 0.241046 0.148571
O O16 0.000000 0.291211 0.000000
O O17 0.500000 0.146151 0.500000
#
# Coordination Sequence:
#
# PCOD9206776 Si02
#       7
#     8   8   8   8   8   8   8
#     4  10  21  36  62  98 133 170 209 267 334 392
#     4  10  22  42  68  93 126 175 225 267 321 394
#     4  11  25  45  66  93 130 176 226 273 331 398
#     4  11  23  38  62  98 131 169 210 269 330 395
#     4  12  26  41  63  97 133 172 218 279 338 386
#     4  11  21  39  65  97 129 165 220 272 332 388
#     4  12  21  39  69  98 136 173 223 271 331 404
#
# _framework density 20.598033000000001
#
# number of rings (size 3 to 8) (size 9 to 14) (size 15 to 20)
#    0.000    1.000    4.286    3.000    2.000    1.143 
#    0.000    0.714    0.000    7.714    0.000    0.000 
#    0.000    0.000    0.000    0.000    0.000    0.000 
#
# Total GULP energy -155887.645273 kJ/mol
# GULP energy per Si atom -5567.415903 kJ/mol
# Density = 2.055115 g / cm^3
# Si number density = 20.598033 Si / 1000 Ang^3
#
#
#
# Elastic Constant Matrix: (Units=GPa)
#
#
# Indices 1 2 3 4 5 6 
#
# 1 47.1869 9.7135 33.7879 0.0000 8.0147 0.0000
# 2 9.7135 76.8119 49.4092 0.0000 0.7520 0.0000
# 3 33.7879 49.4092 137.1545 0.0000 9.3160 0.0000
# 4 0.0000 0.0000 0.0000 18.1510 0.0000 7.4297
# 5 8.0147 0.7520 9.3160 0.0000 30.8117 0.0000
# 6 0.0000 0.0000 0.0000 7.4297 0.0000 21.9802
#
#
#
# Elastic Compliance Matrix: (Units=1/GPa)
#
#
# Indices 1 2 3 4 5 6 
#
# 1 0.026516 0.000886 -0.006515 0.000000 -0.004949 0.000000
# 2 0.000886 0.017040 -0.006445 0.000000 0.001302 0.000000
# 3 -0.006515 -0.006445 0.011325 0.000000 -0.001572 0.000000
# 4 0.000000 0.000000 0.000000 0.063940 0.000000 -0.021613
# 5 -0.004949 0.001302 -0.001572 0.000000 0.034186 0.000000
# 6 0.000000 0.000000 0.000000 -0.021613 0.000000 0.052801
#
#
# Mechanical properties :
#
#
# Convention : Reuss Voigt Hill
#
# Bulk Modulus (GPa) = 32.53968 49.66383 41.10175
# Shear Modulus (GPa) = 20.81600 25.40479 23.11039
#
# Velocity S-wave (km/s) = 3.18241 3.51573 3.35322
# Velocity P-wave (km/s) = 5.41622 6.37525 5.91520
#
# Compressibility (1/GPa) = 0.03073171
#
# Stress axis : x y z
#
# Youngs Moduli (GPa) = 37.71356 58.68563 88.30214
#
# Poissons Ratio (x) = -0.05201 0.57531
# Poissons Ratio (y) = -0.03342 0.56914
# Poissons Ratio (z) = 0.24571 0.37825
#
# Static dielectric constant tensor:
#      x y z
#    x 1.938900 0.000000 0.003310 
#    y 0.000000 1.945960 0.000000 
#    z 0.003310 0.000000 1.750910 
# 
# From -- ./inp_files/133840.got.cif
#   From: 2010.05.17/outbox.cif.g08.bks.cpg/sg12_67_cif.got.tgz:133840.got - 2010.06.03 13:09:07.
