data_PCOD9206794
_publ_section_title
;
Structure prediction by ZEFSAII (Michael W. Deem and Ramdas Pophale) SiO2 
 PCOD9206794
Probable space group: C 2/M
;
_chemical_formula_sum "Si O2"
_cell_formula_units_Z 32
_cell_length_a 19.092853
_cell_length_b 7.734438
_cell_length_c 10.359697
_cell_angle_alpha 90.000000
_cell_angle_beta 79.837824
_cell_angle_gamma 90.000000
_cell_volume 1505.842517
_symmetry_space_group_name_H-M "C 2/M"
_symmetry_group_IT_number 12
_symmetry_cell_setting 'monoclinic'
loop_
_space_group_symop_operation_xyz
x,y,z
-x,y,-z
-x,-y,-z
x,-y,z
1/2+x,1/2+y,z
1/2-x,1/2+y,-z
1/2-x,1/2-y,-z
1/2+x,1/2-y,z
loop_
_atom_site_type_symbol
_atom_site_label
_atom_site_fract_x
_atom_site_fract_y
_atom_site_fract_z
Si Si1 0.933653 0.500000 0.927414
Si Si2 0.329215 0.299147 0.931466
Si Si3 0.721002 0.704607 0.332671
Si Si4 0.864388 0.199612 0.383252
Si Si5 0.022932 0.500000 0.644325
O O1 0.885977 0.668205 0.969422
O O2 0.960267 0.500000 0.770137
O O3 0.000000 0.500000 0.000000
O O4 0.343707 0.500000 0.953536
O O5 0.325348 0.269846 0.778768
O O6 0.250000 0.250000 0.000000
O O7 0.734910 0.500000 0.340934
O O8 0.798808 0.790218 0.303671
O O9 0.675486 0.757893 0.471702
O O10 0.928335 0.331470 0.342668
O O11 0.887529 0.000000 0.387459
O O12 0.000000 0.500000 0.500000
#
# Coordination Sequence:
#
# PCOD9206794 Si02
#       5
#     4   8   8   8   4
#     4  12  30  48  68 104 149 181 223 288 356 413
#     4  11  24  44  72  98 130 182 236 283 331 410
#     4   9  19  37  63  98 133 162 230 285 332 388
#     4  10  21  36  63  98 129 173 220 284 334 404
#     4  12  26  44  66  92 144 181 221 269 361 406
#
# _framework density 21.250561999999999
#
# number of rings (size 3 to 8) (size 9 to 14) (size 15 to 20)
#    0.000    1.500    2.500    1.500    7.000    2.000 
#    0.000    0.000    0.000    0.000    0.000    0.000 
#    0.000    0.000    0.000    0.000    0.000    0.000 
#
# Total GULP energy -89456.098810 kJ/mol
# GULP energy per Si atom -5591.006176 kJ/mol
# Density = 2.120219 g / cm^3
# Si number density = 21.250562 Si / 1000 Ang^3
#
#
#
# Elastic Constant Matrix: (Units=GPa)
#
#
# Indices 1 2 3 4 5 6 
#
# 1 122.9291 93.0217 17.9514 0.0000 -0.2012 0.0000
# 2 93.0217 144.6785 24.7707 0.0000 10.8789 0.0000
# 3 17.9514 24.7707 34.8190 0.0000 0.9227 0.0000
# 4 0.0000 0.0000 0.0000 21.3378 0.0000 -1.1017
# 5 -0.2012 10.8789 0.9227 0.0000 31.7563 0.0000
# 6 0.0000 0.0000 0.0000 -1.1017 0.0000 42.5756
#
#
#
# Elastic Compliance Matrix: (Units=1/GPa)
#
#
# Indices 1 2 3 4 5 6 
#
# 1 0.016303 -0.010600 -0.000964 0.000000 0.003762 0.000000
# 2 -0.010600 0.014972 -0.005052 0.000000 -0.005049 0.000000
# 3 -0.000964 -0.005052 0.032791 0.000000 0.000772 0.000000
# 4 0.000000 0.000000 0.000000 0.046928 0.000000 0.001214
# 5 0.003762 -0.005049 0.000772 0.000000 0.033221 0.000000
# 6 0.000000 0.000000 0.000000 0.001214 0.000000 0.023519
#
#
# Mechanical properties :
#
#
# Convention : Reuss Voigt Hill
#
# Bulk Modulus (GPa) = 32.43284 63.76825 48.10054
# Shear Modulus (GPa) = 23.66943 30.24613 26.95778
#
# Velocity S-wave (km/s) = 3.34102 3.77677 3.56556
# Velocity P-wave (km/s) = 5.49350 7.00654 6.29564
#
# Compressibility (1/GPa) = 0.03083295
#
# Stress axis : x y z
#
# Youngs Moduli (GPa) = 61.33988 66.79253 30.49631
#
# Poissons Ratio (x) = 0.70798 0.02940
# Poissons Ratio (y) = 0.65019 0.15408
# Poissons Ratio (z) = 0.05913 0.33747
#
# Static dielectric constant tensor:
#      x y z
#    x 1.811850 0.000000 0.024730 
#    y 0.000000 1.762410 0.000000 
#    z 0.024730 0.000000 1.850910 
# 
# From -- ./inp_files/150987.got.cif
#   From: 2010.05.17/outbox.cif.g08.bks.cpg/sg12_76_cif.got.tgz:150987.got - 2010.06.03 13:09:07.
