data_PCOD9206147
_publ_section_title
;
Structure prediction by ZEFSAII (Michael W. Deem and Ramdas Pophale) SiO2 
 PCOD9206147
Probable space group: C 2/M
;
_chemical_formula_sum "Si O2"
_cell_formula_units_Z 44
_cell_length_a 8.791047
_cell_length_b 23.788458
_cell_length_c 14.731948
_cell_angle_alpha 90.000000
_cell_angle_beta 137.038591
_cell_angle_gamma 90.000000
_cell_volume 2099.599716
_symmetry_space_group_name_H-M "C 2/M"
_symmetry_group_IT_number 12
_symmetry_cell_setting 'monoclinic'
loop_
_space_group_symop_operation_xyz
x,y,z
-x,y,-z
-x,-y,-z
x,-y,z
1/2+x,1/2+y,z
1/2-x,1/2+y,-z
1/2-x,1/2-y,-z
1/2+x,1/2-y,z
loop_
_atom_site_type_symbol
_atom_site_label
_atom_site_fract_x
_atom_site_fract_y
_atom_site_fract_z
Si Si1 0.137579 0.063143 0.464718
Si Si2 0.626450 0.777656 0.646147
Si Si3 0.530706 0.119257 0.734399
Si Si4 0.500000 0.614700 0.000000
Si Si5 0.319232 0.344398 0.267575
Si Si6 0.632547 0.698780 0.898645
O O1 0.382551 0.083045 0.600448
O O2 0.000000 0.063590 0.500000
O O3 0.010496 0.108205 0.347313
O O4 0.134254 0.000000 0.426766
O O5 0.500000 0.795234 0.500000
O O6 0.568825 0.820455 0.702277
O O7 0.578606 0.712015 0.643004
O O8 0.892993 0.781546 0.756251
O O9 0.381264 0.132122 0.758087
O O10 0.766272 0.089663 0.861446
O O11 0.414036 0.652726 0.045551
O O12 0.244608 0.325679 0.135348
O O13 0.750000 0.750000 0.000000
#
# Coordination Sequence:
#
# PCOD9206147 Si02
#       6
#     8   8   8   4   8   8
#     4   9  19  37  61  87 112 143 191 249 295 331
#     4  11  21  33  52  83 121 153 184 229 289 353
#     4  10  21  36  56  83 116 153 191 233 285 344
#     4  10  22  36  51  76 114 154 185 222 280 344
#     4  11  21  34  58  86 112 148 194 238 287 343
#     4  11  22  35  53  82 119 155 188 226 279 347
#
# _framework density 20.956374
#
# number of rings (size 3 to 8) (size 9 to 14) (size 15 to 20)
#    0.000    1.636    0.000    7.091    0.000    4.364 
#    0.000    1.364    0.000   14.727    0.000   10.182 
#    0.000    0.000    0.000    0.000    0.000    0.000 
#
# Total GULP energy -122924.713264 kJ/mol
# GULP energy per Si atom -5587.486967 kJ/mol
# Density = 2.090868 g / cm^3
# Si number density = 20.956374 Si / 1000 Ang^3
#
#
#
# Elastic Constant Matrix: (Units=GPa)
#
#
# Indices 1 2 3 4 5 6 
#
# 1 65.7545 9.6912 44.2194 0.0000 -4.3555 0.0000
# 2 9.6912 82.8815 36.2772 0.0000 17.0345 0.0000
# 3 44.2194 36.2772 162.7135 0.0000 24.5183 0.0000
# 4 0.0000 0.0000 0.0000 12.2916 0.0000 -6.1217
# 5 -4.3555 17.0345 24.5183 0.0000 41.4181 0.0000
# 6 0.0000 0.0000 0.0000 -6.1217 0.0000 8.3774
#
#
#
# Elastic Compliance Matrix: (Units=1/GPa)
#
#
# Indices 1 2 3 4 5 6 
#
# 1 0.019851 -0.000895 -0.006110 0.000000 0.006073 0.000000
# 2 -0.000895 0.014076 -0.002205 0.000000 -0.004578 0.000000
# 3 -0.006110 -0.002205 0.009067 0.000000 -0.005103 0.000000
# 4 0.000000 0.000000 0.000000 0.127906 0.000000 0.093466
# 5 0.006073 -0.004578 -0.005103 0.000000 0.029686 0.000000
# 6 0.000000 0.000000 0.000000 0.093466 0.000000 0.187668
#
#
# Mechanical properties :
#
#
# Convention : Reuss Voigt Hill
#
# Bulk Modulus (GPa) = 40.69425 54.63613 47.66519
# Shear Modulus (GPa) = 12.05205 27.16152 19.60679
#
# Velocity S-wave (km/s) = 2.40073 3.60404 3.06208
# Velocity P-wave (km/s) = 5.21012 6.59142 5.94105
#
# Compressibility (1/GPa) = 0.02457350
#
# Stress axis : x y z
#
# Youngs Moduli (GPa) = 50.37417 71.04188 110.29035
#
# Poissons Ratio (x) = 0.06357 0.67392
# Poissons Ratio (y) = 0.04507 0.24323
# Poissons Ratio (z) = 0.30781 0.15667
#
# Static dielectric constant tensor:
#      x y z
#    x 1.845780 0.000000 0.047760 
#    y 0.000000 1.724660 0.000000 
#    z 0.047760 0.000000 1.888490 
# 
# From -- ./inp_files/200018.got.cif
#   From: 2010.05.17/outbox.cif.g08.bks.cpg/sg12_101_cif.got.tgz:200018.got - 2010.06.03 13:09:07.
