data_PCOD9206130
_publ_section_title
;
Structure prediction by ZEFSAII (Michael W. Deem and Ramdas Pophale) SiO2 
 PCOD9206130
Probable space group: C 2/M
;
_chemical_formula_sum "Si O2"
_cell_formula_units_Z 48
_cell_length_a 19.853418
_cell_length_b 18.357499
_cell_length_c 22.399497
_cell_angle_alpha 90.000000
_cell_angle_beta 18.285781
_cell_angle_gamma 90.000000
_cell_volume 2561.416794
_symmetry_space_group_name_H-M "C 2/M"
_symmetry_group_IT_number 12
_symmetry_cell_setting 'monoclinic'
loop_
_space_group_symop_operation_xyz
x,y,z
-x,y,-z
-x,-y,-z
x,-y,z
1/2+x,1/2+y,z
1/2-x,1/2+y,-z
1/2-x,1/2-y,-z
1/2+x,1/2-y,z
loop_
_atom_site_type_symbol
_atom_site_label
_atom_site_fract_x
_atom_site_fract_y
_atom_site_fract_z
Si Si1 0.456261 0.212496 0.604546
Si Si2 0.833178 0.189063 0.474846
Si Si3 0.617909 0.369096 0.956360
Si Si4 0.063896 0.416521 0.206275
Si Si5 0.437381 0.581638 0.794681
Si Si6 0.763215 0.085167 0.345142
O O1 0.500000 0.236713 0.500000
O O2 0.594638 0.267325 0.527972
O O3 0.226870 0.200217 0.830712
O O4 0.544347 0.129176 0.530337
O O5 0.750000 0.250000 0.500000
O O6 0.635623 0.133254 0.643100
O O7 0.030350 0.143937 0.280765
O O8 0.807501 0.398670 0.840505
O O9 0.500000 0.410022 0.000000
O O10 0.422218 0.368274 0.168719
O O11 0.994327 0.500000 0.269190
O O12 0.235860 0.409352 0.008068
O O13 0.430605 0.500000 0.774802
O O14 0.638305 0.586218 0.671310
O O15 0.753142 0.000000 0.335383
#
# Coordination Sequence:
#
# PCOD9206130 Si02
#       6
#     8   8   8   8   8   8
#     4  12  25  41  53  82 123 159 199 241 290 342
#     4  12  22  37  61  86 115 159 200 239 290 346
#     4  11  21  37  57  82 121 161 191 226 280 352
#     4  10  22  39  62  90 117 149 196 246 290 343
#     4   9  19  37  60  87 113 142 189 245 292 340
#     4  10  21  36  56  82 115 154 193 234 279 341
#
# _framework density 18.739629000000001
#
# number of rings (size 3 to 8) (size 9 to 14) (size 15 to 20)
#    0.000    1.333    5.000    2.000    0.000    6.333 
#    0.000    0.000    0.000    2.000    0.000    2.333 
#    0.000    0.000    0.000    0.000    0.000    0.000 
#
# Total GULP energy -133664.193479 kJ/mol
# GULP energy per Si atom -5569.341395 kJ/mol
# Density = 1.869698 g / cm^3
# Si number density = 18.739629 Si / 1000 Ang^3
#
#
#
# Elastic Constant Matrix: (Units=GPa)
#
#
# Indices 1 2 3 4 5 6 
#
# 1 114.0990 64.0834 34.6100 0.0222 8.0661 -0.0123
# 2 64.0834 91.1189 39.1837 0.0573 3.7209 0.0068
# 3 34.6100 39.1837 76.8568 -0.0129 0.1367 0.0005
# 4 0.0222 0.0573 -0.0129 19.2270 0.0118 5.9415
# 5 8.0661 3.7209 0.1367 0.0118 25.4502 0.0088
# 6 -0.0123 0.0068 0.0005 5.9415 0.0088 14.0143
#
#
#
# Elastic Compliance Matrix: (Units=1/GPa)
#
#
# Indices 1 2 3 4 5 6 
#
# 1 0.014937 -0.009579 -0.001836 0.000007 -0.003324 0.000017
# 2 -0.009579 0.020304 -0.006038 -0.000055 0.000100 0.000005
# 3 -0.001836 -0.006038 0.016914 0.000035 0.001374 -0.000015
# 4 0.000007 -0.000055 0.000035 0.059852 -0.000013 -0.025374
# 5 -0.003324 0.000100 0.001374 -0.000013 0.040324 -0.000023
# 6 0.000017 0.000005 -0.000015 -0.025374 -0.000023 0.082113
#
#
# Mechanical properties :
#
#
# Convention : Reuss Voigt Hill
#
# Bulk Modulus (GPa) = 57.98062 61.98098 59.98080
# Shear Modulus (GPa) = 18.17517 21.35147 19.76332
#
# Velocity S-wave (km/s) = 3.11767 3.37913 3.25103
# Velocity P-wave (km/s) = 6.63077 6.95495 6.79479
#
# Compressibility (1/GPa) = 0.01724714
#
# Stress axis : x y z
#
# Youngs Moduli (GPa) = 66.94980 49.25070 59.12208
#
# Poissons Ratio (x) = 0.47179 0.10858
# Poissons Ratio (y) = 0.64134 0.35698
# Poissons Ratio (z) = 0.12295 0.29738
#
# Static dielectric constant tensor:
#      x y z
#    x 1.677480 -0.000020 0.015990 
#    y -0.000020 1.620320 0.000070 
#    z 0.015990 0.000070 1.718290 
# 
# From -- ./inp_files/285864.got.cif
#   From: 2010.05.17/outbox.cif.g08.bks.cpg/sg12_143_cif.got.tgz:285864.got - 2010.06.03 13:09:07.
