data_PCOD9206940
_publ_section_title
;
Structure prediction by ZEFSAII (Michael W. Deem and Ramdas Pophale) SiO2 
 PCOD9206940
Probable space group: C 2/M
;
_chemical_formula_sum "Si O2"
_cell_formula_units_Z 40
_cell_length_a 19.688516
_cell_length_b 8.901035
_cell_length_c 27.483030
_cell_angle_alpha 90.000000
_cell_angle_beta 151.905450
_cell_angle_gamma 90.000000
_cell_volume 2268.154268
_symmetry_space_group_name_H-M "C 2/M"
_symmetry_group_IT_number 12
_symmetry_cell_setting 'monoclinic'
loop_
_space_group_symop_operation_xyz
x,y,z
-x,y,-z
-x,-y,-z
x,-y,z
1/2+x,1/2+y,z
1/2-x,1/2+y,-z
1/2-x,1/2-y,-z
1/2+x,1/2-y,z
loop_
_atom_site_type_symbol
_atom_site_label
_atom_site_fract_x
_atom_site_fract_y
_atom_site_fract_z
Si Si1 0.395481 0.679082 0.112803
Si Si2 0.997630 0.679683 0.276498
Si Si3 0.681733 0.677997 0.553279
Si Si4 0.814162 0.678897 0.741870
Si Si5 0.090700 0.321145 0.670095
O O1 0.390159 0.500000 0.107014
O O2 0.421426 0.733616 0.184530
O O3 0.533665 0.740753 0.170553
O O4 0.250000 0.750000 0.000000
O O5 0.981086 0.500000 0.257833
O O6 0.937283 0.717989 0.291258
O O7 0.169192 0.710021 0.381043
O O8 0.649321 0.500000 0.528348
O O9 0.717927 0.709200 0.632615
O O10 0.550079 0.770867 0.448983
O O11 0.835837 0.500000 0.757769
O O12 0.727202 0.739084 0.732899
O O13 0.108938 0.500000 0.678069
#
# Coordination Sequence:
#
# PCOD9206940 Si02
#       5
#     8   8   8   8   8
#     4  11  22  39  63  84 103 133 175 221 270 325
#     4   9  20  37  54  78 112 145 180 222 267 314
#     4   9  18  33  52  74 107 152 189 219 261 312
#     4  10  21  37  55  78 110 145 182 223 266 314
#     4  11  21  32  51  81 115 147 180 222 266 311
#
# _framework density 17.635486
#
# number of rings (size 3 to 8) (size 9 to 14) (size 15 to 20)
#    0.000    2.000    0.000    5.400    0.000    8.000 
#    0.000    1.000    0.000    6.000    0.000    0.000 
#    0.000    0.000    0.000    0.000    0.000    0.000 
#
# Total GULP energy -111729.501318 kJ/mol
# GULP energy per Si atom -5586.475066 kJ/mol
# Density = 1.759535 g / cm^3
# Si number density = 17.635486 Si / 1000 Ang^3
#
#
#
# Elastic Constant Matrix: (Units=GPa)
#
#
# Indices 1 2 3 4 5 6 
#
# 1 130.6132 57.6418 39.6644 -0.0001 19.6165 0.0000
# 2 57.6418 81.6556 56.4024 -0.0002 9.7824 0.0000
# 3 39.6644 56.4024 95.7482 -0.0005 11.8118 0.0000
# 4 -0.0001 -0.0002 -0.0005 33.8227 0.0000 2.0177
# 5 19.6165 9.7824 11.8118 0.0000 6.6803 0.0000
# 6 0.0000 0.0000 0.0000 2.0177 0.0000 31.3294
#
#
#
# Elastic Compliance Matrix: (Units=1/GPa)
#
#
# Indices 1 2 3 4 5 6 
#
# 1 0.017267 -0.009687 0.003912 0.000000 -0.043435 0.000000
# 2 -0.009687 0.026756 -0.013332 0.000000 0.012840 0.000000
# 3 0.003912 -0.013332 0.020062 0.000000 -0.027437 0.000000
# 4 0.000000 0.000000 0.000000 0.029680 0.000000 -0.001911
# 5 -0.043435 0.012840 -0.027437 0.000000 0.306950 0.000000
# 6 0.000000 0.000000 0.000000 -0.001911 0.000000 0.032042
#
#
# Mechanical properties :
#
#
# Convention : Reuss Voigt Hill
#
# Bulk Modulus (GPa) = 38.65577 68.38157 53.51867
# Shear Modulus (GPa) = 10.42550 24.65370 17.53960
#
# Velocity S-wave (km/s) = 2.43403 3.74299 3.15709
# Velocity P-wave (km/s) = 5.46500 7.58545 6.61080
#
# Compressibility (1/GPa) = 0.02586936
#
# Stress axis : x y z
#
# Youngs Moduli (GPa) = 57.91456 37.37534 49.84662
#
# Poissons Ratio (x) = 0.36207 -0.19500
# Poissons Ratio (y) = 0.56105 0.66454
# Poissons Ratio (z) = -0.22656 0.49828
#
# Static dielectric constant tensor:
#      x y z
#    x 1.602800 0.000000 0.005430 
#    y 0.000000 1.585300 0.000000 
#    z 0.005430 0.000000 1.566930 
# 
# From -- ./inp_files/151647.got.cif
#   From: 2010.05.17/outbox.cif.g08.bks.cpg/sg12_76_cif.got.tgz:151647.got - 2010.06.03 13:09:07.
