data_PCOD9206112
_publ_section_title
;
Structure prediction by ZEFSAII (Michael W. Deem and Ramdas Pophale) SiO2 
 PCOD9206112
Probable space group: C 2/M
;
_chemical_formula_sum "Si O2"
_cell_formula_units_Z 48
_cell_length_a 9.987705
_cell_length_b 15.662118
_cell_length_c 17.438704
_cell_angle_alpha 90.000000
_cell_angle_beta 82.620280
_cell_angle_gamma 90.000000
_cell_volume 2705.316152
_symmetry_space_group_name_H-M "C 2/M"
_symmetry_group_IT_number 12
_symmetry_cell_setting 'monoclinic'
loop_
_space_group_symop_operation_xyz
x,y,z
-x,y,-z
-x,-y,-z
x,-y,z
1/2+x,1/2+y,z
1/2-x,1/2+y,-z
1/2-x,1/2-y,-z
1/2+x,1/2-y,z
loop_
_atom_site_type_symbol
_atom_site_label
_atom_site_fract_x
_atom_site_fract_y
_atom_site_fract_z
Si Si1 0.369640 0.000000 0.456136
Si Si2 0.677762 0.832912 0.642978
Si Si3 0.058381 0.825716 0.167328
Si Si4 0.867331 0.329208 0.170847
Si Si5 0.607724 0.000000 0.924401
Si Si6 0.095043 0.000000 0.566504
Si Si7 0.491978 0.672595 0.647649
Si Si8 0.426174 0.500000 0.924298
O O1 0.500000 0.000000 0.500000
O O2 0.358723 0.916805 0.402642
O O3 0.245121 0.000000 0.523866
O O4 0.643638 0.843433 0.736275
O O5 0.588426 0.752590 0.622208
O O6 0.839597 0.817684 0.626210
O O7 0.217470 0.805834 0.153093
O O8 0.022622 0.834715 0.259600
O O9 0.969166 0.747215 0.145026
O O10 0.035622 0.914512 0.125270
O O11 0.908637 0.416308 0.126667
O O12 0.762820 0.000000 0.942946
O O13 0.500000 0.000000 0.000000
O O14 0.000000 0.000000 0.500000
O O15 0.058635 0.085444 0.614464
O O16 0.500000 0.500000 0.000000
#
# Coordination Sequence:
#
# PCOD9206112 Si02
#       8
#     4   8   8   8   4   4   8   4
#     4  12  27  40  55  82 117 150 186 232 283 335
#     4  10  21  40  61  84 110 147 189 231 280 331
#     4   9  19  37  59  84 109 145 187 227 273 323
#     4   9  19  37  61  82 109 145 186 229 272 326
#     4  10  21  36  56  83 114 150 182 222 276 327
#     4  12  23  40  57  82 113 152 186 224 287 339
#     4  10  21  38  63  84 110 146 189 233 277 334
#     4  10  21  36  56  81 116 151 182 222 272 328
#
# _framework density 17.742842
#
# number of rings (size 3 to 8) (size 9 to 14) (size 15 to 20)
#    0.000    2.000    1.667    1.000    2.333    6.000 
#    0.000    3.333    3.667    0.000    0.000    0.000 
#    0.000    0.000    0.000    0.000    0.000    0.000 
#
# Total GULP energy -133972.095807 kJ/mol
# GULP energy per Si atom -5582.170659 kJ/mol
# Density = 1.770246 g / cm^3
# Si number density = 17.742842 Si / 1000 Ang^3
#
#
#
# Elastic Constant Matrix: (Units=GPa)
#
#
# Indices 1 2 3 4 5 6 
#
# 1 140.3222 120.1740 63.8448 0.0000 0.5253 0.0000
# 2 120.1740 213.6133 75.2138 0.0000 -0.2287 0.0000
# 3 63.8448 75.2138 43.2232 0.0000 4.2625 0.0000
# 4 0.0000 0.0000 0.0000 -43.7787 0.0000 3.6790
# 5 0.5253 -0.2287 4.2625 0.0000 34.0633 0.0000
# 6 0.0000 0.0000 0.0000 3.6790 0.0000 35.4202
#
#
#
# Elastic Compliance Matrix: (Units=1/GPa)
#
#
# Indices 1 2 3 4 5 6 
#
# 1 0.022582 -0.002165 -0.029922 0.000000 0.003382 0.000000
# 2 -0.002165 0.012554 -0.018893 0.000000 0.002482 0.000000
# 3 -0.029922 -0.018893 0.101429 0.000000 -0.012358 0.000000
# 4 0.000000 0.000000 0.000000 -0.022644 0.000000 0.002352
# 5 0.003382 0.002482 -0.012358 0.000000 0.030868 0.000000
# 6 0.000000 0.000000 0.000000 0.002352 0.000000 0.027988
#
#
# Mechanical properties :
#
#
# Convention : Reuss Voigt Hill
#
# Bulk Modulus (GPa) = 28.89775 101.73599 65.31687
# Shear Modulus (GPa) = 17.46596 14.33603 15.90099
#
# Velocity S-wave (km/s) = 3.14091 2.84560 2.99689
# Velocity P-wave (km/s) = 5.42919 8.26198 6.99058
#
# Compressibility (1/GPa) = 0.03460477
#
# Stress axis : x y z
#
# Youngs Moduli (GPa) = 44.28311 79.65501 9.85916
#
# Poissons Ratio (x) = 0.17244 0.29501
# Poissons Ratio (y) = 0.09586 0.18627
# Poissons Ratio (z) = 1.32505 1.50492
#
# Static dielectric constant tensor:
#      x y z
#    x 1.589410 0.000000 0.004810 
#    y 0.000000 1.561110 0.000000 
#    z 0.004810 0.000000 1.591610 
# 
# From -- ./inp_files/255859.got.cif
#   From: 2010.05.17/outbox.cif.g08.bks.cpg/sg12_128_cif.got.tgz:255859.got - 2010.06.03 13:09:07.
