data_PCOD9206558
_publ_section_title
;
Structure prediction by ZEFSAII (Michael W. Deem and Ramdas Pophale) SiO2 
 PCOD9206558
Probable space group: C 2/M
;
_chemical_formula_sum "Si O2"
_cell_formula_units_Z 56
_cell_length_a 19.287874
_cell_length_b 14.251850
_cell_length_c 22.176393
_cell_angle_alpha 90.000000
_cell_angle_beta 30.067480
_cell_angle_gamma 90.000000
_cell_volume 3054.226489
_symmetry_space_group_name_H-M "C 2/M"
_symmetry_group_IT_number 12
_symmetry_cell_setting 'monoclinic'
loop_
_space_group_symop_operation_xyz
x,y,z
-x,y,-z
-x,-y,-z
x,-y,z
1/2+x,1/2+y,z
1/2-x,1/2+y,-z
1/2-x,1/2-y,-z
1/2+x,1/2-y,z
loop_
_atom_site_type_symbol
_atom_site_label
_atom_site_fract_x
_atom_site_fract_y
_atom_site_fract_z
Si Si1 0.631451 0.239884 0.638606
Si Si2 0.568835 0.389719 0.789988
Si Si3 0.645566 0.242225 0.023611
Si Si4 0.151425 0.889462 0.860707
Si Si5 0.141570 0.250677 0.235300
Si Si6 0.616072 0.889475 0.757430
Si Si7 0.382415 0.389534 0.638403
O O1 0.750000 0.250000 0.500000
O O2 0.616168 0.328035 0.696812
O O3 0.487168 0.227629 0.711363
O O4 0.663376 0.151645 0.657561
O O5 0.558811 0.500000 0.783716
O O6 0.660164 0.377162 0.781635
O O7 0.425163 0.344880 0.921893
O O8 0.734668 0.212584 0.899482
O O9 0.750000 0.250000 0.000000
O O10 0.521791 0.168975 0.124891
O O11 0.282632 0.838970 0.791168
O O12 0.154513 0.000000 0.871528
O O13 0.000000 0.854821 0.000000
O O14 0.099649 0.176666 0.317771
O O15 0.734253 0.871689 0.718222
O O16 0.591023 0.000000 0.773524
O O17 0.500000 0.371671 0.500000
O O18 0.389694 0.500000 0.649098
#
# Coordination Sequence:
#
# PCOD9206558 Si02
#       7
#     8   8   8   8   8   8   8
#     4  11  24  41  60  86 117 156 206 247 292 348
#     4  10  21  39  61  85 121 160 194 238 295 356
#     4  11  21  38  55  94 123 153 193 240 305 358
#     4  10  21  36  59  90 121 155 190 232 294 360
#     4  12  22  36  63  91 118 156 197 248 298 352
#     4  10  22  40  61  84 120 158 193 246 300 350
#     4  10  23  42  62  86 118 161 206 245 293 350
#
# _framework density 18.335249000000001
#
# number of rings (size 3 to 8) (size 9 to 14) (size 15 to 20)
#    0.000    1.429    4.286    2.571    0.000    2.857 
#    0.000    1.429    0.000    2.143    0.000    0.000 
#    0.000    0.000    0.000    0.000    0.000    0.000 
#
# Total GULP energy -156161.062256 kJ/mol
# GULP energy per Si atom -5577.180795 kJ/mol
# Density = 1.829352 g / cm^3
# Si number density = 18.335249 Si / 1000 Ang^3
#
#
#
# Elastic Constant Matrix: (Units=GPa)
#
#
# Indices 1 2 3 4 5 6 
#
# 1 82.6066 32.2736 0.8156 -0.0006 5.0635 0.0000
# 2 32.2736 73.6320 5.6661 -0.0023 1.1591 0.0001
# 3 0.8156 5.6661 64.8999 -0.0023 9.9474 0.0000
# 4 -0.0006 -0.0023 -0.0023 21.6902 0.0007 3.8638
# 5 5.0635 1.1591 9.9474 0.0007 28.6111 0.0000
# 6 0.0000 0.0001 0.0000 3.8638 0.0000 15.3066
#
#
#
# Elastic Compliance Matrix: (Units=1/GPa)
#
#
# Indices 1 2 3 4 5 6 
#
# 1 0.014801 -0.006506 0.000785 0.000000 -0.002629 0.000000
# 2 -0.006506 0.016534 -0.001516 0.000001 0.001009 0.000000
# 3 0.000785 -0.001516 0.016418 0.000002 -0.005786 0.000000
# 4 0.000000 0.000001 0.000002 0.048275 -0.000002 -0.012186
# 5 -0.002629 0.001009 -0.005786 -0.000002 0.037387 0.000000
# 6 0.000000 0.000000 0.000000 -0.012186 0.000000 0.068407
#
#
# Mechanical properties :
#
#
# Convention : Reuss Voigt Hill
#
# Bulk Modulus (GPa) = 30.05111 33.18325 31.61718
# Shear Modulus (GPa) = 21.98871 25.28045 23.63458
#
# Velocity S-wave (km/s) = 3.46679 3.71723 3.59419
# Velocity P-wave (km/s) = 5.69651 6.04658 5.87415
#
# Compressibility (1/GPa) = 0.03327664
#
# Stress axis : x y z
#
# Youngs Moduli (GPa) = 67.56323 60.48258 60.91013
#
# Poissons Ratio (x) = 0.39353 -0.04781
# Poissons Ratio (y) = 0.43959 0.09236
# Poissons Ratio (z) = -0.05303 0.09171
#
# Static dielectric constant tensor:
#      x y z
#    x 1.649800 0.000000 0.016190 
#    y 0.000000 1.622390 0.000000 
#    z 0.016190 0.000000 1.637100 
# 
# From -- ./inp_files/316704.got.cif
#   From: 2010.05.17/outbox.cif.g08.bks.cpg/sg12_159_cif.got.tgz:316704.got - 2010.06.03 13:09:07.
