data_PCOD9206173
_publ_section_title
;
Structure prediction by ZEFSAII (Michael W. Deem and Ramdas Pophale) SiO2 
 PCOD9206173
Probable space group: C 2/M
;
_chemical_formula_sum "Si O2"
_cell_formula_units_Z 56
_cell_length_a 17.647282
_cell_length_b 7.765999
_cell_length_c 30.526908
_cell_angle_alpha 90.000000
_cell_angle_beta 137.364531
_cell_angle_gamma 90.000000
_cell_volume 2833.735174
_symmetry_space_group_name_H-M "C 2/M"
_symmetry_group_IT_number 12
_symmetry_cell_setting 'monoclinic'
loop_
_space_group_symop_operation_xyz
x,y,z
-x,y,-z
-x,-y,-z
x,-y,z
1/2+x,1/2+y,z
1/2-x,1/2+y,-z
1/2-x,1/2-y,-z
1/2+x,1/2-y,z
loop_
_atom_site_type_symbol
_atom_site_label
_atom_site_fract_x
_atom_site_fract_y
_atom_site_fract_z
Si Si1 0.788083 0.702530 0.698810
Si Si2 0.878293 0.301289 0.561422
Si Si3 0.450877 0.293270 0.689506
Si Si4 0.800174 0.800874 0.174469
Si Si5 0.893035 0.701389 0.833946
Si Si6 0.313657 0.500000 0.921463
Si Si7 0.053435 0.198282 0.566511
Si Si8 0.989867 0.000000 0.068971
O O1 0.770037 0.500000 0.700938
O O2 0.870037 0.723965 0.692811
O O3 0.846490 0.768768 0.767695
O O4 0.667607 0.777555 0.634003
O O5 0.891301 0.500000 0.554991
O O6 0.750000 0.250000 0.500000
O O7 0.913892 0.274413 0.626632
O O8 0.960576 0.199102 0.564559
O O9 0.442316 0.500000 0.684852
O O10 0.578711 0.249389 0.755557
O O11 0.710316 0.793502 0.175744
O O12 0.758931 0.669065 0.120031
O O13 0.805511 0.000000 0.161778
O O14 0.928514 0.500000 0.845520
O O15 0.986620 0.829494 0.892501
O O16 0.413626 0.500000 0.927716
O O17 0.373224 0.500000 0.993667
O O18 0.000000 0.277860 0.500000
O O19 0.082859 0.000000 0.567133
#
# Coordination Sequence:
#
# PCOD9206173 Si02
#       8
#     8   8   8   8   8   4   8   4
#     4  10  21  36  56  85 115 152 192 237 292 346
#     4  12  25  40  60  84 115 153 193 240 288 341
#     4  11  23  38  58  85 114 150 193 240 287 345
#     4   9  19  35  56  84 115 151 190 237 294 346
#     4   9  18  34  55  81 116 151 189 240 291 348
#     4   9  18  32  56  86 118 146 184 243 285 349
#     4  10  21  39  61  84 116 152 189 239 291 343
#     4   9  18  32  54  88 115 146 191 231 293 349
#
# _framework density 19.761903
#
# number of rings (size 3 to 8) (size 9 to 14) (size 15 to 20)
#    0.000    2.000    0.000    3.429    3.000    4.857 
#    2.571    2.857    0.000    0.857    0.000    0.000 
#    0.000    0.000    0.000    0.000    0.000    0.000 
#
# Total GULP energy -156345.031064 kJ/mol
# GULP energy per Si atom -5583.751109 kJ/mol
# Density = 1.971692 g / cm^3
# Si number density = 19.761903 Si / 1000 Ang^3
#
#
#
# Elastic Constant Matrix: (Units=GPa)
#
#
# Indices 1 2 3 4 5 6 
#
# 1 49.9230 7.2327 49.0982 -0.0001 -8.6785 0.0001
# 2 7.2327 71.0535 64.2377 -0.0005 -3.5906 0.0004
# 3 49.0982 64.2377 202.0070 0.0000 -11.4603 0.0000
# 4 -0.0001 -0.0005 0.0000 22.8844 0.0000 0.8847
# 5 -8.6785 -3.5906 -11.4603 0.0000 25.3254 0.0000
# 6 0.0001 0.0004 0.0000 0.8847 0.0000 20.8462
#
#
#
# Elastic Compliance Matrix: (Units=1/GPa)
#
#
# Indices 1 2 3 4 5 6 
#
# 1 0.028410 0.004696 -0.008014 0.000000 0.006775 0.000000
# 2 0.004696 0.020529 -0.007608 0.000001 0.001077 0.000000
# 3 -0.008014 -0.007608 0.009340 0.000000 0.000402 0.000000
# 4 0.000000 0.000001 0.000000 0.043770 0.000000 -0.001858
# 5 0.006775 0.001077 0.000402 0.000000 0.042142 0.000000
# 6 0.000000 0.000000 0.000000 -0.001858 0.000000 0.048049
#
#
# Mechanical properties :
#
#
# Convention : Reuss Voigt Hill
#
# Bulk Modulus (GPa) = 27.45308 62.68009 45.06659
# Shear Modulus (GPa) = 22.10093 27.30554 24.70323
#
# Velocity S-wave (km/s) = 3.34782 3.72119 3.53943
# Velocity P-wave (km/s) = 5.37270 7.08869 6.28949
#
# Compressibility (1/GPa) = 0.03642578
#
# Stress axis : x y z
#
# Youngs Moduli (GPa) = 35.19916 48.71198 107.06239
#
# Poissons Ratio (x) = -0.22874 0.85799
# Poissons Ratio (y) = -0.16528 0.81457
# Poissons Ratio (z) = 0.28208 0.37062
#
# Static dielectric constant tensor:
#      x y z
#    x 1.689650 0.000000 0.042010 
#    y 0.000000 1.726910 0.000000 
#    z 0.042010 0.000000 1.747590 
# 
# From -- ./inp_files/377782.got.cif
#   From: 2010.05.17/outbox.cif.g08.bks.cpg/sg12_189_cif.got.tgz:377782.got - 2010.06.03 13:09:07.
