data_PCOD9206666
_publ_section_title
;
Structure prediction by ZEFSAII (Michael W. Deem and Ramdas Pophale) SiO2 
 PCOD9206666
Probable space group: C 2/M
;
_chemical_formula_sum "Si O2"
_cell_formula_units_Z 52
_cell_length_a 8.442309
_cell_length_b 24.801889
_cell_length_c 12.068119
_cell_angle_alpha 90.000000
_cell_angle_beta 90.055052
_cell_angle_gamma 90.000000
_cell_volume 2526.884473
_symmetry_space_group_name_H-M "C 2/M"
_symmetry_group_IT_number 12
_symmetry_cell_setting 'monoclinic'
loop_
_space_group_symop_operation_xyz
x,y,z
-x,y,-z
-x,-y,-z
x,-y,z
1/2+x,1/2+y,z
1/2-x,1/2+y,-z
1/2-x,1/2-y,-z
1/2+x,1/2-y,z
loop_
_atom_site_type_symbol
_atom_site_label
_atom_site_fract_x
_atom_site_fract_y
_atom_site_fract_z
Si Si1 0.954385 0.560520 0.870658
Si Si2 0.748023 0.500000 0.520813
Si Si3 0.316967 0.254888 0.756291
Si Si4 0.964766 0.660941 0.292242
Si Si5 0.416155 0.300845 0.110740
Si Si6 0.000000 0.589908 0.500000
Si Si7 0.040345 0.000000 0.305948
Si Si8 0.080983 0.927856 0.883389
O O1 0.016077 0.500000 0.834754
O O2 0.010293 0.614136 0.802513
O O3 0.763660 0.556054 0.866338
O O4 0.000000 0.567438 0.000000
O O5 0.858219 0.551644 0.539637
O O6 0.685709 0.500000 0.392784
O O7 0.607450 0.500000 0.609181
O O8 0.381634 0.200927 0.694717
O O9 0.474306 0.287130 0.784761
O O10 0.246573 0.228752 0.867835
O O11 0.185049 0.298643 0.721460
O O12 0.941255 0.626963 0.401774
O O13 0.405127 0.364162 0.109254
O O14 0.500000 0.282371 0.000000
O O15 0.021335 0.049923 0.220123
O O16 0.000000 0.944336 0.000000
#
# Coordination Sequence:
#
# PCOD9206666 Si02
#       8
#     8   4   8   8   8   4   4   8
#     4  11  25  42  65  98 140 183 220 269 330 390
#     4  10  26  44  70  99 119 182 217 275 332 392
#     4  10  23  41  64  94 127 173 221 267 339 379
#     4  11  25  45  68  96 132 173 218 283 324 400
#     4  10  21  36  60  92 129 172 213 262 311 393
#     4  11  26  46  70  96 130 164 225 276 338 394
#     4  11  23  44  65  93 134 163 223 265 323 388
#     4  11  23  38  63  96 135 175 208 263 322 388
#
# _framework density 20.578700999999999
#
# number of rings (size 3 to 8) (size 9 to 14) (size 15 to 20)
#    0.000    1.385    2.308    1.615    8.615    3.077 
#    0.000    0.000    0.000    0.000    0.000    0.000 
#    0.000    0.000    0.000    0.000    0.000    0.000 
#
# Total GULP energy -144833.592802 kJ/mol
# GULP energy per Si atom -5570.522800 kJ/mol
# Density = 2.053186 g / cm^3
# Si number density = 20.578701 Si / 1000 Ang^3
#
#
#
# Elastic Constant Matrix: (Units=GPa)
#
#
# Indices 1 2 3 4 5 6 
#
# 1 32.9538 32.1877 -12.8967 0.0000 3.6364 0.0000
# 2 32.1877 152.6674 33.3367 0.0000 2.2294 0.0000
# 3 -12.8967 33.3367 58.3049 0.0000 1.3457 0.0000
# 4 0.0000 0.0000 0.0000 7.5151 0.0000 17.1242
# 5 3.6364 2.2294 1.3457 0.0000 26.3820 0.0000
# 6 0.0000 0.0000 0.0000 17.1242 0.0000 -4.2264
#
#
#
# Elastic Compliance Matrix: (Units=1/GPa)
#
#
# Indices 1 2 3 4 5 6 
#
# 1 0.055800 -0.016442 0.021915 0.000000 -0.007420 0.000000
# 2 -0.016442 0.012334 -0.010730 0.000000 0.001771 0.000000
# 3 0.021915 -0.010730 0.028215 0.000000 -0.003553 0.000000
# 4 0.000000 0.000000 0.000000 0.013004 0.000000 0.052690
# 5 -0.007420 0.001771 -0.003553 0.000000 0.038959 0.000000
# 6 0.000000 0.000000 0.000000 0.052690 0.000000 -0.023124
#
#
# Mechanical properties :
#
#
# Convention : Reuss Voigt Hill
#
# Bulk Modulus (GPa) = 11.65016 38.79795 25.22405
# Shear Modulus (GPa) = 30.42955 18.68737 24.55846
#
# Velocity S-wave (km/s) = 3.84955 3.01673 3.45830
# Velocity P-wave (km/s) = 5.04304 5.57033 5.31323
#
# Compressibility (1/GPa) = 0.08583577
#
# Stress axis : x y z
#
# Youngs Moduli (GPa) = 17.92116 81.07853 35.44164
#
# Poissons Ratio (x) = 1.33306 -0.77669
# Poissons Ratio (y) = 0.29465 0.38028
# Poissons Ratio (z) = -0.39273 0.86994
#
# Static dielectric constant tensor:
#      x y z
#    x 1.744620 0.000000 0.001280 
#    y 0.000000 1.763520 0.000000 
#    z 0.001280 0.000000 1.727190 
# 
# From -- ./inp_files/123664.got.cif
#   From: 2010.05.17/outbox.cif.g08.bks.cpg/sg12_62_cif.got.tgz:123664.got - 2010.06.03 13:09:07.
