data_PCOD9206362
_publ_section_title
;
Structure prediction by ZEFSAII (Michael W. Deem and Ramdas Pophale) SiO2 
 PCOD9206362
Probable space group: C 2/M
;
_chemical_formula_sum "Si O2"
_cell_formula_units_Z 52
_cell_length_a 20.623051
_cell_length_b 16.811637
_cell_length_c 9.069929
_cell_angle_alpha 90.000000
_cell_angle_beta 52.669001
_cell_angle_gamma 90.000000
_cell_volume 2500.422595
_symmetry_space_group_name_H-M "C 2/M"
_symmetry_group_IT_number 12
_symmetry_cell_setting 'monoclinic'
loop_
_space_group_symop_operation_xyz
x,y,z
-x,y,-z
-x,-y,-z
x,-y,z
1/2+x,1/2+y,z
1/2-x,1/2+y,-z
1/2-x,1/2-y,-z
1/2+x,1/2-y,z
loop_
_atom_site_type_symbol
_atom_site_label
_atom_site_fract_x
_atom_site_fract_y
_atom_site_fract_z
Si Si1 0.512715 0.905320 0.313719
Si Si2 0.384078 0.594123 0.299201
Si Si3 0.000000 0.208626 0.000000
Si Si4 0.744655 0.376086 0.274506
Si Si5 0.193707 0.410187 0.108510
Si Si6 0.253027 0.190168 0.687765
Si Si7 0.116183 0.339698 0.741718
O O1 0.500000 0.875799 0.500000
O O2 0.607239 0.888409 0.155180
O O3 0.454486 0.872884 0.266853
O O4 0.499618 0.000000 0.334462
O O5 0.396759 0.500000 0.252691
O O6 0.466770 0.646948 0.170847
O O7 0.334665 0.603029 0.520643
O O8 0.321604 0.635822 0.268753
O O9 0.925651 0.272107 0.099721
O O10 0.758312 0.281217 0.250865
O O11 0.827605 0.401978 0.246545
O O12 0.742231 0.406523 0.112231
O O13 0.186208 0.500000 0.176047
O O14 0.212189 0.354380 0.218672
O O15 0.318809 0.195040 0.465055
#
# Coordination Sequence:
#
# PCOD9206362 Si02
#       7
#     8   8   4   8   8   8   8
#     4  10  21  36  57  91 127 160 197 241 306 377
#     4  11  23  39  64  90 119 159 206 260 313 362
#     4  12  21  40  61  88 124 152 208 260 309 360
#     4  11  22  42  61  91 120 159 211 259 299 363
#     4  11  23  38  61  92 127 162 200 248 308 372
#     4  11  21  41  62  87 121 163 206 249 305 367
#     4  11  21  38  65  86 122 163 203 256 304 361
#
# _framework density 20.796485000000001
#
# number of rings (size 3 to 8) (size 9 to 14) (size 15 to 20)
#    0.000    1.077    4.615    3.462    0.000    3.077 
#    0.000    1.923    0.000    0.000    0.000    3.231 
#    0.000    0.000    0.000    0.000    0.000    0.000 
#
# Total GULP energy -144907.343792 kJ/mol
# GULP energy per Si atom -5573.359377 kJ/mol
# Density = 2.074915 g / cm^3
# Si number density = 20.796485 Si / 1000 Ang^3
#
#
#
# Elastic Constant Matrix: (Units=GPa)
#
#
# Indices 1 2 3 4 5 6 
#
# 1 58.6362 26.8200 24.2164 0.0000 0.9894 0.0000
# 2 26.8200 100.9060 25.7536 0.0000 2.4471 0.0000
# 3 24.2164 25.7536 114.7227 0.0000 -8.2665 0.0000
# 4 0.0000 0.0000 0.0000 21.7120 0.0000 0.2410
# 5 0.9894 2.4471 -8.2665 0.0000 14.1548 0.0000
# 6 0.0000 0.0000 0.0000 0.2410 0.0000 17.0724
#
#
#
# Elastic Compliance Matrix: (Units=1/GPa)
#
#
# Indices 1 2 3 4 5 6 
#
# 1 0.020625 -0.004513 -0.003537 0.000000 -0.002727 0.000000
# 2 -0.004513 0.011653 -0.001864 0.000000 -0.002788 0.000000
# 3 -0.003537 -0.001864 0.010359 0.000000 0.006619 0.000000
# 4 0.000000 0.000000 0.000000 0.046065 0.000000 -0.000650
# 5 -0.002727 -0.002788 0.006619 0.000000 0.075185 0.000000
# 6 0.000000 0.000000 0.000000 -0.000650 0.000000 0.058583
#
#
# Mechanical properties :
#
#
# Convention : Reuss Voigt Hill
#
# Bulk Modulus (GPa) = 43.84351 47.53834 45.69092
# Shear Modulus (GPa) = 20.00779 23.75283 21.88031
#
# Velocity S-wave (km/s) = 3.10510 3.38325 3.24715
# Velocity P-wave (km/s) = 5.82953 6.17821 6.00640
#
# Compressibility (1/GPa) = 0.02280839
#
# Stress axis : x y z
#
# Youngs Moduli (GPa) = 48.48377 85.81354 96.53691
#
# Poissons Ratio (x) = 0.38729 0.34146
# Poissons Ratio (y) = 0.21882 0.17996
# Poissons Ratio (z) = 0.17149 0.15997
#
# Static dielectric constant tensor:
#      x y z
#    x 1.766770 0.000000 -0.031300 
#    y 0.000000 1.754340 0.000000 
#    z -0.031300 0.000000 1.794120 
# 
# From -- ./inp_files/88357.got.cif
#   From: 2010.05.17/outbox.cif.g08.bks.cpg/sg12_45_cif.got.tgz:88357.got - 2010.06.03 13:09:07.
