data_PCOD9206982
_publ_section_title
;
Structure prediction by ZEFSAII (Michael W. Deem and Ramdas Pophale) SiO2 
 PCOD9206982
Probable space group: C 2/M
;
_chemical_formula_sum "Si O2"
_cell_formula_units_Z 56
_cell_length_a 13.075906
_cell_length_b 13.204208
_cell_length_c 23.779857
_cell_angle_alpha 90.000000
_cell_angle_beta 138.991087
_cell_angle_gamma 90.000000
_cell_volume 2694.101839
_symmetry_space_group_name_H-M "C 2/M"
_symmetry_group_IT_number 12
_symmetry_cell_setting 'monoclinic'
loop_
_space_group_symop_operation_xyz
x,y,z
-x,y,-z
-x,-y,-z
x,-y,z
1/2+x,1/2+y,z
1/2-x,1/2+y,-z
1/2-x,1/2-y,-z
1/2+x,1/2-y,z
loop_
_atom_site_type_symbol
_atom_site_label
_atom_site_fract_x
_atom_site_fract_y
_atom_site_fract_z
Si Si1 0.002593 0.883272 0.360201
Si Si2 0.175888 0.809429 0.813781
Si Si3 0.172125 0.617217 0.289141
Si Si4 0.126157 0.885270 0.102513
Si Si5 0.993460 0.385146 0.063348
Si Si6 0.652909 0.622788 0.530560
Si Si7 0.038776 0.777371 0.866216
O O1 0.964218 0.824430 0.287390
O O2 0.842961 0.882003 0.330807
O O3 0.135299 0.845378 0.458331
O O4 0.034370 0.000000 0.357926
O O5 0.235624 0.694782 0.845022
O O6 0.321470 0.871223 0.847754
O O7 0.139893 0.838357 0.862990
O O8 0.113005 0.500000 0.258327
O O9 0.203046 0.640035 0.367969
O O10 0.070479 0.704708 0.217988
O O11 0.046958 0.856174 0.128736
O O12 0.180317 0.000000 0.123291
O O13 0.000000 0.871820 0.000000
O O14 0.944006 0.500000 0.051412
O O15 0.900965 0.306618 0.063687
O O16 0.000000 0.360466 0.000000
O O17 0.500000 0.662565 0.500000
O O18 0.638485 0.500000 0.522233
#
# Coordination Sequence:
#
# PCOD9206982 Si02
#       7
#     8   8   8   8   8   8   8
#     4   9  15  28  51  77 106 133 164 208 254 299
#     4  11  21  33  53  80 104 132 168 211 257 303
#     4   9  15  28  51  77 106 133 164 208 254 299
#     4  10  23  41  54  67  97 139 176 211 251 301
#     4  10  21  37  56  77 102 131 165 211 264 313
#     4   7  12  22  43  76 104 131 163 199 248 300
#     4  11  21  33  53  80 104 132 168 211 257 303
#
# _framework density 20.786148000000001
#
# number of rings (size 3 to 8) (size 9 to 14) (size 15 to 20)
#    0.000    2.429    2.857    4.286    0.000    4.571 
#    0.000    3.571    0.000    0.000    0.000    2.000 
#    0.000    0.000    0.000    0.000    0.000    0.000 
#
# Total GULP energy -156002.473462 kJ/mol
# GULP energy per Si atom -5571.516909 kJ/mol
# Density = 2.073884 g / cm^3
# Si number density = 20.786148 Si / 1000 Ang^3
#
#
#
# Elastic Constant Matrix: (Units=GPa)
#
#
# Indices 1 2 3 4 5 6 
#
# 1 75.6964 -4.5372 21.8897 0.0000 -18.4132 0.0000
# 2 -4.5372 64.2699 28.6459 0.0000 1.9458 0.0000
# 3 21.8897 28.6459 121.2884 0.0000 -45.3008 0.0000
# 4 0.0000 0.0000 0.0000 27.1289 0.0000 -4.2722
# 5 -18.4132 1.9458 -45.3008 0.0000 31.8171 0.0000
# 6 0.0000 0.0000 0.0000 -4.2722 0.0000 -0.2113
#
#
#
# Elastic Compliance Matrix: (Units=1/GPa)
#
#
# Indices 1 2 3 4 5 6 
#
# 1 0.015459 0.000336 0.000992 0.000000 0.010338 0.000000
# 2 0.000336 0.021388 -0.011806 0.000000 -0.017923 0.000000
# 3 0.000992 -0.011806 0.024216 0.000000 0.035774 0.000000
# 4 0.000000 0.000000 0.000000 0.008809 0.000000 -0.178130
# 5 0.010338 -0.017923 0.035774 0.000000 0.089443 0.000000
# 6 0.000000 0.000000 0.000000 -0.178130 0.000000 -1.131135
#
#
# Mechanical properties :
#
#
# Convention : Reuss Voigt Hill
#
# Bulk Modulus (GPa) = 24.93399 39.25016 32.09207
# Shear Modulus (GPa) = -5.33336 26.09737 10.38200
#
# Velocity S-wave (km/s) = -1.60356 3.54717 2.23730
# Velocity P-wave (km/s) = 2.93138 5.97498 4.70603
#
# Compressibility (1/GPa) = 0.04010589
#
# Stress axis : x y z
#
# Youngs Moduli (GPa) = 64.68845 46.75527 41.29564
#
# Poissons Ratio (x) = -0.01572 -0.04096
# Poissons Ratio (y) = -0.02175 0.48755
# Poissons Ratio (z) = -0.06416 0.55201
#
# Static dielectric constant tensor:
#      x y z
#    x 1.761430 0.000000 -0.008060 
#    y 0.000000 1.731890 0.000000 
#    z -0.008060 0.000000 1.862330 
# 
# From -- ./inp_files/361160.got.cif
#   From: 2010.05.17/outbox.cif.g08.bks.cpg/sg12_181_cif.got.tgz:361160.got - 2010.06.03 13:09:07.
