data_PCOD9206280
_publ_section_title
;
Structure prediction by ZEFSAII (Michael W. Deem and Ramdas Pophale) SiO2 
 PCOD9206280
Probable space group: C 2/M
;
_chemical_formula_sum "Si O2"
_cell_formula_units_Z 60
_cell_length_a 29.431464
_cell_length_b 17.375850
_cell_length_c 9.868399
_cell_angle_alpha 90.000000
_cell_angle_beta 42.108571
_cell_angle_gamma 90.000000
_cell_volume 3383.979817
_symmetry_space_group_name_H-M "C 2/M"
_symmetry_group_IT_number 12
_symmetry_cell_setting 'monoclinic'
loop_
_space_group_symop_operation_xyz
x,y,z
-x,y,-z
-x,-y,-z
x,-y,z
1/2+x,1/2+y,z
1/2-x,1/2+y,-z
1/2-x,1/2-y,-z
1/2+x,1/2-y,z
loop_
_atom_site_type_symbol
_atom_site_label
_atom_site_fract_x
_atom_site_fract_y
_atom_site_fract_z
Si Si1 0.920197 0.773942 0.185291
Si Si2 0.748178 0.838512 0.813954
Si Si3 0.879431 0.260017 0.573872
Si Si4 0.306901 0.086701 0.810121
Si Si5 0.175674 0.911673 0.599249
Si Si6 0.885974 0.752357 0.956091
Si Si7 0.000000 0.253065 0.500000
Si Si8 0.175375 0.087660 0.913992
O O1 0.896859 0.734361 0.375984
O O2 0.891593 0.860418 0.261288
O O3 0.893736 0.741452 0.100398
O O4 0.000000 0.773290 0.000000
O O5 0.812297 0.792443 0.732933
O O6 0.771489 0.874008 0.620306
O O7 0.723000 0.902520 0.973752
O O8 0.685539 0.781799 0.930543
O O9 0.860601 0.345389 0.666603
O O10 0.941087 0.223805 0.524990
O O11 0.242344 0.099216 0.854910
O O12 0.332764 0.000000 0.732289
O O13 0.197147 0.907044 0.708359
O O14 0.164101 0.000000 0.588992
O O15 0.947219 0.716298 0.732839
O O16 0.879441 0.844627 0.943522
O O17 0.150170 0.000000 0.993374
#
# Coordination Sequence:
#
# PCOD9206280 Si02
#       8
#     8   8   8   8   8   8   4   8
#     4  10  21  36  57  85 114 148 184 225 277 331
#     4  11  21  36  60  85 110 143 191 234 275 321
#     4  11  22  37  59  85 112 144 190 233 272 331
#     4  11  21  35  56  82 113 145 180 231 287 326
#     4   9  20  35  55  83 115 146 185 227 273 329
#     4  11  21  36  60  84 111 146 188 232 276 327
#     4  12  22  36  58  82 114 148 184 230 280 326
#     4   9  19  35  55  82 115 145 180 228 279 329
#
# _framework density 17.730602000000001
#
# number of rings (size 3 to 8) (size 9 to 14) (size 15 to 20)
#    0.000    1.600    4.000    1.600    1.867    1.867 
#    0.000    0.667    0.000    0.400    0.000    0.000 
#    0.000    0.000    0.000    0.000    0.000    0.000 
#
# Total GULP energy -167010.021892 kJ/mol
# GULP energy per Si atom -5567.000730 kJ/mol
# Density = 1.769025 g / cm^3
# Si number density = 17.730602 Si / 1000 Ang^3
#
#
#
# Elastic Constant Matrix: (Units=GPa)
#
#
# Indices 1 2 3 4 5 6 
#
# 1 95.9026 7.3614 32.3462 0.0000 0.8723 0.0000
# 2 7.3614 57.7724 30.3799 0.0000 5.0012 0.0000
# 3 32.3462 30.3799 74.9156 0.0000 -0.9127 0.0000
# 4 0.0000 0.0000 0.0000 8.7938 0.0000 9.2168
# 5 0.8723 5.0012 -0.9127 0.0000 28.4440 0.0000
# 6 0.0000 0.0000 0.0000 9.2168 0.0000 11.6742
#
#
#
# Elastic Compliance Matrix: (Units=1/GPa)
#
#
# Indices 1 2 3 4 5 6 
#
# 1 0.012335 0.001664 -0.006011 0.000000 -0.000864 0.000000
# 2 0.001664 0.022728 -0.009988 0.000000 -0.004368 0.000000
# 3 -0.006011 -0.009988 0.020026 0.000000 0.002583 0.000000
# 4 0.000000 0.000000 0.000000 0.659129 0.000000 -0.520383
# 5 -0.000864 -0.004368 0.002583 0.000000 0.036034 0.000000
# 6 0.000000 0.000000 0.000000 -0.520383 0.000000 0.496502
#
#
# Mechanical properties :
#
#
# Convention : Reuss Voigt Hill
#
# Bulk Modulus (GPa) = 37.85363 40.97395 39.41379
# Shear Modulus (GPa) = 3.89338 20.34928 12.12133
#
# Velocity S-wave (km/s) = 1.48345 3.39144 2.61749
# Velocity P-wave (km/s) = 4.93253 6.20444 5.60468
#
# Compressibility (1/GPa) = 0.02641755
#
# Stress axis : x y z
#
# Youngs Moduli (GPa) = 81.07139 43.99903 49.93586
#
# Poissons Ratio (x) = -0.07322 0.30017
# Poissons Ratio (y) = -0.13491 0.49877
# Poissons Ratio (z) = 0.48733 0.43948
#
# Static dielectric constant tensor:
#      x y z
#    x 1.623500 0.000000 0.037670 
#    y 0.000000 1.610630 0.000000 
#    z 0.037670 0.000000 1.616510 
# 
# From -- ./inp_files/105799.got.cif
#   From: 2010.05.17/outbox.cif.g08.bks.cpg/sg12_53_cif.got.tgz:105799.got - 2010.06.03 13:09:07.
