data_PCOD9206955
_publ_section_title
;
Structure prediction by ZEFSAII (Michael W. Deem and Ramdas Pophale) SiO2 
 PCOD9206955
Probable space group: C 2/M
;
_chemical_formula_sum "Si O2"
_cell_formula_units_Z 58
_cell_length_a 5.573038
_cell_length_b 28.112766
_cell_length_c 21.030850
_cell_angle_alpha 90.000000
_cell_angle_beta 121.412099
_cell_angle_gamma 90.000000
_cell_volume 2812.067801
_symmetry_space_group_name_H-M "C 2/M"
_symmetry_group_IT_number 12
_symmetry_cell_setting 'monoclinic'
loop_
_space_group_symop_operation_xyz
x,y,z
-x,y,-z
-x,-y,-z
x,-y,z
1/2+x,1/2+y,z
1/2-x,1/2+y,-z
1/2-x,1/2-y,-z
1/2+x,1/2-y,z
loop_
_atom_site_type_symbol
_atom_site_label
_atom_site_fract_x
_atom_site_fract_y
_atom_site_fract_z
Si Si1 0.420154 0.668748 0.418418
Si Si2 0.674342 0.779042 0.088190
Si Si3 0.500000 0.500000 0.500000
Si Si4 0.636828 0.106724 0.677726
Si Si5 0.728745 0.357127 0.797160
Si Si6 0.796682 0.275710 0.721326
Si Si7 0.631758 0.571746 0.404814
Si Si8 0.912423 0.445695 0.759602
O O1 0.500000 0.682892 0.500000
O O2 0.388401 0.712053 0.366033
O O3 0.629337 0.627121 0.424201
O O4 0.121612 0.641418 0.371029
O O5 0.452209 0.749821 0.102708
O O6 0.758709 0.827333 0.136655
O O7 0.500000 0.789665 0.000000
O O8 0.615224 0.540774 0.465053
O O9 0.635378 0.069663 0.618307
O O10 0.638314 0.076379 0.742768
O O11 0.917468 0.137845 0.724435
O O12 0.888491 0.324817 0.767209
O O13 0.858272 0.409736 0.810159
O O14 0.576832 0.251259 0.739053
O O15 0.358320 0.558132 0.324852
O O16 0.960943 0.500000 0.783721
#
# Coordination Sequence:
#
# PCOD9206955 Si02
#       8
#     8   8   2   8   8   8   8   8
#     4  11  23  42  55  78 116 158 209 276 332 395
#     4  10  23  42  70 111 149 179 217 266 326 398
#     4  12  20  36  58  88 106 152 210 282 352 424
#     4  10  21  39  60  86 116 171 213 271 337 401
#     4  11  22  40  67  91 132 170 210 270 328 402
#     4  12  25  40  62  90 117 159 216 264 319 391
#     4  10  21  37  55  79 117 149 207 271 344 407
#     4  10  21  37  59  90 124 158 218 275 326 393
#
# _framework density 20.625391
#
# number of rings (size 3 to 8) (size 9 to 14) (size 15 to 20)
#    0.000    1.379    5.517    1.655    2.897    1.655 
#    0.000    2.759    0.000    0.414    0.000    0.966 
#    0.000    0.000    0.000    0.000    0.000    0.000 
#
# Total GULP energy -161566.477396 kJ/mol
# GULP energy per Si atom -5571.257841 kJ/mol
# Density = 2.057845 g / cm^3
# Si number density = 20.625391 Si / 1000 Ang^3
#
#
#
# Elastic Constant Matrix: (Units=GPa)
#
#
# Indices 1 2 3 4 5 6 
#
# 1 91.8804 46.9249 27.5988 0.0000 -20.4467 0.0000
# 2 46.9249 100.5234 50.0492 0.0000 -6.9612 0.0000
# 3 27.5988 50.0492 95.6235 0.0000 -12.6006 0.0000
# 4 0.0000 0.0000 0.0000 18.1782 0.0000 -14.1614
# 5 -20.4467 -6.9612 -12.6006 0.0000 21.1699 0.0000
# 6 0.0000 0.0000 0.0000 -14.1614 0.0000 4.6999
#
#
#
# Elastic Compliance Matrix: (Units=1/GPa)
#
#
# Indices 1 2 3 4 5 6 
#
# 1 0.018014 -0.007796 0.000907 0.000000 0.015376 0.000000
# 2 -0.007796 0.016829 -0.007402 0.000000 -0.006402 0.000000
# 3 0.000907 -0.007402 0.015045 0.000000 0.007397 0.000000
# 4 0.000000 0.000000 0.000000 -0.040830 0.000000 -0.123027
# 5 0.015376 -0.006402 0.007397 0.000000 0.064385 0.000000
# 6 0.000000 0.000000 0.000000 -0.123027 0.000000 -0.157923
#
#
# Mechanical properties :
#
#
# Convention : Reuss Voigt Hill
#
# Bulk Modulus (GPa) = 46.93333 59.68589 53.30961
# Shear Modulus (GPa) = -102.46689 19.70656 -41.38016
#
# Velocity S-wave (km/s) = -7.05605 3.09439 -4.48400
# Velocity P-wave (km/s) = 6.60146 6.46281 0.95167
#
# Compressibility (1/GPa) = 0.02130682
#
# Stress axis : x y z
#
# Youngs Moduli (GPa) = 55.51100 59.42062 66.46881
#
# Poissons Ratio (x) = 0.46326 -0.06030
# Poissons Ratio (y) = 0.43278 0.49199
# Poissons Ratio (z) = -0.05036 0.43982
#
# Static dielectric constant tensor:
#      x y z
#    x 1.886370 0.000000 -0.021760 
#    y 0.000000 1.768880 0.000000 
#    z -0.021760 0.000000 1.734290 
# 
# From -- ./inp_files/253636.got.cif
#   From: 2010.05.17/outbox.cif.g08.bks.cpg/sg12_127_cif.got.tgz:253636.got - 2010.06.03 13:09:07.
