data_PCOD9206884
_publ_section_title
;
Structure prediction by ZEFSAII (Michael W. Deem and Ramdas Pophale) SiO2 
 PCOD9206884
Probable space group: C 2/M
;
_chemical_formula_sum "Si O2"
_cell_formula_units_Z 52
_cell_length_a 17.977503
_cell_length_b 14.788114
_cell_length_c 16.873587
_cell_angle_alpha 90.000000
_cell_angle_beta 139.198005
_cell_angle_gamma 90.000000
_cell_volume 2931.297636
_symmetry_space_group_name_H-M "C 2/M"
_symmetry_group_IT_number 12
_symmetry_cell_setting 'monoclinic'
loop_
_space_group_symop_operation_xyz
x,y,z
-x,y,-z
-x,-y,-z
x,-y,z
1/2+x,1/2+y,z
1/2-x,1/2+y,-z
1/2-x,1/2-y,-z
1/2+x,1/2-y,z
loop_
_atom_site_type_symbol
_atom_site_label
_atom_site_fract_x
_atom_site_fract_y
_atom_site_fract_z
Si Si1 0.413223 0.391795 0.669433
Si Si2 0.973742 0.841300 0.391777
Si Si3 0.736100 0.103659 0.124694
Si Si4 0.850972 0.107542 0.053740
Si Si5 0.746699 0.104380 0.670471
Si Si6 0.500000 0.834852 0.500000
Si Si7 0.866504 0.786728 0.906554
O O1 0.418225 0.500000 0.664503
O O2 0.427633 0.352760 0.593363
O O3 0.525351 0.365599 0.810820
O O4 0.302358 0.369399 0.631162
O O5 0.000000 0.880460 0.500000
O O6 0.860622 0.884953 0.265032
O O7 0.960212 0.734731 0.398952
O O8 0.759672 0.121437 0.050325
O O9 0.659136 0.180931 0.100897
O O10 0.697658 0.000000 0.103414
O O11 0.855175 0.000000 0.040427
O O12 0.829175 0.162239 0.956679
O O13 0.610655 0.111636 0.562291
O O14 0.798963 0.169921 0.778824
O O15 0.780829 0.000000 0.714160
O O16 0.000000 0.802111 0.000000
#
# Coordination Sequence:
#
# PCOD9206884 Si02
#       7
#     8   8   8   8   8   4   8
#     4   9  18  32  53  83 110 141 180 229 279 315
#     4   9  18  35  57  81 105 139 190 230 265 322
#     4  10  21  37  54  78 111 146 184 226 276 322
#     4   9  18  33  55  82 110 141 180 227 271 320
#     4  11  22  37  56  81 116 148 181 224 274 332
#     4  10  21  38  55  82 108 148 185 218 283 326
#     4  12  21  34  57  84 111 145 184 223 271 323
#
# _framework density 17.739584000000001
#
# number of rings (size 3 to 8) (size 9 to 14) (size 15 to 20)
#    0.462    1.538    3.077    2.538    0.000    2.769 
#    0.000    0.000    0.000    0.000    0.000    1.077 
#    0.000    0.000    0.000    0.000    0.000    0.000 
#
# Total GULP energy -144902.950908 kJ/mol
# GULP energy per Si atom -5573.190420 kJ/mol
# Density = 1.769921 g / cm^3
# Si number density = 17.739584 Si / 1000 Ang^3
#
#
#
# Elastic Constant Matrix: (Units=GPa)
#
#
# Indices 1 2 3 4 5 6 
#
# 1 103.5172 34.0230 32.2483 0.0000 -15.5886 0.0000
# 2 34.0230 70.3324 3.7404 0.0000 -9.5989 0.0000
# 3 32.2483 3.7404 33.9253 0.0000 -5.9363 0.0000
# 4 0.0000 0.0000 0.0000 -2.9378 0.0000 -18.3780
# 5 -15.5886 -9.5989 -5.9363 0.0000 32.2654 0.0000
# 6 0.0000 0.0000 0.0000 -18.3780 0.0000 5.5068
#
#
#
# Elastic Compliance Matrix: (Units=1/GPa)
#
#
# Indices 1 2 3 4 5 6 
#
# 1 0.017132 -0.007025 -0.014908 0.000000 0.003444 0.000000
# 2 -0.007025 0.017726 0.005220 0.000000 0.002840 0.000000
# 3 -0.014908 0.005220 0.043483 0.000000 0.002351 0.000000
# 4 0.000000 0.000000 0.000000 -0.015559 0.000000 -0.051926
# 5 0.003444 0.002840 0.002351 0.000000 0.033935 0.000000
# 6 0.000000 0.000000 0.000000 -0.051926 0.000000 0.008300
#
#
# Mechanical properties :
#
#
# Convention : Reuss Voigt Hill
#
# Bulk Modulus (GPa) = 22.26361 38.64426 30.45393
# Shear Modulus (GPa) = 32.59151 16.15109 24.37130
#
# Velocity S-wave (km/s) = 4.29093 3.02065 3.71055
# Velocity P-wave (km/s) = 6.09319 5.83071 5.96340
#
# Compressibility (1/GPa) = 0.04491635
#
# Stress axis : x y z
#
# Youngs Moduli (GPa) = 58.37087 56.41334 22.99745
#
# Poissons Ratio (x) = 0.39628 0.34284
# Poissons Ratio (y) = 0.41003 -0.12004
# Poissons Ratio (z) = 0.87018 -0.29447
#
# Static dielectric constant tensor:
#      x y z
#    x 1.613310 0.000000 0.000040 
#    y 0.000000 1.610570 0.000000 
#    z 0.000040 0.000000 1.588070 
# 
# From -- ./inp_files/277660.got.cif
#   From: 2010.05.17/outbox.cif.g08.bks.cpg/sg12_139_cif.got.tgz:277660.got - 2010.06.03 13:09:07.
