data_PCOD9206747
_publ_section_title
;
Structure prediction by ZEFSAII (Michael W. Deem and Ramdas Pophale) SiO2 
 PCOD9206747
Probable space group: C 2/M
;
_chemical_formula_sum "Si O2"
_cell_formula_units_Z 56
_cell_length_a 15.263429
_cell_length_b 21.618950
_cell_length_c 8.648347
_cell_angle_alpha 90.000000
_cell_angle_beta 85.269350
_cell_angle_gamma 90.000000
_cell_volume 2844.053923
_symmetry_space_group_name_H-M "C 2/M"
_symmetry_group_IT_number 12
_symmetry_cell_setting 'monoclinic'
loop_
_space_group_symop_operation_xyz
x,y,z
-x,y,-z
-x,-y,-z
x,-y,z
1/2+x,1/2+y,z
1/2-x,1/2+y,-z
1/2-x,1/2-y,-z
1/2+x,1/2-y,z
loop_
_atom_site_type_symbol
_atom_site_label
_atom_site_fract_x
_atom_site_fract_y
_atom_site_fract_z
Si Si1 0.500000 0.842546 0.000000
Si Si2 0.500000 0.320048 0.500000
Si Si3 0.602785 0.322527 0.006624
Si Si4 0.614859 0.570664 0.571540
Si Si5 0.335233 0.927704 0.045315
Si Si6 0.748917 0.633708 0.760132
Si Si7 0.601774 0.771217 0.251395
Si Si8 0.844915 0.068932 0.794806
O O1 0.418317 0.884983 0.058602
O O2 0.530867 0.807031 0.152543
O O3 0.447955 0.369329 0.398483
O O4 0.440644 0.274255 0.614237
O O5 0.645563 0.272775 0.115906
O O6 0.603641 0.386033 0.101193
O O7 0.500000 0.307140 0.000000
O O8 0.666753 0.330305 0.851922
O O9 0.586826 0.500000 0.621865
O O10 0.705597 0.589288 0.639842
O O11 0.626150 0.569935 0.385467
O O12 0.258194 0.915445 0.179468
O O13 0.357733 0.000000 0.042792
O O14 0.292301 0.907637 0.888564
O O15 0.824953 0.681290 0.696638
O O16 0.854245 0.000000 0.856115
#
# Coordination Sequence:
#
# PCOD9206747 Si02
#       8
#     4   4   8   8   8   8   8   8
#     4  10  21  36  62  86 117 158 196 252 294 348
#     4  12  25  42  60  86 125 160 204 246 292 366
#     4  11  20  39  59  84 120 152 197 242 293 355
#     4  11  23  41  61  87 118 158 203 249 301 349
#     4   9  18  37  61  89 117 151 200 247 299 352
#     4  10  23  37  61  88 119 158 192 247 299 351
#     4  11  23  40  56  87 122 157 200 239 295 357
#     4   9  20  37  58  85 118 153 196 244 295 355
#
# _framework density 19.690201999999999
#
# number of rings (size 3 to 8) (size 9 to 14) (size 15 to 20)
#    0.000    1.714    2.143    2.143    0.000    2.571 
#    0.000    0.000    0.000    0.000    0.000   10.000 
#    0.000    0.000    0.000    0.000    0.000    0.000 
#
# Total GULP energy -156050.019872 kJ/mol
# GULP energy per Si atom -5573.214995 kJ/mol
# Density = 1.964539 g / cm^3
# Si number density = 19.690202 Si / 1000 Ang^3
#
#
#
# Elastic Constant Matrix: (Units=GPa)
#
#
# Indices 1 2 3 4 5 6 
#
# 1 88.7111 54.8483 28.7826 0.0000 9.3767 0.0000
# 2 54.8483 92.8973 31.4491 0.0000 -3.2026 0.0000
# 3 28.7826 31.4491 36.1246 0.0000 -2.3975 0.0000
# 4 0.0000 0.0000 0.0000 16.7329 0.0000 -2.7145
# 5 9.3767 -3.2026 -2.3975 0.0000 25.9007 0.0000
# 6 0.0000 0.0000 0.0000 -2.7145 0.0000 24.7425
#
#
#
# Elastic Compliance Matrix: (Units=1/GPa)
#
#
# Indices 1 2 3 4 5 6 
#
# 1 0.021356 -0.009877 -0.009067 0.000000 -0.009792 0.000000
# 2 -0.009877 0.019842 -0.009060 0.000000 0.005191 0.000000
# 3 -0.009067 -0.009060 0.043202 0.000000 0.006161 0.000000
# 4 0.000000 0.000000 0.000000 0.060845 0.000000 0.006675
# 5 -0.009792 0.005191 0.006161 0.000000 0.043366 0.000000
# 6 0.000000 0.000000 0.000000 0.006675 0.000000 0.041149
#
#
# Mechanical properties :
#
#
# Convention : Reuss Voigt Hill
#
# Bulk Modulus (GPa) = 35.22005 49.76589 42.49297
# Shear Modulus (GPa) = 16.93575 20.31874 18.62724
#
# Velocity S-wave (km/s) = 2.93595 3.21584 3.07907
# Velocity P-wave (km/s) = 5.42393 6.25445 5.85393
#
# Compressibility (1/GPa) = 0.02839291
#
# Stress axis : x y z
#
# Youngs Moduli (GPa) = 46.82475 50.39713 23.14692
#
# Poissons Ratio (x) = 0.49779 0.20987
# Poissons Ratio (y) = 0.46250 0.20971
# Poissons Ratio (z) = 0.42455 0.45660
#
# Static dielectric constant tensor:
#      x y z
#    x 1.745930 0.000000 -0.002710 
#    y 0.000000 1.731120 0.000000 
#    z -0.002710 0.000000 1.678920 
# 
# From -- ./inp_files/64112.got.cif
#   From: 2010.05.17/outbox.cif.g08.bks.cpg/sg12_33_cif.got.tgz:64112.got - 2010.06.03 13:09:07.
