data_PCOD9206313
_publ_section_title
;
Structure prediction by ZEFSAII (Michael W. Deem and Ramdas Pophale) SiO2 
 PCOD9206313
Probable space group: C 2/M
;
_chemical_formula_sum "Si O2"
_cell_formula_units_Z 64
_cell_length_a 13.554250
_cell_length_b 17.908530
_cell_length_c 14.929792
_cell_angle_alpha 90.000000
_cell_angle_beta 106.225703
_cell_angle_gamma 90.000000
_cell_volume 3479.658403
_symmetry_space_group_name_H-M "C 2/M"
_symmetry_group_IT_number 12
_symmetry_cell_setting 'monoclinic'
loop_
_space_group_symop_operation_xyz
x,y,z
-x,y,-z
-x,-y,-z
x,-y,z
1/2+x,1/2+y,z
1/2-x,1/2+y,-z
1/2-x,1/2-y,-z
1/2+x,1/2-y,z
loop_
_atom_site_type_symbol
_atom_site_label
_atom_site_fract_x
_atom_site_fract_y
_atom_site_fract_z
Si Si1 0.920029 0.300763 0.750341
Si Si2 0.274483 0.308089 0.427557
Si Si3 0.615273 0.412715 0.840404
Si Si4 0.256228 0.411663 0.952009
Si Si5 0.440867 0.302150 0.321901
Si Si6 0.476611 0.089446 0.096280
Si Si7 0.435585 0.670870 0.896953
Si Si8 0.912641 0.082861 0.554492
O O1 0.822636 0.312241 0.662302
O O2 0.906619 0.235308 0.820444
O O3 0.015780 0.270927 0.715175
O O4 0.948347 0.373345 0.813934
O O5 0.250000 0.250000 0.500000
O O6 0.373364 0.285588 0.392184
O O7 0.310057 0.385375 0.482952
O O8 0.610726 0.500000 0.812509
O O9 0.624648 0.355340 0.760926
O O10 0.511322 0.387731 0.866197
O O11 0.705688 0.402869 0.935758
O O12 0.262403 0.500000 0.934358
O O13 0.139777 0.386159 0.912471
O O14 0.334970 0.368614 0.909282
O O15 0.540405 0.353884 0.369293
O O16 0.481830 0.000000 0.102415
O O17 0.500000 0.110969 0.000000
O O18 0.500000 0.698924 0.000000
O O19 0.000000 0.077413 0.500000
O O20 0.900396 0.000000 0.590853
#
# Coordination Sequence:
#
# PCOD9206313 Si02
#       8
#     8   8   8   8   8   8   8   8
#     4  11  23  37  59  84 114 153 194 237 292 341
#     4  11  23  39  59  84 113 151 191 238 297 352
#     4   9  17  31  55  88 118 146 185 234 286 342
#     4   9  18  34  57  81 117 160 188 227 279 330
#     4  10  21  36  57  87 115 147 185 240 296 348
#     4  10  23  41  57  81 120 162 202 237 275 333
#     4   9  18  34  53  88 119 148 189 231 285 344
#     4   9  18  36  59  83 111 140 177 234 296 346
#
# _framework density 18.392610000000001
#
# number of rings (size 3 to 8) (size 9 to 14) (size 15 to 20)
#    0.000    2.250    1.250    1.125    3.500    2.500 
#    0.000    2.500    0.000    0.750    0.000    1.750 
#    0.000    0.000    0.000    0.000    0.000    0.000 
#
# Total GULP energy -178548.215816 kJ/mol
# GULP energy per Si atom -5579.631744 kJ/mol
# Density = 1.835075 g / cm^3
# Si number density = 18.392610 Si / 1000 Ang^3
#
#
#
# Elastic Constant Matrix: (Units=GPa)
#
#
# Indices 1 2 3 4 5 6 
#
# 1 72.3323 31.5119 48.6559 0.0000 2.6139 0.0000
# 2 31.5119 46.8240 29.4389 0.0000 3.6409 0.0000
# 3 48.6559 29.4389 99.7316 0.0000 12.3279 0.0000
# 4 0.0000 0.0000 0.0000 19.8576 0.0000 1.0802
# 5 2.6139 3.6409 12.3279 0.0000 34.2446 0.0000
# 6 0.0000 0.0000 0.0000 1.0802 0.0000 13.4838
#
#
#
# Elastic Compliance Matrix: (Units=1/GPa)
#
#
# Indices 1 2 3 4 5 6 
#
# 1 0.024674 -0.011096 -0.009079 0.000000 0.002565 0.000000
# 2 -0.011096 0.031214 -0.003657 0.000000 -0.001155 0.000000
# 3 -0.009079 -0.003657 0.016120 0.000000 -0.004721 0.000000
# 4 0.000000 0.000000 0.000000 0.050579 0.000000 -0.004052
# 5 0.002565 -0.001155 -0.004721 0.000000 0.030828 0.000000
# 6 0.000000 0.000000 0.000000 -0.004052 0.000000 0.074488
#
#
# Mechanical properties :
#
#
# Convention : Reuss Voigt Hill
#
# Bulk Modulus (GPa) = 41.08273 48.67790 44.88032
# Shear Modulus (GPa) = 17.62541 20.80262 19.21402
#
# Velocity S-wave (km/s) = 3.09898 3.36673 3.23563
# Velocity P-wave (km/s) = 5.93211 6.45264 6.19784
#
# Compressibility (1/GPa) = 0.02434113
#
# Stress axis : x y z
#
# Youngs Moduli (GPa) = 40.52858 32.03738 62.03657
#
# Poissons Ratio (x) = 0.35550 0.56324
# Poissons Ratio (y) = 0.44972 0.22689
# Poissons Ratio (z) = 0.36797 0.11717
#
# Static dielectric constant tensor:
#      x y z
#    x 1.622830 0.000000 0.003240 
#    y 0.000000 1.626900 0.000000 
#    z 0.003240 0.000000 1.652070 
# 
# From -- ./inp_files/216405.got.cif
#   From: 2010.05.17/outbox.cif.g08.bks.cpg/sg12_109_cif.got.tgz:216405.got - 2010.06.03 13:09:07.
