data_PCOD9206848
_publ_section_title
;
Structure prediction by ZEFSAII (Michael W. Deem and Ramdas Pophale) SiO2 
 PCOD9206848
Probable space group: C 2/M
;
_chemical_formula_sum "Si O2"
_cell_formula_units_Z 40
_cell_length_a 15.422107
_cell_length_b 25.685317
_cell_length_c 7.430613
_cell_angle_alpha 90.000000
_cell_angle_beta 139.951019
_cell_angle_gamma 90.000000
_cell_volume 1893.925362
_symmetry_space_group_name_H-M "C 2/M"
_symmetry_group_IT_number 12
_symmetry_cell_setting 'monoclinic'
loop_
_space_group_symop_operation_xyz
x,y,z
-x,y,-z
-x,-y,-z
x,-y,z
1/2+x,1/2+y,z
1/2-x,1/2+y,-z
1/2-x,1/2-y,-z
1/2+x,1/2-y,z
loop_
_atom_site_type_symbol
_atom_site_label
_atom_site_fract_x
_atom_site_fract_y
_atom_site_fract_z
Si Si1 0.657223 0.592748 0.977524
Si Si2 0.658711 0.000000 0.197615
Si Si3 0.150959 0.906897 0.532785
Si Si4 0.158984 0.500000 0.766645
Si Si5 0.877342 0.786517 0.549804
Si Si6 0.172684 0.789927 0.107495
O O1 0.500935 0.582370 0.780589
O O2 0.651719 0.590027 0.751186
O O3 0.766047 0.549450 0.198839
O O4 0.701220 0.649020 0.121464
O O5 0.741848 0.947383 0.379050
O O6 0.500000 0.000000 0.000000
O O7 0.674392 0.000000 0.006463
O O8 0.175035 0.845680 0.544502
O O9 0.000000 0.500000 0.500000
O O10 0.861547 0.776871 0.738519
O O11 0.797536 0.748924 0.288518
O O12 0.037496 0.782467 0.777362
#
# Coordination Sequence:
#
# PCOD9206848 Si02
#       6
#     8   4   8   4   8   8
#     4   9  18  35  58  78 105 145 183 225 265 325
#     4  10  21  37  53  83 111 142 180 227 274 328
#     4   9  18  35  58  79 105 141 188 222 268 323
#     4  10  21  37  53  79 115 144 178 224 281 321
#     4   9  18  34  52  79 109 142 182 225 269 325
#     4   9  18  34  53  78 108 144 182 222 273 322
#
# _framework density 21.120155
#
# number of rings (size 3 to 8) (size 9 to 14) (size 15 to 20)
#    0.000    2.800    0.000    0.600    0.000    4.800 
#   14.400    0.000    0.000    6.000    0.000    0.000 
#    0.000    0.000    0.000    0.000    0.000    0.000 
#
# Total GULP energy -111393.838339 kJ/mol
# GULP energy per Si atom -5569.691917 kJ/mol
# Density = 2.107208 g / cm^3
# Si number density = 21.120155 Si / 1000 Ang^3
#
#
#
# Elastic Constant Matrix: (Units=GPa)
#
#
# Indices 1 2 3 4 5 6 
#
# 1 71.0149 38.0618 25.5942 0.0000 6.4190 0.0000
# 2 38.0618 171.8865 123.0470 0.0000 51.2960 0.0000
# 3 25.5942 123.0470 119.6414 0.0000 29.3537 0.0000
# 4 0.0000 0.0000 0.0000 -1.2073 0.0000 27.8889
# 5 6.4190 51.2960 29.3537 0.0000 37.5092 0.0000
# 6 0.0000 0.0000 0.0000 27.8889 0.0000 15.1473
#
#
#
# Elastic Compliance Matrix: (Units=1/GPa)
#
#
# Indices 1 2 3 4 5 6 
#
# 1 0.016363 -0.006218 0.001850 0.000000 0.004255 0.000000
# 2 -0.006218 0.035002 -0.028695 0.000000 -0.024348 0.000000
# 3 0.001850 -0.028695 0.034559 0.000000 0.011880 0.000000
# 4 0.000000 0.000000 0.000000 -0.019027 0.000000 0.035033
# 5 0.004255 -0.024348 0.011880 0.000000 0.049932 0.000000
# 6 0.000000 0.000000 0.000000 0.035033 0.000000 0.001517
#
#
# Mechanical properties :
#
#
# Convention : Reuss Voigt Hill
#
# Bulk Modulus (GPa) = 50.50497 81.77209 66.13853
# Shear Modulus (GPa) = 26.16865 22.01250 24.09058
#
# Velocity S-wave (km/s) = 3.52381 3.23189 3.38101
# Velocity P-wave (km/s) = 6.36564 7.26144 6.82825
#
# Compressibility (1/GPa) = 0.01980003
#
# Stress axis : x y z
#
# Youngs Moduli (GPa) = 61.11525 28.56984 28.93585
#
# Poissons Ratio (x) = 0.17763 -0.05354
# Poissons Ratio (y) = 0.37998 0.83030
# Poissons Ratio (z) = -0.11308 0.81980
#
# Static dielectric constant tensor:
#      x y z
#    x 1.886250 0.000000 -0.041800 
#    y 0.000000 1.780320 0.000000 
#    z -0.041800 0.000000 1.854040 
# 
# From -- ./inp_files/79983.got.cif
#   From: 2010.05.17/outbox.cif.g08.bks.cpg/sg12_40_cif.got.tgz:79983.got - 2010.06.03 13:09:07.
