data_PCOD9206488
_publ_section_title
;
Structure prediction by ZEFSAII (Michael W. Deem and Ramdas Pophale) SiO2 
 PCOD9206488
Probable space group: C 2/M
;
_chemical_formula_sum "Si O2"
_cell_formula_units_Z 60
_cell_length_a 14.376149
_cell_length_b 24.658118
_cell_length_c 8.268685
_cell_angle_alpha 90.000000
_cell_angle_beta 99.137519
_cell_angle_gamma 90.000000
_cell_volume 2893.959758
_symmetry_space_group_name_H-M "C 2/M"
_symmetry_group_IT_number 12
_symmetry_cell_setting 'monoclinic'
loop_
_space_group_symop_operation_xyz
x,y,z
-x,y,-z
-x,-y,-z
x,-y,z
1/2+x,1/2+y,z
1/2-x,1/2+y,-z
1/2-x,1/2-y,-z
1/2+x,1/2-y,z
loop_
_atom_site_type_symbol
_atom_site_label
_atom_site_fract_x
_atom_site_fract_y
_atom_site_fract_z
Si Si1 0.424690 0.666468 0.622887
Si Si2 0.476563 0.440062 0.804335
Si Si3 0.273955 0.149405 0.563052
Si Si4 0.141192 0.440497 0.978125
Si Si5 0.460091 0.785802 0.674549
Si Si6 0.393827 0.938370 0.410466
Si Si7 0.000000 0.350944 0.000000
Si Si8 0.308650 0.440052 0.226418
O O1 0.500000 0.656386 0.500000
O O2 0.420766 0.611956 0.727752
O O3 0.319054 0.677520 0.532647
O O4 0.460130 0.721849 0.713983
O O5 0.435057 0.500000 0.757116
O O6 0.579842 0.436891 0.752874
O O7 0.500000 0.437343 0.000000
O O8 0.354047 0.190801 0.641381
O O9 0.325578 0.107879 0.456163
O O10 0.232839 0.109283 0.686623
O O11 0.111948 0.500000 0.034411
O O12 0.112782 0.437998 0.784419
O O13 0.087510 0.391737 0.049176
O O14 0.253141 0.437475 0.040146
O O15 0.500000 0.792147 0.500000
O O16 0.511116 0.816879 0.837143
O O17 0.500000 0.927205 0.500000
O O18 0.370317 0.000000 0.457925
O O19 0.286483 0.500000 0.288726
#
# Coordination Sequence:
#
# PCOD9206488 Si02
#       8
#     8   8   8   8   8   8   4   8
#     4  11  25  44  67  91 125 167 215 278 328 384
#     4  10  23  43  67  94 128 164 206 268 332 392
#     4  12  21  41  65  90 128 171 215 270 322 388
#     4  10  21  36  58  91 130 165 209 259 319 385
#     4  11  26  45  65  95 132 173 227 274 323 384
#     4  10  22  37  59  94 132 171 213 264 323 390
#     4  12  21  40  68  92 123 180 216 262 324 386
#     4  10  21  37  61  95 129 164 208 260 322 394
#
# _framework density 20.732837
#
# number of rings (size 3 to 8) (size 9 to 14) (size 15 to 20)
#    0.000    1.333    2.667    3.000    2.800    1.333 
#    0.000    0.000    0.000    5.200    0.000    0.000 
#    0.000    0.000    0.000    0.000    0.000    0.000 
#
# Total GULP energy -167445.999703 kJ/mol
# GULP energy per Si atom -5581.533323 kJ/mol
# Density = 2.068565 g / cm^3
# Si number density = 20.732837 Si / 1000 Ang^3
#
#
#
# Elastic Constant Matrix: (Units=GPa)
#
#
# Indices 1 2 3 4 5 6 
#
# 1 38.0983 5.8687 -1.7586 0.0000 2.2770 0.0000
# 2 5.8687 135.4078 32.8703 0.0000 -6.6383 0.0000
# 3 -1.7586 32.8703 49.8914 0.0000 -0.8478 0.0000
# 4 0.0000 0.0000 0.0000 22.5766 0.0000 4.9680
# 5 2.2770 -6.6383 -0.8478 0.0000 28.0559 0.0000
# 6 0.0000 0.0000 0.0000 4.9680 0.0000 21.0625
#
#
#
# Elastic Compliance Matrix: (Units=1/GPa)
#
#
# Indices 1 2 3 4 5 6 
#
# 1 0.026771 -0.001789 0.002079 0.000000 -0.002533 0.000000
# 2 -0.001789 0.009014 -0.005966 0.000000 0.002098 0.000000
# 3 0.002079 -0.005966 0.024033 0.000000 -0.000854 0.000000
# 4 0.000000 0.000000 0.000000 0.046718 0.000000 -0.011019
# 5 -0.002533 0.002098 -0.000854 0.000000 0.036319 0.000000
# 6 0.000000 0.000000 0.000000 -0.011019 0.000000 0.050077
#
#
# Mechanical properties :
#
#
# Convention : Reuss Voigt Hill
#
# Bulk Modulus (GPa) = 20.63305 33.03981 26.83643
# Shear Modulus (GPa) = 22.68199 26.76681 24.72440
#
# Velocity S-wave (km/s) = 3.31117 3.59699 3.45704
# Velocity P-wave (km/s) = 4.95903 5.76383 5.37651
#
# Compressibility (1/GPa) = 0.04846593
#
# Stress axis : x y z
#
# Youngs Moduli (GPa) = 37.35401 110.94176 41.60950
#
# Poissons Ratio (x) = 0.19850 -0.08652
# Poissons Ratio (y) = 0.06684 0.24824
# Poissons Ratio (z) = -0.07768 0.66188
#
# Static dielectric constant tensor:
#      x y z
#    x 0.332140 0.000000 0.496630 
#    y 0.000000 1.764330 0.000000 
#    z 0.496630 0.000000 1.574970 
# 
# From -- ./inp_files/65919.got.cif
#   From: 2010.05.17/outbox.cif.g08.bks.cpg/sg12_33_cif.got.tgz:65919.got - 2010.06.03 13:09:07.
