data_PCOD9206619
_publ_section_title
;
Structure prediction by ZEFSAII (Michael W. Deem and Ramdas Pophale) SiO2 
 PCOD9206619
Probable space group: C 2/M
;
_chemical_formula_sum "Si O2"
_cell_formula_units_Z 48
_cell_length_a 8.889031
_cell_length_b 18.056206
_cell_length_c 24.864751
_cell_angle_alpha 90.000000
_cell_angle_beta 135.641720
_cell_angle_gamma 90.000000
_cell_volume 2790.172118
_symmetry_space_group_name_H-M "C 2/M"
_symmetry_group_IT_number 12
_symmetry_cell_setting 'monoclinic'
loop_
_space_group_symop_operation_xyz
x,y,z
-x,y,-z
-x,-y,-z
x,-y,z
1/2+x,1/2+y,z
1/2-x,1/2+y,-z
1/2-x,1/2-y,-z
1/2+x,1/2-y,z
loop_
_atom_site_type_symbol
_atom_site_label
_atom_site_fract_x
_atom_site_fract_y
_atom_site_fract_z
Si Si1 0.596226 0.327884 0.712787
Si Si2 0.385245 0.587720 0.853036
Si Si3 0.254949 0.327885 0.712791
Si Si4 0.179806 0.668140 0.999997
Si Si5 0.180811 0.588245 0.590402
Si Si6 0.526896 0.912280 0.853031
O O1 0.486273 0.314407 0.743131
O O2 0.646232 0.250000 0.698110
O O3 0.411220 0.374885 0.635266
O O4 0.812659 0.374103 0.775498
O O5 0.412475 0.500000 0.851246
O O6 0.289367 0.625901 0.775506
O O7 0.221522 0.598411 0.860760
O O8 0.611576 0.625101 0.924964
O O9 0.129871 0.374889 0.635272
O O10 0.088259 0.625106 0.924955
O O11 0.250000 0.750000 0.000000
O O12 0.000000 0.672446 0.000000
O O13 0.203402 0.500000 0.601694
O O14 0.000000 0.604083 0.500000
O O15 0.492517 0.000000 0.851246
#
# Coordination Sequence:
#
# PCOD9206619 Si02
#       6
#     8   8   8   8   8   8
#     4  10  21  36  60  87 120 155 198 246 296 355
#     4  11  23  39  60  85 119 158 201 248 300 357
#     4  10  21  36  60  87 120 155 198 246 296 355
#     4  12  25  40  59  83 117 157 201 254 300 351
#     4   9  20  38  62  89 120 158 199 245 300 364
#     4  11  23  39  60  85 119 158 201 248 300 357
#
# _framework density 17.203240000000001
#
# number of rings (size 3 to 8) (size 9 to 14) (size 15 to 20)
#    1.000    0.500    0.000    6.000    0.000    4.667 
#    0.000    0.000    0.000    0.000    0.000    7.000 
#    0.000    0.000    0.000    0.000    0.000    0.000 
#
# Total GULP energy -133919.293494 kJ/mol
# GULP energy per Si atom -5579.970562 kJ/mol
# Density = 1.716408 g / cm^3
# Si number density = 17.203240 Si / 1000 Ang^3
#
#
#
# Elastic Constant Matrix: (Units=GPa)
#
#
# Indices 1 2 3 4 5 6 
#
# 1 111.3064 88.2532 61.8863 0.0000 -2.6932 0.0000
# 2 88.2532 164.8031 104.7769 0.0000 1.2176 0.0000
# 3 61.8863 104.7769 165.2789 -0.0002 6.6240 0.0000
# 4 0.0000 0.0000 -0.0002 101.7365 0.0001 5.0579
# 5 -2.6932 1.2176 6.6240 0.0001 6.5000 0.0000
# 6 0.0000 0.0000 0.0000 5.0579 0.0000 31.4107
#
#
#
# Elastic Compliance Matrix: (Units=1/GPa)
#
#
# Indices 1 2 3 4 5 6 
#
# 1 0.016262 -0.007807 -0.001531 0.000000 0.009760 0.000000
# 2 -0.007807 0.014062 -0.006001 0.000000 0.000247 0.000000
# 3 -0.001531 -0.006001 0.010852 0.000000 -0.010569 0.000000
# 4 0.000000 0.000000 0.000000 0.009909 0.000000 -0.001596
# 5 0.009760 0.000247 -0.010569 0.000000 0.168615 0.000000
# 6 0.000000 0.000000 0.000000 -0.001596 0.000000 0.032093
#
#
# Mechanical properties :
#
#
# Convention : Reuss Voigt Hill
#
# Bulk Modulus (GPa) = 95.26487 105.69122 100.47804
# Shear Modulus (GPa) = 17.48435 40.36088 28.92261
#
# Velocity S-wave (km/s) = 3.19147 4.84893 4.10473
# Velocity P-wave (km/s) = 8.31126 9.63949 8.99991
#
# Compressibility (1/GPa) = 0.01049705
#
# Stress axis : x y z
#
# Youngs Moduli (GPa) = 61.49447 71.11298 92.15227
#
# Poissons Ratio (x) = 0.55518 0.14108
# Poissons Ratio (y) = 0.48009 0.55303
# Poissons Ratio (z) = 0.09414 0.42676
#
# Static dielectric constant tensor:
#      x y z
#    x 1.573040 0.000000 -0.001300 
#    y 0.000000 1.562240 0.000000 
#    z -0.001300 0.000000 1.554900 
# 
# From -- ./inp_files/300618.got.cif
#   From: 2010.05.17/outbox.cif.g08.bks.cpg/sg12_151_cif.got.tgz:300618.got - 2010.06.03 13:09:07.
