data_PCOD9206953
_publ_section_title
;
Structure prediction by ZEFSAII (Michael W. Deem and Ramdas Pophale) SiO2 
 PCOD9206953
Probable space group: C 2/M
;
_chemical_formula_sum "Si O2"
_cell_formula_units_Z 56
_cell_length_a 10.149026
_cell_length_b 14.234576
_cell_length_c 25.465733
_cell_angle_alpha 90.000000
_cell_angle_beta 54.053376
_cell_angle_gamma 90.000000
_cell_volume 2978.354479
_symmetry_space_group_name_H-M "C 2/M"
_symmetry_group_IT_number 12
_symmetry_cell_setting 'monoclinic'
loop_
_space_group_symop_operation_xyz
x,y,z
-x,y,-z
-x,-y,-z
x,-y,z
1/2+x,1/2+y,z
1/2-x,1/2+y,-z
1/2-x,1/2-y,-z
1/2+x,1/2-y,z
loop_
_atom_site_type_symbol
_atom_site_label
_atom_site_fract_x
_atom_site_fract_y
_atom_site_fract_z
Si Si1 0.311574 0.771136 0.044079
Si Si2 0.966744 0.109445 0.837848
Si Si3 0.964112 0.726115 0.259014
Si Si4 0.409032 0.267419 0.654412
Si Si5 0.522777 0.890059 0.556696
Si Si6 0.748820 0.890825 0.141667
Si Si7 0.898308 0.112541 0.472466
O O1 0.196423 0.848926 0.097768
O O2 0.294018 0.676483 0.082788
O O3 0.500000 0.799609 0.000000
O O4 0.250000 0.750000 0.000000
O O5 0.010303 0.177202 0.779262
O O6 0.110734 0.117918 0.847119
O O7 0.950253 0.000000 0.827427
O O8 0.775851 0.697584 0.298645
O O9 0.018367 0.742320 0.306104
O O10 0.082626 0.649306 0.205274
O O11 0.408345 0.174360 0.618322
O O12 0.523912 0.339420 0.596361
O O13 0.500000 0.876533 0.500000
O O14 0.709679 0.863434 0.524814
O O15 0.498762 0.000000 0.573897
O O16 0.735075 0.000000 0.130092
O O17 0.000000 0.140973 0.500000
O O18 0.907253 0.000000 0.464855
#
# Coordination Sequence:
#
# PCOD9206953 Si02
#       7
#     8   8   8   8   8   8   8
#     4  11  22  39  65 100 128 153 199 251 291 347
#     4  10  22  42  64  87 125 168 199 243 300 347
#     4  11  24  39  58  90 119 156 206 256 289 349
#     4  12  22  36  60  84 115 153 199 247 307 353
#     4  10  21  37  57  83 113 149 194 244 302 369
#     4  10  22  42  65  87 123 170 202 237 297 356
#     4  10  21  37  55  79 113 148 188 245 308 364
#
# _framework density 18.802327999999999
#
# number of rings (size 3 to 8) (size 9 to 14) (size 15 to 20)
#    0.000    1.429    2.857    2.571    0.000    3.429 
#    0.000    1.429    0.000    0.000    0.000    0.000 
#    0.000    0.000    0.000    0.000    0.000    0.000 
#
# Total GULP energy -156516.425641 kJ/mol
# GULP energy per Si atom -5589.872344 kJ/mol
# Density = 1.875953 g / cm^3
# Si number density = 18.802328 Si / 1000 Ang^3
#
#
#
# Elastic Constant Matrix: (Units=GPa)
#
#
# Indices 1 2 3 4 5 6 
#
# 1 62.5435 -0.2788 -3.0308 0.0000 -6.2551 0.0000
# 2 -0.2788 96.9122 16.3511 0.0000 -6.0116 0.0000
# 3 -3.0308 16.3511 60.8722 0.0000 -4.2789 0.0000
# 4 0.0000 0.0000 0.0000 8.2116 0.0000 0.8790
# 5 -6.2551 -6.0116 -4.2789 0.0000 37.9877 0.0000
# 6 0.0000 0.0000 0.0000 0.8790 0.0000 10.5857
#
#
#
# Elastic Compliance Matrix: (Units=1/GPa)
#
#
# Indices 1 2 3 4 5 6 
#
# 1 0.016318 0.000053 0.000996 0.000000 0.002808 0.000000
# 2 0.000053 0.010882 -0.002821 0.000000 0.001413 0.000000
# 3 0.000996 -0.002821 0.017353 0.000000 0.001672 0.000000
# 4 0.000000 0.000000 0.000000 0.122871 0.000000 -0.010202
# 5 0.002808 0.001413 0.001672 0.000000 0.027199 0.000000
# 6 0.000000 0.000000 0.000000 -0.010202 0.000000 0.095314
#
#
# Mechanical properties :
#
#
# Convention : Reuss Voigt Hill
#
# Bulk Modulus (GPa) = 24.38530 27.37899 25.88214
# Shear Modulus (GPa) = 16.27862 25.17610 20.72736
#
# Velocity S-wave (km/s) = 2.94560 3.66319 3.32382
# Velocity P-wave (km/s) = 4.95643 5.69956 5.34094
#
# Compressibility (1/GPa) = 0.04100832
#
# Stress axis : x y z
#
# Youngs Moduli (GPa) = 61.28146 91.89126 57.62768
#
# Poissons Ratio (x) = -0.00488 -0.05737
# Poissons Ratio (y) = -0.00326 0.16258
# Poissons Ratio (z) = -0.06101 0.25924
#
# Static dielectric constant tensor:
#      x y z
#    x 1.841350 0.000000 -0.154940 
#    y 0.000000 1.637190 0.000000 
#    z -0.154940 0.000000 1.728040 
# 
# From -- ./inp_files/332813.got.cif
#   From: 2010.05.17/outbox.cif.g08.bks.cpg/sg12_167_cif.got.tgz:332813.got - 2010.06.03 13:09:07.
