data_PCOD9206663
_publ_section_title
;
Structure prediction by ZEFSAII (Michael W. Deem and Ramdas Pophale) SiO2 
 PCOD9206663
Probable space group: C 2/M
;
_chemical_formula_sum "Si O2"
_cell_formula_units_Z 56
_cell_length_a 26.094615
_cell_length_b 14.176514
_cell_length_c 12.010479
_cell_angle_alpha 90.000000
_cell_angle_beta 40.296833
_cell_angle_gamma 90.000000
_cell_volume 2873.528532
_symmetry_space_group_name_H-M "C 2/M"
_symmetry_group_IT_number 12
_symmetry_cell_setting 'monoclinic'
loop_
_space_group_symop_operation_xyz
x,y,z
-x,y,-z
-x,-y,-z
x,-y,z
1/2+x,1/2+y,z
1/2-x,1/2+y,-z
1/2-x,1/2-y,-z
1/2+x,1/2-y,z
loop_
_atom_site_type_symbol
_atom_site_label
_atom_site_fract_x
_atom_site_fract_y
_atom_site_fract_z
Si Si1 0.809474 0.280824 0.765635
Si Si2 0.705958 0.109782 0.004270
Si Si3 0.016913 0.107475 0.351548
Si Si4 0.682959 0.105313 0.792215
Si Si5 0.906161 0.779849 0.162653
Si Si6 0.149302 0.113182 0.959972
Si Si7 0.364755 0.666963 0.482114
O O1 0.781798 0.179319 0.862562
O O2 0.730848 0.334414 0.852889
O O3 0.859960 0.256953 0.573298
O O4 0.840258 0.345628 0.814906
O O5 0.662540 0.115148 0.957343
O O6 0.727204 0.000000 0.987854
O O7 0.000000 0.153119 0.500000
O O8 0.935578 0.107102 0.417250
O O9 0.042885 0.000000 0.331863
O O10 0.084431 0.146727 0.158465
O O11 0.639708 0.184859 0.794476
O O12 0.777965 0.120110 0.629979
O O13 0.663479 0.000000 0.787413
O O14 0.879796 0.856138 0.113890
O O15 0.883410 0.809064 0.324605
O O16 0.000000 0.766731 0.000000
O O17 0.157655 0.000000 0.951475
#
# Coordination Sequence:
#
# PCOD9206663 Si02
#       7
#     8   8   8   8   8   8   8
#     4  10  21  36  60  92 122 154 201 248 301 357
#     4   9  18  34  59  88 119 152 191 243 300 355
#     4  10  23  38  59  92 126 160 196 238 302 370
#     4  10  22  39  64  89 115 157 208 252 296 350
#     4  12  24  43  61  84 122 161 207 250 300 362
#     4  11  23  40  61  90 127 161 196 244 306 365
#     4  11  22  39  61  88 124 157 200 251 299 357
#
# _framework density 19.488233999999999
#
# number of rings (size 3 to 8) (size 9 to 14) (size 15 to 20)
#    0.000    1.571    4.286    1.286    6.000    2.286 
#    0.000    0.714    0.000    0.000    0.000    3.000 
#    0.000    0.000    0.000    0.000    0.000    0.000 
#
# Total GULP energy -156278.403743 kJ/mol
# GULP energy per Si atom -5581.371562 kJ/mol
# Density = 1.944388 g / cm^3
# Si number density = 19.488234 Si / 1000 Ang^3
#
#
#
# Elastic Constant Matrix: (Units=GPa)
#
#
# Indices 1 2 3 4 5 6 
#
# 1 80.2798 28.4357 32.0838 0.0000 23.1523 0.0000
# 2 28.4357 101.7909 21.1325 0.0000 12.2074 0.0000
# 3 32.0838 21.1325 103.8352 0.0000 34.3900 0.0000
# 4 0.0000 0.0000 0.0000 10.2570 0.0000 -2.1397
# 5 23.1523 12.2074 34.3900 0.0000 43.6056 0.0000
# 6 0.0000 0.0000 0.0000 -2.1397 0.0000 18.6889
#
#
#
# Elastic Compliance Matrix: (Units=1/GPa)
#
#
# Indices 1 2 3 4 5 6 
#
# 1 0.016285 -0.003350 -0.002432 0.000000 -0.005790 0.000000
# 2 -0.003350 0.011036 -0.001051 0.000000 -0.000482 0.000000
# 3 -0.002432 -0.001051 0.013632 0.000000 -0.009165 0.000000
# 4 0.000000 0.000000 0.000000 0.099880 0.000000 0.011435
# 5 -0.005790 -0.000482 -0.009165 0.000000 0.033370 0.000000
# 6 0.000000 0.000000 0.000000 0.011435 0.000000 0.054817
#
#
# Mechanical properties :
#
#
# Convention : Reuss Voigt Hill
#
# Bulk Modulus (GPa) = 36.64987 49.91219 43.28103
# Shear Modulus (GPa) = 19.85849 28.12724 23.99287
#
# Velocity S-wave (km/s) = 3.19564 3.80319 3.51258
# Velocity P-wave (km/s) = 5.69764 6.70468 6.22157
#
# Compressibility (1/GPa) = 0.02728523
#
# Stress axis : x y z
#
# Youngs Moduli (GPa) = 61.40630 90.61324 73.35903
#
# Poissons Ratio (x) = 0.30354 0.17843
# Poissons Ratio (y) = 0.20570 0.07713
# Poissons Ratio (z) = 0.14936 0.09527
#
# Static dielectric constant tensor:
#      x y z
#    x 1.688070 0.000000 0.019180 
#    y 0.000000 1.690270 0.000000 
#    z 0.019180 0.000000 1.710660 
# 
# From -- ./inp_files/183448.got.cif
#   From: 2010.05.17/outbox.cif.g08.bks.cpg/sg12_92_cif.got.tgz:183448.got - 2010.06.03 13:09:07.
