data_PCOD9206783
_publ_section_title
;
Structure prediction by ZEFSAII (Michael W. Deem and Ramdas Pophale) SiO2 
 PCOD9206783
Probable space group: C 2/M
;
_chemical_formula_sum "Si O2"
_cell_formula_units_Z 48
_cell_length_a 17.548923
_cell_length_b 27.774805
_cell_length_c 9.743882
_cell_angle_alpha 90.000000
_cell_angle_beta 29.482074
_cell_angle_gamma 90.000000
_cell_volume 2337.394822
_symmetry_space_group_name_H-M "C 2/M"
_symmetry_group_IT_number 12
_symmetry_cell_setting 'monoclinic'
loop_
_space_group_symop_operation_xyz
x,y,z
-x,y,-z
-x,-y,-z
x,-y,z
1/2+x,1/2+y,z
1/2-x,1/2+y,-z
1/2-x,1/2-y,-z
1/2+x,1/2-y,z
loop_
_atom_site_type_symbol
_atom_site_label
_atom_site_fract_x
_atom_site_fract_y
_atom_site_fract_z
Si Si1 0.095689 0.145471 0.981495
Si Si2 0.184397 0.450696 0.228279
Si Si3 0.874341 0.941570 0.426969
Si Si4 0.142703 0.407820 0.565445
Si Si5 0.719180 0.891719 0.917064
Si Si6 0.850440 0.202894 0.821030
O O1 0.104070 0.178496 0.103459
O O2 0.009514 0.093940 0.155346
O O3 0.266295 0.136532 0.648976
O O4 0.000000 0.164879 0.000000
O O5 0.254872 0.500000 0.064677
O O6 0.194643 0.447631 0.373852
O O7 0.000000 0.451072 0.500000
O O8 0.236655 0.409335 0.046274
O O9 0.721907 0.924534 0.580695
O O10 0.833854 0.922857 0.642844
O O11 0.896414 0.000000 0.382544
O O12 0.958724 0.400290 0.851427
O O13 0.762861 0.836205 0.861958
O O14 0.000000 0.216426 0.500000
O O15 0.750000 0.250000 0.000000
#
# Coordination Sequence:
#
# PCOD9206783 Si02
#       6
#     8   8   8   8   8   8
#     4  10  23  45  66  98 140 177 222 269 334 406
#     4   9  17  29  51  86 125 167 212 257 305 373
#     4  11  23  40  63  97 145 190 222 264 326 399
#     4  10  21  36  63  91 135 181 223 259 313 392
#     4  11  22  40  63  96 134 169 225 281 333 389
#     4  12  27  48  74 100 127 169 225 289 350 404
#
# _framework density 20.535682000000001
#
# number of rings (size 3 to 8) (size 9 to 14) (size 15 to 20)
#    0.000    1.500    3.333    1.500    2.333    6.333 
#    0.000    3.333    0.000    0.000    0.000    0.000 
#    0.000    0.000    0.000    0.000    0.000    0.000 
#
# Total GULP energy -133673.890327 kJ/mol
# GULP energy per Si atom -5569.745430 kJ/mol
# Density = 2.048894 g / cm^3
# Si number density = 20.535682 Si / 1000 Ang^3
#
#
#
# Elastic Constant Matrix: (Units=GPa)
#
#
# Indices 1 2 3 4 5 6 
#
# 1 97.8999 34.6063 38.3313 0.0007 3.8939 -0.0002
# 2 34.6063 124.8346 51.7202 0.0000 -0.1546 0.0000
# 3 38.3313 51.7202 113.7916 0.0002 -1.9878 0.0001
# 4 0.0007 0.0000 0.0002 56.6002 -0.0004 -14.6256
# 5 3.8939 -0.1546 -1.9878 -0.0004 36.1473 0.0001
# 6 -0.0002 0.0000 0.0001 -14.6256 0.0001 22.3666
#
#
#
# Elastic Compliance Matrix: (Units=1/GPa)
#
#
# Indices 1 2 3 4 5 6 
#
# 1 0.012266 -0.002069 -0.003218 0.000000 -0.001507 0.000000
# 2 -0.002069 0.010220 -0.003947 0.000000 0.000050 0.000000
# 3 -0.003218 -0.003947 0.011683 0.000000 0.000972 0.000000
# 4 0.000000 0.000000 0.000000 0.021260 0.000000 0.013902
# 5 -0.001507 0.000050 0.000972 0.000000 0.027881 0.000000
# 6 0.000000 0.000000 0.000000 0.013902 0.000000 0.053800
#
#
# Mechanical properties :
#
#
# Convention : Reuss Voigt Hill
#
# Bulk Modulus (GPa) = 63.69231 65.09351 64.39291
# Shear Modulus (GPa) = 31.09258 37.14738 34.11998
#
# Velocity S-wave (km/s) = 3.89533 4.25775 4.08057
# Velocity P-wave (km/s) = 7.16340 7.47916 7.32298
#
# Compressibility (1/GPa) = 0.01570048
#
# Stress axis : x y z
#
# Youngs Moduli (GPa) = 81.52847 97.85157 85.59505
#
# Poissons Ratio (x) = 0.20245 0.27542
# Poissons Ratio (y) = 0.16868 0.33786
# Poissons Ratio (z) = 0.26233 0.38623
#
# Static dielectric constant tensor:
#      x y z
#    x 1.771950 0.000000 -0.036120 
#    y 0.000000 1.751430 0.000000 
#    z -0.036120 0.000000 1.725860 
# 
# From -- ./inp_files/80597.got.cif
#   From: 2010.05.17/outbox.cif.g08.bks.cpg/sg12_41_cif.got.tgz:80597.got - 2010.06.03 13:09:07.
