data_PCOD9206088
_publ_section_title
;
Structure prediction by ZEFSAII (Michael W. Deem and Ramdas Pophale) SiO2 
 PCOD9206088
Probable space group: C 2/M
;
_chemical_formula_sum "Si O2"
_cell_formula_units_Z 52
_cell_length_a 10.082824
_cell_length_b 9.489565
_cell_length_c 28.077977
_cell_angle_alpha 90.000000
_cell_angle_beta 105.913045
_cell_angle_gamma 90.000000
_cell_volume 2583.594773
_symmetry_space_group_name_H-M "C 2/M"
_symmetry_group_IT_number 12
_symmetry_cell_setting 'monoclinic'
loop_
_space_group_symop_operation_xyz
x,y,z
-x,y,-z
-x,-y,-z
x,-y,z
1/2+x,1/2+y,z
1/2-x,1/2+y,-z
1/2-x,1/2-y,-z
1/2+x,1/2-y,z
loop_
_atom_site_type_symbol
_atom_site_label
_atom_site_fract_x
_atom_site_fract_y
_atom_site_fract_z
Si Si1 0.825432 0.168762 0.859769
Si Si2 0.342903 0.167398 0.695985
Si Si3 0.075011 0.669520 0.643159
Si Si4 0.297990 0.000000 0.516446
Si Si5 0.017066 0.333082 0.808716
Si Si6 0.372702 0.267116 0.457576
Si Si7 0.160311 0.165360 0.028762
O O1 0.945588 0.247172 0.843736
O O2 0.678431 0.202408 0.821239
O O3 0.818152 0.210470 0.914470
O O4 0.847310 0.000000 0.859981
O O5 0.207134 0.262173 0.681919
O O6 0.438969 0.202282 0.660111
O O7 0.434949 0.192780 0.751878
O O8 0.308847 0.000000 0.691038
O O9 0.087054 0.500000 0.641282
O O10 0.078081 0.733092 0.590506
O O11 0.335214 0.123193 0.480768
O O12 0.250925 0.123468 0.549948
O O13 0.008877 0.500000 0.818340
O O14 0.500000 0.332486 0.500000
O O15 0.196415 0.000000 0.029409
O O16 0.250000 0.250000 0.000000
O O17 0.000000 0.180618 0.000000
#
# Coordination Sequence:
#
# PCOD9206088 Si02
#       7
#     8   8   8   4   8   8   8
#     4  10  21  37  61  87 118 160 199 247 296 348
#     4  10  24  43  62  87 118 154 191 248 298 350
#     4  11  25  41  64  90 120 155 196 235 298 355
#     4  10  24  40  62  88 118 150 196 232 284 334
#     4  10  21  39  61  86 115 149 203 247 295 351
#     4  11  24  40  63  87 118 154 191 236 283 346
#     4  10  21  36  55  86 125 160 200 244 294 350
#
# _framework density 20.126995000000001
#
# number of rings (size 3 to 8) (size 9 to 14) (size 15 to 20)
#    0.000    1.692    0.769    2.308    5.385    4.000 
#    0.000    0.000    0.000    0.000    0.000    0.000 
#    0.000    0.000    0.000    0.000    0.000    0.000 
#
# Total GULP energy -144884.739412 kJ/mol
# GULP energy per Si atom -5572.489977 kJ/mol
# Density = 2.008118 g / cm^3
# Si number density = 20.126995 Si / 1000 Ang^3
#
#
#
# Elastic Constant Matrix: (Units=GPa)
#
#
# Indices 1 2 3 4 5 6 
#
# 1 30.9451 14.0673 -3.8629 0.0000 -13.5279 0.0000
# 2 14.0673 48.9951 10.6670 0.0000 -11.5154 0.0000
# 3 -3.8629 10.6670 62.0696 0.0000 -6.4426 0.0000
# 4 0.0000 0.0000 0.0000 3.1958 0.0000 7.9259
# 5 -13.5279 -11.5154 -6.4426 0.0000 39.4233 0.0000
# 6 0.0000 0.0000 0.0000 7.9259 0.0000 15.1163
#
#
#
# Elastic Compliance Matrix: (Units=1/GPa)
#
#
# Indices 1 2 3 4 5 6 
#
# 1 0.043524 -0.010782 0.005885 0.000000 0.012747 0.000000
# 2 -0.010782 0.025210 -0.004703 0.000000 0.002896 0.000000
# 3 0.005885 -0.004703 0.017652 0.000000 0.003530 0.000000
# 4 0.000000 0.000000 0.000000 -1.041653 0.000000 0.546171
# 5 0.012747 0.002896 0.003530 0.000000 0.031163 0.000000
# 6 0.000000 0.000000 0.000000 0.546171 0.000000 -0.220221
#
#
# Mechanical properties :
#
#
# Convention : Reuss Voigt Hill
#
# Bulk Modulus (GPa) = 14.88403 20.41696 17.65049
# Shear Modulus (GPa) = -4.53420 19.62297 7.54438
#
# Velocity S-wave (km/s) = -1.50256 3.12582 1.93818
# Velocity P-wave (km/s) = 2.09782 4.81599 3.71447
#
# Compressibility (1/GPa) = 0.06718612
#
# Stress axis : x y z
#
# Youngs Moduli (GPa) = 22.97601 39.66639 56.65131
#
# Poissons Ratio (x) = 0.42766 -0.33338
# Poissons Ratio (y) = 0.24772 0.26643
# Poissons Ratio (z) = -0.13521 0.18655
#
# Static dielectric constant tensor:
#      x y z
#    x 1.727820 0.000000 0.046010 
#    y 0.000000 1.671760 0.000000 
#    z 0.046010 0.000000 1.722510 
# 
# From -- ./inp_files/357362.got.cif
#   From: 2010.05.17/outbox.cif.g08.bks.cpg/sg12_179_cif.got.tgz:357362.got - 2010.06.03 13:09:07.
