data_PCOD9206479
_publ_section_title
;
Structure prediction by ZEFSAII (Michael W. Deem and Ramdas Pophale) SiO2 
 PCOD9206479
Probable space group: C 2/M
;
_chemical_formula_sum "Si O2"
_cell_formula_units_Z 64
_cell_length_a 29.388367
_cell_length_b 13.789358
_cell_length_c 9.161559
_cell_angle_alpha 90.000000
_cell_angle_beta 57.681754
_cell_angle_gamma 90.000000
_cell_volume 3137.564639
_symmetry_space_group_name_H-M "C 2/M"
_symmetry_group_IT_number 12
_symmetry_cell_setting 'monoclinic'
loop_
_space_group_symop_operation_xyz
x,y,z
-x,y,-z
-x,-y,-z
x,-y,z
1/2+x,1/2+y,z
1/2-x,1/2+y,-z
1/2-x,1/2-y,-z
1/2+x,1/2-y,z
loop_
_atom_site_type_symbol
_atom_site_label
_atom_site_fract_x
_atom_site_fract_y
_atom_site_fract_z
Si Si1 0.613969 0.800910 0.474208
Si Si2 0.275435 0.115263 0.712917
Si Si3 0.442506 0.889279 0.174709
Si Si4 0.336827 0.611077 0.599706
Si Si5 0.162757 0.887506 0.752321
Si Si6 0.777758 0.384326 0.051169
Si Si7 0.944405 0.388997 0.680019
Si Si8 0.881832 0.702799 0.028516
O O1 0.672024 0.831435 0.436809
O O2 0.568982 0.818209 0.672094
O O3 0.621475 0.690521 0.412594
O O4 0.601328 0.872146 0.362750
O O5 0.222060 0.135875 0.713017
O O6 0.284464 0.000000 0.689323
O O7 0.269295 0.141092 0.895080
O O8 0.440242 0.000000 0.232810
O O9 0.500000 0.874722 0.000000
O O10 0.396212 0.869450 0.135863
O O11 0.349930 0.500000 0.615568
O O12 0.337285 0.619900 0.422964
O O13 0.277662 0.631817 0.766036
O O14 0.150879 0.000000 0.810571
O O15 0.123924 0.809420 0.894111
O O16 0.789503 0.500000 0.037898
O O17 0.827101 0.328047 0.040412
O O18 0.943712 0.500000 0.736169
O O19 0.930095 0.314945 0.831839
O O20 0.000000 0.372794 0.500000
#
# Coordination Sequence:
#
# PCOD9206479 Si02
#       8
#     8   8   8   8   8   8   8   8
#     4  12  22  38  64  88 119 161 198 240 297 357
#     4  10  21  36  58  90 125 158 195 238 292 359
#     4  11  24  40  60  89 119 149 196 252 302 355
#     4  10  23  41  59  86 123 161 201 245 290 343
#     4  10  23  41  59  86 123 161 201 245 290 343
#     4  10  21  36  58  90 125 158 195 238 292 359
#     4  11  24  42  64  91 123 155 192 244 304 361
#     4  12  22  38  64  88 119 161 198 240 297 357
#
# _framework density 20.397987000000001
#
# number of rings (size 3 to 8) (size 9 to 14) (size 15 to 20)
#    0.000    1.250    2.500    3.750    3.500    4.000 
#    0.000    0.000    0.000    4.500    0.000    0.000 
#    0.000    0.000    0.000    0.000    0.000    0.000 
#
# Total GULP energy -178908.192295 kJ/mol
# GULP energy per Si atom -5590.881009 kJ/mol
# Density = 2.035156 g / cm^3
# Si number density = 20.397987 Si / 1000 Ang^3
#
#
#
# Elastic Constant Matrix: (Units=GPa)
#
#
# Indices 1 2 3 4 5 6 
#
# 1 32.5395 16.5288 -0.1955 0.0000 -3.6426 0.0000
# 2 16.5288 94.3058 39.9904 0.0000 -26.9877 0.0000
# 3 -0.1955 39.9904 87.0278 0.0000 -21.7943 0.0000
# 4 0.0000 0.0000 0.0000 35.4633 0.0000 -5.9557
# 5 -3.6426 -26.9877 -21.7943 0.0000 26.5498 0.0000
# 6 0.0000 0.0000 0.0000 -5.9557 0.0000 19.5717
#
#
#
# Elastic Compliance Matrix: (Units=1/GPa)
#
#
# Indices 1 2 3 4 5 6 
#
# 1 0.034600 -0.007583 0.003551 0.000000 -0.000047 0.000000
# 2 -0.007583 0.017721 -0.004921 0.000000 0.012933 0.000000
# 3 0.003551 -0.004921 0.015897 0.000000 0.008535 0.000000
# 4 0.000000 0.000000 0.000000 0.029717 0.000000 0.009043
# 5 -0.000047 0.012933 0.008535 0.000000 0.057811 0.000000
# 6 0.000000 0.000000 0.000000 0.009043 0.000000 0.053846
#
#
# Mechanical properties :
#
#
# Convention : Reuss Voigt Hill
#
# Bulk Modulus (GPa) = 19.87660 36.28003 28.07831
# Shear Modulus (GPa) = 20.46921 26.82024 23.64473
#
# Velocity S-wave (km/s) = 3.17123 3.63002 3.40835
# Velocity P-wave (km/s) = 4.81399 5.94929 5.41149
#
# Compressibility (1/GPa) = 0.05031043
#
# Stress axis : x y z
#
# Youngs Moduli (GPa) = 28.90178 56.43094 62.90409
#
# Poissons Ratio (x) = 0.42793 -0.22335
# Poissons Ratio (y) = 0.21917 0.30956
# Poissons Ratio (z) = -0.10262 0.27771
#
# Static dielectric constant tensor:
#      x y z
#    x 1.736620 0.000000 0.015450 
#    y 0.000000 1.742510 0.000000 
#    z 0.015450 0.000000 1.731130 
# 
# From -- ./inp_files/111616.got.cif
#   From: 2010.05.17/outbox.cif.g08.bks.cpg/sg12_56_cif.got.tgz:111616.got - 2010.06.03 13:09:07.
