data_PCOD9206324
_publ_section_title
;
Structure prediction by ZEFSAII (Michael W. Deem and Ramdas Pophale) SiO2 
 PCOD9206324
Probable space group: C 2/M
;
_chemical_formula_sum "Si O2"
_cell_formula_units_Z 56
_cell_length_a 27.865417
_cell_length_b 8.210326
_cell_length_c 12.276478
_cell_angle_alpha 90.000000
_cell_angle_beta 122.913046
_cell_angle_gamma 90.000000
_cell_volume 2357.862385
_symmetry_space_group_name_H-M "C 2/M"
_symmetry_group_IT_number 12
_symmetry_cell_setting 'monoclinic'
loop_
_space_group_symop_operation_xyz
x,y,z
-x,y,-z
-x,-y,-z
x,-y,z
1/2+x,1/2+y,z
1/2-x,1/2+y,-z
1/2-x,1/2-y,-z
1/2+x,1/2-y,z
loop_
_atom_site_type_symbol
_atom_site_label
_atom_site_fract_x
_atom_site_fract_y
_atom_site_fract_z
Si Si1 0.131780 0.190215 0.931463
Si Si2 0.794958 0.306154 0.788020
Si Si3 0.895279 0.194320 0.472879
Si Si4 0.191129 0.686769 0.807181
Si Si5 0.014275 0.184573 0.699314
Si Si6 0.953262 0.814243 0.857105
Si Si7 0.658798 0.187135 0.372086
O O1 0.182274 0.209806 0.905573
O O2 0.075333 0.262164 0.802900
O O3 0.120616 0.000000 0.937484
O O4 0.150320 0.266954 0.068422
O O5 0.788475 0.500000 0.772834
O O6 0.743160 0.233943 0.793198
O O7 0.797770 0.244660 0.666024
O O8 0.863757 0.281075 0.336125
O O9 0.858045 0.223753 0.537107
O O10 0.960921 0.254485 0.565630
O O11 0.896675 0.000000 0.457663
O O12 0.195530 0.500000 0.845540
O O13 0.985184 0.171349 0.781741
O O14 0.025330 0.000000 0.670512
O O15 0.899964 0.699232 0.770036
O O16 0.934627 0.000000 0.864521
O O17 0.000000 0.756471 0.000000
O O18 0.672468 0.000000 0.414656
#
# Coordination Sequence:
#
# PCOD9206324 Si02
#       7
#     8   8   8   8   8   8   8
#     4  11  22  40  65  91 120 156 200 247 296 349
#     4  11  24  42  62  88 121 158 201 246 297 355
#     4  10  21  41  65  90 121 158 201 242 288 353
#     4  12  26  43  62  86 118 157 202 251 302 353
#     4   8  17  33  57  87 117 153 194 236 285 348
#     4   9  16  29  51  80 115 155 197 236 283 349
#     4  10  21  36  57  87 121 154 192 243 299 352
#
# _framework density 23.750326999999999
#
# number of rings (size 3 to 8) (size 9 to 14) (size 15 to 20)
#    0.000    1.857    0.000    5.143    0.000    4.857 
#    0.000   11.429    0.000    0.000    0.000    0.000 
#    0.000    0.000    0.000    0.000    0.000    0.000 
#
# Total GULP energy -156439.783682 kJ/mol
# GULP energy per Si atom -5587.135132 kJ/mol
# Density = 2.369627 g / cm^3
# Si number density = 23.750327 Si / 1000 Ang^3
#
#
#
# Elastic Constant Matrix: (Units=GPa)
#
#
# Indices 1 2 3 4 5 6 
#
# 1 95.0555 0.3382 13.2285 0.0000 -22.5630 0.0000
# 2 0.3382 41.8284 0.3991 0.0000 -0.7070 0.0000
# 3 13.2285 0.3991 79.5491 0.0000 -6.6082 0.0000
# 4 0.0000 0.0000 0.0000 22.1399 0.0000 -0.2639
# 5 -22.5630 -0.7070 -6.6082 0.0000 39.5225 0.0000
# 6 0.0000 0.0000 0.0000 -0.2639 0.0000 4.1034
#
#
#
# Elastic Compliance Matrix: (Units=1/GPa)
#
#
# Indices 1 2 3 4 5 6 
#
# 1 0.012340 0.000029 -0.001488 0.000000 0.006797 0.000000
# 2 0.000029 0.023915 -0.000089 0.000000 0.000430 0.000000
# 3 -0.001488 -0.000089 0.012928 0.000000 0.001311 0.000000
# 4 0.000000 0.000000 0.000000 0.045202 0.000000 0.002907
# 5 0.006797 0.000430 0.001311 0.000000 0.029409 0.000000
# 6 0.000000 0.000000 0.000000 0.002907 0.000000 0.243890
#
#
# Mechanical properties :
#
#
# Convention : Reuss Voigt Hill
#
# Bulk Modulus (GPa) = 21.69760 27.15161 24.42460
# Shear Modulus (GPa) = 12.94862 26.65097 19.79979
#
# Velocity S-wave (km/s) = 2.33748 3.35346 2.89046
# Velocity P-wave (km/s) = 4.05470 5.14307 4.63097
#
# Compressibility (1/GPa) = 0.04608805
#
# Stress axis : x y z
#
# Youngs Moduli (GPa) = 81.03445 41.81462 77.35410
#
# Poissons Ratio (x) = -0.00123 0.11508
# Poissons Ratio (y) = -0.00238 0.00690
# Poissons Ratio (z) = 0.12055 0.00373
#
# Static dielectric constant tensor:
#      x y z
#    x 1.969410 0.000000 0.053300 
#    y 0.000000 1.856020 0.000000 
#    z 0.053300 0.000000 1.971630 
# 
# From -- ./inp_files/244319.got.cif
#   From: 2010.05.17/outbox.cif.g08.bks.cpg/sg12_123_cif.got.tgz:244319.got - 2010.06.03 13:09:07.
