data_PCOD9206396
_publ_section_title
;
Structure prediction by ZEFSAII (Michael W. Deem and Ramdas Pophale) SiO2 
 PCOD9206396
Probable space group: C 2/M
;
_chemical_formula_sum "Si O2"
_cell_formula_units_Z 58
_cell_length_a 16.383098
_cell_length_b 9.395609
_cell_length_c 17.828914
_cell_angle_alpha 90.000000
_cell_angle_beta 111.798365
_cell_angle_gamma 90.000000
_cell_volume 2548.156455
_symmetry_space_group_name_H-M "C 2/M"
_symmetry_group_IT_number 12
_symmetry_cell_setting 'monoclinic'
loop_
_space_group_symop_operation_xyz
x,y,z
-x,y,-z
-x,-y,-z
x,-y,z
1/2+x,1/2+y,z
1/2-x,1/2+y,-z
1/2-x,1/2-y,-z
1/2+x,1/2-y,z
loop_
_atom_site_type_symbol
_atom_site_label
_atom_site_fract_x
_atom_site_fract_y
_atom_site_fract_z
Si Si1 0.909525 0.663841 0.369521
Si Si2 0.653283 0.327959 0.338532
Si Si3 0.335095 0.659686 0.046189
Si Si4 0.000000 0.500000 0.000000
Si Si5 0.993091 0.161608 0.191172
Si Si6 0.114094 0.765308 0.095570
Si Si7 0.233776 0.170696 0.750154
Si Si8 0.880984 0.664081 0.532459
O O1 0.887877 0.500000 0.342006
O O2 0.864433 0.769368 0.295074
O O3 0.871852 0.690815 0.440731
O O4 0.014084 0.673324 0.415593
O O5 0.662385 0.500000 0.334688
O O6 0.554481 0.283050 0.278157
O O7 0.714697 0.242331 0.302294
O O8 0.664035 0.274422 0.426772
O O9 0.311196 0.500000 0.061898
O O10 0.382037 0.653210 0.981326
O O11 0.250000 0.750000 0.000000
O O12 0.403716 0.728244 0.128397
O O13 0.937966 0.622364 0.940380
O O14 0.060424 0.160439 0.143662
O O15 0.969730 0.000000 0.202566
O O16 0.211583 0.728201 0.159897
O O17 0.236183 0.000000 0.749130
O O18 0.854109 0.500000 0.538323
#
# Coordination Sequence:
#
# PCOD9206396 Si02
#       8
#     8   8   8   2   8   8   8   8
#     4   9  20  39  62  83 115 153 191 234 285 343
#     4  10  21  36  58  85 115 147 187 236 287 340
#     4  11  24  38  57  82 115 151 189 236 286 339
#     4  12  20  36  66  84 108 154 192 246 276 344
#     4   9  19  38  58  78 106 145 189 234 283 339
#     4  11  22  38  61  84 111 150 195 235 287 339
#     4  11  23  37  57  89 118 147 188 240 287 336
#     4   9  19  39  62  85 111 152 195 232 281 344
#
# _framework density 22.761555000000001
#
# number of rings (size 3 to 8) (size 9 to 14) (size 15 to 20)
#    0.000    1.931    2.069    2.069    0.966    5.517 
#    0.000    4.138    0.000    0.000    0.000    0.000 
#    0.000    0.000    0.000    0.000    0.000    0.000 
#
# Total GULP energy -161742.011789 kJ/mol
# GULP energy per Si atom -5577.310751 kJ/mol
# Density = 2.270975 g / cm^3
# Si number density = 22.761555 Si / 1000 Ang^3
#
#
#
# Elastic Constant Matrix: (Units=GPa)
#
#
# Indices 1 2 3 4 5 6 
#
# 1 41.0250 9.5961 19.5113 0.0000 8.9292 0.0000
# 2 9.5961 83.4095 36.2957 0.0000 6.4445 0.0000
# 3 19.5113 36.2957 132.7145 0.0000 27.6546 0.0000
# 4 0.0000 0.0000 0.0000 35.6723 0.0000 -16.3287
# 5 8.9292 6.4445 27.6546 0.0000 54.4112 0.0000
# 6 0.0000 0.0000 0.0000 -16.3287 0.0000 103.0826
#
#
#
# Elastic Compliance Matrix: (Units=1/GPa)
#
#
# Indices 1 2 3 4 5 6 
#
# 1 0.026731 -0.001591 -0.002930 0.000000 -0.002709 0.000000
# 2 -0.001591 0.013708 -0.003614 0.000000 0.000474 0.000000
# 3 -0.002930 -0.003614 0.009803 0.000000 -0.004073 0.000000
# 4 0.000000 0.000000 0.000000 0.030224 0.000000 0.004788
# 5 -0.002709 0.000474 -0.004073 0.000000 0.020837 0.000000
# 6 0.000000 0.000000 0.000000 0.004788 0.000000 0.010459
#
#
# Mechanical properties :
#
#
# Convention : Reuss Voigt Hill
#
# Bulk Modulus (GPa) = 29.43643 43.10612 36.27127
# Shear Modulus (GPa) = 35.87911 51.41628 43.64770
#
# Velocity S-wave (km/s) = 3.97458 4.75795 4.38380
# Velocity P-wave (km/s) = 5.83298 7.01166 6.44930
#
# Compressibility (1/GPa) = 0.03397152
#
# Stress axis : x y z
#
# Youngs Moduli (GPa) = 37.41011 72.95003 102.01021
#
# Poissons Ratio (x) = 0.11606 0.29892
# Poissons Ratio (y) = 0.05952 0.36865
# Poissons Ratio (z) = 0.10962 0.26363
#
# Static dielectric constant tensor:
#      x y z
#    x 1.943660 0.000000 0.023400 
#    y 0.000000 1.787180 0.000000 
#    z 0.023400 0.000000 1.854310 
# 
# From -- ./inp_files/282173.got.cif
#   From: 2010.05.17/outbox.cif.g08.bks.cpg/sg12_142_cif.got.tgz:282173.got - 2010.06.03 13:09:07.
