data_PCOD9206987
_publ_section_title
;
Structure prediction by ZEFSAII (Michael W. Deem and Ramdas Pophale) SiO2 
 PCOD9206987
Probable space group: C 2/M
;
_chemical_formula_sum "Si O2"
_cell_formula_units_Z 52
_cell_length_a 12.092156
_cell_length_b 26.954139
_cell_length_c 18.000717
_cell_angle_alpha 90.000000
_cell_angle_beta 30.415344
_cell_angle_gamma 90.000000
_cell_volume 2970.275148
_symmetry_space_group_name_H-M "C 2/M"
_symmetry_group_IT_number 12
_symmetry_cell_setting 'monoclinic'
loop_
_space_group_symop_operation_xyz
x,y,z
-x,y,-z
-x,-y,-z
x,-y,z
1/2+x,1/2+y,z
1/2-x,1/2+y,-z
1/2-x,1/2-y,-z
1/2+x,1/2-y,z
loop_
_atom_site_type_symbol
_atom_site_label
_atom_site_fract_x
_atom_site_fract_y
_atom_site_fract_z
Si Si1 0.750469 0.440686 0.054779
Si Si2 0.446294 0.177090 0.270665
Si Si3 0.000000 0.880026 0.500000
Si Si4 0.093001 0.133907 0.029923
Si Si5 0.658807 0.717078 0.731595
Si Si6 0.100581 0.290596 0.547424
Si Si7 0.269962 0.559430 0.761610
O O1 0.725162 0.500000 0.063371
O O2 0.600747 0.412758 0.081421
O O3 0.695376 0.426074 0.172035
O O4 0.012228 0.430556 0.893751
O O5 0.211793 0.154087 0.389201
O O6 0.456352 0.233506 0.232873
O O7 0.465750 0.173655 0.348467
O O8 0.653662 0.148748 0.120634
O O9 0.930590 0.913334 0.611195
O O10 0.972448 0.180244 0.139723
O O11 0.000000 0.126059 0.000000
O O12 0.757944 0.688670 0.602354
O O13 0.878809 0.733785 0.646348
O O14 0.250000 0.250000 0.500000
O O15 0.298720 0.500000 0.739445
#
# Coordination Sequence:
#
# PCOD9206987 Si02
#       7
#     8   8   4   8   8   8   8
#     4   9  20  41  61  84 117 152 194 243 301 356
#     4  11  22  37  52  87 119 151 196 243 284 341
#     4  12  21  34  62  94 120 146 195 246 296 350
#     4  12  23  39  58  85 117 158 201 237 288 347
#     4  10  21  37  56  77 113 159 197 234 285 338
#     4   9  18  36  55  75 108 155 191 232 289 332
#     4   9  19  38  63  89 118 148 187 248 306 350
#
# _framework density 17.506795
#
# number of rings (size 3 to 8) (size 9 to 14) (size 15 to 20)
#    0.000    1.846    3.077    3.462    2.154    0.308 
#    0.000    0.000    0.000    0.000    0.000    4.308 
#    0.000    0.000    0.000    0.000    0.000    0.000 
#
# Total GULP energy -144747.764787 kJ/mol
# GULP energy per Si atom -5567.221723 kJ/mol
# Density = 1.746695 g / cm^3
# Si number density = 17.506795 Si / 1000 Ang^3
#
#
#
# Elastic Constant Matrix: (Units=GPa)
#
#
# Indices 1 2 3 4 5 6 
#
# 1 112.0653 46.4052 39.3386 -0.0010 13.9300 0.0000
# 2 46.4052 61.0137 32.9898 0.0021 12.2536 -0.0012
# 3 39.3386 32.9898 92.7070 0.0007 13.1523 -0.0062
# 4 -0.0010 0.0021 0.0007 18.0846 -0.0014 6.6003
# 5 13.9300 12.2536 13.1523 -0.0014 29.8526 0.0012
# 6 0.0000 -0.0012 -0.0062 6.6003 0.0012 27.0355
#
#
#
# Elastic Compliance Matrix: (Units=1/GPa)
#
#
# Indices 1 2 3 4 5 6 
#
# 1 0.013580 -0.008669 -0.002436 0.000002 -0.001705 -0.000001
# 2 -0.008669 0.026710 -0.005167 -0.000004 -0.004641 0.000001
# 3 -0.002436 -0.005167 0.014077 -0.000002 -0.002944 0.000004
# 4 0.000002 -0.000004 -0.000002 0.060705 0.000005 -0.014820
# 5 -0.001705 -0.004641 -0.002944 0.000005 0.037496 -0.000004
# 6 -0.000001 0.000001 0.000004 -0.014820 -0.000004 0.040607
#
#
# Mechanical properties :
#
#
# Convention : Reuss Voigt Hill
#
# Bulk Modulus (GPa) = 45.82580 55.91701 50.87141
# Shear Modulus (GPa) = 21.45994 24.79803 23.12898
#
# Velocity S-wave (km/s) = 3.50495 3.76770 3.63870
# Velocity P-wave (km/s) = 6.52782 7.13701 6.83920
#
# Compressibility (1/GPa) = 0.02182177
#
# Stress axis : x y z
#
# Youngs Moduli (GPa) = 73.63674 37.43985 71.03928
#
# Poissons Ratio (x) = 0.32458 0.17302
# Poissons Ratio (y) = 0.63838 0.36709
# Poissons Ratio (z) = 0.17935 0.19347
#
# Static dielectric constant tensor:
#      x y z
#    x 1.639080 -0.000010 0.027980 
#    y -0.000010 1.596970 0.000010 
#    z 0.027980 0.000010 1.646070 
# 
# From -- ./inp_files/53768.got.cif
#   From: 2010.05.17/outbox.cif.g08.bks.cpg/sg12_27_cif.got.tgz:53768.got - 2010.06.03 13:09:07.
