data_PCOD9206357
_publ_section_title
;
Structure prediction by ZEFSAII (Michael W. Deem and Ramdas Pophale) SiO2 
 PCOD9206357
Probable space group: C 2/M
;
_chemical_formula_sum "Si O2"
_cell_formula_units_Z 48
_cell_length_a 10.948281
_cell_length_b 28.022412
_cell_length_c 13.788563
_cell_angle_alpha 90.000000
_cell_angle_beta 149.414606
_cell_angle_gamma 90.000000
_cell_volume 2152.466088
_symmetry_space_group_name_H-M "C 2/M"
_symmetry_group_IT_number 12
_symmetry_cell_setting 'monoclinic'
loop_
_space_group_symop_operation_xyz
x,y,z
-x,y,-z
-x,-y,-z
x,-y,z
1/2+x,1/2+y,z
1/2-x,1/2+y,-z
1/2-x,1/2-y,-z
1/2+x,1/2-y,z
loop_
_atom_site_type_symbol
_atom_site_label
_atom_site_fract_x
_atom_site_fract_y
_atom_site_fract_z
Si Si1 0.143627 0.694550 0.840961
Si Si2 0.157248 0.947201 0.705029
Si Si3 0.733223 0.850154 0.268979
Si Si4 0.773985 0.895070 0.575997
Si Si5 0.251061 0.604797 0.790350
Si Si6 0.047498 0.199610 0.759121
O O1 0.228100 0.658823 0.815178
O O2 0.040301 0.744402 0.730898
O O3 0.944162 0.672217 0.775337
O O4 0.363261 0.699984 0.068100
O O5 0.338623 0.904764 0.802077
O O6 0.000000 0.951747 0.500000
O O7 0.984269 0.924618 0.668814
O O8 0.242278 0.000000 0.788876
O O9 0.763830 0.822119 0.189178
O O10 0.000000 0.850065 0.500000
O O11 0.514892 0.913170 0.361665
O O12 0.770528 0.899844 0.688848
O O13 0.830024 0.838281 0.600368
O O14 0.500000 0.583925 0.000000
#
# Coordination Sequence:
#
# PCOD9206357 Si02
#       6
#     8   8   8   8   8   8
#     4  11  22  36  58  85 127 170 214 258 311 372
#     4   9  18  38  69  96 122 160 208 262 326 381
#     4  10  21  36  57  90 122 160 213 264 320 372
#     4  10  22  40  62  92 123 164 213 254 317 374
#     4  11  22  38  60  88 124 172 205 254 313 378
#     4  10  22  37  55  86 122 170 216 258 307 375
#
# _framework density 22.300001999999999
#
# number of rings (size 3 to 8) (size 9 to 14) (size 15 to 20)
#    0.000    1.833    1.667    3.500    2.333    2.667 
#    0.000    1.667    0.000   11.000    0.000    0.000 
#    0.000    0.000    0.000    0.000    0.000    0.000 
#
# Total GULP energy -133867.479014 kJ/mol
# GULP energy per Si atom -5577.811626 kJ/mol
# Density = 2.224925 g / cm^3
# Si number density = 22.300002 Si / 1000 Ang^3
#
#
#
# Elastic Constant Matrix: (Units=GPa)
#
#
# Indices 1 2 3 4 5 6 
#
# 1 89.2185 31.4067 1.5816 0.0000 -2.9714 0.0000
# 2 31.4067 129.2002 -10.5341 0.0000 -0.1740 0.0000
# 3 1.5816 -10.5341 81.3729 -0.0001 3.1049 0.0000
# 4 0.0000 0.0000 -0.0001 -39.4449 0.0000 1.1630
# 5 -2.9714 -0.1740 3.1049 0.0000 35.4445 0.0000
# 6 0.0000 0.0000 0.0000 1.1630 0.0000 -13.4642
#
#
#
# Elastic Compliance Matrix: (Units=1/GPa)
#
#
# Indices 1 2 3 4 5 6 
#
# 1 0.012330 -0.003051 -0.000676 0.000000 0.001078 0.000000
# 2 -0.003051 0.008577 0.001182 0.000000 -0.000317 0.000000
# 3 -0.000676 0.001182 0.012499 0.000000 -0.001146 0.000000
# 4 0.000000 0.000000 0.000000 -0.025417 0.000000 -0.002195
# 5 0.001078 -0.000317 -0.001146 0.000000 0.028402 0.000000
# 6 0.000000 0.000000 0.000000 -0.002195 0.000000 -0.074461
#
#
# Mechanical properties :
#
#
# Convention : Reuss Voigt Hill
#
# Bulk Modulus (GPa) = 35.31455 38.29999 36.80727
# Shear Modulus (GPa) = -212.40834 14.99625 -98.70605
#
# Velocity S-wave (km/s) = -9.77022 2.59603 -6.66025
# Velocity P-wave (km/s) = 10.55489 5.11840 6.52716
#
# Compressibility (1/GPa) = 0.02831694
#
# Stress axis : x y z
#
# Youngs Moduli (GPa) = 81.10090 116.58409 80.00677
#
# Poissons Ratio (x) = 0.35569 0.05406
# Poissons Ratio (y) = 0.24744 -0.09455
# Poissons Ratio (z) = 0.05480 -0.13778
#
# Static dielectric constant tensor:
#      x y z
#    x 1.770000 0.000000 -0.000420 
#    y 0.000000 1.840000 0.000000 
#    z -0.000420 0.000000 1.960770 
# 
# From -- ./inp_files/209456.got.cif
#   From: 2010.05.17/outbox.cif.g08.bks.cpg/sg12_105_cif.got.tgz:209456.got - 2010.06.03 13:09:07.
