data_PCOD9206952
_publ_section_title
;
Structure prediction by ZEFSAII (Michael W. Deem and Ramdas Pophale) SiO2 
 PCOD9206952
Probable space group: C 2/M
;
_chemical_formula_sum "Si O2"
_cell_formula_units_Z 56
_cell_length_a 10.272770
_cell_length_b 14.305605
_cell_length_c 23.417501
_cell_angle_alpha 90.000000
_cell_angle_beta 116.518253
_cell_angle_gamma 90.000000
_cell_volume 3079.332006
_symmetry_space_group_name_H-M "C 2/M"
_symmetry_group_IT_number 12
_symmetry_cell_setting 'monoclinic'
loop_
_space_group_symop_operation_xyz
x,y,z
-x,y,-z
-x,-y,-z
x,-y,z
1/2+x,1/2+y,z
1/2-x,1/2+y,-z
1/2-x,1/2-y,-z
1/2+x,1/2-y,z
loop_
_atom_site_type_symbol
_atom_site_label
_atom_site_fract_x
_atom_site_fract_y
_atom_site_fract_z
Si Si1 0.420954 0.257646 0.044511
Si Si2 0.399348 0.111692 0.532563
Si Si3 0.614657 0.888430 0.149132
Si Si4 0.983336 0.263772 0.344791
Si Si5 0.353484 0.253128 0.741699
Si Si6 0.068686 0.110219 0.847302
Si Si7 0.436495 0.389014 0.550439
O O1 0.492097 0.165859 0.088307
O O2 0.441687 0.342070 0.092946
O O3 0.500000 0.273020 0.000000
O O4 0.250000 0.250000 0.000000
O O5 0.500000 0.142289 0.500000
O O6 0.458608 0.157270 0.601320
O O7 0.233494 0.136230 0.486211
O O8 0.406438 0.000000 0.538713
O O9 0.622939 0.835900 0.211821
O O10 0.770571 0.873897 0.148214
O O11 0.589407 0.000000 0.148707
O O12 0.816858 0.276643 0.293636
O O13 0.085953 0.262304 0.309824
O O14 0.992873 0.169513 0.384770
O O15 0.448871 0.337350 0.785986
O O16 0.044120 0.000000 0.844704
O O17 0.500000 0.369348 0.500000
O O18 0.451664 0.500000 0.563645
#
# Coordination Sequence:
#
# PCOD9206952 Si02
#       7
#     8   8   8   8   8   8   8
#     4  11  22  39  65 100 128 153 199 251 291 347
#     4  10  21  37  55  79 113 148 187 243 308 365
#     4  10  22  42  65  87 123 170 202 238 297 354
#     4  12  22  36  60  84 115 153 199 247 307 353
#     4  11  24  39  58  90 119 156 206 256 289 349
#     4  10  22  42  64  87 125 168 199 242 300 349
#     4  10  21  37  57  83 113 149 195 246 302 368
#
# _framework density 18.185762
#
# number of rings (size 3 to 8) (size 9 to 14) (size 15 to 20)
#    0.000    1.429    2.857    2.571    0.000    3.429 
#    0.000    1.429    0.000    0.000    0.000    0.000 
#    0.000    0.000    0.000    0.000    0.000    0.000 
#
# Total GULP energy -156429.994834 kJ/mol
# GULP energy per Si atom -5586.785530 kJ/mol
# Density = 1.814437 g / cm^3
# Si number density = 18.185762 Si / 1000 Ang^3
#
#
#
# Elastic Constant Matrix: (Units=GPa)
#
#
# Indices 1 2 3 4 5 6 
#
# 1 94.9661 24.1613 22.6722 0.0000 -5.3287 0.0000
# 2 24.1613 112.3878 39.7091 0.0000 1.8093 0.0000
# 3 22.6722 39.7091 88.9757 0.0000 -4.8875 0.0000
# 4 0.0000 0.0000 0.0000 -24.2538 0.0000 -98.1025
# 5 -5.3287 1.8093 -4.8875 0.0000 47.4763 0.0000
# 6 0.0000 0.0000 0.0000 -98.1025 0.0000 -191.9664
#
#
#
# Elastic Compliance Matrix: (Units=1/GPa)
#
#
# Indices 1 2 3 4 5 6 
#
# 1 0.011542 -0.001760 -0.002092 0.000000 0.001147 0.000000
# 2 -0.001760 0.010870 -0.004461 0.000000 -0.001071 0.000000
# 3 -0.002092 -0.004461 0.013838 0.000000 0.001360 0.000000
# 4 0.000000 0.000000 0.000000 0.038639 0.000000 -0.019746
# 5 0.001147 -0.001071 0.001360 0.000000 0.021373 0.000000
# 6 0.000000 0.000000 0.000000 -0.019746 0.000000 0.004882
#
#
# Mechanical properties :
#
#
# Convention : Reuss Voigt Hill
#
# Bulk Modulus (GPa) = 50.96506 52.15719 51.56113
# Shear Modulus (GPa) = 40.22144 -19.76297 10.22923
#
# Velocity S-wave (km/s) = 4.70797 -3.30013 2.37425
# Velocity P-wave (km/s) = 7.59203 3.77112 5.99417
#
# Compressibility (1/GPa) = 0.01962128
#
# Stress axis : x y z
#
# Youngs Moduli (GPa) = 86.64115 91.99829 72.26518
#
# Poissons Ratio (x) = 0.16196 0.15120
# Poissons Ratio (y) = 0.15253 0.32240
# Poissons Ratio (z) = 0.18128 0.41043
#
# Static dielectric constant tensor:
#      x y z
#    x 1.671220 0.000000 -0.048460 
#    y 0.000000 1.614520 0.000000 
#    z -0.048460 0.000000 1.637110 
# 
# From -- ./inp_files/300145.got.cif
#   From: 2010.05.17/outbox.cif.g08.bks.cpg/sg12_151_cif.got.tgz:300145.got - 2010.06.03 13:09:07.
