data_PCOD9206557
_publ_section_title
;
Structure prediction by ZEFSAII (Michael W. Deem and Ramdas Pophale) SiO2 
 PCOD9206557
Probable space group: C 2/M
;
_chemical_formula_sum "Si O2"
_cell_formula_units_Z 24
_cell_length_a 12.386173
_cell_length_b 17.520056
_cell_length_c 7.445440
_cell_angle_alpha 90.000000
_cell_angle_beta 144.040342
_cell_angle_gamma 90.000000
_cell_volume 948.769016
_symmetry_space_group_name_H-M "C 2/M"
_symmetry_group_IT_number 12
_symmetry_cell_setting 'monoclinic'
loop_
_space_group_symop_operation_xyz
x,y,z
-x,y,-z
-x,-y,-z
x,-y,z
1/2+x,1/2+y,z
1/2-x,1/2+y,-z
1/2-x,1/2-y,-z
1/2+x,1/2-y,z
loop_
_atom_site_type_symbol
_atom_site_label
_atom_site_fract_x
_atom_site_fract_y
_atom_site_fract_z
Si Si1 0.143766 0.837007 0.906690
Si Si2 0.884730 0.693195 0.573558
Si Si3 0.735139 0.589193 0.648731
O O1 0.222470 0.866665 0.822697
O O2 0.053864 0.751941 0.773736
O O3 0.968318 0.891887 0.706858
O O4 0.286937 0.836523 0.262115
O O5 0.750000 0.750000 0.500000
O O6 0.881760 0.621512 0.703328
O O7 0.756135 0.500000 0.707124
#
# Coordination Sequence:
#
# PCOD9206557 Si02
#       3
#     8   8   8
#     4  10  21  36  59  90 119 152 198 247 293 349
#     4  10  21  36  59  90 119 153 198 246 294 350
#     4  10  21  36  59  90 120 152 196 248 296 347
#
# _framework density 25.295936999999999
#
# number of rings (size 3 to 8) (size 9 to 14) (size 15 to 20)
#    0.000    2.000    0.000    6.000    0.000   18.667 
#    0.000    0.000    0.000   18.000    0.000   86.333 
#    0.000    0.000    0.000    0.000    0.000    0.000 
#
# Total GULP energy -67150.847366 kJ/mol
# GULP energy per Si atom -5595.903947 kJ/mol
# Density = 2.523836 g / cm^3
# Si number density = 25.295937 Si / 1000 Ang^3
#
#
#
# Elastic Constant Matrix: (Units=GPa)
#
#
# Indices 1 2 3 4 5 6 
#
# 1 192.2415 91.7705 100.6520 0.0000 -10.1437 0.0000
# 2 91.7705 228.3983 66.1265 0.0000 -12.4584 0.0000
# 3 100.6520 66.1265 159.4740 0.0000 -24.2895 0.0000
# 4 0.0000 0.0000 0.0000 31.2643 0.0000 2.8571
# 5 -10.1437 -12.4584 -24.2895 0.0000 67.4810 0.0000
# 6 0.0000 0.0000 0.0000 2.8571 0.0000 45.5178
#
#
#
# Elastic Compliance Matrix: (Units=1/GPa)
#
#
# Indices 1 2 3 4 5 6 
#
# 1 0.008640 -0.002160 -0.004677 0.000000 -0.000783 0.000000
# 2 -0.002160 0.005518 -0.000866 0.000000 0.000382 0.000000
# 3 -0.004677 -0.000866 0.009998 0.000000 0.002736 0.000000
# 4 0.000000 0.000000 0.000000 0.032170 0.000000 -0.002019
# 5 -0.000783 0.000382 0.002736 0.000000 0.015757 0.000000
# 6 0.000000 0.000000 0.000000 -0.002019 0.000000 0.022096
#
#
# Mechanical properties :
#
#
# Convention : Reuss Voigt Hill
#
# Bulk Modulus (GPa) = 114.29152 121.91243 118.10198
# Shear Modulus (GPa) = 44.44313 50.29029 47.36671
#
# Velocity S-wave (km/s) = 4.19612 4.46362 4.33194
# Velocity P-wave (km/s) = 8.29195 8.65242 8.47410
#
# Compressibility (1/GPa) = 0.00874956
#
# Stress axis : x y z
#
# Youngs Moduli (GPa) = 115.73442 181.22398 100.01600
#
# Poissons Ratio (x) = 0.39152 0.46777
# Poissons Ratio (y) = 0.25003 0.08665
# Poissons Ratio (z) = 0.54128 0.15700
#
# Static dielectric constant tensor:
#      x y z
#    x 2.109020 0.000000 0.170550 
#    y 0.000000 1.934270 0.000000 
#    z 0.170550 0.000000 2.372260 
# 
# From -- ./inp_files/9622.got.cif
#   From: 2010.05.17/outbox.cif.g08.bks.cpg/sg12_5_cif.got.tgz:9622.got - 2010.06.03 13:09:07.
