data_PCOD9206877
_publ_section_title
;
Structure prediction by ZEFSAII (Michael W. Deem and Ramdas Pophale) SiO2 
 PCOD9206877
Probable space group: C 2/M
;
_chemical_formula_sum "Si O2"
_cell_formula_units_Z 64
_cell_length_a 14.963988
_cell_length_b 8.162663
_cell_length_c 29.505464
_cell_angle_alpha 90.000000
_cell_angle_beta 116.388957
_cell_angle_gamma 90.000000
_cell_volume 3228.430817
_symmetry_space_group_name_H-M "C 2/M"
_symmetry_group_IT_number 12
_symmetry_cell_setting 'monoclinic'
loop_
_space_group_symop_operation_xyz
x,y,z
-x,y,-z
-x,-y,-z
x,-y,z
1/2+x,1/2+y,z
1/2-x,1/2+y,-z
1/2-x,1/2-y,-z
1/2+x,1/2-y,z
loop_
_atom_site_type_symbol
_atom_site_label
_atom_site_fract_x
_atom_site_fract_y
_atom_site_fract_z
Si Si1 0.268981 0.197436 0.361013
Si Si2 0.524448 0.308139 0.907516
Si Si3 0.947238 0.200057 0.717147
Si Si4 0.661687 0.807804 0.012737
Si Si5 0.096090 0.799999 0.827655
Si Si6 0.817170 0.301285 0.879689
Si Si7 0.694304 0.302516 0.442239
Si Si8 0.977745 0.802640 0.364696
O O1 0.250949 0.252736 0.409047
O O2 0.373481 0.248893 0.362782
O O3 0.168432 0.252251 0.311886
O O4 0.267512 0.000000 0.360975
O O5 0.545647 0.500000 0.916787
O O6 0.561326 0.227722 0.962321
O O7 0.580955 0.243890 0.875904
O O8 0.408415 0.276057 0.873675
O O9 0.010256 0.257226 0.774468
O O10 0.003202 0.248619 0.683203
O O11 0.946920 0.000000 0.717871
O O12 0.672694 0.000000 0.020464
O O13 0.750000 0.750000 0.000000
O O14 0.670635 0.740749 0.065462
O O15 0.207562 0.756403 0.837859
O O16 0.091661 0.000000 0.828011
O O17 0.826213 0.500000 0.880466
O O18 0.692672 0.500000 0.440474
O O19 0.750000 0.250000 0.500000
O O20 0.578528 0.247063 0.413478
O O21 0.977878 0.000000 0.365053
#
# Coordination Sequence:
#
# PCOD9206877 Si02
#       8
#     8   8   8   8   8   8   8   8
#     4   9  18  33  53  77 103 135 175 215 258 306
#     4  11  22  36  54  80 106 135 173 211 254 309
#     4   8  16  33  55  74  99 138 173 208 257 311
#     4  11  21  36  57  78 104 137 172 210 256 310
#     4   9  18  35  55  75 104 137 170 208 259 314
#     4  10  21  37  54  76 104 136 170 208 256 310
#     4   9  19  34  50  73 107 141 175 211 254 307
#     4   9  18  33  53  77 102 134 176 215 254 304
#
# _framework density 19.823872000000001
#
# number of rings (size 3 to 8) (size 9 to 14) (size 15 to 20)
#    0.000    2.500    1.250    2.625    0.000    5.000 
#    0.000    4.375    0.000    3.000    0.000    0.000 
#    0.000    0.000    0.000    0.000    0.000    0.000 
#
# Total GULP energy -178487.376090 kJ/mol
# GULP energy per Si atom -5577.730503 kJ/mol
# Density = 1.977875 g / cm^3
# Si number density = 19.823872 Si / 1000 Ang^3
#
#
#
# Elastic Constant Matrix: (Units=GPa)
#
#
# Indices 1 2 3 4 5 6 
#
# 1 119.6133 0.8436 23.7542 0.0000 19.1762 0.0000
# 2 0.8436 7.3878 1.4600 0.0000 -0.3181 0.0000
# 3 23.7542 1.4600 93.8700 0.0000 18.5331 0.0000
# 4 0.0000 0.0000 0.0000 17.1119 0.0000 4.5283
# 5 19.1762 -0.3181 18.5331 0.0000 17.2040 0.0000
# 6 0.0000 0.0000 0.0000 4.5283 0.0000 31.5094
#
#
#
# Elastic Compliance Matrix: (Units=1/GPa)
#
#
# Indices 1 2 3 4 5 6 
#
# 1 0.010211 -0.001562 -0.000390 0.000000 -0.010990 0.000000
# 2 -0.001562 0.136517 -0.003264 0.000000 0.007782 0.000000
# 3 -0.000390 -0.003264 0.013627 0.000000 -0.014306 0.000000
# 4 0.000000 0.000000 0.000000 0.060749 0.000000 -0.008730
# 5 -0.010990 0.007782 -0.014306 0.000000 0.085931 0.000000
# 6 0.000000 0.000000 0.000000 -0.008730 0.000000 0.032991
#
#
# Mechanical properties :
#
#
# Convention : Reuss Voigt Hill
#
# Bulk Modulus (GPa) = 6.67014 30.33185 18.50099
# Shear Modulus (GPa) = 12.48650 26.15261 19.31955
#
# Velocity S-wave (km/s) = 2.51245 3.63609 3.12518
# Velocity P-wave (km/s) = 3.43344 5.74126 4.73025
#
# Compressibility (1/GPa) = 0.14992196
#
# Stress axis : x y z
#
# Youngs Moduli (GPa) = 97.93724 7.32508 73.38473
#
# Poissons Ratio (x) = 0.01144 0.02860
# Poissons Ratio (y) = 0.15299 0.23956
# Poissons Ratio (z) = 0.03817 0.02391
#
# Static dielectric constant tensor:
#      x y z
#    x 1.708660 0.000000 0.006800 
#    y 0.000000 1.703450 0.000000 
#    z 0.006800 0.000000 1.729670 
# 
# From -- ./inp_files/375081.got.cif
#   From: 2010.05.17/outbox.cif.g08.bks.cpg/sg12_188_cif.got.tgz:375081.got - 2010.06.03 13:09:07.
