data_PCOD9206536
_publ_section_title
;
Structure prediction by ZEFSAII (Michael W. Deem and Ramdas Pophale) SiO2 
 PCOD9206536
Probable space group: C 2/M
;
_chemical_formula_sum "Si O2"
_cell_formula_units_Z 58
_cell_length_a 21.470467
_cell_length_b 7.719878
_cell_length_c 17.272729
_cell_angle_alpha 90.000000
_cell_angle_beta 75.813681
_cell_angle_gamma 90.000000
_cell_volume 2775.635580
_symmetry_space_group_name_H-M "C 2/M"
_symmetry_group_IT_number 12
_symmetry_cell_setting 'monoclinic'
loop_
_space_group_symop_operation_xyz
x,y,z
-x,y,-z
-x,-y,-z
x,-y,z
1/2+x,1/2+y,z
1/2-x,1/2+y,-z
1/2-x,1/2-y,-z
1/2+x,1/2-y,z
loop_
_atom_site_type_symbol
_atom_site_label
_atom_site_fract_x
_atom_site_fract_y
_atom_site_fract_z
Si Si1 0.697636 0.799815 0.951703
Si Si2 0.442152 0.212959 0.963250
Si Si3 0.713379 0.799317 0.209139
Si Si4 0.072881 0.710028 0.206265
Si Si5 0.651876 0.791760 0.547219
Si Si6 0.234435 0.796918 0.377461
Si Si7 0.002425 0.708657 0.615753
Si Si8 0.500000 0.500000 0.500000
O O1 0.728416 0.776939 0.857981
O O2 0.687040 0.000000 0.968195
O O3 0.750000 0.750000 0.000000
O O4 0.627227 0.721549 0.985919
O O5 0.448855 0.267148 0.871779
O O6 0.443734 0.000000 0.963867
O O7 0.500000 0.271462 0.000000
O O8 0.644515 0.724519 0.204234
O O9 0.721129 0.785095 0.298724
O O10 0.712803 0.000000 0.187232
O O11 0.076687 0.500000 0.202803
O O12 0.025161 0.747199 0.291136
O O13 0.702015 0.728756 0.597291
O O14 0.677514 0.726602 0.456968
O O15 0.578444 0.748282 0.587310
O O16 0.656409 0.000000 0.543764
O O17 0.243796 0.000000 0.360332
O O18 0.993283 0.500000 0.602303
O O19 0.971755 0.843859 0.565593
#
# Coordination Sequence:
#
# PCOD9206536 Si02
#       8
#     8   8   8   8   8   8   8   2
#     4  11  21  37  60  90 120 154 197 245 301 364
#     4   9  18  35  63  92 119 157 204 250 301 370
#     4  11  22  37  58  86 120 156 199 248 303 361
#     4   9  19  37  57  84 120 160 202 251 307 365
#     4   9  20  39  59  83 118 161 199 249 311 367
#     4  10  21  36  59  88 117 154 205 252 303 366
#     4  10  23  41  62  87 126 165 206 258 312 373
#     4  12  26  40  60  98 118 164 210 252 308 378
#
# _framework density 20.896115000000002
#
# number of rings (size 3 to 8) (size 9 to 14) (size 15 to 20)
#    0.000    2.069    1.379    1.448    2.897    1.655 
#    1.241    4.138    0.000    1.655    0.000    0.000 
#    0.000    0.000    0.000    0.000    0.000    0.138 
#
# Total GULP energy -161644.817505 kJ/mol
# GULP energy per Si atom -5573.959224 kJ/mol
# Density = 2.084855 g / cm^3
# Si number density = 20.896115 Si / 1000 Ang^3
#
#
#
# Elastic Constant Matrix: (Units=GPa)
#
#
# Indices 1 2 3 4 5 6 
#
# 1 128.5548 16.7081 77.5456 0.0000 -4.1434 0.0000
# 2 16.7081 45.6846 6.4336 0.0000 -1.7262 0.0000
# 3 77.5456 6.4336 161.6745 0.0000 2.6709 0.0000
# 4 0.0000 0.0000 0.0000 24.9334 0.0000 0.9298
# 5 -4.1434 -1.7262 2.6709 0.0000 32.3460 0.0000
# 6 0.0000 0.0000 0.0000 0.9298 0.0000 12.3276
#
#
#
# Elastic Compliance Matrix: (Units=1/GPa)
#
#
# Indices 1 2 3 4 5 6 
#
# 1 0.011556 -0.003395 -0.005436 0.000000 0.001748 0.000000
# 2 -0.003395 0.023060 0.000698 0.000000 0.000738 0.000000
# 3 -0.005436 0.000698 0.008788 0.000000 -0.001385 0.000000
# 4 0.000000 0.000000 0.000000 0.040220 0.000000 -0.003034
# 5 0.001748 0.000738 -0.001385 0.000000 0.031293 0.000000
# 6 0.000000 0.000000 0.000000 -0.003034 0.000000 0.081348
#
#
# Mechanical properties :
#
#
# Convention : Reuss Voigt Hill
#
# Bulk Modulus (GPa) = 36.84793 59.69871 48.27332
# Shear Modulus (GPa) = 22.56563 29.60318 26.08440
#
# Velocity S-wave (km/s) = 3.28974 3.76797 3.53695
# Velocity P-wave (km/s) = 5.66586 6.89648 6.31124
#
# Compressibility (1/GPa) = 0.02713857
#
# Stress axis : x y z
#
# Youngs Moduli (GPa) = 86.53862 43.36463 113.79388
#
# Poissons Ratio (x) = 0.14720 0.61862
# Poissons Ratio (y) = 0.29376 -0.07946
# Poissons Ratio (z) = 0.47045 -0.03028
#
# Static dielectric constant tensor:
#      x y z
#    x 1.769990 0.000000 0.016650 
#    y 0.000000 1.788510 0.000000 
#    z 0.016650 0.000000 1.713360 
# 
# From -- ./inp_files/237576.got.cif
#   From: 2010.05.17/outbox.cif.g08.bks.cpg/sg12_119_cif.got.tgz:237576.got - 2010.06.03 13:09:07.
