data_PCOD9206182
_publ_section_title
;
Structure prediction by ZEFSAII (Michael W. Deem and Ramdas Pophale) SiO2 
 PCOD9206182
Probable space group: C 2/M
;
_chemical_formula_sum "Si O2"
_cell_formula_units_Z 56
_cell_length_a 8.762383
_cell_length_b 13.075898
_cell_length_c 22.923905
_cell_angle_alpha 90.000000
_cell_angle_beta 117.182530
_cell_angle_gamma 90.000000
_cell_volume 2336.444696
_symmetry_space_group_name_H-M "C 2/M"
_symmetry_group_IT_number 12
_symmetry_cell_setting 'monoclinic'
loop_
_space_group_symop_operation_xyz
x,y,z
-x,y,-z
-x,-y,-z
x,-y,z
1/2+x,1/2+y,z
1/2-x,1/2+y,-z
1/2-x,1/2-y,-z
1/2+x,1/2-y,z
loop_
_atom_site_type_symbol
_atom_site_label
_atom_site_fract_x
_atom_site_fract_y
_atom_site_fract_z
Si Si1 0.636721 0.875493 0.476221
Si Si2 0.041552 0.124897 0.393195
Si Si3 0.561895 0.711060 0.951165
Si Si4 0.557084 0.621783 0.264051
Si Si5 0.220710 0.193692 0.864755
Si Si6 0.345653 0.124432 0.651892
Si Si7 0.165932 0.621582 0.784611
O O1 0.500000 0.840965 0.500000
O O2 0.598162 0.844944 0.403365
O O3 0.824750 0.847815 0.532862
O O4 0.630239 0.000000 0.474885
O O5 0.847834 0.158063 0.370882
O O6 0.093712 0.155665 0.336559
O O7 0.040175 0.000000 0.392794
O O8 0.423300 0.802047 0.913650
O O9 0.603903 0.654306 0.897917
O O10 0.500000 0.657539 0.000000
O O11 0.750000 0.750000 0.000000
O O12 0.576130 0.500000 0.268686
O O13 0.363950 0.644675 0.207480
O O14 0.694637 0.656143 0.239593
O O15 0.190549 0.314764 0.847651
O O16 0.481287 0.149054 0.725613
O O17 0.343194 0.000000 0.650908
O O18 0.178637 0.500000 0.795187
#
# Coordination Sequence:
#
# PCOD9206182 Si02
#       7
#     8   8   8   8   8   8   8
#     4   9  15  25  43  66 101 150 196 237 291 344
#     4   9  17  28  45  73 108 146 192 246 289 332
#     4   9  20  38  64  90 117 151 190 226 277 339
#     4  10  21  36  56  85 120 153 193 239 286 341
#     4  11  20  38  64  89 115 156 188 229 287 338
#     4   9  17  28  45  73 108 146 193 245 288 334
#     4  10  21  36  56  85 119 154 194 237 285 344
#
# _framework density 23.968040999999999
#
# number of rings (size 3 to 8) (size 9 to 14) (size 15 to 20)
#    0.000    2.429    1.429    1.286    2.000    5.143 
#    0.000    0.000    0.000   18.000    0.000    0.000 
#    0.000    0.000    0.000    0.000    0.000    0.000 
#
# Total GULP energy -156450.475492 kJ/mol
# GULP energy per Si atom -5587.516982 kJ/mol
# Density = 2.391349 g / cm^3
# Si number density = 23.968041 Si / 1000 Ang^3
#
#
#
# Elastic Constant Matrix: (Units=GPa)
#
#
# Indices 1 2 3 4 5 6 
#
# 1 121.8419 8.8269 48.4769 0.0000 11.2435 0.0000
# 2 8.8269 57.6961 7.4073 0.0000 -7.7939 0.0000
# 3 48.4769 7.4073 130.0472 0.0000 6.5986 0.0000
# 4 0.0000 0.0000 0.0000 14.1141 0.0000 2.5789
# 5 11.2435 -7.7939 6.5986 0.0000 41.7981 0.0000
# 6 0.0000 0.0000 0.0000 2.5789 0.0000 26.6257
#
#
#
# Elastic Compliance Matrix: (Units=1/GPa)
#
#
# Indices 1 2 3 4 5 6 
#
# 1 0.009919 -0.001389 -0.003498 0.000000 -0.002375 0.000000
# 2 -0.001389 0.018159 -0.000713 0.000000 0.003872 0.000000
# 3 -0.003498 -0.000713 0.009066 0.000000 -0.000623 0.000000
# 4 0.000000 0.000000 0.000000 0.072128 0.000000 -0.006986
# 5 -0.002375 0.003872 -0.000623 0.000000 0.025384 0.000000
# 6 0.000000 0.000000 0.000000 -0.006986 0.000000 0.038234
#
#
# Mechanical properties :
#
#
# Convention : Reuss Voigt Hill
#
# Bulk Modulus (GPa) = 38.54475 48.77861 43.66168
# Shear Modulus (GPa) = 25.94200 32.83250 29.38725
#
# Velocity S-wave (km/s) = 3.29349 3.70516 3.50537
# Velocity P-wave (km/s) = 5.52986 6.22093 5.88555
#
# Compressibility (1/GPa) = 0.02594387
#
# Stress axis : x y z
#
# Youngs Moduli (GPa) = 100.81868 55.06802 110.30737
#
# Poissons Ratio (x) = 0.07650 0.38583
# Poissons Ratio (y) = 0.14006 0.07864
# Poissons Ratio (z) = 0.35264 0.03926
#
# Static dielectric constant tensor:
#      x y z
#    x 1.917020 0.000000 -0.024710 
#    y 0.000000 1.982310 0.000000 
#    z -0.024710 0.000000 1.928380 
# 
# From -- ./inp_files/300669.got.cif
#   From: 2010.05.17/outbox.cif.g08.bks.cpg/sg12_151_cif.got.tgz:300669.got - 2010.06.03 13:09:07.
