data_PCOD9206862
_publ_section_title
;
Structure prediction by ZEFSAII (Michael W. Deem and Ramdas Pophale) SiO2 
 PCOD9206862
Probable space group: C 2/M
;
_chemical_formula_sum "Si O2"
_cell_formula_units_Z 64
_cell_length_a 19.971703
_cell_length_b 9.471411
_cell_length_c 24.221594
_cell_angle_alpha 90.000000
_cell_angle_beta 121.196719
_cell_angle_gamma 90.000000
_cell_volume 3919.211156
_symmetry_space_group_name_H-M "C 2/M"
_symmetry_group_IT_number 12
_symmetry_cell_setting 'monoclinic'
loop_
_space_group_symop_operation_xyz
x,y,z
-x,y,-z
-x,-y,-z
x,-y,z
1/2+x,1/2+y,z
1/2-x,1/2+y,-z
1/2-x,1/2-y,-z
1/2+x,1/2-y,z
loop_
_atom_site_type_symbol
_atom_site_label
_atom_site_fract_x
_atom_site_fract_y
_atom_site_fract_z
Si Si1 0.002736 0.832517 0.676127
Si Si2 0.327316 0.828907 0.052774
Si Si3 0.550879 0.335344 0.466611
Si Si4 0.083558 0.337799 0.801528
Si Si5 0.420467 0.162680 0.801176
Si Si6 0.789458 0.669278 0.465773
Si Si7 0.513895 0.828044 0.943542
Si Si8 0.655335 0.332998 0.323539
O O1 0.997558 0.797256 0.609297
O O2 0.917215 0.799292 0.666063
O O3 0.066926 0.753275 0.740314
O O4 0.014671 0.000000 0.686690
O O5 0.351849 0.790983 0.126217
O O6 0.401508 0.790247 0.045564
O O7 0.318870 0.000000 0.047098
O O8 0.250000 0.750000 0.000000
O O9 0.500000 0.328241 0.500000
O O10 0.576577 0.500000 0.469827
O O11 0.624696 0.233499 0.503458
O O12 0.099099 0.500000 0.793012
O O13 0.002198 0.335823 0.801673
O O14 0.446028 0.218434 0.872078
O O15 0.359748 0.250643 0.739362
O O16 0.395177 0.000000 0.794796
O O17 0.790072 0.500000 0.474799
O O18 0.750000 0.750000 0.500000
O O19 0.735391 0.698926 0.389381
O O20 0.511455 0.000000 0.941678
O O21 0.500000 0.780474 0.000000
O O22 0.651722 0.500000 0.311606
#
# Coordination Sequence:
#
# PCOD9206862 Si02
#       8
#     8   8   8   8   8   8   8   8
#     4   9  16  29  48  71  95 122 158 198 243 288
#     4   9  17  29  47  71  97 123 155 197 239 281
#     4  10  21  37  54  73 102 134 165 207 254 298
#     4   8  15  27  43  67  94 120 155 197 237 278
#     4   8  14  25  44  70  93 118 156 196 235 280
#     4  11  21  34  53  77 103 130 167 208 250 298
#     4   8  14  27  48  71  95 123 157 197 234 274
#     4   9  17  29  46  70  99 124 152 199 246 284
#
# _framework density 16.329816999999998
#
# number of rings (size 3 to 8) (size 9 to 14) (size 15 to 20)
#    0.000    3.000    1.250    1.875    0.000    2.250 
#    0.000    1.875    2.750    1.500    0.000    0.000 
#    0.000    0.000    0.000    0.000    0.000    0.000 
#
# Total GULP energy -178171.649408 kJ/mol
# GULP energy per Si atom -5567.864044 kJ/mol
# Density = 1.629265 g / cm^3
# Si number density = 16.329817 Si / 1000 Ang^3
#
#
#
# Elastic Constant Matrix: (Units=GPa)
#
#
# Indices 1 2 3 4 5 6 
#
# 1 40.2227 28.7233 53.4379 0.0000 -0.4416 0.0000
# 2 28.7233 44.8593 71.5404 0.0000 6.1128 0.0000
# 3 53.4379 71.5404 195.0274 0.0000 0.1610 0.0000
# 4 0.0000 0.0000 0.0000 32.3375 0.0000 6.7594
# 5 -0.4416 6.1128 0.1610 0.0000 25.1661 0.0000
# 6 0.0000 0.0000 0.0000 6.7594 0.0000 17.5872
#
#
#
# Elastic Compliance Matrix: (Units=1/GPa)
#
#
# Indices 1 2 3 4 5 6 
#
# 1 0.048548 -0.026135 -0.003721 0.000000 0.007224 0.000000
# 2 -0.026135 0.072343 -0.019361 0.000000 -0.017907 0.000000
# 3 -0.003721 -0.019361 0.013245 0.000000 0.004553 0.000000
# 4 0.000000 0.000000 0.000000 0.033625 0.000000 -0.012923
# 5 0.007224 -0.017907 0.004553 0.000000 0.044183 0.000000
# 6 0.000000 0.000000 0.000000 -0.012923 0.000000 0.061827
#
#
# Mechanical properties :
#
#
# Convention : Reuss Voigt Hill
#
# Bulk Modulus (GPa) = 28.01001 65.27918 46.64459
# Shear Modulus (GPa) = 13.01724 23.44535 18.23129
#
# Velocity S-wave (km/s) = 2.82644 3.79322 3.34494
# Velocity P-wave (km/s) = 5.27651 7.69721 6.59881
#
# Compressibility (1/GPa) = 0.03570153
#
# Stress axis : x y z
#
# Youngs Moduli (GPa) = 20.59816 13.82310 75.49747
#
# Poissons Ratio (x) = 0.36126 0.28095
# Poissons Ratio (y) = 0.53833 1.46172
# Poissons Ratio (z) = 0.07665 0.26763
#
# Static dielectric constant tensor:
#      x y z
#    x 1.535360 0.000000 -0.005620 
#    y 0.000000 1.547480 0.000000 
#    z -0.005620 0.000000 1.563420 
# 
# From -- ./inp_files/345595.got.cif
#   From: 2010.05.17/outbox.cif.g08.bks.cpg/sg12_173_cif.got.tgz:345595.got - 2010.06.03 13:09:07.
