data_PCOD9206707
_publ_section_title
;
Structure prediction by ZEFSAII (Michael W. Deem and Ramdas Pophale) SiO2 
 PCOD9206707
Probable space group: C 2/M
;
_chemical_formula_sum "Si O2"
_cell_formula_units_Z 56
_cell_length_a 19.291872
_cell_length_b 17.329479
_cell_length_c 9.322868
_cell_angle_alpha 90.000000
_cell_angle_beta 73.807360
_cell_angle_gamma 90.000000
_cell_volume 2993.158329
_symmetry_space_group_name_H-M "C 2/M"
_symmetry_group_IT_number 12
_symmetry_cell_setting 'monoclinic'
loop_
_space_group_symop_operation_xyz
x,y,z
-x,y,-z
-x,-y,-z
x,-y,z
1/2+x,1/2+y,z
1/2-x,1/2+y,-z
1/2-x,1/2-y,-z
1/2+x,1/2-y,z
loop_
_atom_site_type_symbol
_atom_site_label
_atom_site_fract_x
_atom_site_fract_y
_atom_site_fract_z
Si Si1 0.980239 0.376700 0.173406
Si Si2 0.526543 0.699166 0.136233
Si Si3 0.819852 0.253489 0.861109
Si Si4 0.346675 0.846717 0.426801
Si Si5 0.950106 0.916754 0.391974
Si Si6 0.184798 0.178507 0.451110
Si Si7 0.615556 0.911771 0.283437
O O1 0.897066 0.380915 0.271716
O O2 0.995989 0.285482 0.167157
O O3 0.035330 0.410421 0.260005
O O4 0.000000 0.403796 0.000000
O O5 0.612100 0.709969 0.106441
O O6 0.490474 0.645525 0.273303
O O7 0.500000 0.668513 0.000000
O O8 0.807495 0.213001 0.713790
O O9 0.841816 0.343273 0.823567
O O10 0.750000 0.250000 0.000000
O O11 0.261050 0.857005 0.456570
O O12 0.345449 0.752874 0.442029
O O13 0.378196 0.883743 0.555008
O O14 0.874446 0.886111 0.493141
O O15 0.000000 0.924410 0.500000
O O16 0.942568 0.000000 0.323452
O O17 0.642557 0.000000 0.255408
#
# Coordination Sequence:
#
# PCOD9206707 Si02
#       7
#     8   8   8   8   8   8   8
#     4  10  21  36  63  91 119 161 203 246 297 359
#     4  10  21  36  61  89 122 155 205 253 296 359
#     4  10  22  39  65  90 121 163 203 248 302 366
#     4  10  21  36  62  88 118 158 203 248 294 361
#     4  11  22  39  61  86 119 159 203 253 306 354
#     4  10  21  37  61  88 119 156 206 250 301 352
#     4  10  23  41  60  90 124 159 198 248 303 358
#
# _framework density 18.709333999999998
#
# number of rings (size 3 to 8) (size 9 to 14) (size 15 to 20)
#    0.000    1.857    2.857    0.429    6.000    3.429 
#    0.000    1.429    0.000    0.000    0.000    0.000 
#    0.000    0.000    0.000    0.000    0.000    0.000 
#
# Total GULP energy -156027.326377 kJ/mol
# GULP energy per Si atom -5572.404513 kJ/mol
# Density = 1.866675 g / cm^3
# Si number density = 18.709334 Si / 1000 Ang^3
#
#
#
# Elastic Constant Matrix: (Units=GPa)
#
#
# Indices 1 2 3 4 5 6 
#
# 1 134.1035 36.6699 58.3133 0.0000 -8.3750 0.0000
# 2 36.6699 80.2850 32.0121 0.0000 -7.0282 0.0000
# 3 58.3133 32.0121 95.4844 0.0000 -8.7213 0.0000
# 4 0.0000 0.0000 0.0000 -2.3386 0.0000 12.1839
# 5 -8.3750 -7.0282 -8.7213 0.0000 34.9071 0.0000
# 6 0.0000 0.0000 0.0000 12.1839 0.0000 -15.8521
#
#
#
# Elastic Compliance Matrix: (Units=1/GPa)
#
#
# Indices 1 2 3 4 5 6 
#
# 1 0.010621 -0.002576 -0.005564 0.000000 0.000639 0.000000
# 2 -0.002576 0.015105 -0.003346 0.000000 0.001587 0.000000
# 3 -0.005564 -0.003346 0.015155 0.000000 0.001778 0.000000
# 4 0.000000 0.000000 0.000000 0.142330 0.000000 0.109394
# 5 0.000639 0.001587 0.001778 0.000000 0.029565 0.000000
# 6 0.000000 0.000000 0.000000 0.109394 0.000000 0.020998
#
#
# Mechanical properties :
#
#
# Convention : Reuss Voigt Hill
#
# Bulk Modulus (GPa) = 55.83904 62.65150 59.24527
# Shear Modulus (GPa) = 19.03200 15.53511 17.28356
#
# Velocity S-wave (km/s) = 3.19289 2.88469 3.04269
# Velocity P-wave (km/s) = 6.59569 6.68242 6.63919
#
# Compressibility (1/GPa) = 0.01790862
#
# Stress axis : x y z
#
# Youngs Moduli (GPa) = 94.15438 66.20128 65.98458
#
# Poissons Ratio (x) = 0.17057 0.36714
# Poissons Ratio (y) = 0.24259 0.22077
# Poissons Ratio (z) = 0.52388 0.22150
#
# Static dielectric constant tensor:
#      x y z
#    x 1.645320 0.000000 0.032700 
#    y 0.000000 1.651250 0.000000 
#    z 0.032700 0.000000 1.652630 
# 
# From -- ./inp_files/87228.got.cif
#   From: 2010.05.17/outbox.cif.g08.bks.cpg/sg12_44_cif.got.tgz:87228.got - 2010.06.03 13:09:07.
