data_PCOD9206575
_publ_section_title
;
Structure prediction by ZEFSAII (Michael W. Deem and Ramdas Pophale) SiO2 
 PCOD9206575
Probable space group: C 2/M
;
_chemical_formula_sum "Si O2"
_cell_formula_units_Z 48
_cell_length_a 10.468420
_cell_length_b 17.912713
_cell_length_c 21.387204
_cell_angle_alpha 90.000000
_cell_angle_beta 142.814651
_cell_angle_gamma 90.000000
_cell_volume 2423.916638
_symmetry_space_group_name_H-M "C 2/M"
_symmetry_group_IT_number 12
_symmetry_cell_setting 'monoclinic'
loop_
_space_group_symop_operation_xyz
x,y,z
-x,y,-z
-x,-y,-z
x,-y,z
1/2+x,1/2+y,z
1/2-x,1/2+y,-z
1/2-x,1/2-y,-z
1/2+x,1/2-y,z
loop_
_atom_site_type_symbol
_atom_site_label
_atom_site_fract_x
_atom_site_fract_y
_atom_site_fract_z
Si Si1 0.482142 0.414130 0.839253
Si Si2 0.792177 0.913591 0.944949
Si Si3 0.850140 0.297228 0.263865
Si Si4 0.809707 0.788888 0.378079
Si Si5 0.668481 0.912851 0.241061
Si Si6 0.298902 0.837718 0.875330
O O1 0.450458 0.500000 0.806221
O O2 0.266263 0.377572 0.781007
O O3 0.587709 0.358802 0.830697
O O4 0.659113 0.416519 0.962859
O O5 0.568487 0.880347 0.840852
O O6 0.787415 0.000000 0.920020
O O7 0.000000 0.874969 0.000000
O O8 0.829325 0.268441 0.327511
O O9 0.719355 0.240260 0.168646
O O10 0.089905 0.290795 0.331707
O O11 0.821427 0.867587 0.345506
O O12 0.000000 0.777673 0.500000
O O13 0.696151 0.898404 0.178390
O O14 0.674427 0.000000 0.256170
O O15 0.500000 0.839802 0.000000
#
# Coordination Sequence:
#
# PCOD9206575 Si02
#       6
#     8   8   8   8   8   8
#     4  11  22  38  64  94 131 172 209 254 313 385
#     4   9  17  30  51  84 123 160 197 247 306 367
#     4  11  24  43  65  96 127 166 213 270 323 380
#     4  11  24  43  67  89 120 168 219 273 328 382
#     4  10  21  36  59  91 125 161 209 262 314 373
#     4  11  22  38  64  94 132 173 210 252 311 388
#
# _framework density 19.802662000000002
#
# number of rings (size 3 to 8) (size 9 to 14) (size 15 to 20)
#    0.000    1.500    3.333    2.000    0.000    5.667 
#    0.000    0.000    0.000    0.500    0.000    0.000 
#    0.000    0.000    0.000    0.000    0.000    0.000 
#
# Total GULP energy -133815.724580 kJ/mol
# GULP energy per Si atom -5575.655191 kJ/mol
# Density = 1.975759 g / cm^3
# Si number density = 19.802662 Si / 1000 Ang^3
#
#
#
# Elastic Constant Matrix: (Units=GPa)
#
#
# Indices 1 2 3 4 5 6 
#
# 1 105.0139 8.5975 45.2683 -0.0001 2.5039 0.0000
# 2 8.5975 72.8607 42.2010 -0.0001 -8.8825 0.0000
# 3 45.2683 42.2010 83.8889 0.0000 -11.3947 0.0000
# 4 -0.0001 -0.0001 0.0000 13.5358 0.0000 5.0395
# 5 2.5039 -8.8825 -11.3947 0.0000 29.0041 0.0000
# 6 0.0000 0.0000 0.0000 5.0395 0.0000 21.0652
#
#
#
# Elastic Compliance Matrix: (Units=1/GPa)
#
#
# Indices 1 2 3 4 5 6 
#
# 1 0.013428 0.003453 -0.009504 0.000000 -0.003836 0.000000
# 2 0.003453 0.020392 -0.011952 0.000000 0.001252 0.000000
# 3 -0.009504 -0.011952 0.023954 0.000000 0.006571 0.000000
# 4 0.000000 0.000000 0.000000 0.081102 0.000000 -0.019402
# 5 -0.003836 0.001252 0.006571 0.000000 0.037774 0.000000
# 6 0.000000 0.000000 0.000000 -0.019402 0.000000 0.052113
#
#
# Mechanical properties :
#
#
# Convention : Reuss Voigt Hill
#
# Bulk Modulus (GPa) = 45.93785 50.43300 48.18543
# Shear Modulus (GPa) = 18.38059 23.76746 21.07403
#
# Velocity S-wave (km/s) = 3.04992 3.46817 3.26575
# Velocity P-wave (km/s) = 5.97084 6.44676 6.21336
#
# Compressibility (1/GPa) = 0.02176854
#
# Stress axis : x y z
#
# Youngs Moduli (GPa) = 74.46988 49.03777 41.74654
#
# Poissons Ratio (x) = -0.16931 0.39676
# Poissons Ratio (y) = -0.25712 0.49894
# Poissons Ratio (z) = 0.70777 0.58608
#
# Static dielectric constant tensor:
#      x y z
#    x 1.803440 0.000000 0.015150 
#    y 0.000000 1.701250 0.000000 
#    z 0.015150 0.000000 1.666810 
# 
# From -- ./inp_files/336490.got.cif
#   From: 2010.05.17/outbox.cif.g08.bks.cpg/sg12_169_cif.got.tgz:336490.got - 2010.06.03 13:09:07.
