data_PCOD9206092
_publ_section_title
;
Structure prediction by ZEFSAII (Michael W. Deem and Ramdas Pophale) SiO2 
 PCOD9206092
Probable space group: C 2/M
;
_chemical_formula_sum "Si O2"
_cell_formula_units_Z 34
_cell_length_a 9.754657
_cell_length_b 7.350815
_cell_length_c 18.067984
_cell_angle_alpha 90.000000
_cell_angle_beta 93.810431
_cell_angle_gamma 90.000000
_cell_volume 1292.695012
_symmetry_space_group_name_H-M "C 2/M"
_symmetry_group_IT_number 12
_symmetry_cell_setting 'monoclinic'
loop_
_space_group_symop_operation_xyz
x,y,z
-x,y,-z
-x,-y,-z
x,-y,z
1/2+x,1/2+y,z
1/2-x,1/2+y,-z
1/2-x,1/2-y,-z
1/2+x,1/2-y,z
loop_
_atom_site_type_symbol
_atom_site_label
_atom_site_fract_x
_atom_site_fract_y
_atom_site_fract_z
Si Si1 0.385709 0.716359 0.306865
Si Si2 0.554409 0.220425 0.922206
Si Si3 0.204629 0.290012 0.167738
Si Si4 0.356551 0.713308 0.597574
Si Si5 0.000000 0.500000 0.500000
O O1 0.391845 0.500000 0.297669
O O2 0.301278 0.793692 0.234419
O O3 0.540018 0.773668 0.331417
O O4 0.295209 0.763121 0.375452
O O5 0.704120 0.283642 0.903468
O O6 0.443883 0.287434 0.857117
O O7 0.555059 0.000000 0.921995
O O8 0.500000 0.279710 0.000000
O O9 0.181430 0.500000 0.186569
O O10 0.379406 0.500000 0.582695
O O11 0.399548 0.842097 0.533005
#
# Coordination Sequence:
#
# PCOD9206092 Si02
#       5
#     8   8   8   8   2
#     4  10  22  43  64  94 128 162 218 269 311 376
#     4  10  21  36  55  88 127 165 210 258 311 371
#     4  10  21  37  61  88 121 165 208 260 311 363
#     4  11  25  44  68  97 127 170 211 261 318 385
#     4  12  26  48  68  96 136 168 200 266 324 374
#
# _framework density 26.301642000000001
#
# number of rings (size 3 to 8) (size 9 to 14) (size 15 to 20)
#    0.000    1.647    1.176    2.471    1.647    3.294 
#    0.000    0.000    0.000    0.000    0.000    0.000 
#    0.000    0.000    0.000    0.000    0.000    0.000 
#
# Total GULP energy -94993.303103 kJ/mol
# GULP energy per Si atom -5587.841359 kJ/mol
# Density = 2.624178 g / cm^3
# Si number density = 26.301642 Si / 1000 Ang^3
#
#
#
# Elastic Constant Matrix: (Units=GPa)
#
#
# Indices 1 2 3 4 5 6 
#
# 1 104.9034 -7.1102 -1.5065 0.0000 1.5719 0.0000
# 2 -7.1102 120.4192 -0.3131 0.0000 4.4187 0.0000
# 3 -1.5065 -0.3131 79.8805 0.0000 5.8229 0.0000
# 4 0.0000 0.0000 0.0000 -1.4259 0.0000 -13.8259
# 5 1.5719 4.4187 5.8229 0.0000 52.2672 0.0000
# 6 0.0000 0.0000 0.0000 -13.8259 0.0000 10.3087
#
#
#
# Elastic Compliance Matrix: (Units=1/GPa)
#
#
# Indices 1 2 3 4 5 6 
#
# 1 0.009580 0.000579 0.000209 0.000000 -0.000360 0.000000
# 2 0.000579 0.008366 0.000097 0.000000 -0.000736 0.000000
# 3 0.000209 0.000097 0.012627 0.000000 -0.001421 0.000000
# 4 0.000000 0.000000 0.000000 -0.050077 0.000000 -0.067163
# 5 -0.000360 -0.000736 -0.001421 0.000000 0.019364 0.000000
# 6 0.000000 0.000000 0.000000 -0.067163 0.000000 0.006927
#
#
# Mechanical properties :
#
#
# Convention : Reuss Voigt Hill
#
# Bulk Modulus (GPa) = 30.91700 31.92705 31.42202
# Shear Modulus (GPa) = 316.54526 33.17219 174.85872
#
# Velocity S-wave (km/s) = 10.98240 3.55522 8.16250
# Velocity P-wave (km/s) = 13.13765 5.38683 10.04031
#
# Compressibility (1/GPa) = 0.03234467
#
# Stress axis : x y z
#
# Youngs Moduli (GPa) = 104.38132 119.53457 79.19767
#
# Poissons Ratio (x) = -0.06926 -0.01657
# Poissons Ratio (y) = -0.06048 -0.00771
# Poissons Ratio (z) = -0.02184 -0.01163
#
# Static dielectric constant tensor:
#      x y z
#    x 1.980210 0.000000 0.099460 
#    y 0.000000 1.834380 0.000000 
#    z 0.099460 0.000000 2.159800 
# 
# From -- ./inp_files/260793.got.cif
#   From: 2010.05.17/outbox.cif.g08.bks.cpg/sg12_131_cif.got.tgz:260793.got - 2010.06.03 13:09:07.
