data_PCOD9206852
_publ_section_title
;
Structure prediction by ZEFSAII (Michael W. Deem and Ramdas Pophale) SiO2 
 PCOD9206852
Probable space group: C 2/M
;
_chemical_formula_sum "Si O2"
_cell_formula_units_Z 56
_cell_length_a 12.246164
_cell_length_b 27.071931
_cell_length_c 12.861936
_cell_angle_alpha 90.000000
_cell_angle_beta 33.795227
_cell_angle_gamma 90.000000
_cell_volume 2371.795490
_symmetry_space_group_name_H-M "C 2/M"
_symmetry_group_IT_number 12
_symmetry_cell_setting 'monoclinic'
loop_
_space_group_symop_operation_xyz
x,y,z
-x,y,-z
-x,-y,-z
x,-y,z
1/2+x,1/2+y,z
1/2-x,1/2+y,-z
1/2-x,1/2-y,-z
1/2+x,1/2-y,z
loop_
_atom_site_type_symbol
_atom_site_label
_atom_site_fract_x
_atom_site_fract_y
_atom_site_fract_z
Si Si1 0.579488 0.445417 0.686850
Si Si2 0.838445 0.665198 0.894675
Si Si3 0.101494 0.835508 0.691434
Si Si4 0.772360 0.776706 0.216294
Si Si5 0.746120 0.179488 0.663793
Si Si6 0.634408 0.053640 0.070272
Si Si7 0.283204 0.569202 0.647691
O O1 0.614488 0.500000 0.706066
O O2 0.618375 0.393440 0.711735
O O3 0.711358 0.439486 0.480918
O O4 0.345211 0.444174 0.844722
O O5 0.839336 0.692784 0.783789
O O6 0.867341 0.605466 0.865468
O O7 0.013693 0.684571 0.827190
O O8 0.628466 0.675878 0.112092
O O9 0.224815 0.804265 0.675469
O O10 0.166588 0.824431 0.522231
O O11 0.696400 0.722459 0.303586
O O12 0.000000 0.775077 0.000000
O O13 0.786197 0.126009 0.680151
O O14 0.438609 0.052810 0.155417
O O15 0.639458 0.000000 0.122335
O O16 0.500000 0.549358 0.500000
#
# Coordination Sequence:
#
# PCOD9206852 Si02
#       7
#     8   8   8   8   8   8   8
#     4   9  18  34  56  82 113 152 188 232 290 345
#     4   9  20  39  60  84 123 151 190 248 287 340
#     4   9  19  37  59  84 119 154 195 241 289 348
#     4  10  21  39  59  90 114 155 204 241 291 345
#     4  10  21  41  57  83 115 158 197 236 297 344
#     4   9  18  35  60  84 112 154 189 227 293 348
#     4  10  21  37  53  83 114 147 192 243 285 340
#
# _framework density 23.610806
#
# number of rings (size 3 to 8) (size 9 to 14) (size 15 to 20)
#    0.000    2.571    0.000    0.857    0.000    4.571 
#   18.000    3.571    0.000    4.286    0.000    6.000 
#    0.000    0.000    0.000    0.000    0.000    0.000 
#
# Total GULP energy -156199.989282 kJ/mol
# GULP energy per Si atom -5578.571046 kJ/mol
# Density = 2.355707 g / cm^3
# Si number density = 23.610806 Si / 1000 Ang^3
#
#
#
# Elastic Constant Matrix: (Units=GPa)
#
#
# Indices 1 2 3 4 5 6 
#
# 1 38.5148 53.0520 -4.4387 0.0000 -1.2533 0.0000
# 2 53.0520 188.5151 36.9862 0.0000 12.6430 0.0000
# 3 -4.4387 36.9862 53.1556 0.0000 1.1935 0.0000
# 4 0.0000 0.0000 0.0000 41.4177 0.0000 0.2172
# 5 -1.2533 12.6430 1.1935 0.0000 24.7760 0.0000
# 6 0.0000 0.0000 0.0000 0.2172 0.0000 -7.8050
#
#
#
# Elastic Compliance Matrix: (Units=1/GPa)
#
#
# Indices 1 2 3 4 5 6 
#
# 1 0.056695 -0.020453 0.018687 0.000000 0.012405 0.000000
# 2 -0.020453 0.013743 -0.011101 0.000000 -0.007513 0.000000
# 3 0.018687 -0.011101 0.027979 0.000000 0.005262 0.000000
# 4 0.000000 0.000000 0.000000 0.024141 0.000000 0.000672
# 5 0.012405 -0.007513 0.005262 0.000000 0.044569 0.000000
# 6 0.000000 0.000000 0.000000 0.000672 0.000000 -0.128105
#
#
# Mechanical properties :
#
#
# Convention : Reuss Voigt Hill
#
# Bulk Modulus (GPa) = 13.75861 50.15384 31.95622
# Shear Modulus (GPa) = 56.18956 24.65015 40.41986
#
# Velocity S-wave (km/s) = 4.88364 3.23463 4.14203
# Velocity P-wave (km/s) = 6.13513 5.93620 6.03648
#
# Compressibility (1/GPa) = 0.07268179
#
# Stress axis : x y z
#
# Youngs Moduli (GPa) = 17.63830 72.76674 35.74050
#
# Poissons Ratio (x) = 1.48833 -0.66790
# Poissons Ratio (y) = 0.36076 0.39677
# Poissons Ratio (z) = -0.32961 0.80782
#
# Static dielectric constant tensor:
#      x y z
#    x 1.855770 0.000000 -0.012900 
#    y 0.000000 1.936120 0.000000 
#    z -0.012900 0.000000 1.904080 
# 
# From -- ./inp_files/219098.got.cif
#   From: 2010.05.17/outbox.cif.g08.bks.cpg/sg12_110_cif.got.tgz:219098.got - 2010.06.03 13:09:07.
