data_PCOD9206078
_publ_section_title
;
Structure prediction by ZEFSAII (Michael W. Deem and Ramdas Pophale) SiO2 
 PCOD9206078
Probable space group: C 2/M
;
_chemical_formula_sum "Si O2"
_cell_formula_units_Z 32
_cell_length_a 28.209513
_cell_length_b 9.384831
_cell_length_c 15.812246
_cell_angle_alpha 90.000000
_cell_angle_beta 19.704469
_cell_angle_gamma 90.000000
_cell_volume 1411.441384
_symmetry_space_group_name_H-M "C 2/M"
_symmetry_group_IT_number 12
_symmetry_cell_setting 'monoclinic'
loop_
_space_group_symop_operation_xyz
x,y,z
-x,y,-z
-x,-y,-z
x,-y,z
1/2+x,1/2+y,z
1/2-x,1/2+y,-z
1/2-x,1/2-y,-z
1/2+x,1/2-y,z
loop_
_atom_site_type_symbol
_atom_site_label
_atom_site_fract_x
_atom_site_fract_y
_atom_site_fract_z
Si Si1 0.646835 0.340562 0.264914
Si Si2 0.113260 0.156070 0.126903
Si Si3 0.078349 0.665230 0.958178
Si Si4 0.628659 0.169973 0.534094
O O1 0.500000 0.259300 0.500000
O O2 0.624509 0.500000 0.339270
O O3 0.674254 0.363399 0.118895
O O4 0.769589 0.261109 0.106731
O O5 0.966731 0.238478 0.370419
O O6 0.102559 0.000000 0.105258
O O7 0.125138 0.500000 0.890488
O O8 0.285659 0.732540 0.272822
O O9 0.000000 0.676975 0.000000
O O10 0.961527 0.693172 0.227414
O O11 0.628618 0.000000 0.516512
#
# Coordination Sequence:
#
# PCOD9206078 Si02
#       4
#     8   8   8   8
#     4   9  19  36  57  79 112 156 200 248 300 354
#     4  10  21  36  55  84 118 156 201 249 301 358
#     4  10  23  44  67  92 124 162 204 253 310 369
#     4  11  24  40  64  95 127 162 204 255 306 366
#
# _framework density 22.671856999999999
#
# number of rings (size 3 to 8) (size 9 to 14) (size 15 to 20)
#    0.000    2.000    0.000    2.250    3.500    4.000 
#    0.000    0.000    0.000    0.000    0.000    0.000 
#    0.000    0.000    0.000    0.000    0.000    0.000 
#
# Total GULP energy -89194.496870 kJ/mol
# GULP energy per Si atom -5574.656054 kJ/mol
# Density = 2.262025 g / cm^3
# Si number density = 22.671857 Si / 1000 Ang^3
#
#
#
# Elastic Constant Matrix: (Units=GPa)
#
#
# Indices 1 2 3 4 5 6 
#
# 1 69.3836 31.3038 19.0391 0.0000 1.6384 0.0000
# 2 31.3038 157.6654 81.4966 0.0000 -23.9037 0.0000
# 3 19.0391 81.4966 141.3832 0.0000 -17.1768 0.0000
# 4 0.0000 0.0000 0.0000 40.3562 0.0000 -4.3836
# 5 1.6384 -23.9037 -17.1768 0.0000 34.8867 0.0000
# 6 0.0000 0.0000 0.0000 -4.3836 0.0000 -28.6514
#
#
#
# Elastic Compliance Matrix: (Units=1/GPa)
#
#
# Indices 1 2 3 4 5 6 
#
# 1 0.016204 -0.003407 -0.000632 0.000000 -0.003407 0.000000
# 2 -0.003407 0.010266 -0.004877 0.000000 0.004793 0.000000
# 3 -0.000632 -0.004877 0.010175 0.000000 0.001698 0.000000
# 4 0.000000 0.000000 0.000000 0.024374 0.000000 -0.003729
# 5 -0.003407 0.004793 0.001698 0.000000 0.032945 0.000000
# 6 0.000000 0.000000 0.000000 -0.003729 0.000000 -0.034332
#
#
# Mechanical properties :
#
#
# Convention : Reuss Voigt Hill
#
# Bulk Modulus (GPa) = 53.15147 70.23459 61.69303
# Shear Modulus (GPa) = 59.71197 25.09115 42.40156
#
# Velocity S-wave (km/s) = 5.13757 3.33033 4.32931
# Velocity P-wave (km/s) = 7.66078 6.77009 7.22917
#
# Compressibility (1/GPa) = 0.01881416
#
# Stress axis : x y z
#
# Youngs Moduli (GPa) = 61.71464 97.40491 98.27572
#
# Poissons Ratio (x) = 0.33185 0.06212
# Poissons Ratio (y) = 0.21026 0.47926
# Poissons Ratio (z) = 0.03901 0.47501
#
# Static dielectric constant tensor:
#      x y z
#    x 1.941190 0.000000 0.126250 
#    y 0.000000 1.955390 0.000000 
#    z 0.126250 0.000000 1.873530 
# 
# From -- ./inp_files/202559.got.cif
#   From: 2010.05.17/outbox.cif.g08.bks.cpg/sg12_102_cif.got.tgz:202559.got - 2010.06.03 13:09:07.
