data_PCOD9206124
_publ_section_title
;
Structure prediction by ZEFSAII (Michael W. Deem and Ramdas Pophale) SiO2 
 PCOD9206124
Probable space group: C 2/M
;
_chemical_formula_sum "Si O2"
_cell_formula_units_Z 56
_cell_length_a 12.229839
_cell_length_b 14.374849
_cell_length_c 19.697201
_cell_angle_alpha 90.000000
_cell_angle_beta 117.741110
_cell_angle_gamma 90.000000
_cell_volume 3064.793361
_symmetry_space_group_name_H-M "C 2/M"
_symmetry_group_IT_number 12
_symmetry_cell_setting 'monoclinic'
loop_
_space_group_symop_operation_xyz
x,y,z
-x,y,-z
-x,-y,-z
x,-y,z
1/2+x,1/2+y,z
1/2-x,1/2+y,-z
1/2-x,1/2-y,-z
1/2+x,1/2-y,z
loop_
_atom_site_type_symbol
_atom_site_label
_atom_site_fract_x
_atom_site_fract_y
_atom_site_fract_z
Si Si1 0.317769 0.609609 0.821632
Si Si2 0.704864 0.891039 0.940285
Si Si3 0.960477 0.596896 0.567354
Si Si4 0.043122 0.892180 0.588066
Si Si5 0.169185 0.716753 0.664145
Si Si6 0.056208 0.214182 0.940882
Si Si7 0.722087 0.342007 0.448606
O O1 0.326808 0.500000 0.804213
O O2 0.248727 0.611782 0.874543
O O3 0.242127 0.673390 0.747460
O O4 0.451573 0.657539 0.870074
O O5 0.598444 0.814007 0.922918
O O6 0.677402 0.000000 0.948688
O O7 0.822752 0.851340 0.016363
O O8 0.010214 0.500000 0.609871
O O9 0.814521 0.593897 0.518491
O O10 0.000000 0.604753 0.500000
O O11 0.027493 0.679379 0.624993
O O12 0.150417 0.826581 0.648160
O O13 0.000000 0.860364 0.500000
O O14 0.916053 0.879017 0.592420
O O15 0.078256 0.000000 0.594998
O O16 0.231341 0.675951 0.613989
O O17 0.000000 0.229408 0.000000
O O18 0.750000 0.250000 0.500000
#
# Coordination Sequence:
#
# PCOD9206124 Si02
#       7
#     8   8   8   8   8   8   8
#     4  10  21  36  56  82 113 148 182 225 278 330
#     4   9  18  35  59  87 115 146 186 227 266 316
#     4   9  17  30  50  73  95 123 169 223 267 308
#     4  11  22  37  55  76 102 138 182 229 280 332
#     4  11  21  35  54  76 107 138 178 225 276 326
#     4   9  18  35  59  85 115 151 187 222 264 321
#     4  11  19  35  54  73  98 136 178 227 272 324
#
# _framework density 18.272030000000001
#
# number of rings (size 3 to 8) (size 9 to 14) (size 15 to 20)
#    0.000    2.000    2.857    1.714    0.000    4.857 
#    0.000    0.714    0.000    3.429    0.000    0.000 
#    0.000    0.000    0.000    0.000    0.000    0.000 
#
# Total GULP energy -155880.266334 kJ/mol
# GULP energy per Si atom -5567.152369 kJ/mol
# Density = 1.823044 g / cm^3
# Si number density = 18.272030 Si / 1000 Ang^3
#
#
#
# Elastic Constant Matrix: (Units=GPa)
#
#
# Indices 1 2 3 4 5 6 
#
# 1 51.5305 27.7658 18.9353 0.0000 11.5957 0.0000
# 2 27.7658 152.4221 55.2625 0.0000 12.4102 0.0000
# 3 18.9353 55.2625 87.5527 0.0000 16.1678 0.0000
# 4 0.0000 0.0000 0.0000 24.2357 0.0000 1.1964
# 5 11.5957 12.4102 16.1678 0.0000 15.7718 0.0000
# 6 0.0000 0.0000 0.0000 1.1964 0.0000 22.9968
#
#
#
# Elastic Compliance Matrix: (Units=1/GPa)
#
#
# Indices 1 2 3 4 5 6 
#
# 1 0.024672 -0.003036 -0.000630 0.000000 -0.015104 0.000000
# 2 -0.003036 0.008909 -0.005038 0.000000 0.000387 0.000000
# 3 -0.000630 -0.005038 0.017171 0.000000 -0.013174 0.000000
# 4 0.000000 0.000000 0.000000 0.041368 0.000000 -0.002152
# 5 -0.015104 0.000387 -0.013174 0.000000 0.087710 0.000000
# 6 0.000000 0.000000 0.000000 -0.002152 0.000000 0.043596
#
#
# Mechanical properties :
#
#
# Convention : Reuss Voigt Hill
#
# Bulk Modulus (GPa) = 29.99129 55.04808 42.51969
# Shear Modulus (GPa) = 19.84528 25.23697 22.54113
#
# Velocity S-wave (km/s) = 3.29918 3.72046 3.51613
# Velocity P-wave (km/s) = 5.56437 6.97482 6.30913
#
# Compressibility (1/GPa) = 0.03334301
#
# Stress axis : x y z
#
# Youngs Moduli (GPa) = 40.53118 112.24735 58.23855
#
# Poissons Ratio (x) = 0.34079 0.03672
# Poissons Ratio (y) = 0.12306 0.29341
# Poissons Ratio (z) = 0.02555 0.56550
#
# Static dielectric constant tensor:
#      x y z
#    x 1.704170 0.000000 0.004440 
#    y 0.000000 1.007750 0.000000 
#    z 0.004440 0.000000 1.606190 
# 
# From -- ./inp_files/263402.got.cif
#   From: 2010.05.17/outbox.cif.g08.bks.cpg/sg12_132_cif.got.tgz:263402.got - 2010.06.03 13:09:07.
