data_PCOD9206226
_publ_section_title
;
Structure prediction by ZEFSAII (Michael W. Deem and Ramdas Pophale) SiO2 
 PCOD9206226
Probable space group: C 2/M
;
_chemical_formula_sum "Si O2"
_cell_formula_units_Z 52
_cell_length_a 15.831820
_cell_length_b 15.585392
_cell_length_c 22.583538
_cell_angle_alpha 90.000000
_cell_angle_beta 26.761435
_cell_angle_gamma 90.000000
_cell_volume 2509.111621
_symmetry_space_group_name_H-M "C 2/M"
_symmetry_group_IT_number 12
_symmetry_cell_setting 'monoclinic'
loop_
_space_group_symop_operation_xyz
x,y,z
-x,y,-z
-x,-y,-z
x,-y,z
1/2+x,1/2+y,z
1/2-x,1/2+y,-z
1/2-x,1/2-y,-z
1/2+x,1/2-y,z
loop_
_atom_site_type_symbol
_atom_site_label
_atom_site_fract_x
_atom_site_fract_y
_atom_site_fract_z
Si Si1 0.006410 0.656715 0.345128
Si Si2 0.777904 0.500000 0.278236
Si Si3 0.926171 0.839233 0.110427
Si Si4 0.859791 0.837193 0.912305
Si Si5 0.480908 0.500000 0.372880
Si Si6 0.577867 0.000000 0.678095
Si Si7 0.504434 0.865554 0.065130
Si Si8 0.410951 0.663424 0.345076
O O1 0.018039 0.587418 0.284263
O O2 0.812904 0.650376 0.504204
O O3 0.986019 0.750878 0.329740
O O4 0.203294 0.646769 0.255780
O O5 0.567436 0.500000 0.384745
O O6 0.853001 0.500000 0.297854
O O7 0.857940 0.415949 0.196253
O O8 0.960611 0.736051 0.092173
O O9 0.053005 0.877407 0.083358
O O10 0.000000 0.867461 0.000000
O O11 0.030797 0.825575 0.759459
O O12 0.750000 0.750000 0.000000
O O13 0.702255 0.884576 0.972722
O O14 0.262370 0.500000 0.522581
O O15 0.514974 0.584279 0.312331
O O16 0.500000 0.894267 0.000000
#
# Coordination Sequence:
#
# PCOD9206226 Si02
#       8
#     8   4   8   8   4   4   8   8
#     4  10  21  41  60  91 120 172 209 251 315 367
#     4  12  22  32  61  88 128 156 198 266 312 381
#     4  10  21  37  63  83 124 166 210 259 305 368
#     4  10  21  36  60  91 121 161 204 255 311 371
#     4  10  21  43  60  95 123 162 205 262 320 375
#     4  10  25  37  60  88 133 164 208 257 309 374
#     4  10  21  36  56  90 121 160 199 255 317 373
#     4  10  21  39  68  85 125 162 209 261 311 377
#
# _framework density 20.724466
#
# number of rings (size 3 to 8) (size 9 to 14) (size 15 to 20)
#    0.000    1.846    0.000    5.077    6.462    1.231 
#    0.000    1.923    0.000    2.769    0.000    0.000 
#    0.000    0.000    0.000    0.000    0.000    0.000 
#
# Total GULP energy -144945.837344 kJ/mol
# GULP energy per Si atom -5574.839898 kJ/mol
# Density = 2.067730 g / cm^3
# Si number density = 20.724466 Si / 1000 Ang^3
#
#
#
# Elastic Constant Matrix: (Units=GPa)
#
#
# Indices 1 2 3 4 5 6 
#
# 1 172.5994 33.4426 46.4868 0.0003 -8.7002 -0.0019
# 2 33.4426 76.5864 10.6328 -0.0016 5.0295 0.0004
# 3 46.4868 10.6328 59.4056 -0.0076 -3.7795 0.0005
# 4 0.0003 -0.0016 -0.0076 6.2745 0.0003 8.7077
# 5 -8.7002 5.0295 -3.7795 0.0003 45.5057 0.0004
# 6 -0.0019 0.0004 0.0005 8.7077 0.0004 12.0502
#
#
#
# Elastic Compliance Matrix: (Units=1/GPa)
#
#
# Indices 1 2 3 4 5 6 
#
# 1 0.007907 -0.002763 -0.005607 0.003531 0.001352 -0.002550
# 2 -0.002763 0.014486 -0.000569 -0.001580 -0.002177 0.001141
# 3 -0.005607 -0.000569 0.021370 -0.010009 0.000766 0.007231
# 4 0.003531 -0.001580 -0.010009-56.107548 0.000026 40.544464
# 5 0.001352 -0.002177 0.000766 0.000026 0.022538 -0.000019
# 6 -0.002550 0.001141 0.007231 40.544464 -0.000019-29.215274
#
#
# Mechanical properties :
#
#
# Convention : Reuss Voigt Hill
#
# Bulk Modulus (GPa) = 38.63240 54.41288 46.52264
# Shear Modulus (GPa) = -0.05866 27.30137 13.62135
#
# Velocity S-wave (km/s) = -0.16843 3.63347 2.56649
# Velocity P-wave (km/s) = 4.31782 6.62685 5.59280
#
# Compressibility (1/GPa) = 0.02588501
#
# Stress axis : x y z
#
# Youngs Moduli (GPa) = 126.46548 69.03399 46.79436
#
# Poissons Ratio (x) = 0.19075 0.26236
# Poissons Ratio (y) = 0.34944 0.02664
# Poissons Ratio (z) = 0.70905 0.03929
#
# Static dielectric constant tensor:
#      x y z
#    x 1.754120 0.000000 -0.029500 
#    y 0.000000 1.778010 0.000000 
#    z -0.029500 0.000000 1.780810 
# 
# From -- ./inp_files/311498.got.cif
#   From: 2010.05.17/outbox.cif.g08.bks.cpg/sg12_156_cif.got.tgz:311498.got - 2010.06.03 13:09:07.
