data_PCOD9206675
_publ_section_title
;
Structure prediction by ZEFSAII (Michael W. Deem and Ramdas Pophale) SiO2 
 PCOD9206675
Probable space group: C 2/M
;
_chemical_formula_sum "Si O2"
_cell_formula_units_Z 40
_cell_length_a 27.376133
_cell_length_b 8.915343
_cell_length_c 22.181855
_cell_angle_alpha 90.000000
_cell_angle_beta 20.956138
_cell_angle_gamma 90.000000
_cell_volume 1936.288566
_symmetry_space_group_name_H-M "C 2/M"
_symmetry_group_IT_number 12
_symmetry_cell_setting 'monoclinic'
loop_
_space_group_symop_operation_xyz
x,y,z
-x,y,-z
-x,-y,-z
x,-y,z
1/2+x,1/2+y,z
1/2-x,1/2+y,-z
1/2-x,1/2-y,-z
1/2+x,1/2-y,z
loop_
_atom_site_type_symbol
_atom_site_label
_atom_site_fract_x
_atom_site_fract_y
_atom_site_fract_z
Si Si1 0.246051 0.322901 0.909739
Si Si2 0.339192 0.180480 0.681629
Si Si3 0.639083 0.679243 0.805291
Si Si4 0.965005 0.675529 0.745151
Si Si5 0.244515 0.824273 0.441116
O O1 0.279749 0.500000 0.872896
O O2 0.256962 0.261320 0.829856
O O3 0.353625 0.227158 0.824938
O O4 0.103400 0.306181 0.109935
O O5 0.500000 0.220849 0.500000
O O6 0.266897 0.217049 0.701597
O O7 0.329636 0.000000 0.700714
O O8 0.640569 0.500000 0.794317
O O9 0.650585 0.758325 0.728018
O O10 0.500000 0.718556 0.000000
O O11 0.999606 0.500000 0.696697
O O12 0.095787 0.778634 0.588071
O O13 0.250000 0.750000 0.500000
O O14 0.262108 0.000000 0.426610
#
# Coordination Sequence:
#
# PCOD9206675 Si02
#       5
#     8   8   8   8   8
#     4  10  21  36  60  93 125 161 206 261 318 376
#     4  10  21  37  60  88 123 167 210 257 317 384
#     4  10  23  43  65  94 130 170 214 264 324 389
#     4  10  21  39  61  90 127 164 208 261 319 379
#     4  12  26  43  66  93 126 169 216 266 320 380
#
# _framework density 20.658078
#
# number of rings (size 3 to 8) (size 9 to 14) (size 15 to 20)
#    0.000    1.600    0.000    4.200    2.800    5.600 
#    0.000    0.000    0.000    0.000    0.000    0.000 
#    0.000    0.000    0.000    0.000    0.000    0.000 
#
# Total GULP energy -111850.793776 kJ/mol
# GULP energy per Si atom -5592.539689 kJ/mol
# Density = 2.061106 g / cm^3
# Si number density = 20.658078 Si / 1000 Ang^3
#
#
#
# Elastic Constant Matrix: (Units=GPa)
#
#
# Indices 1 2 3 4 5 6 
#
# 1 100.3192 52.4028 48.8454 -0.0001 33.7855 0.0000
# 2 52.4028 68.9193 52.1274 -0.0006 28.4305 0.0001
# 3 48.8454 52.1274 88.7905 -0.0001 20.8956 0.0000
# 4 -0.0001 -0.0006 -0.0001 30.0376 0.0001 11.6718
# 5 33.7855 28.4305 20.8956 0.0001 40.6689 0.0000
# 6 0.0000 0.0001 0.0000 11.6718 0.0000 28.3823
#
#
#
# Elastic Compliance Matrix: (Units=1/GPa)
#
#
# Indices 1 2 3 4 5 6 
#
# 1 0.018677 -0.008221 -0.003582 0.000000 -0.007928 0.000000
# 2 -0.008221 0.035867 -0.013925 0.000001 -0.011090 0.000000
# 3 -0.003582 -0.013925 0.020950 0.000000 0.001946 0.000000
# 4 0.000000 0.000001 0.000000 0.039623 -0.000001 -0.016294
# 5 -0.007928 -0.011090 0.001946 -0.000001 0.037928 0.000000
# 6 0.000000 0.000000 0.000000 -0.016294 0.000000 0.041934
#
#
# Mechanical properties :
#
#
# Convention : Reuss Voigt Hill
#
# Bulk Modulus (GPa) = 41.60050 62.75336 52.17693
# Shear Modulus (GPa) = 19.65039 26.79464 23.22252
#
# Velocity S-wave (km/s) = 3.08753 3.60537 3.35645
# Velocity P-wave (km/s) = 5.73514 6.91192 6.35085
#
# Compressibility (1/GPa) = 0.02403817
#
# Stress axis : x y z
#
# Youngs Moduli (GPa) = 53.54286 27.88050 47.73230
#
# Poissons Ratio (x) = 0.22920 0.17099
# Poissons Ratio (y) = 0.44017 0.66466
# Poissons Ratio (z) = 0.19181 0.38823
#
# Static dielectric constant tensor:
#      x y z
#    x 1.760320 0.000000 -0.016910 
#    y 0.000000 1.681850 0.000000 
#    z -0.016910 0.000000 1.763890 
# 
# From -- ./inp_files/186195.got.cif
#   From: 2010.05.17/outbox.cif.g08.bks.cpg/sg12_94_cif.got.tgz:186195.got - 2010.06.03 13:09:07.
