data_PCOD9206819
_publ_section_title
;
Structure prediction by ZEFSAII (Michael W. Deem and Ramdas Pophale) SiO2 
 PCOD9206819
Probable space group: C 2/M
;
_chemical_formula_sum "Si O2"
_cell_formula_units_Z 40
_cell_length_a 11.073109
_cell_length_b 17.953843
_cell_length_c 14.544373
_cell_angle_alpha 90.000000
_cell_angle_beta 36.409553
_cell_angle_gamma 90.000000
_cell_volume 1716.254007
_symmetry_space_group_name_H-M "C 2/M"
_symmetry_group_IT_number 12
_symmetry_cell_setting 'monoclinic'
loop_
_space_group_symop_operation_xyz
x,y,z
-x,y,-z
-x,-y,-z
x,-y,z
1/2+x,1/2+y,z
1/2-x,1/2+y,-z
1/2-x,1/2-y,-z
1/2+x,1/2-y,z
loop_
_atom_site_type_symbol
_atom_site_label
_atom_site_fract_x
_atom_site_fract_y
_atom_site_fract_z
Si Si1 0.166616 0.913806 0.192173
Si Si2 0.000000 0.303810 0.500000
Si Si3 0.000000 0.871449 0.000000
Si Si4 0.444141 0.921466 0.693835
Si Si5 0.549113 0.716614 0.781253
Si Si6 0.026617 0.380387 0.834342
O O1 0.283333 0.887722 0.213041
O O2 0.018043 0.846382 0.251009
O O3 0.089248 0.000000 0.247375
O O4 0.340625 0.914617 0.006359
O O5 0.015119 0.355405 0.400790
O O6 0.213366 0.262922 0.377125
O O7 0.791234 0.916920 0.129965
O O8 0.983987 0.821362 0.100122
O O9 0.570175 0.917154 0.710193
O O10 0.481421 0.000000 0.623731
O O11 0.451368 0.797718 0.850244
#
# Coordination Sequence:
#
# PCOD9206819 Si02
#       6
#     8   4   4   8   8   8
#     4  11  23  41  69 107 140 170 215 282 344 398
#     4  10  27  44  64  90 137 176 226 272 337 384
#     4  10  21  36  66  96 125 166 222 274 325 386
#     4  11  22  40  63  94 130 174 221 272 331 396
#     4  11  24  43  68  97 134 177 227 274 331 396
#     4  11  23  39  69  97 135 173 222 273 335 400
#
# _framework density 23.306573
#
# number of rings (size 3 to 8) (size 9 to 14) (size 15 to 20)
#    0.000    1.200    2.000    4.800    5.600    4.800 
#    0.000    0.000    0.000    2.400    0.000    0.000 
#    0.000    0.000    0.000    0.000    0.000    0.000 
#
# Total GULP energy -111722.803478 kJ/mol
# GULP energy per Si atom -5586.140174 kJ/mol
# Density = 2.325353 g / cm^3
# Si number density = 23.306573 Si / 1000 Ang^3
#
#
#
# Elastic Constant Matrix: (Units=GPa)
#
#
# Indices 1 2 3 4 5 6 
#
# 1 113.5484 25.3970 30.2934 0.0021 10.0305 -0.0060
# 2 25.3970 139.6466 -3.1785 0.0087 -2.8271 -0.0119
# 3 30.2934 -3.1785 56.9821 0.0083 4.8487 -0.0130
# 4 0.0021 0.0087 0.0083 -7.2538 0.0043 16.2723
# 5 10.0305 -2.8271 4.8487 0.0043 33.1837 -0.0008
# 6 -0.0060 -0.0119 -0.0130 16.2723 -0.0008 -1.9000
#
#
#
# Elastic Compliance Matrix: (Units=1/GPa)
#
#
# Indices 1 2 3 4 5 6 
#
# 1 0.011080 -0.002201 -0.005784 -0.000002 -0.002692 0.000003
# 2 -0.002201 0.007618 0.001502 0.000006 0.001095 -0.000002
# 3 -0.005784 0.001502 0.020807 0.000015 -0.001164 -0.000004
# 4 -0.000002 0.000006 0.000015 0.007570 -0.000001 0.064829
# 5 -0.002692 0.001095 -0.001164 -0.000001 0.031212 -0.000008
# 6 0.000003 -0.000002 -0.000004 0.064829 -0.000008 0.028899
#
#
# Mechanical properties :
#
#
# Convention : Reuss Voigt Hill
#
# Bulk Modulus (GPa) = 37.68184 46.13343 41.90763
# Shear Modulus (GPa) = 38.75998 21.98366 30.37182
#
# Velocity S-wave (km/s) = 4.08247 3.07455 3.61382
# Velocity P-wave (km/s) = 6.19880 5.69570 5.95257
#
# Compressibility (1/GPa) = 0.02653798
#
# Stress axis : x y z
#
# Youngs Moduli (GPa) = 90.25189 131.27460 48.06006
#
# Poissons Ratio (x) = 0.28897 0.27799
# Poissons Ratio (y) = 0.19867 -0.07219
# Poissons Ratio (z) = 0.52204 -0.19717
#
# Static dielectric constant tensor:
#      x y z
#    x 1.902760 0.000000 -0.055400 
#    y 0.000000 1.991910 0.000000 
#    z -0.055400 0.000000 1.851020 
# 
# From -- ./inp_files/205938.got.cif
#   From: 2010.05.17/outbox.cif.g08.bks.cpg/sg12_103_cif.got.tgz:205938.got - 2010.06.03 13:09:07.
