data_PCOD9206767
_publ_section_title
;
Structure prediction by ZEFSAII (Michael W. Deem and Ramdas Pophale) SiO2 
 PCOD9206767
Probable space group: C 2/M
;
_chemical_formula_sum "Si O2"
_cell_formula_units_Z 58
_cell_length_a 14.273090
_cell_length_b 19.170257
_cell_length_c 28.862082
_cell_angle_alpha 90.000000
_cell_angle_beta 160.178137
_cell_angle_gamma 90.000000
_cell_volume 2677.919011
_symmetry_space_group_name_H-M "C 2/M"
_symmetry_group_IT_number 12
_symmetry_cell_setting 'monoclinic'
loop_
_space_group_symop_operation_xyz
x,y,z
-x,y,-z
-x,-y,-z
x,-y,z
1/2+x,1/2+y,z
1/2-x,1/2+y,-z
1/2-x,1/2-y,-z
1/2+x,1/2-y,z
loop_
_atom_site_type_symbol
_atom_site_label
_atom_site_fract_x
_atom_site_fract_y
_atom_site_fract_z
Si Si1 0.321300 0.420984 0.744026
Si Si2 0.816118 0.579363 0.041954
Si Si3 0.409764 0.624818 0.220852
Si Si4 0.000000 0.500000 0.000000
Si Si5 0.362821 0.726039 0.347726
Si Si6 0.071288 0.718187 0.119659
Si Si7 0.280634 0.180377 0.100697
Si Si8 0.737228 0.143325 0.525633
O O1 0.363770 0.500000 0.746531
O O2 0.431295 0.372079 0.754003
O O3 0.003098 0.406664 0.603747
O O4 0.514735 0.414774 0.878482
O O5 0.910791 0.500000 0.078405
O O6 0.809889 0.603659 0.091706
O O7 0.989326 0.640370 0.097973
O O8 0.195409 0.562007 0.113753
O O9 0.260503 0.697991 0.163523
O O10 0.613600 0.614278 0.359191
O O11 0.239189 0.752115 0.240136
O O12 0.577202 0.784404 0.464473
O O13 0.545788 0.661310 0.413915
O O14 0.101206 0.704076 0.257593
O O15 0.823270 0.765563 0.987376
O O16 0.000000 0.176821 0.000000
#
# Coordination Sequence:
#
# PCOD9206767 Si02
#       8
#     8   8   8   2   8   8   8   8
#     4  11  22  36  58  86 128 174 212 258 315 404
#     4  10  22  39  62  90 126 176 218 272 339 399
#     4  11  24  35  56  92 130 179 212 262 323 394
#     4  12  24  36  50  84 152 172 214 264 320 404
#     4   9  20  41  60  86 120 166 219 279 326 385
#     4  10  21  36  62  94 125 170 218 274 337 395
#     4  11  23  39  65  98 128 165 223 288 345 395
#     4  10  21  38  61  81 125 172 223 263 318 394
#
# _framework density 21.658608999999998
#
# number of rings (size 3 to 8) (size 9 to 14) (size 15 to 20)
#    0.000    1.655    0.690    4.552    8.690    0.828 
#    0.000    0.690    0.000    0.000    0.000    1.931 
#    0.000    0.000    0.000    0.000    0.000    0.000 
#
# Total GULP energy -161496.225679 kJ/mol
# GULP energy per Si atom -5568.835368 kJ/mol
# Density = 2.160931 g / cm^3
# Si number density = 21.658609 Si / 1000 Ang^3
#
#
#
# Elastic Constant Matrix: (Units=GPa)
#
#
# Indices 1 2 3 4 5 6 
#
# 1 68.6864 16.6738 25.6598 0.0054 31.6536 -0.0023
# 2 16.6738 73.2455 33.9714 0.0059 0.9565 0.0018
# 3 25.6598 33.9714 113.3923 -0.0056 -0.1873 -0.0018
# 4 0.0054 0.0059 -0.0056 46.7656 -0.0092 2.2600
# 5 31.6536 0.9565 -0.1873 -0.0092 25.5544 0.0032
# 6 -0.0023 0.0018 -0.0018 2.2600 0.0032 25.8902
#
#
#
# Elastic Compliance Matrix: (Units=1/GPa)
#
#
# Indices 1 2 3 4 5 6 
#
# 1 0.044213 -0.005423 -0.008471 -0.000017 -0.054625 0.000012
# 2 -0.005423 0.016531 -0.003715 -0.000001 0.006071 -0.000003
# 3 -0.008471 -0.003715 0.011867 0.000005 0.010719 -0.000001
# 4 -0.000017 -0.000001 0.000005 0.021474 0.000029 -0.001875
# 5 -0.054625 0.006071 0.010719 0.000029 0.106646 -0.000020
# 6 0.000012 -0.000003 -0.000001 -0.001875 -0.000020 0.038788
#
#
# Mechanical properties :
#
#
# Convention : Reuss Voigt Hill
#
# Bulk Modulus (GPa) = 26.74285 45.32601 36.03443
# Shear Modulus (GPa) = 17.40942 31.57665 24.49303
#
# Velocity S-wave (km/s) = 2.83823 3.82242 3.36649
# Velocity P-wave (km/s) = 4.80781 6.36036 5.63778
#
# Compressibility (1/GPa) = 0.03739318
#
# Stress axis : x y z
#
# Youngs Moduli (GPa) = 22.61770 60.49209 84.26997
#
# Poissons Ratio (x) = 0.32803 0.71383
# Poissons Ratio (y) = 0.12265 0.31310
# Poissons Ratio (z) = 0.19159 0.22476
#
# Static dielectric constant tensor:
#      x y z
#    x 1.954940 0.000000 0.056200 
#    y 0.000000 1.802890 -0.000010 
#    z 0.056200 -0.000010 1.818560 
# 
# From -- ./inp_files/377039.got.cif
#   From: 2010.05.17/outbox.cif.g08.bks.cpg/sg12_189_cif.got.tgz:377039.got - 2010.06.03 13:09:07.
