data_PCOD9206875
_publ_section_title
;
Structure prediction by ZEFSAII (Michael W. Deem and Ramdas Pophale) SiO2 
 PCOD9206875
Probable space group: C 2/M
;
_chemical_formula_sum "Si O2"
_cell_formula_units_Z 56
_cell_length_a 23.080251
_cell_length_b 7.595212
_cell_length_c 14.903758
_cell_angle_alpha 90.000000
_cell_angle_beta 72.215659
_cell_angle_gamma 90.000000
_cell_volume 2487.770311
_symmetry_space_group_name_H-M "C 2/M"
_symmetry_group_IT_number 12
_symmetry_cell_setting 'monoclinic'
loop_
_space_group_symop_operation_xyz
x,y,z
-x,y,-z
-x,-y,-z
x,-y,z
1/2+x,1/2+y,z
1/2-x,1/2+y,-z
1/2-x,1/2-y,-z
1/2+x,1/2-y,z
loop_
_atom_site_type_symbol
_atom_site_label
_atom_site_fract_x
_atom_site_fract_y
_atom_site_fract_z
Si Si1 0.531285 0.212837 0.798928
Si Si2 0.362022 0.783089 0.606889
Si Si3 0.368630 0.708209 0.114978
Si Si4 0.878314 0.708810 0.399777
Si Si5 0.179578 0.209483 0.048604
Si Si6 0.911681 0.296270 0.765729
Si Si7 0.722647 0.712162 0.687338
O O1 0.564914 0.268148 0.873910
O O2 0.573881 0.276639 0.696289
O O3 0.463925 0.277222 0.806262
O O4 0.532162 0.000000 0.801602
O O5 0.382386 0.723174 0.498800
O O6 0.402745 0.720834 0.670855
O O7 0.292087 0.728249 0.655779
O O8 0.362431 0.000000 0.607014
O O9 0.357139 0.500000 0.114412
O O10 0.319267 0.779154 0.210471
O O11 0.356994 0.778614 0.021199
O O12 0.888715 0.500000 0.399899
O O13 0.812223 0.738426 0.387409
O O14 0.151838 0.288508 0.151835
O O15 0.172035 0.000000 0.059931
O O16 0.250000 0.250000 0.000000
O O17 0.928600 0.500000 0.744011
O O18 0.723108 0.500000 0.691839
#
# Coordination Sequence:
#
# PCOD9206875 Si02
#       7
#     8   8   8   8   8   8   8
#     4   9  19  34  53  78 106 136 177 223 262 299
#     4   9  17  30  50  73 102 139 176 214 260 309
#     4   9  19  35  55  75 102 139 173 208 260 320
#     4   9  17  30  49  75 103 134 173 217 260 306
#     4  11  23  39  59  83 107 135 170 211 260 315
#     4  10  21  37  54  75 106 142 177 217 260 308
#     4   9  16  29  49  73  99 131 168 209 261 318
#
# _framework density 22.510117000000001
#
# number of rings (size 3 to 8) (size 9 to 14) (size 15 to 20)
#    0.000    2.571    0.000    1.714    0.000    5.143 
#    0.000   10.000    0.000    0.000    0.000    5.000 
#    0.000    0.000    0.000    0.000    0.000    0.000 
#
# Total GULP energy -156343.004567 kJ/mol
# GULP energy per Si atom -5583.678735 kJ/mol
# Density = 2.245888 g / cm^3
# Si number density = 22.510117 Si / 1000 Ang^3
#
#
#
# Elastic Constant Matrix: (Units=GPa)
#
#
# Indices 1 2 3 4 5 6 
#
# 1 78.0713 -11.2892 12.5877 0.0000 15.9616 0.0000
# 2 -11.2892 44.3244 1.3082 0.0000 2.7286 0.0000
# 3 12.5877 1.3082 66.2446 0.0000 35.8568 0.0000
# 4 0.0000 0.0000 0.0000 5.5743 0.0000 4.6483
# 5 15.9616 2.7286 35.8568 0.0000 35.8808 0.0000
# 6 0.0000 0.0000 0.0000 4.6483 0.0000 17.2163
#
#
#
# Elastic Compliance Matrix: (Units=1/GPa)
#
#
# Indices 1 2 3 4 5 6 
#
# 1 0.014934 0.004292 0.001852 0.000000 -0.008820 0.000000
# 2 0.004292 0.023935 0.001591 0.000000 -0.005319 0.000000
# 3 0.001852 0.001591 0.033161 0.000000 -0.034083 0.000000
# 4 0.000000 0.000000 0.000000 0.231523 0.000000 -0.062511
# 5 -0.008820 -0.005319 -0.034083 0.000000 0.066259 0.000000
# 6 0.000000 0.000000 0.000000 -0.062511 0.000000 0.074962
#
#
# Mechanical properties :
#
#
# Convention : Reuss Voigt Hill
#
# Bulk Modulus (GPa) = 11.42865 21.53929 16.48397
# Shear Modulus (GPa) = 10.90582 24.13652 17.52117
#
# Velocity S-wave (km/s) = 2.20349 3.27808 2.79295
# Velocity P-wave (km/s) = 3.40029 4.89052 4.21184
#
# Compressibility (1/GPa) = 0.08749941
#
# Stress axis : x y z
#
# Youngs Moduli (GPa) = 66.96046 41.78053 30.15604
#
# Poissons Ratio (x) = -0.17932 -0.05584
# Poissons Ratio (y) = -0.28739 -0.04798
# Poissons Ratio (z) = -0.12400 -0.06648
#
# Static dielectric constant tensor:
#      x y z
#    x 1.828370 0.000000 0.008920 
#    y 0.000000 1.877090 0.000000 
#    z 0.008920 0.000000 1.836010 
# 
# From -- ./inp_files/237463.got.cif
#   From: 2010.05.17/outbox.cif.g08.bks.cpg/sg12_119_cif.got.tgz:237463.got - 2010.06.03 13:09:07.
