data_PCOD9206110
_publ_section_title
;
Structure prediction by ZEFSAII (Michael W. Deem and Ramdas Pophale) SiO2 
 PCOD9206110
Probable space group: C 2/M
;
_chemical_formula_sum "Si O2"
_cell_formula_units_Z 56
_cell_length_a 19.888183
_cell_length_b 7.666420
_cell_length_c 17.964662
_cell_angle_alpha 90.000000
_cell_angle_beta 61.623961
_cell_angle_gamma 90.000000
_cell_volume 2409.983791
_symmetry_space_group_name_H-M "C 2/M"
_symmetry_group_IT_number 12
_symmetry_cell_setting 'monoclinic'
loop_
_space_group_symop_operation_xyz
x,y,z
-x,y,-z
-x,-y,-z
x,-y,z
1/2+x,1/2+y,z
1/2-x,1/2+y,-z
1/2-x,1/2-y,-z
1/2+x,1/2-y,z
loop_
_atom_site_type_symbol
_atom_site_label
_atom_site_fract_x
_atom_site_fract_y
_atom_site_fract_z
Si Si1 0.314136 0.300401 0.576446
Si Si2 0.155245 0.700677 0.599185
Si Si3 0.581784 0.286592 0.924178
Si Si4 0.549027 0.197897 0.406375
Si Si5 0.262550 0.290208 0.080191
Si Si6 0.041733 0.793037 0.782325
Si Si7 0.101267 0.289803 0.222496
O O1 0.309595 0.500000 0.604994
O O2 0.229270 0.231448 0.604783
O O3 0.353646 0.295463 0.474277
O O4 0.365369 0.194622 0.606045
O O5 0.172470 0.500000 0.571115
O O6 0.084134 0.709506 0.690331
O O7 0.582344 0.500000 0.925729
O O8 0.656846 0.226014 0.928885
O O9 0.579040 0.232143 0.839437
O O10 0.500000 0.231692 0.000000
O O11 0.500000 0.279730 0.500000
O O12 0.559947 0.279150 0.319221
O O13 0.518028 0.000000 0.413055
O O14 0.263644 0.500000 0.086796
O O15 0.187396 0.226454 0.164145
O O16 0.250000 0.250000 0.000000
O O17 0.952139 0.754009 0.819754
O O18 0.052006 0.000000 0.772384
O O19 0.103890 0.500000 0.228883
#
# Coordination Sequence:
#
# PCOD9206110 Si02
#       7
#     8   8   8   8   8   8   8
#     4  10  21  36  56  83 113 151 199 249 295 346
#     4  10  21  37  56  81 117 156 192 242 301 355
#     4   9  19  36  59  87 118 152 192 239 293 351
#     4  10  21  36  56  81 114 159 202 243 299 358
#     4  10  21  39  62  88 119 157 198 244 299 359
#     4  11  22  36  61  89 115 152 199 248 293 349
#     4  10  22  38  58  85 121 162 200 244 303 364
#
# _framework density 23.23667
#
# number of rings (size 3 to 8) (size 9 to 14) (size 15 to 20)
#    0.000    2.000    0.000    3.000    2.000    5.429 
#    0.000    1.429    0.000    3.857    0.000    0.000 
#    0.000    0.000    0.000    0.000    0.000    0.000 
#
# Total GULP energy -156461.020423 kJ/mol
# GULP energy per Si atom -5587.893587 kJ/mol
# Density = 2.318378 g / cm^3
# Si number density = 23.236670 Si / 1000 Ang^3
#
#
#
# Elastic Constant Matrix: (Units=GPa)
#
#
# Indices 1 2 3 4 5 6 
#
# 1 182.1773 -0.0257 58.0463 0.0000 10.1723 0.0001
# 2 -0.0257 51.2863 -0.1439 0.0000 -2.3102 0.0004
# 3 58.0463 -0.1439 100.3459 0.0000 -6.7073 0.0000
# 4 0.0000 0.0000 0.0000 6.9002 0.0000 -0.2266
# 5 10.1723 -2.3102 -6.7073 0.0000 30.3418 0.0000
# 6 0.0001 0.0004 0.0000 -0.2266 0.0000 19.7997
#
#
#
# Elastic Compliance Matrix: (Units=1/GPa)
#
#
# Indices 1 2 3 4 5 6 
#
# 1 0.007044 -0.000158 -0.004297 0.000000 -0.003323 0.000000
# 2 -0.000158 0.019571 0.000226 0.000000 0.001593 0.000000
# 3 -0.004297 0.000226 0.012737 0.000000 0.004273 0.000000
# 4 0.000000 0.000000 0.000000 0.144979 0.000000 0.001659
# 5 -0.003323 0.001593 0.004273 0.000000 0.035138 0.000000
# 6 0.000000 0.000000 0.000000 0.001659 0.000000 0.050525
#
#
# Mechanical properties :
#
#
# Convention : Reuss Voigt Hill
#
# Bulk Modulus (GPa) = 32.36934 49.95144 41.16039
# Shear Modulus (GPa) = 17.31607 29.80385 23.55996
#
# Velocity S-wave (km/s) = 2.73280 3.58526 3.18765
# Velocity P-wave (km/s) = 4.89062 6.21950 5.59466
#
# Compressibility (1/GPa) = 0.03089343
#
# Stress axis : x y z
#
# Youngs Moduli (GPa) = 141.96828 51.09681 78.51065
#
# Poissons Ratio (x) = 0.00808 0.33736
# Poissons Ratio (y) = 0.02246 -0.01775
# Poissons Ratio (z) = 0.61003 -0.01155
#
# Static dielectric constant tensor:
#      x y z
#    x 1.895680 0.000000 -0.016110 
#    y 0.000000 1.892890 0.000000 
#    z -0.016110 0.000000 1.865230 
# 
# From -- ./inp_files/280852.got.cif
#   From: 2010.05.17/outbox.cif.g08.bks.cpg/sg12_141_cif.got.tgz:280852.got - 2010.06.03 13:09:07.
