data_PCOD9206698
_publ_section_title
;
Structure prediction by ZEFSAII (Michael W. Deem and Ramdas Pophale) SiO2 
 PCOD9206698
Probable space group: C 2/M
;
_chemical_formula_sum "Si O2"
_cell_formula_units_Z 40
_cell_length_a 17.979548
_cell_length_b 26.800435
_cell_length_c 8.944627
_cell_angle_alpha 90.000000
_cell_angle_beta 149.616647
_cell_angle_gamma 90.000000
_cell_volume 2179.953345
_symmetry_space_group_name_H-M "C 2/M"
_symmetry_group_IT_number 12
_symmetry_cell_setting 'monoclinic'
loop_
_space_group_symop_operation_xyz
x,y,z
-x,y,-z
-x,-y,-z
x,-y,z
1/2+x,1/2+y,z
1/2-x,1/2+y,-z
1/2-x,1/2-y,-z
1/2+x,1/2-y,z
loop_
_atom_site_type_symbol
_atom_site_label
_atom_site_fract_x
_atom_site_fract_y
_atom_site_fract_z
Si Si1 0.106159 0.000000 0.322266
Si Si2 0.458795 0.092811 0.254477
Si Si3 0.040212 0.703953 0.747115
Si Si4 0.619920 0.590418 0.575382
Si Si5 0.913699 0.500000 0.697512
Si Si6 0.880982 0.797419 0.428850
O O1 0.094510 0.951874 0.408825
O O2 0.254139 0.000000 0.485926
O O3 0.000000 0.000000 0.000000
O O4 0.500000 0.091379 0.500000
O O5 0.494622 0.148401 0.255153
O O6 0.545139 0.049023 0.323283
O O7 0.284126 0.084754 0.928055
O O8 0.000000 0.700790 0.500000
O O9 0.942211 0.750800 0.630793
O O10 0.214641 0.712157 0.080404
O O11 0.500000 0.586132 0.500000
O O12 0.615048 0.646641 0.499622
O O13 0.000000 0.500000 0.000000
O O14 0.000000 0.800564 0.500000
#
# Coordination Sequence:
#
# PCOD9206698 Si02
#       6
#     4   8   8   8   4   8
#     4  12  27  42  56  82 111 150 188 229 286 338
#     4  10  21  36  61  88 109 146 191 229 273 328
#     4   9  16  28  48  81 112 138 178 220 270 323
#     4  10  21  38  59  84 116 146 185 232 276 327
#     4  12  23  42  60  76 113 150 186 234 280 330
#     4   9  16  28  50  79 110 142 174 223 273 318
#
# _framework density 18.349017
#
# number of rings (size 3 to 8) (size 9 to 14) (size 15 to 20)
#    0.000    2.000    2.000    3.000    2.800    1.600 
#    0.000    0.000    0.000    2.400    0.000    0.000 
#    0.000    0.000    0.000    0.000    0.000    0.000 
#
# Total GULP energy -111354.994291 kJ/mol
# GULP energy per Si atom -5567.749715 kJ/mol
# Density = 1.830725 g / cm^3
# Si number density = 18.349017 Si / 1000 Ang^3
#
#
#
# Elastic Constant Matrix: (Units=GPa)
#
#
# Indices 1 2 3 4 5 6 
#
# 1 64.1882 72.3283 40.8689 0.0000 10.8593 0.0000
# 2 72.3283 213.2889 78.0365 0.0000 -0.0162 0.0000
# 3 40.8689 78.0365 137.4360 0.0000 6.4925 0.0000
# 4 0.0000 0.0000 0.0000 29.1299 0.0000 8.3159
# 5 10.8593 -0.0162 6.4925 0.0000 25.7251 0.0000
# 6 0.0000 0.0000 0.0000 8.3159 0.0000 -10.2661
#
#
#
# Elastic Compliance Matrix: (Units=1/GPa)
#
#
# Indices 1 2 3 4 5 6 
#
# 1 0.029582 -0.008856 -0.003217 0.000000 -0.011681 0.000000
# 2 -0.008856 0.008588 -0.002449 0.000000 0.004362 0.000000
# 3 -0.003217 -0.002449 0.009674 0.000000 -0.001085 0.000000
# 4 0.000000 0.000000 0.000000 0.027881 0.000000 0.022585
# 5 -0.011681 0.004362 -0.001085 0.000000 0.044080 0.000000
# 6 0.000000 0.000000 0.000000 0.022585 0.000000 -0.079114
#
#
# Mechanical properties :
#
#
# Convention : Reuss Voigt Hill
#
# Bulk Modulus (GPa) = 53.18572 88.59783 70.89178
# Shear Modulus (GPa) = 65.78795 23.82975 44.80885
#
# Velocity S-wave (km/s) = 5.99429 3.60765 4.94705
# Velocity P-wave (km/s) = 8.77252 8.10821 8.44690
#
# Compressibility (1/GPa) = 0.01880204
#
# Stress axis : x y z
#
# Youngs Moduli (GPa) = 33.80422 116.44444 103.36560
#
# Poissons Ratio (x) = 1.03118 0.33250
# Poissons Ratio (y) = 0.29936 0.25313
# Poissons Ratio (z) = 0.10874 0.28516
#
# Static dielectric constant tensor:
#      x y z
#    x 1.573880 0.000000 0.012550 
#    y 0.000000 1.716220 0.000000 
#    z 0.012550 0.000000 1.603870 
# 
# From -- ./inp_files/79958.got.cif
#   From: 2010.05.17/outbox.cif.g08.bks.cpg/sg12_40_cif.got.tgz:79958.got - 2010.06.03 13:09:07.
