data_PCOD9206346
_publ_section_title
;
Structure prediction by ZEFSAII (Michael W. Deem and Ramdas Pophale) SiO2 
 PCOD9206346
Probable space group: C 2/M
;
_chemical_formula_sum "Si O2"
_cell_formula_units_Z 56
_cell_length_a 26.182668
_cell_length_b 21.614332
_cell_length_c 14.565306
_cell_angle_alpha 90.000000
_cell_angle_beta 21.402247
_cell_angle_gamma 90.000000
_cell_volume 3007.911262
_symmetry_space_group_name_H-M "C 2/M"
_symmetry_group_IT_number 12
_symmetry_cell_setting 'monoclinic'
loop_
_space_group_symop_operation_xyz
x,y,z
-x,y,-z
-x,-y,-z
x,-y,z
1/2+x,1/2+y,z
1/2-x,1/2+y,-z
1/2-x,1/2-y,-z
1/2+x,1/2-y,z
loop_
_atom_site_type_symbol
_atom_site_label
_atom_site_fract_x
_atom_site_fract_y
_atom_site_fract_z
Si Si1 0.905778 0.427510 0.068244
Si Si2 0.876982 0.751713 0.139243
Si Si3 0.079848 0.311945 0.461473
Si Si4 0.587320 0.069396 0.582070
Si Si5 0.591892 0.724600 0.110994
Si Si6 0.658793 0.346636 0.531099
Si Si7 0.648483 0.608439 0.755677
O O1 0.875927 0.500000 0.131888
O O2 0.762719 0.389800 0.301074
O O3 0.000000 0.409036 0.000000
O O4 0.984940 0.419690 0.839758
O O5 0.731962 0.720592 0.408280
O O6 0.865355 0.825400 0.169559
O O7 0.917727 0.736407 0.967365
O O8 0.000000 0.731003 0.000000
O O9 0.082833 0.374844 0.516798
O O10 0.000000 0.322220 0.500000
O O11 0.986989 0.261600 0.675386
O O12 0.240827 0.290713 0.167405
O O13 0.736377 0.071339 0.383583
O O14 0.561965 0.000000 0.586862
O O15 0.495259 0.664115 0.251487
O O16 0.673581 0.372964 0.608551
O O17 0.500000 0.575803 0.000000
#
# Coordination Sequence:
#
# PCOD9206346 Si02
#       7
#     8   8   8   8   8   8   8
#     4  10  21  36  57  88 126 170 210 243 295 368
#     4  11  21  31  55  91 127 163 200 233 300 380
#     4  12  27  47  67  92 121 159 215 275 327 370
#     4  11  23  41  64  89 123 169 214 253 303 368
#     4  12  23  41  65  95 126 161 201 258 326 379
#     4  12  20  32  58  85 130 168 199 242 298 377
#     4  11  20  33  50  87 132 163 198 239 293 368
#
# _framework density 18.617571000000002
#
# number of rings (size 3 to 8) (size 9 to 14) (size 15 to 20)
#    0.000    0.714    7.143    2.143    2.000    0.571 
#    0.000    2.143    0.000    0.000    0.000    2.000 
#    0.000    0.000    0.000    0.000    0.000    0.000 
#
# Total GULP energy -156153.887621 kJ/mol
# GULP energy per Si atom -5576.924558 kJ/mol
# Density = 1.857520 g / cm^3
# Si number density = 18.617571 Si / 1000 Ang^3
#
#
#
# Elastic Constant Matrix: (Units=GPa)
#
#
# Indices 1 2 3 4 5 6 
#
# 1 113.3270 38.5712 56.9012 -0.0002 -6.0421 -0.0001
# 2 38.5712 95.3409 46.8080 -0.0033 -2.6013 0.0001
# 3 56.9012 46.8080 138.2164 -0.0034 -12.4589 -0.0007
# 4 -0.0002 -0.0033 -0.0034 -1.8625 0.0005 -6.6969
# 5 -6.0421 -2.6013 -12.4589 0.0005 21.8761 -0.0001
# 6 -0.0001 0.0001 -0.0007 -6.6969 -0.0001 13.4349
#
#
#
# Elastic Compliance Matrix: (Units=1/GPa)
#
#
# Indices 1 2 3 4 5 6 
#
# 1 0.011746 -0.002867 -0.003798 0.000004 0.000740 0.000002
# 2 -0.002867 0.013300 -0.003429 -0.000006 -0.001163 -0.000003
# 3 -0.003798 -0.003429 0.010360 -0.000005 0.004444 -0.000002
# 4 0.000004 -0.000006 -0.000005 -0.192283 0.000001 -0.095847
# 5 0.000740 -0.001163 0.004444 0.000001 0.048309 0.000001
# 6 0.000002 -0.000003 -0.000002 -0.095847 0.000001 0.026656
#
#
# Mechanical properties :
#
#
# Convention : Reuss Voigt Hill
#
# Bulk Modulus (GPa) = 65.70725 70.16055 67.93390
# Shear Modulus (GPa) = -88.26126 20.32998 -33.96564
#
# Velocity S-wave (km/s) = -6.89278 3.30809 -4.27592
# Velocity P-wave (km/s) = 5.28937 7.23590 3.49147
#
# Compressibility (1/GPa) = 0.01521902
#
# Stress axis : x y z
#
# Youngs Moduli (GPa) = 85.13289 75.18664 96.52230
#
# Poissons Ratio (x) = 0.21558 0.36659
# Poissons Ratio (y) = 0.24410 0.33094
# Poissons Ratio (z) = 0.32333 0.25779
#
# Static dielectric constant tensor:
#      x y z
#    x 1.643170 0.000000 0.004900 
#    y 0.000000 1.663750 0.000000 
#    z 0.004900 0.000000 1.748760 
# 
# From -- ./inp_files/247361.got.cif
#   From: 2010.05.17/outbox.cif.g08.bks.cpg/sg12_124_cif.got.tgz:247361.got - 2010.06.03 13:09:07.
