data_PCOD9206036
_publ_section_title
;
Structure prediction by ZEFSAII (Michael W. Deem and Ramdas Pophale) SiO2 
 PCOD9206036
Probable space group: C 2/M
;
_chemical_formula_sum "Si O2"
_cell_formula_units_Z 48
_cell_length_a 14.263899
_cell_length_b 13.326690
_cell_length_c 20.922537
_cell_angle_alpha 90.000000
_cell_angle_beta 144.444234
_cell_angle_gamma 90.000000
_cell_volume 2312.708647
_symmetry_space_group_name_H-M "C 2/M"
_symmetry_group_IT_number 12
_symmetry_cell_setting 'monoclinic'
loop_
_space_group_symop_operation_xyz
x,y,z
-x,y,-z
-x,-y,-z
x,-y,z
1/2+x,1/2+y,z
1/2-x,1/2+y,-z
1/2-x,1/2-y,-z
1/2+x,1/2-y,z
loop_
_atom_site_type_symbol
_atom_site_label
_atom_site_fract_x
_atom_site_fract_y
_atom_site_fract_z
Si Si1 0.798391 0.615811 0.577578
Si Si2 0.683366 0.682755 0.105543
Si Si3 0.105152 0.610182 0.658749
Si Si4 0.338133 0.113899 0.836932
Si Si5 0.460844 0.675913 0.409427
Si Si6 0.032369 0.621063 0.821400
O O1 0.752135 0.500000 0.564552
O O2 0.634400 0.673632 0.471598
O O3 0.929783 0.611625 0.594558
O O4 0.895520 0.654354 0.694116
O O5 0.771378 0.628849 0.214198
O O6 0.677647 0.801260 0.118527
O O7 0.796903 0.662548 0.107797
O O8 0.500000 0.646844 0.000000
O O9 0.132647 0.500000 0.644868
O O10 0.107961 0.711257 0.619300
O O11 0.171871 0.118350 0.704602
O O12 0.474661 0.144733 0.860849
O O13 0.364647 0.000000 0.873297
O O14 0.500000 0.631556 0.500000
O O15 0.038821 0.500000 0.819985
#
# Coordination Sequence:
#
# PCOD9206036 Si02
#       6
#     8   8   8   8   8   8
#     4   9  16  29  50  74 101 133 171 212 253 304
#     4  10  21  36  58  81 103 138 183 226 270 315
#     4   9  20  35  49  73 104 135 172 216 263 311
#     4  10  21  36  55  82 112 140 176 221 266 317
#     4  11  19  29  52  78 104 137 173 208 252 314
#     4   9  18  34  56  81 108 139 178 221 264 314
#
# _framework density 20.754883
#
# number of rings (size 3 to 8) (size 9 to 14) (size 15 to 20)
#    0.000    2.333    1.667    2.500    0.000    3.333 
#    0.000    0.000    0.000    5.000    0.000    0.000 
#    0.000    0.000    0.000    0.000    0.000    0.000 
#
# Total GULP energy -133919.125807 kJ/mol
# GULP energy per Si atom -5579.963575 kJ/mol
# Density = 2.070764 g / cm^3
# Si number density = 20.754883 Si / 1000 Ang^3
#
#
#
# Elastic Constant Matrix: (Units=GPa)
#
#
# Indices 1 2 3 4 5 6 
#
# 1 64.7546 14.9136 28.1955 0.0000 25.9357 0.0000
# 2 14.9136 93.8408 12.6255 0.0001 9.6426 0.0000
# 3 28.1955 12.6255 107.1275 0.0005 30.5858 0.0001
# 4 0.0000 0.0001 0.0005 -3.7312 0.0001 8.4294
# 5 25.9357 9.6426 30.5858 0.0001 29.9329 0.0000
# 6 0.0000 0.0000 0.0001 8.4294 0.0000 13.6934
#
#
#
# Elastic Compliance Matrix: (Units=1/GPa)
#
#
# Indices 1 2 3 4 5 6 
#
# 1 0.023936 -0.001716 -0.000472 0.000000 -0.019705 0.000000
# 2 -0.001716 0.011156 -0.000369 0.000000 -0.001730 0.000000
# 3 -0.000472 -0.000369 0.013204 0.000001 -0.012964 0.000000
# 4 0.000000 0.000000 0.000001 -0.112105 0.000000 0.069010
# 5 -0.019705 -0.001730 -0.012964 0.000000 0.064285 0.000000
# 6 0.000000 0.000000 0.000000 0.069010 0.000000 0.030547
#
#
# Mechanical properties :
#
#
# Convention : Reuss Voigt Hill
#
# Bulk Modulus (GPa) = 23.15774 41.91022 32.53398
# Shear Modulus (GPa) = 98.95087 21.97825 60.46456
#
# Velocity S-wave (km/s) = 6.91227 3.25767 5.40333
# Velocity P-wave (km/s) = 8.65378 5.86402 7.39170
#
# Compressibility (1/GPa) = 0.04318210
#
# Stress axis : x y z
#
# Youngs Moduli (GPa) = 41.77877 89.63404 75.73655
#
# Poissons Ratio (x) = 0.15379 0.03573
# Poissons Ratio (y) = 0.07168 0.02797
# Poissons Ratio (z) = 0.01971 0.03311
#
# Static dielectric constant tensor:
#      x y z
#    x 1.771810 0.000000 0.005200 
#    y 0.000000 1.773880 0.000000 
#    z 0.005200 0.000000 1.752700 
# 
# From -- ./inp_files/155496.got.cif
#   From: 2010.05.17/outbox.cif.g08.bks.cpg/sg12_78_cif.got.tgz:155496.got - 2010.06.03 13:09:07.
