data_PCOD9206480
_publ_section_title
;
Structure prediction by ZEFSAII (Michael W. Deem and Ramdas Pophale) SiO2 
 PCOD9206480
Probable space group: C 2/M
;
_chemical_formula_sum "Si O2"
_cell_formula_units_Z 28
_cell_length_a 20.790384
_cell_length_b 10.002775
_cell_length_c 18.002571
_cell_angle_alpha 90.000000
_cell_angle_beta 162.433379
_cell_angle_gamma 90.000000
_cell_volume 1129.946017
_symmetry_space_group_name_H-M "C 2/M"
_symmetry_group_IT_number 12
_symmetry_cell_setting 'monoclinic'
loop_
_space_group_symop_operation_xyz
x,y,z
-x,y,-z
-x,-y,-z
x,-y,z
1/2+x,1/2+y,z
1/2-x,1/2+y,-z
1/2-x,1/2-y,-z
1/2+x,1/2-y,z
loop_
_atom_site_type_symbol
_atom_site_label
_atom_site_fract_x
_atom_site_fract_y
_atom_site_fract_z
Si Si1 0.535928 0.500000 0.380750
Si Si2 0.285831 0.500000 0.953306
Si Si3 0.262490 0.707680 0.149815
Si Si4 0.211650 0.000000 0.325549
Si Si5 0.000000 0.773641 0.000000
Si Si6 0.043052 0.500000 0.256774
O O1 0.474554 0.624698 0.365152
O O2 0.758503 0.500000 0.582891
O O3 0.363641 0.500000 0.123633
O O4 0.192676 0.360514 0.821559
O O5 0.511393 0.500000 0.159423
O O6 0.145764 0.697263 0.100853
O O7 0.083036 0.636766 0.900550
O O8 0.167966 0.870808 0.227207
O O9 0.400403 0.000000 0.593429
#
# Coordination Sequence:
#
# PCOD9206480 Si02
#       6
#     4   4   8   4   4   4
#     4  10  21  36  58  90 126 161 200 252 312 370
#     4   9  18  35  60  88 115 155 207 251 295 353
#     4  10  21  39  63  89 124 164 202 255 311 364
#     4   8  17  34  60  87 116 160 208 250 295 363
#     4   9  18  35  58  86 122 162 200 244 310 370
#     4  10  22  39  64  94 120 157 212 258 302 364
#
# _framework density 24.779945000000001
#
# number of rings (size 3 to 8) (size 9 to 14) (size 15 to 20)
#    0.000    2.571    0.000    1.714    0.000   12.571 
#    0.000    4.286    0.000   17.143    0.000   54.000 
#    0.000    0.000    0.000    0.000    0.000    0.000 
#
# Total GULP energy -78194.825405 kJ/mol
# GULP energy per Si atom -5585.344672 kJ/mol
# Density = 2.472355 g / cm^3
# Si number density = 24.779945 Si / 1000 Ang^3
#
#
#
# Elastic Constant Matrix: (Units=GPa)
#
#
# Indices 1 2 3 4 5 6 
#
# 1 172.7235 46.7130 28.2137 0.0024 11.0695 0.0027
# 2 46.7130 144.0487 33.6150 0.0073 8.4632 0.0204
# 3 28.2137 33.6150 97.5620 0.0072 -15.0578 0.0145
# 4 0.0024 0.0073 0.0072 17.4818 0.0027 7.5120
# 5 11.0695 8.4632 -15.0578 0.0027 49.8872 0.0042
# 6 0.0027 0.0204 0.0145 7.5120 0.0042 97.8193
#
#
#
# Elastic Compliance Matrix: (Units=1/GPa)
#
#
# Indices 1 2 3 4 5 6 
#
# 1 0.006609 -0.001674 -0.001591 0.000001 -0.001663 0.000000
# 2 -0.001674 0.008203 -0.002622 -0.000001 -0.001812 -0.000001
# 3 -0.001591 -0.002622 0.012310 -0.000004 0.004513 -0.000001
# 4 0.000001 -0.000001 -0.000004 0.059155 -0.000004 -0.004543
# 5 -0.001663 -0.001812 0.004513 -0.000004 0.022084 -0.000001
# 6 0.000000 -0.000001 -0.000001 -0.004543 -0.000001 0.010572
#
#
# Mechanical properties :
#
#
# Convention : Reuss Voigt Hill
#
# Bulk Modulus (GPa) = 65.15514 70.15751 67.65632
# Shear Modulus (GPa) = 36.81284 53.42384 45.11834
#
# Velocity S-wave (km/s) = 3.85852 4.64824 4.27167
# Velocity P-wave (km/s) = 6.79716 7.56187 7.18969
#
# Compressibility (1/GPa) = 0.01534798
#
# Stress axis : x y z
#
# Youngs Moduli (GPa) = 151.31305 121.90237 81.23518
#
# Poissons Ratio (x) = 0.20409 0.12924
# Poissons Ratio (y) = 0.25333 0.21299
# Poissons Ratio (z) = 0.24073 0.31961
#
# Static dielectric constant tensor:
#      x y z
#    x 1.980890 0.000000 -0.024260 
#    y 0.000000 2.037990 0.000000 
#    z -0.024260 0.000000 2.092860 
# 
# From -- ./inp_files/283502.got.cif
#   From: 2010.05.17/outbox.cif.g08.bks.cpg/sg12_142_cif.got.tgz:283502.got - 2010.06.03 13:09:07.
