data_PCOD9206916
_publ_section_title
;
Structure prediction by ZEFSAII (Michael W. Deem and Ramdas Pophale) SiO2 
 PCOD9206916
Probable space group: C 2/M
;
_chemical_formula_sum "Si O2"
_cell_formula_units_Z 56
_cell_length_a 14.223410
_cell_length_b 10.172620
_cell_length_c 20.786879
_cell_angle_alpha 90.000000
_cell_angle_beta 79.205488
_cell_angle_gamma 90.000000
_cell_volume 2954.420304
_symmetry_space_group_name_H-M "C 2/M"
_symmetry_group_IT_number 12
_symmetry_cell_setting 'monoclinic'
loop_
_space_group_symop_operation_xyz
x,y,z
-x,y,-z
-x,-y,-z
x,-y,z
1/2+x,1/2+y,z
1/2-x,1/2+y,-z
1/2-x,1/2-y,-z
1/2+x,1/2-y,z
loop_
_atom_site_type_symbol
_atom_site_label
_atom_site_fract_x
_atom_site_fract_y
_atom_site_fract_z
Si Si1 0.158824 0.346173 0.509514
Si Si2 0.141519 0.150524 0.287720
Si Si3 0.487719 0.650955 0.815613
Si Si4 0.649978 0.846733 0.780663
Si Si5 0.387133 0.651991 0.958256
Si Si6 0.465371 0.152819 0.605792
Si Si7 0.670888 0.148849 0.930850
O O1 0.187062 0.500000 0.514251
O O2 0.250000 0.250000 0.500000
O O3 0.101829 0.336795 0.449076
O O4 0.075069 0.315695 0.572150
O O5 0.253567 0.183091 0.270602
O O6 0.079334 0.249856 0.336943
O O7 0.103473 0.152482 0.219436
O O8 0.130441 0.000000 0.312455
O O9 0.522426 0.500000 0.813851
O O10 0.565263 0.748003 0.776359
O O11 0.456907 0.691498 0.891198
O O12 0.668477 0.829830 0.854832
O O13 0.625624 0.000000 0.773103
O O14 0.405063 0.500000 0.973152
O O15 0.280530 0.656620 0.941140
O O16 0.386219 0.745660 0.019743
O O17 0.463090 0.000000 0.626709
O O18 0.636525 0.000000 0.947927
#
# Coordination Sequence:
#
# PCOD9206916 Si02
#       7
#     8   8   8   8   8   8   8
#     4   9  19  37  60  86 118 149 179 219 264 310
#     4  10  21  39  58  77 109 149 184 221 265 317
#     4  10  21  37  55  76 105 141 180 223 273 325
#     4  10  21  37  55  76 105 141 180 223 273 325
#     4   9  17  32  53  74  99 133 173 220 273 327
#     4   9  20  38  58  83 115 149 181 219 266 311
#     4   9  17  32  53  74  99 133 173 220 273 327
#
# _framework density 18.954649
#
# number of rings (size 3 to 8) (size 9 to 14) (size 15 to 20)
#    0.000    2.571    1.429    0.857    0.000    5.143 
#    0.000   10.000    0.000    0.000    0.000    0.000 
#    0.000    0.000    0.000    0.000    0.000    0.000 
#
# Total GULP energy -156248.426997 kJ/mol
# GULP energy per Si atom -5580.300964 kJ/mol
# Density = 1.891151 g / cm^3
# Si number density = 18.954649 Si / 1000 Ang^3
#
#
#
# Elastic Constant Matrix: (Units=GPa)
#
#
# Indices 1 2 3 4 5 6 
#
# 1 84.6576 47.9955 14.6784 0.0000 -30.5879 0.0000
# 2 47.9955 82.2238 59.4652 0.0000 -39.3815 0.0000
# 3 14.6784 59.4652 77.8840 0.0000 -32.8764 0.0000
# 4 0.0000 0.0000 0.0000 35.1134 0.0000 -3.7374
# 5 -30.5879 -39.3815 -32.8764 0.0000 28.6740 0.0000
# 6 0.0000 0.0000 0.0000 -3.7374 0.0000 29.3783
#
#
#
# Elastic Compliance Matrix: (Units=1/GPa)
#
#
# Indices 1 2 3 4 5 6 
#
# 1 0.029357 -0.016880 0.020907 0.000000 0.032104 0.000000
# 2 -0.016880 0.053109 -0.027478 0.000000 0.023430 0.000000
# 3 0.020907 -0.027478 0.045276 0.000000 0.036475 0.000000
# 4 0.000000 0.000000 0.000000 0.028870 0.000000 0.003673
# 5 0.032104 0.023430 0.036475 0.000000 0.143121 0.000000
# 6 0.000000 0.000000 0.000000 0.003673 0.000000 0.034506
#
#
# Mechanical properties :
#
#
# Convention : Reuss Voigt Hill
#
# Bulk Modulus (GPa) = 12.37009 54.33821 33.35415
# Shear Modulus (GPa) = 12.25228 26.80821 19.53025
#
# Velocity S-wave (km/s) = 2.54520 3.76484 3.21342
# Velocity P-wave (km/s) = 3.89586 6.90134 5.60384
#
# Compressibility (1/GPa) = 0.08084014
#
# Stress axis : x y z
#
# Youngs Moduli (GPa) = 34.06375 18.82917 22.08685
#
# Poissons Ratio (x) = 0.31783 -0.46177
# Poissons Ratio (y) = 0.57499 0.60690
# Poissons Ratio (z) = -0.71217 0.51739
#
# Static dielectric constant tensor:
#      x y z
#    x 1.664930 0.000000 0.019740 
#    y 0.000000 1.634680 0.000000 
#    z 0.019740 0.000000 1.648840 
# 
# From -- ./inp_files/337916.got.cif
#   From: 2010.05.17/outbox.cif.g08.bks.cpg/sg12_169_cif.got.tgz:337916.got - 2010.06.03 13:09:07.
