data_PCOD9206026
_publ_section_title
;
Structure prediction by ZEFSAII (Michael W. Deem and Ramdas Pophale) SiO2 
 PCOD9206026
Probable space group: C 2/M
;
_chemical_formula_sum "Si O2"
_cell_formula_units_Z 64
_cell_length_a 29.940602
_cell_length_b 8.908642
_cell_length_c 15.530884
_cell_angle_alpha 90.000000
_cell_angle_beta 122.325320
_cell_angle_gamma 90.000000
_cell_volume 3500.564489
_symmetry_space_group_name_H-M "C 2/M"
_symmetry_group_IT_number 12
_symmetry_cell_setting 'monoclinic'
loop_
_space_group_symop_operation_xyz
x,y,z
-x,y,-z
-x,-y,-z
x,-y,z
1/2+x,1/2+y,z
1/2-x,1/2+y,-z
1/2-x,1/2-y,-z
1/2+x,1/2-y,z
loop_
_atom_site_type_symbol
_atom_site_label
_atom_site_fract_x
_atom_site_fract_y
_atom_site_fract_z
Si Si1 0.696578 0.819936 0.984700
Si Si2 0.972963 0.320604 0.882163
Si Si3 0.859415 0.819525 0.736108
Si Si4 0.122716 0.820198 0.436846
Si Si5 0.663607 0.180691 0.653740
Si Si6 0.399113 0.819062 0.242768
Si Si7 0.498189 0.320460 0.730864
Si Si8 0.216205 0.180630 0.185013
O O1 0.691390 0.759741 0.076379
O O2 0.701281 0.000000 0.988716
O O3 0.750000 0.750000 0.000000
O O4 0.646105 0.779528 0.873870
O O5 0.973585 0.500000 0.872912
O O6 0.913334 0.260151 0.819476
O O7 0.001828 0.246436 0.830577
O O8 0.000000 0.281023 0.000000
O O9 0.850292 0.778563 0.626667
O O10 0.814073 0.783419 0.757689
O O11 0.867769 0.000000 0.746308
O O12 0.148293 0.744922 0.545735
O O13 0.060520 0.779629 0.363755
O O14 0.125858 0.000000 0.449087
O O15 0.622865 0.226472 0.686424
O O16 0.722583 0.225500 0.742968
O O17 0.663261 0.000000 0.649027
O O18 0.454480 0.744568 0.276620
O O19 0.404715 0.000000 0.247128
O O20 0.500925 0.500000 0.737288
O O21 0.213964 0.000000 0.170134
#
# Coordination Sequence:
#
# PCOD9206026 Si02
#       8
#     8   8   8   8   8   8   8   8
#     4  11  22  38  59  83 117 155 190 236 285 337
#     4  10  21  36  55  81 115 149 186 236 285 334
#     4   9  20  38  59  82 114 152 189 233 283 338
#     4   9  20  39  58  82 114 146 188 243 287 332
#     4  10  21  38  59  83 113 152 192 235 286 339
#     4  10  22  39  57  83 119 151 189 236 284 341
#     4  10  22  39  59  83 113 149 191 235 285 341
#     4  10  21  39  59  85 118 153 193 235 282 340
#
# _framework density 18.282765999999999
#
# number of rings (size 3 to 8) (size 9 to 14) (size 15 to 20)
#    0.000    2.125    1.250    1.875    1.750    7.000 
#    0.000    2.500    0.000    0.000    0.000    0.000 
#    0.000    0.000    0.000    0.000    0.000    0.000 
#
# Total GULP energy -178663.407073 kJ/mol
# GULP energy per Si atom -5583.231471 kJ/mol
# Density = 1.824115 g / cm^3
# Si number density = 18.282766 Si / 1000 Ang^3
#
#
#
# Elastic Constant Matrix: (Units=GPa)
#
#
# Indices 1 2 3 4 5 6 
#
# 1 80.9650 17.1043 5.8067 0.0000 -25.6347 0.0000
# 2 17.1043 16.1326 20.1769 0.0000 -8.4581 0.0000
# 3 5.8067 20.1769 88.9284 0.0000 -27.0542 0.0000
# 4 0.0000 0.0000 0.0000 33.4539 0.0000 -4.0777
# 5 -25.6347 -8.4581 -27.0542 0.0000 19.2562 0.0000
# 6 0.0000 0.0000 0.0000 -4.0777 0.0000 28.8595
#
#
#
# Elastic Compliance Matrix: (Units=1/GPa)
#
#
# Indices 1 2 3 4 5 6 
#
# 1 0.054216 -0.052738 0.040755 0.000000 0.106269 0.000000
# 2 -0.052738 0.141664 -0.054363 0.000000 -0.084361 0.000000
# 3 0.040755 -0.054363 0.052673 0.000000 0.104380 0.000000
# 4 0.000000 0.000000 0.000000 0.030416 0.000000 0.004298
# 5 0.106269 -0.084361 0.104380 0.000000 0.302996 0.000000
# 6 0.000000 0.000000 0.000000 0.004298 0.000000 0.035258
#
#
# Mechanical properties :
#
#
# Convention : Reuss Voigt Hill
#
# Bulk Modulus (GPa) = 8.63109 30.24463 19.43786
# Shear Modulus (GPa) = 6.34087 25.84313 16.09200
#
# Velocity S-wave (km/s) = 1.86434 3.76377 2.96999
# Velocity P-wave (km/s) = 3.06031 5.95538 4.73455
#
# Compressibility (1/GPa) = 0.11586019
#
# Stress axis : x y z
#
# Youngs Moduli (GPa) = 18.44485 7.05897 18.98494
#
# Poissons Ratio (x) = 0.37228 -0.77374
# Poissons Ratio (y) = 0.97275 1.03208
# Poissons Ratio (z) = -0.75172 0.38375
#
# Static dielectric constant tensor:
#      x y z
#    x 1.624580 0.000000 -0.012660 
#    y 0.000000 1.612550 0.000000 
#    z -0.012660 0.000000 1.606510 
# 
# From -- ./inp_files/249136.got.cif
#   From: 2010.05.17/outbox.cif.g08.bks.cpg/sg12_125_cif.got.tgz:249136.got - 2010.06.03 13:09:07.
