data_PCOD9206508
_publ_section_title
;
Structure prediction by ZEFSAII (Michael W. Deem and Ramdas Pophale) SiO2 
 PCOD9206508
Probable space group: C 2/M
;
_chemical_formula_sum "Si O2"
_cell_formula_units_Z 48
_cell_length_a 20.664161
_cell_length_b 17.857986
_cell_length_c 16.127281
_cell_angle_alpha 90.000000
_cell_angle_beta 25.775350
_cell_angle_gamma 90.000000
_cell_volume 2587.882842
_symmetry_space_group_name_H-M "C 2/M"
_symmetry_group_IT_number 12
_symmetry_cell_setting 'monoclinic'
loop_
_space_group_symop_operation_xyz
x,y,z
-x,y,-z
-x,-y,-z
x,-y,z
1/2+x,1/2+y,z
1/2-x,1/2+y,-z
1/2-x,1/2-y,-z
1/2+x,1/2-y,z
loop_
_atom_site_type_symbol
_atom_site_label
_atom_site_fract_x
_atom_site_fract_y
_atom_site_fract_z
Si Si1 0.666812 0.086267 0.345481
Si Si2 0.067345 0.812645 0.664255
Si Si3 0.255038 0.690413 0.105905
Si Si4 0.905734 0.150838 0.690963
Si Si5 0.828618 0.646629 0.473909
Si Si6 0.862324 0.413078 0.909491
O O1 0.500000 0.094501 0.500000
O O2 0.764271 0.141670 0.177888
O O3 0.673219 0.108679 0.433994
O O4 0.710195 0.000000 0.285181
O O5 0.144360 0.735629 0.546723
O O6 0.178290 0.858610 0.594612
O O7 0.012354 0.857295 0.647552
O O8 0.918623 0.789110 0.885382
O O9 0.154310 0.763218 0.237457
O O10 0.184821 0.639108 0.114098
O O11 0.000000 0.136251 0.500000
O O12 0.758484 0.102290 0.879460
O O13 0.970020 0.611430 0.263327
O O14 0.859633 0.500000 0.888108
#
# Coordination Sequence:
#
# PCOD9206508 Si02
#       6
#     8   8   8   8   8   8
#     4  11  21  34  58  89 122 156 191 232 290 365
#     4  10  21  36  59  84 117 153 198 248 295 339
#     4  11  19  37  61  91 116 155 198 244 289 357
#     4  11  21  39  63  88 115 152 208 259 289 344
#     4  11  20  37  55  86 121 155 196 240 294 357
#     4  11  21  37  60  85 118 158 198 241 296 359
#
# _framework density 18.547979999999999
#
# number of rings (size 3 to 8) (size 9 to 14) (size 15 to 20)
#    0.000    1.167    5.000    3.500    0.000    1.000 
#    0.000   10.000    0.000    1.000    0.000    0.000 
#    0.000    0.000    0.000    0.000    0.000    0.000 
#
# Total GULP energy -134030.805921 kJ/mol
# GULP energy per Si atom -5584.616913 kJ/mol
# Density = 1.850576 g / cm^3
# Si number density = 18.547980 Si / 1000 Ang^3
#
#
#
# Elastic Constant Matrix: (Units=GPa)
#
#
# Indices 1 2 3 4 5 6 
#
# 1 101.0971 11.5674 46.5883 0.0002 -5.1177 -0.0002
# 2 11.5674 55.1675 -7.2104 0.0003 -5.0925 -0.0005
# 3 46.5883 -7.2104 71.5306 0.0000 7.5116 -0.0004
# 4 0.0002 0.0003 0.0000 17.4125 -0.0001 -0.9316
# 5 -5.1177 -5.0925 7.5116 -0.0001 29.7434 0.0002
# 6 -0.0002 -0.0005 -0.0004 -0.9316 0.0002 9.3400
#
#
#
# Elastic Compliance Matrix: (Units=1/GPa)
#
#
# Indices 1 2 3 4 5 6 
#
# 1 0.015813 -0.004340 -0.011242 0.000000 0.004817 0.000000
# 2 -0.004340 0.019782 0.004667 0.000000 0.001461 0.000001
# 3 -0.011242 0.004667 0.022488 0.000000 -0.006815 0.000001
# 4 0.000000 0.000000 0.000000 0.057738 0.000000 0.005759
# 5 0.004817 0.001461 -0.006815 0.000000 0.036421 -0.000001
# 6 0.000000 0.000001 0.000001 0.005759 -0.000001 0.107641
#
#
# Mechanical properties :
#
#
# Convention : Reuss Voigt Hill
#
# Bulk Modulus (GPa) = 27.58442 36.63174 32.10808
# Shear Modulus (GPa) = 17.01859 23.08917 20.05388
#
# Velocity S-wave (km/s) = 3.03239 3.53205 3.29171
# Velocity P-wave (km/s) = 5.21198 6.03543 5.63875
#
# Compressibility (1/GPa) = 0.03625235
#
# Stress axis : x y z
#
# Youngs Moduli (GPa) = 63.24054 50.55202 44.46767
#
# Poissons Ratio (x) = 0.21941 0.49991
# Poissons Ratio (y) = 0.27448 -0.20755
# Poissons Ratio (z) = 0.71096 -0.23595
#
# Static dielectric constant tensor:
#      x y z
#    x 1.629600 0.000000 -0.005120 
#    y 0.000000 1.644530 0.000000 
#    z -0.005120 0.000000 1.674150 
# 
# From -- ./inp_files/63615.got.cif
#   From: 2010.05.17/outbox.cif.g08.bks.cpg/sg12_32_cif.got.tgz:63615.got - 2010.06.03 13:09:07.
