data_PCOD9206108
_publ_section_title
;
Structure prediction by ZEFSAII (Michael W. Deem and Ramdas Pophale) SiO2 
 PCOD9206108
Probable space group: C 2/M
;
_chemical_formula_sum "Si O2"
_cell_formula_units_Z 64
_cell_length_a 15.093839
_cell_length_b 7.586708
_cell_length_c 22.106811
_cell_angle_alpha 90.000000
_cell_angle_beta 85.314512
_cell_angle_gamma 90.000000
_cell_volume 2523.047257
_symmetry_space_group_name_H-M "C 2/M"
_symmetry_group_IT_number 12
_symmetry_cell_setting 'monoclinic'
loop_
_space_group_symop_operation_xyz
x,y,z
-x,y,-z
-x,-y,-z
x,-y,z
1/2+x,1/2+y,z
1/2-x,1/2+y,-z
1/2-x,1/2-y,-z
1/2+x,1/2-y,z
loop_
_atom_site_type_symbol
_atom_site_label
_atom_site_fract_x
_atom_site_fract_y
_atom_site_fract_z
Si Si1 0.838607 0.711191 0.202085
Si Si2 0.741670 0.713276 0.089260
Si Si3 0.419599 0.695330 0.346606
Si Si4 0.816743 0.288269 0.706459
Si Si5 0.099452 0.708601 0.007339
Si Si6 0.981396 0.303600 0.772251
Si Si7 0.341777 0.208785 0.462673
Si Si8 0.416377 0.785462 0.582261
O O1 0.846420 0.500000 0.195368
O O2 0.773771 0.776146 0.152798
O O3 0.782616 0.746502 0.266271
O O4 0.940345 0.779729 0.191084
O O5 0.740916 0.500000 0.088775
O O6 0.821375 0.777465 0.040490
O O7 0.644513 0.768081 0.070805
O O8 0.422155 0.500000 0.320469
O O9 0.458611 0.817187 0.292406
O O10 0.336303 0.716962 0.394936
O O11 0.491143 0.721137 0.396203
O O12 0.825871 0.500000 0.706211
O O13 0.847967 0.225545 0.638841
O O14 0.890085 0.220860 0.752228
O O15 0.094372 0.500000 0.995579
O O16 0.000000 0.778954 0.000000
O O17 0.960562 0.500000 0.796544
O O18 0.250000 0.250000 0.500000
O O19 0.402571 0.274523 0.514875
O O20 0.357700 0.000000 0.454150
O O21 0.415015 0.000000 0.581345
#
# Coordination Sequence:
#
# PCOD9206108 Si02
#       8
#     8   8   8   8   8   8   8   8
#     4  10  21  36  56  81 112 149 185 225 277 329
#     4   9  19  35  53  81 118 148 181 229 278 325
#     4  11  22  36  56  80 105 136 178 225 273 333
#     4   9  19  36  57  80 107 141 185 230 277 330
#     4   9  18  34  58  84 111 148 191 229 267 319
#     4   9  20  39  58  78 107 148 187 226 281 339
#     4  11  23  37  54  79 108 137 173 221 278 339
#     4   9  20  39  58  75 102 138 173 219 280 336
#
# _framework density 25.366154000000002
#
# number of rings (size 3 to 8) (size 9 to 14) (size 15 to 20)
#    0.000    2.375    0.000    2.625    1.750    6.750 
#    0.000    2.500    0.000    0.000    0.000    0.000 
#    0.000    0.000    0.000    0.000    0.000    0.000 
#
# Total GULP energy -178475.933293 kJ/mol
# GULP energy per Si atom -5577.372915 kJ/mol
# Density = 2.530842 g / cm^3
# Si number density = 25.366154 Si / 1000 Ang^3
#
#
#
# Elastic Constant Matrix: (Units=GPa)
#
#
# Indices 1 2 3 4 5 6 
#
# 1 132.9657 -14.0605 -1.5687 0.0000 24.2324 0.0000
# 2 -14.0605 70.0014 -5.4542 0.0000 -1.0497 0.0000
# 3 -1.5687 -5.4542 42.8958 0.0000 15.0620 0.0000
# 4 0.0000 0.0000 0.0000 74.7334 0.0000 48.9924
# 5 24.2324 -1.0497 15.0620 0.0000 30.6264 0.0000
# 6 0.0000 0.0000 0.0000 48.9924 0.0000 54.4784
#
#
#
# Elastic Compliance Matrix: (Units=1/GPa)
#
#
# Indices 1 2 3 4 5 6 
#
# 1 0.009490 0.002069 0.003894 0.000000 -0.009353 0.000000
# 2 0.002069 0.014886 0.002858 0.000000 -0.002533 0.000000
# 3 0.003894 0.002858 0.030056 0.000000 -0.017765 0.000000
# 4 0.000000 0.000000 0.000000 0.032600 0.000000 -0.029317
# 5 -0.009353 -0.002533 -0.017765 0.000000 0.048702 0.000000
# 6 0.000000 0.000000 0.000000 -0.029317 0.000000 0.044721
#
#
# Mechanical properties :
#
#
# Convention : Reuss Voigt Hill
#
# Bulk Modulus (GPa) = 13.87453 22.63287 18.25370
# Shear Modulus (GPa) = 26.76127 49.76405 38.26266
#
# Velocity S-wave (km/s) = 3.25160 4.43406 3.88804
# Velocity P-wave (km/s) = 4.42479 5.92928 5.23140
#
# Compressibility (1/GPa) = 0.07207451
#
# Stress axis : x y z
#
# Youngs Moduli (GPa) = 105.37323 67.17824 33.27134
#
# Poissons Ratio (x) = -0.13902 -0.12957
# Poissons Ratio (y) = -0.21806 -0.09508
# Poissons Ratio (z) = -0.41036 -0.19197
#
# Static dielectric constant tensor:
#      x y z
#    x 2.226660 0.000000 -0.007290 
#    y 0.000000 1.992480 0.000000 
#    z -0.007290 0.000000 2.132860 
# 
# From -- ./inp_files/338834.got.cif
#   From: 2010.05.17/outbox.cif.g08.bks.cpg/sg12_170_cif.got.tgz:338834.got - 2010.06.03 13:09:07.
