data_PCOD9206349
_publ_section_title
;
Structure prediction by ZEFSAII (Michael W. Deem and Ramdas Pophale) SiO2 
 PCOD9206349
Probable space group: C 2/M
;
_chemical_formula_sum "Si O2"
_cell_formula_units_Z 64
_cell_length_a 22.202661
_cell_length_b 16.026896
_cell_length_c 26.517715
_cell_angle_alpha 90.000000
_cell_angle_beta 159.922357
_cell_angle_gamma 90.000000
_cell_volume 3239.334417
_symmetry_space_group_name_H-M "C 2/M"
_symmetry_group_IT_number 12
_symmetry_cell_setting 'monoclinic'
loop_
_space_group_symop_operation_xyz
x,y,z
-x,y,-z
-x,-y,-z
x,-y,z
1/2+x,1/2+y,z
1/2-x,1/2+y,-z
1/2-x,1/2-y,-z
1/2+x,1/2-y,z
loop_
_atom_site_type_symbol
_atom_site_label
_atom_site_fract_x
_atom_site_fract_y
_atom_site_fract_z
Si Si1 0.863875 0.899683 0.242833
Si Si2 0.720832 0.331184 0.287483
Si Si3 0.978804 0.405136 0.091503
Si Si4 0.069110 0.598605 0.453350
Si Si5 0.648965 0.677757 0.392267
Si Si6 0.811895 0.904806 0.840927
Si Si7 0.049806 0.252413 0.859295
Si Si8 0.341008 0.346206 0.338069
O O1 0.885941 0.857010 0.314734
O O2 0.011601 0.868033 0.320384
O O3 0.873539 0.000000 0.256854
O O4 0.676048 0.879924 0.069003
O O5 0.853171 0.356156 0.436107
O O6 0.708443 0.401055 0.235345
O O7 0.530261 0.310180 0.161390
O O8 0.788748 0.247782 0.313137
O O9 0.943266 0.500000 0.079310
O O10 0.165920 0.398863 0.211400
O O11 0.984253 0.342889 0.143188
O O12 0.055189 0.500000 0.452906
O O13 0.208867 0.615080 0.519567
O O14 0.873730 0.630299 0.285560
O O15 0.750000 0.750000 0.500000
O O16 0.554784 0.724772 0.272171
O O17 0.822614 0.000000 0.868348
O O18 0.000000 0.862823 0.000000
O O19 0.250000 0.250000 0.000000
O O20 0.500000 0.371720 0.500000
#
# Coordination Sequence:
#
# PCOD9206349 Si02
#       8
#     8   8   8   8   8   8   8   8
#     4  11  24  42  65  91 125 168 209 252 308 375
#     4  10  22  36  63  88 118 160 204 251 302 366
#     4  10  22  42  65  92 126 165 209 256 310 371
#     4  10  21  41  64  88 121 161 205 250 302 371
#     4  11  25  40  64  92 127 164 204 257 307 373
#     4  10  21  36  57  89 123 153 196 254 309 358
#     4  10  21  42  61  92 122 160 206 252 304 365
#     4  11  24  39  62  95 126 158 209 262 313 366
#
# _framework density 19.757145000000001
#
# number of rings (size 3 to 8) (size 9 to 14) (size 15 to 20)
#    0.000    1.625    1.250    2.625    7.000    6.000 
#    0.000    1.250    0.000    0.000    0.000    0.000 
#    0.000    0.000    0.000    0.000    0.000    0.000 
#
# Total GULP energy -178607.520892 kJ/mol
# GULP energy per Si atom -5581.485028 kJ/mol
# Density = 1.971218 g / cm^3
# Si number density = 19.757145 Si / 1000 Ang^3
#
#
#
# Elastic Constant Matrix: (Units=GPa)
#
#
# Indices 1 2 3 4 5 6 
#
# 1 139.3651 27.7636 64.3656 0.0027 8.5670 -0.0016
# 2 27.7636 63.1510 20.3991 0.0242 -2.7776 0.0022
# 3 64.3656 20.3991 136.9790 0.0638 30.5560 0.0022
# 4 0.0027 0.0242 0.0638 23.0173 0.0002 0.9469
# 5 8.5670 -2.7776 30.5560 0.0002 20.2448 -0.0014
# 6 -0.0016 0.0022 0.0022 0.9469 -0.0014 25.7207
#
#
#
# Elastic Compliance Matrix: (Units=1/GPa)
#
#
# Indices 1 2 3 4 5 6 
#
# 1 0.009746 -0.002608 -0.004811 0.000015 0.002780 0.000001
# 2 -0.002608 0.018519 -0.003536 -0.000009 0.008981 -0.000001
# 3 -0.004811 -0.003536 0.014687 -0.000036 -0.020616 -0.000001
# 4 0.000015 -0.000009 -0.000036 0.043512 0.000046 -0.001602
# 5 0.002780 0.008981 -0.020616 0.000046 0.080567 0.000004
# 6 0.000001 -0.000001 -0.000001 -0.001602 0.000004 0.038938
#
#
# Mechanical properties :
#
#
# Convention : Reuss Voigt Hill
#
# Bulk Modulus (GPa) = 47.52604 62.72796 55.12700
# Shear Modulus (GPa) = 21.28627 28.92768 25.10698
#
# Velocity S-wave (km/s) = 3.28593 3.83059 3.56867
# Velocity P-wave (km/s) = 6.20514 7.16819 6.70398
#
# Compressibility (1/GPa) = 0.02104110
#
# Stress axis : x y z
#
# Youngs Moduli (GPa) = 102.60344 53.99892 68.08961
#
# Poissons Ratio (x) = 0.14085 0.32760
# Poissons Ratio (y) = 0.26763 0.24073
# Poissons Ratio (z) = 0.49366 0.19092
#
# Static dielectric constant tensor:
#      x y z
#    x 1.682770 0.000000 0.037150 
#    y 0.000000 1.714000 -0.000010 
#    z 0.037150 -0.000010 1.706020 
# 
# From -- ./inp_files/347937.got.cif
#   From: 2010.05.17/outbox.cif.g08.bks.cpg/sg12_174_cif.got.tgz:347937.got - 2010.06.03 13:09:07.
