data_PCOD9206835
_publ_section_title
;
Structure prediction by ZEFSAII (Michael W. Deem and Ramdas Pophale) SiO2 
 PCOD9206835
Probable space group: C 2/M
;
_chemical_formula_sum "Si O2"
_cell_formula_units_Z 56
_cell_length_a 20.103900
_cell_length_b 33.936579
_cell_length_c 5.317916
_cell_angle_alpha 90.000000
_cell_angle_beta 112.440066
_cell_angle_gamma 90.000000
_cell_volume 3353.459693
_symmetry_space_group_name_H-M "C 2/M"
_symmetry_group_IT_number 12
_symmetry_cell_setting 'monoclinic'
loop_
_space_group_symop_operation_xyz
x,y,z
-x,y,-z
-x,-y,-z
x,-y,z
1/2+x,1/2+y,z
1/2-x,1/2+y,-z
1/2-x,1/2-y,-z
1/2+x,1/2-y,z
loop_
_atom_site_type_symbol
_atom_site_label
_atom_site_fract_x
_atom_site_fract_y
_atom_site_fract_z
Si Si1 0.080770 0.184229 0.056725
Si Si2 0.169196 0.821170 0.706151
Si Si3 0.913020 0.407500 0.377430
Si Si4 0.182703 0.334339 0.926426
Si Si5 0.305528 0.764093 0.369970
Si Si6 0.921304 0.276255 0.914232
Si Si7 0.413138 0.955407 0.877736
O O1 0.128637 0.178937 0.378756
O O2 0.072725 0.231254 0.983267
O O3 0.118286 0.166199 0.863731
O O4 0.000000 0.169953 0.000000
O O5 0.189683 0.774921 0.790198
O O6 0.245300 0.844246 0.813394
O O7 0.866209 0.369060 0.248839
O O8 0.893840 0.426930 0.617832
O O9 0.000000 0.399699 0.500000
O O10 0.895900 0.437482 0.124795
O O11 0.214073 0.307285 0.749286
O O12 0.131671 0.304002 0.005374
O O13 0.250000 0.750000 0.500000
O O14 0.385107 0.770762 0.592243
O O15 0.000000 0.294140 0.000000
O O16 0.385743 0.000000 0.805291
O O17 0.500000 0.957479 0.000000
#
# Coordination Sequence:
#
# PCOD9206835 Si02
#       7
#     8   8   8   8   8   8   8
#     4  10  21  37  52  71  87 116 176 229 255 296
#     4  11  21  35  54  68  92 131 172 211 265 312
#     4  10  23  34  52  79 108 132 169 218 266 307
#     4  12  23  33  49  71 103 133 170 214 273 322
#     4  11  21  35  49  63  91 133 183 214 259 325
#     4  10  22  32  47  65  92 129 168 221 273 307
#     4   9  18  37  58  75  97 134 175 210 247 308
#
# _framework density 16.699172000000001
#
# number of rings (size 3 to 8) (size 9 to 14) (size 15 to 20)
#    0.000    1.571    2.857    3.000    4.000    2.286 
#    0.000    0.000    0.000    0.000    0.000    0.000 
#    0.000    0.000    0.000    0.000    0.000   50.000 
#
# Total GULP energy -156059.000811 kJ/mol
# GULP energy per Si atom -5573.535743 kJ/mol
# Density = 1.666116 g / cm^3
# Si number density = 16.699172 Si / 1000 Ang^3
#
#
#
# Elastic Constant Matrix: (Units=GPa)
#
#
# Indices 1 2 3 4 5 6 
#
# 1 98.6410 14.0678 42.4946 0.0000 7.1061 0.0000
# 2 14.0678 58.7417 38.2096 0.0000 9.4460 0.0000
# 3 42.4946 38.2096 75.1193 0.0000 6.0320 0.0000
# 4 0.0000 0.0000 0.0000 20.5436 0.0000 0.8914
# 5 7.1061 9.4460 6.0320 0.0000 28.4337 0.0000
# 6 0.0000 0.0000 0.0000 0.8914 0.0000 7.8953
#
#
#
# Elastic Compliance Matrix: (Units=1/GPa)
#
#
# Indices 1 2 3 4 5 6 
#
# 1 0.013840 0.003068 -0.009187 0.000000 -0.002529 0.000000
# 2 0.003068 0.027099 -0.014991 0.000000 -0.006589 0.000000
# 3 -0.009187 -0.014991 0.025992 0.000000 0.001762 0.000000
# 4 0.000000 0.000000 0.000000 0.048917 0.000000 -0.005523
# 5 -0.002529 -0.006589 0.001762 0.000000 0.037617 0.000000
# 6 0.000000 0.000000 0.000000 -0.005523 0.000000 0.127281
#
#
# Mechanical properties :
#
#
# Convention : Reuss Voigt Hill
#
# Bulk Modulus (GPa) = 40.46402 46.89400 43.67901
# Shear Modulus (GPa) = 15.09649 20.55651 17.82650
#
# Velocity S-wave (km/s) = 3.00997 3.51235 3.27082
# Velocity P-wave (km/s) = 6.03022 6.67768 6.36219
#
# Compressibility (1/GPa) = 0.02471331
#
# Stress axis : x y z
#
# Youngs Moduli (GPa) = 72.25404 36.90110 38.47264
#
# Poissons Ratio (x) = -0.11321 0.35343
# Poissons Ratio (y) = -0.22166 0.57673
# Poissons Ratio (z) = 0.66377 0.55317
#
# Static dielectric constant tensor:
#      x y z
#    x 1.622190 0.000000 -0.021150 
#    y 0.000000 1.558130 0.000000 
#    z -0.021150 0.000000 1.669220 
# 
# From -- ./inp_files/22376.got.cif
#   From: 2010.05.17/outbox.cif.g08.bks.cpg/sg12_12_cif.got.tgz:22376.got - 2010.06.03 13:09:07.
