data_PCOD9206838
_publ_section_title
;
Structure prediction by ZEFSAII (Michael W. Deem and Ramdas Pophale) SiO2 
 PCOD9206838
Probable space group: C 2/M
;
_chemical_formula_sum "Si O2"
_cell_formula_units_Z 60
_cell_length_a 17.570358
_cell_length_b 22.760993
_cell_length_c 8.872485
_cell_angle_alpha 90.000000
_cell_angle_beta 129.401751
_cell_angle_gamma 90.000000
_cell_volume 2741.801242
_symmetry_space_group_name_H-M "C 2/M"
_symmetry_group_IT_number 12
_symmetry_cell_setting 'monoclinic'
loop_
_space_group_symop_operation_xyz
x,y,z
-x,y,-z
-x,-y,-z
x,-y,z
1/2+x,1/2+y,z
1/2-x,1/2+y,-z
1/2-x,1/2-y,-z
1/2+x,1/2-y,z
loop_
_atom_site_type_symbol
_atom_site_label
_atom_site_fract_x
_atom_site_fract_y
_atom_site_fract_z
Si Si1 0.093014 0.596529 0.528604
Si Si2 0.135241 0.697129 0.817235
Si Si3 0.311086 0.412367 0.770594
Si Si4 0.540570 0.390442 0.772443
Si Si5 0.136862 0.190689 0.355232
Si Si6 0.451510 0.185978 0.777491
Si Si7 0.415859 0.500000 0.663015
Si Si8 0.808306 0.177728 0.239365
O O1 0.110654 0.652773 0.655439
O O2 0.199901 0.566851 0.659350
O O3 0.074281 0.624842 0.339497
O O4 0.000000 0.567492 0.500000
O O5 0.175171 0.755358 0.790767
O O6 0.037054 0.713084 0.781237
O O7 0.207152 0.664435 0.025557
O O8 0.310905 0.344536 0.713636
O O9 0.361759 0.449678 0.702890
O O10 0.381702 0.413473 0.003951
O O11 0.471005 0.340006 0.759212
O O12 0.475437 0.446932 0.652078
O O13 0.604401 0.361482 0.719917
O O14 0.126405 0.260339 0.313945
O O15 0.190512 0.175845 0.580019
O O16 0.500000 0.175073 0.000000
#
# Coordination Sequence:
#
# PCOD9206838 Si02
#       8
#     8   8   8   8   8   8   4   8
#     4  10  22  40  59  85 119 160 200 247 305 361
#     4  10  21  37  52  80 125 164 204 241 290 352
#     4  11  22  40  61  87 117 154 200 258 308 356
#     4  11  20  37  60  86 116 163 197 241 306 362
#     4  11  22  33  55  86 124 159 205 240 295 356
#     4  11  22  35  55  83 124 158 205 249 293 353
#     4  10  23  42  66  92 123 150 200 267 311 348
#     4  11  21  34  56  82 120 172 203 237 291 360
#
# _framework density 21.883424999999999
#
# number of rings (size 3 to 8) (size 9 to 14) (size 15 to 20)
#    0.000    1.333    4.000    3.600    1.867    0.533 
#    0.000    5.667    0.000    0.000    0.000    0.467 
#    0.000    0.000    0.000    0.000    0.000    0.000 
#
# Total GULP energy -167053.407691 kJ/mol
# GULP energy per Si atom -5568.446923 kJ/mol
# Density = 2.183362 g / cm^3
# Si number density = 21.883425 Si / 1000 Ang^3
#
#
#
# Elastic Constant Matrix: (Units=GPa)
#
#
# Indices 1 2 3 4 5 6 
#
# 1 88.2288 30.1609 10.9173 0.0000 1.9111 0.0000
# 2 30.1609 86.8209 10.4397 0.0000 0.3382 0.0000
# 3 10.9173 10.4397 92.5737 0.0000 -2.9736 0.0000
# 4 0.0000 0.0000 0.0000 -14.2686 0.0000 -10.6166
# 5 1.9111 0.3382 -2.9736 0.0000 19.6824 0.0000
# 6 0.0000 0.0000 0.0000 -10.6166 0.0000 22.9637
#
#
#
# Elastic Compliance Matrix: (Units=1/GPa)
#
#
# Indices 1 2 3 4 5 6 
#
# 1 0.012994 -0.004379 -0.001082 0.000000 -0.001350 0.000000
# 2 -0.004379 0.013155 -0.000965 0.000000 0.000053 0.000000
# 3 -0.001082 -0.000965 0.011096 0.000000 0.001798 0.000000
# 4 0.000000 0.000000 0.000000 -0.052146 0.000000 -0.024108
# 5 -0.001350 0.000053 0.001798 0.000000 0.051209 0.000000
# 6 0.000000 0.000000 0.000000 -0.024108 0.000000 0.032401
#
#
# Mechanical properties :
#
#
# Convention : Reuss Voigt Hill
#
# Bulk Modulus (GPa) = 40.99477 41.18435 41.08956
# Shear Modulus (GPa) = 55.74578 20.08251 37.91415
#
# Velocity S-wave (km/s) = 5.05265 3.03265 4.16691
# Velocity P-wave (km/s) = 7.26725 5.57883 6.47828
#
# Compressibility (1/GPa) = 0.02439336
#
# Stress axis : x y z
#
# Youngs Moduli (GPa) = 76.95779 76.01687 90.11908
#
# Poissons Ratio (x) = 0.33286 0.09751
# Poissons Ratio (y) = 0.33698 0.08700
# Poissons Ratio (z) = 0.08327 0.07339
#
# Static dielectric constant tensor:
#      x y z
#    x 1.868090 0.000000 0.062110 
#    y 0.000000 1.784560 0.000000 
#    z 0.062110 0.000000 1.869730 
# 
# From -- ./inp_files/79120.got.cif
#   From: 2010.05.17/outbox.cif.g08.bks.cpg/sg12_40_cif.got.tgz:79120.got - 2010.06.03 13:09:07.
