data_PCOD9206725
_publ_section_title
;
Structure prediction by ZEFSAII (Michael W. Deem and Ramdas Pophale) SiO2 
 PCOD9206725
Probable space group: C 2/M
;
_chemical_formula_sum "Si O2"
_cell_formula_units_Z 40
_cell_length_a 10.103302
_cell_length_b 21.681401
_cell_length_c 13.614232
_cell_angle_alpha 90.000000
_cell_angle_beta 41.485529
_cell_angle_gamma 90.000000
_cell_volume 1975.533433
_symmetry_space_group_name_H-M "C 2/M"
_symmetry_group_IT_number 12
_symmetry_cell_setting 'monoclinic'
loop_
_space_group_symop_operation_xyz
x,y,z
-x,y,-z
-x,-y,-z
x,-y,z
1/2+x,1/2+y,z
1/2-x,1/2+y,-z
1/2-x,1/2-y,-z
1/2+x,1/2-y,z
loop_
_atom_site_type_symbol
_atom_site_label
_atom_site_fract_x
_atom_site_fract_y
_atom_site_fract_z
Si Si1 0.926007 0.127882 0.346240
Si Si2 0.067673 0.751658 0.349351
Si Si3 0.146127 0.358013 0.827140
Si Si4 0.522300 0.116201 0.678527
Si Si5 0.117639 0.929748 0.839295
O O1 0.140520 0.108771 0.271553
O O2 0.927823 0.201603 0.364657
O O3 0.734265 0.102616 0.509695
O O4 0.916589 0.110338 0.238314
O O5 0.281709 0.786396 0.223312
O O6 0.000000 0.753505 0.500000
O O7 0.051574 0.683579 0.316997
O O8 0.551053 0.119213 0.779123
O O9 0.000000 0.365215 0.000000
O O10 0.349963 0.071320 0.738307
O O11 0.051128 0.000000 0.857078
O O12 0.000000 0.905887 0.000000
#
# Coordination Sequence:
#
# PCOD9206725 Si02
#       5
#     8   8   8   8   8
#     4  10  21  40  62  89 125 163 210 255 304 378
#     4  10  21  36  61  92 132 163 205 251 316 371
#     4  10  22  37  57  90 129 163 204 251 310 373
#     4  12  22  38  67  91 127 170 212 257 309 376
#     4  11  26  45  64  91 127 166 211 265 320 367
#
# _framework density 20.247696000000001
#
# number of rings (size 3 to 8) (size 9 to 14) (size 15 to 20)
#    1.200    0.200    2.000    4.200    2.800    3.200 
#    0.000    1.000    0.000    6.600    0.000    0.000 
#    0.000    0.000    0.000    0.000    0.000    0.000 
#
# Total GULP energy -111632.932045 kJ/mol
# GULP energy per Si atom -5581.646602 kJ/mol
# Density = 2.020161 g / cm^3
# Si number density = 20.247696 Si / 1000 Ang^3
#
#
#
# Elastic Constant Matrix: (Units=GPa)
#
#
# Indices 1 2 3 4 5 6 
#
# 1 136.5456 45.4243 15.7006 0.0000 33.0859 0.0000
# 2 45.4243 34.2362 18.2107 0.0000 15.1594 0.0000
# 3 15.7006 18.2107 50.7250 -0.0001 26.6043 -0.0001
# 4 0.0000 0.0000 -0.0001 13.8148 0.0001 -12.0845
# 5 33.0859 15.1594 26.6043 0.0001 46.4362 0.0000
# 6 0.0000 0.0000 -0.0001 -12.0845 0.0000 -6.7296
#
#
#
# Elastic Compliance Matrix: (Units=1/GPa)
#
#
# Indices 1 2 3 4 5 6 
#
# 1 0.015259 -0.020264 0.006840 0.000000 -0.008176 0.000000
# 2 -0.020264 0.064321 -0.019126 0.000000 0.004398 0.000000
# 3 0.006840 -0.019126 0.033945 0.000000 -0.018077 0.000000
# 4 0.000000 0.000000 0.000000 0.028157 0.000000 -0.050562
# 5 -0.008176 0.004398 -0.018077 0.000000 0.036281 0.000000
# 6 0.000000 0.000000 0.000000 -0.050562 0.000000 -0.057802
#
#
# Mechanical properties :
#
#
# Convention : Reuss Voigt Hill
#
# Bulk Modulus (GPa) = 20.65087 42.24201 31.44644
# Shear Modulus (GPa) = 24.82583 20.18235 22.50409
#
# Velocity S-wave (km/s) = 3.50538 3.16060 3.33744
# Velocity P-wave (km/s) = 5.15799 5.85039 5.51507
#
# Compressibility (1/GPa) = 0.04842411
#
# Stress axis : x y z
#
# Youngs Moduli (GPa) = 65.53406 15.54702 29.45983
#
# Poissons Ratio (x) = 0.31504 -0.20150
# Poissons Ratio (y) = 1.32798 0.56345
# Poissons Ratio (z) = -0.44824 0.29735
#
# Static dielectric constant tensor:
#      x y z
#    x 1.702800 0.000000 -0.043990 
#    y 0.000000 1.702020 0.000000 
#    z -0.043990 0.000000 1.721550 
# 
# From -- ./inp_files/264953.got.cif
#   From: 2010.05.17/outbox.cif.g08.bks.cpg/sg12_133_cif.got.tgz:264953.got - 2010.06.03 13:09:07.
