data_PCOD9206889
_publ_section_title
;
Structure prediction by ZEFSAII (Michael W. Deem and Ramdas Pophale) SiO2 
 PCOD9206889
Probable space group: C 2/M
;
_chemical_formula_sum "Si O2"
_cell_formula_units_Z 64
_cell_length_a 27.852989
_cell_length_b 13.995395
_cell_length_c 9.796532
_cell_angle_alpha 90.000000
_cell_angle_beta 79.905890
_cell_angle_gamma 90.000000
_cell_volume 3759.710479
_symmetry_space_group_name_H-M "C 2/M"
_symmetry_group_IT_number 12
_symmetry_cell_setting 'monoclinic'
loop_
_space_group_symop_operation_xyz
x,y,z
-x,y,-z
-x,-y,-z
x,-y,z
1/2+x,1/2+y,z
1/2-x,1/2+y,-z
1/2-x,1/2-y,-z
1/2+x,1/2-y,z
loop_
_atom_site_type_symbol
_atom_site_label
_atom_site_fract_x
_atom_site_fract_y
_atom_site_fract_z
Si Si1 0.807271 0.113647 0.382635
Si Si2 0.548006 0.386360 0.062875
Si Si3 0.807572 0.609973 0.193677
Si Si4 0.800507 0.111982 0.876439
Si Si5 0.048267 0.110608 0.385481
Si Si6 0.854828 0.787457 0.613017
Si Si7 0.648384 0.301852 0.903521
Si Si8 0.696820 0.112773 0.475935
O O1 0.825037 0.148800 0.520013
O O2 0.842088 0.158390 0.252279
O O3 0.750543 0.141785 0.395445
O O4 0.809425 0.000000 0.374539
O O5 0.556921 0.500000 0.038004
O O6 0.539611 0.371963 0.228772
O O7 0.500000 0.360686 0.000000
O O8 0.595945 0.331466 0.987515
O O9 0.823064 0.500000 0.166484
O O10 0.754355 0.620731 0.151406
O O11 0.842240 0.688946 0.110078
O O12 0.803733 0.626756 0.359312
O O13 0.834522 0.179954 0.768917
O O14 0.814698 0.000000 0.856528
O O15 0.810255 0.147169 0.024392
O O16 0.089222 0.182280 0.418631
O O17 0.000000 0.118927 0.500000
O O18 0.065877 0.000000 0.389264
O O19 0.842354 0.679633 0.577887
O O20 0.689914 0.000000 0.454440
#
# Coordination Sequence:
#
# PCOD9206889 Si02
#       8
#     8   8   8   8   8   8   8   8
#     4  11  21  32  54  85 115 148 191 229 268 335
#     4  10  22  39  57  81 115 145 174 223 282 334
#     4  10  21  37  55  79 112 153 195 233 272 317
#     4  11  21  35  55  81 118 152 180 225 281 334
#     4  10  22  38  58  84 111 142 181 223 273 337
#     4  12  20  35  58  81 110 153 190 221 277 331
#     4  12  22  36  55  83 114 152 187 225 280 334
#     4  10  21  37  54  80 115 149 193 240 271 309
#
# _framework density 17.022587999999999
#
# number of rings (size 3 to 8) (size 9 to 14) (size 15 to 20)
#    0.000    1.250    3.750    3.750    1.750    0.000 
#    0.000    1.875    0.000    0.750    0.000    0.000 
#    0.000    0.000    0.000    0.000    0.000    0.000 
#
# Total GULP energy -178712.109683 kJ/mol
# GULP energy per Si atom -5584.753428 kJ/mol
# Density = 1.698384 g / cm^3
# Si number density = 17.022588 Si / 1000 Ang^3
#
#
#
# Elastic Constant Matrix: (Units=GPa)
#
#
# Indices 1 2 3 4 5 6 
#
# 1 77.2947 50.9855 31.2484 0.0000 -7.3265 0.0000
# 2 50.9855 91.2757 23.3923 0.0000 -8.7827 0.0000
# 3 31.2484 23.3923 42.7972 0.0000 -14.0213 0.0000
# 4 0.0000 0.0000 0.0000 20.9676 0.0000 -3.3384
# 5 -7.3265 -8.7827 -14.0213 0.0000 21.4274 0.0000
# 6 0.0000 0.0000 0.0000 -3.3384 0.0000 26.0552
#
#
#
# Elastic Compliance Matrix: (Units=1/GPa)
#
#
# Indices 1 2 3 4 5 6 
#
# 1 0.025545 -0.011108 -0.014269 0.000000 -0.005156 0.000000
# 2 -0.011108 0.017583 -0.000488 0.000000 0.003090 0.000000
# 3 -0.014269 -0.000488 0.041225 0.000000 0.021897 0.000000
# 4 0.000000 0.000000 0.000000 0.048686 0.000000 0.006238
# 5 -0.005156 0.003090 0.021897 0.000000 0.060502 0.000000
# 6 0.000000 0.000000 0.000000 0.006238 0.000000 0.039179
#
#
# Mechanical properties :
#
#
# Convention : Reuss Voigt Hill
#
# Bulk Modulus (GPa) = 30.65324 46.95779 38.80551
# Shear Modulus (GPa) = 16.93056 20.73946 18.83501
#
# Velocity S-wave (km/s) = 3.15714 3.49427 3.32998
# Velocity P-wave (km/s) = 5.59790 6.62762 6.13441
#
# Compressibility (1/GPa) = 0.03262298
#
# Stress axis : x y z
#
# Youngs Moduli (GPa) = 39.14722 56.87325 24.25692
#
# Poissons Ratio (x) = 0.63175 0.34612
# Poissons Ratio (y) = 0.43485 0.01183
# Poissons Ratio (z) = 0.55859 0.02774
#
# Static dielectric constant tensor:
#      x y z
#    x 1.559230 0.000000 0.004750 
#    y 0.000000 1.579620 0.000000 
#    z 0.004750 0.000000 1.565600 
# 
# From -- ./inp_files/104500.got.cif
#   From: 2010.05.17/outbox.cif.g08.bks.cpg/sg12_53_cif.got.tgz:104500.got - 2010.06.03 13:09:07.
