data_PCOD9206249
_publ_section_title
;
Structure prediction by ZEFSAII (Michael W. Deem and Ramdas Pophale) SiO2 
 PCOD9206249
Probable space group: C 2/M
;
_chemical_formula_sum "Si O2"
_cell_formula_units_Z 56
_cell_length_a 20.632265
_cell_length_b 7.581521
_cell_length_c 20.141968
_cell_angle_alpha 90.000000
_cell_angle_beta 56.084719
_cell_angle_gamma 90.000000
_cell_volume 2614.639489
_symmetry_space_group_name_H-M "C 2/M"
_symmetry_group_IT_number 12
_symmetry_cell_setting 'monoclinic'
loop_
_space_group_symop_operation_xyz
x,y,z
-x,y,-z
-x,-y,-z
x,-y,z
1/2+x,1/2+y,z
1/2-x,1/2+y,-z
1/2-x,1/2-y,-z
1/2+x,1/2-y,z
loop_
_atom_site_type_symbol
_atom_site_label
_atom_site_fract_x
_atom_site_fract_y
_atom_site_fract_z
Si Si1 0.526858 0.796817 0.703090
Si Si2 0.306509 0.284366 0.638636
Si Si3 0.370853 0.215319 0.236529
Si Si4 0.912353 0.284431 0.064021
Si Si5 0.662426 0.710629 0.524595
Si Si6 0.764290 0.711779 0.068629
Si Si7 0.357968 0.295096 0.752403
O O1 0.563369 0.721657 0.750010
O O2 0.596633 0.788299 0.609880
O O3 0.447847 0.712295 0.721923
O O4 0.506368 0.000000 0.727249
O O5 0.309285 0.500000 0.635554
O O6 0.215474 0.232163 0.691260
O O7 0.344076 0.226320 0.547870
O O8 0.343841 0.221502 0.686504
O O9 0.385641 0.269113 0.152745
O O10 0.372058 0.000000 0.237705
O O11 0.913171 0.500000 0.062727
O O12 0.848204 0.225637 0.047423
O O13 0.000000 0.224810 0.000000
O O14 0.652064 0.500000 0.531999
O O15 0.750000 0.750000 0.500000
O O16 0.764502 0.500000 0.073530
O O17 0.697584 0.779158 0.157669
O O18 0.750000 0.750000 0.000000
O O19 0.334699 0.500000 0.759647
#
# Coordination Sequence:
#
# PCOD9206249 Si02
#       7
#     8   8   8   8   8   8   8
#     4  11  23  37  57  86 118 148 185 237 289 338
#     4   9  17  34  59  79 104 149 196 232 270 328
#     4   9  16  31  54  80 108 143 188 232 270 320
#     4   9  17  30  53  84 110 139 187 236 271 317
#     4  11  21  36  59  87 116 147 189 237 286 335
#     4  10  21  36  57  83 114 148 182 229 284 338
#     4  10  21  39  59  80 111 152 195 233 276 334
#
# _framework density 21.417867000000001
#
# number of rings (size 3 to 8) (size 9 to 14) (size 15 to 20)
#    0.000    2.143    2.857    0.857    2.000    1.143 
#    0.000    4.286    0.000    2.143    0.000    0.000 
#    0.000    0.000    0.000    0.000    0.000    0.000 
#
# Total GULP energy -156387.481065 kJ/mol
# GULP energy per Si atom -5585.267181 kJ/mol
# Density = 2.136912 g / cm^3
# Si number density = 21.417867 Si / 1000 Ang^3
#
#
#
# Elastic Constant Matrix: (Units=GPa)
#
#
# Indices 1 2 3 4 5 6 
#
# 1 175.4711 -5.3019 70.2821 -0.0002 23.4062 0.0025
# 2 -5.3019 47.8815 -8.7539 0.0004 4.3676 0.0037
# 3 70.2821 -8.7539 104.2048 0.0001 17.8688 -0.0009
# 4 -0.0002 0.0004 0.0001 12.3856 -0.0003 2.6834
# 5 23.4062 4.3676 17.8688 -0.0003 43.2985 -0.0002
# 6 0.0025 0.0037 -0.0009 2.6834 -0.0002 18.4540
#
#
#
# Elastic Compliance Matrix: (Units=1/GPa)
#
#
# Indices 1 2 3 4 5 6 
#
# 1 0.008010 0.000182 -0.004995 0.000000 -0.002287 -0.000001
# 2 0.000182 0.021607 0.002241 0.000000 -0.003203 -0.000004
# 3 -0.004995 0.002241 0.013699 -0.000001 -0.003179 0.000001
# 4 0.000000 0.000000 -0.000001 0.083365 0.000000 -0.012122
# 5 -0.002287 -0.003203 -0.003179 0.000000 0.025967 0.000001
# 6 -0.000001 -0.000004 0.000001 -0.012122 0.000001 0.055952
#
#
# Mechanical properties :
#
#
# Convention : Reuss Voigt Hill
#
# Bulk Modulus (GPa) = 26.19612 48.89001 37.54306
# Shear Modulus (GPa) = 22.07826 32.91636 27.49731
#
# Velocity S-wave (km/s) = 3.21414 3.92454 3.58697
# Velocity P-wave (km/s) = 5.10214 6.58880 5.89254
#
# Compressibility (1/GPa) = 0.03817359
#
# Stress axis : x y z
#
# Youngs Moduli (GPa) = 124.84029 46.28121 72.99835
#
# Poissons Ratio (x) = -0.00844 0.36463
# Poissons Ratio (y) = -0.02277 -0.16362
# Poissons Ratio (z) = 0.62359 -0.10373
#
# Static dielectric constant tensor:
#      x y z
#    x 1.747490 0.000000 0.017040 
#    y 0.000000 1.826300 0.000000 
#    z 0.017040 0.000000 1.756730 
# 
# From -- ./inp_files/319678.got.cif
#   From: 2010.05.17/outbox.cif.g08.bks.cpg/sg12_160_cif.got.tgz:319678.got - 2010.06.03 13:09:07.
