data_PCOD9206755
_publ_section_title
;
Structure prediction by ZEFSAII (Michael W. Deem and Ramdas Pophale) SiO2 
 PCOD9206755
Probable space group: C 2/M
;
_chemical_formula_sum "Si O2"
_cell_formula_units_Z 56
_cell_length_a 19.220888
_cell_length_b 19.897017
_cell_length_c 19.925047
_cell_angle_alpha 90.000000
_cell_angle_beta 159.658029
_cell_angle_gamma 90.000000
_cell_volume 2648.919543
_symmetry_space_group_name_H-M "C 2/M"
_symmetry_group_IT_number 12
_symmetry_cell_setting 'monoclinic'
loop_
_space_group_symop_operation_xyz
x,y,z
-x,y,-z
-x,-y,-z
x,-y,z
1/2+x,1/2+y,z
1/2-x,1/2+y,-z
1/2-x,1/2-y,-z
1/2+x,1/2-y,z
loop_
_atom_site_type_symbol
_atom_site_label
_atom_site_fract_x
_atom_site_fract_y
_atom_site_fract_z
Si Si1 0.938814 0.391552 0.185293
Si Si2 0.095244 0.259797 0.278667
Si Si3 0.302180 0.424503 0.156884
Si Si4 0.577885 0.425931 0.957781
Si Si5 0.135397 0.785150 0.062324
Si Si6 0.512016 0.305408 0.591171
Si Si7 0.840729 0.891386 0.620716
O O1 0.966122 0.311031 0.206324
O O2 0.139547 0.414906 0.403165
O O3 0.758524 0.416254 0.068033
O O4 0.892500 0.412328 0.066472
O O5 0.294652 0.296399 0.429572
O O6 0.147164 0.190121 0.362826
O O7 0.957412 0.240473 0.090945
O O8 0.295171 0.500000 0.178370
O O9 0.358206 0.366999 0.260802
O O10 0.482697 0.417621 0.266867
O O11 0.581618 0.500000 0.990187
O O12 0.611640 0.365080 0.038354
O O13 0.381736 0.415966 0.733532
O O14 0.360117 0.760982 0.276072
O O15 0.000000 0.757238 0.000000
O O16 0.500000 0.312098 0.500000
#
# Coordination Sequence:
#
# PCOD9206755 Si02
#       7
#     8   8   8   8   8   8   8
#     4  11  20  37  63  89 128 158 194 249 306 364
#     4  11  22  37  62  99 117 155 206 257 312 349
#     4  11  25  39  58  92 124 161 202 245 306 371
#     4  10  24  39  59  95 130 162 199 243 301 371
#     4  11  23  42  66  89 121 160 210 258 299 352
#     4  12  24  42  67  87 121 158 213 261 298 359
#     4  10  21  36  62  89 128 156 198 249 304 364
#
# _framework density 21.140694
#
# number of rings (size 3 to 8) (size 9 to 14) (size 15 to 20)
#    0.000    1.143    4.286    3.000    2.000    4.571 
#    0.000    0.000    0.000    1.714    0.000    0.000 
#    0.000    0.000    0.000    0.000    0.000    0.000 
#
# Total GULP energy -156429.465041 kJ/mol
# GULP energy per Si atom -5586.766609 kJ/mol
# Density = 2.109258 g / cm^3
# Si number density = 21.140694 Si / 1000 Ang^3
#
#
#
# Elastic Constant Matrix: (Units=GPa)
#
#
# Indices 1 2 3 4 5 6 
#
# 1 54.1682 12.8553 22.5917 -0.0141 -15.7789 -0.1021
# 2 12.8553 127.4817 30.6445 0.0351 -12.8180 0.0495
# 3 22.5917 30.6445 127.9830 0.0305 -18.1133 -0.0673
# 4 -0.0141 0.0351 0.0305 20.6835 0.0245 25.1510
# 5 -15.7789 -12.8180 -18.1133 0.0245 25.3413 -0.0452
# 6 -0.1021 0.0495 -0.0673 25.1510 -0.0452 72.4212
#
#
#
# Elastic Compliance Matrix: (Units=1/GPa)
#
#
# Indices 1 2 3 4 5 6 
#
# 1 0.023167 -0.000547 -0.002176 -0.000073 0.012593 0.000064
# 2 -0.000547 0.008561 -0.001545 -0.000015 0.002885 -0.000001
# 3 -0.002176 -0.001545 0.009195 -0.000050 0.004436 0.000027
# 4 -0.000073 -0.000015 -0.000050 0.083691 -0.000222 -0.029065
# 5 0.012593 0.002885 0.004436 -0.000222 0.051933 0.000129
# 6 0.000064 -0.000001 0.000027 -0.029065 0.000129 0.023902
#
#
# Mechanical properties :
#
#
# Convention : Reuss Voigt Hill
#
# Bulk Modulus (GPa) = 30.87629 49.09066 39.98347
# Shear Modulus (GPa) = 22.74988 39.92531 31.33760
#
# Velocity S-wave (km/s) = 3.28398 4.35046 3.85429
# Velocity P-wave (km/s) = 5.38667 6.96468 6.22587
#
# Compressibility (1/GPa) = 0.03238732
#
# Stress axis : x y z
#
# Youngs Moduli (GPa) = 43.16524 116.80992 108.74894
#
# Poissons Ratio (x) = 0.06388 0.23666
# Poissons Ratio (y) = 0.02360 0.16801
# Poissons Ratio (z) = 0.09393 0.18046
#
# Static dielectric constant tensor:
#      x y z
#    x 1.741500 -0.000020 -0.015180 
#    y -0.000020 1.804620 -0.000050 
#    z -0.015180 -0.000050 1.797000 
# 
# From -- ./inp_files/322748.got.cif
#   From: 2010.05.17/outbox.cif.g08.bks.cpg/sg12_162_cif.got.tgz:322748.got - 2010.06.03 13:09:07.
