data_PCOD9206133
_publ_section_title
;
Structure prediction by ZEFSAII (Michael W. Deem and Ramdas Pophale) SiO2 
 PCOD9206133
Probable space group: C 2/M
;
_chemical_formula_sum "Si O2"
_cell_formula_units_Z 56
_cell_length_a 13.387590
_cell_length_b 14.232892
_cell_length_c 24.322125
_cell_angle_alpha 90.000000
_cell_angle_beta 146.318211
_cell_angle_gamma 90.000000
_cell_volume 2570.166467
_symmetry_space_group_name_H-M "C 2/M"
_symmetry_group_IT_number 12
_symmetry_cell_setting 'monoclinic'
loop_
_space_group_symop_operation_xyz
x,y,z
-x,y,-z
-x,-y,-z
x,-y,z
1/2+x,1/2+y,z
1/2-x,1/2+y,-z
1/2-x,1/2-y,-z
1/2+x,1/2-y,z
loop_
_atom_site_type_symbol
_atom_site_label
_atom_site_fract_x
_atom_site_fract_y
_atom_site_fract_z
Si Si1 0.956091 0.784631 0.348557
Si Si2 0.548708 0.272852 0.811313
Si Si3 0.834859 0.396153 0.983895
Si Si4 0.191927 0.789461 0.603287
Si Si5 0.603011 0.263866 0.133509
Si Si6 0.290039 0.109922 0.537077
Si Si7 0.181836 0.892937 0.038856
O O1 0.847549 0.822525 0.352550
O O2 0.810617 0.764921 0.234677
O O3 0.124816 0.855315 0.422982
O O4 0.046889 0.681981 0.400296
O O5 0.677859 0.362560 0.871325
O O6 0.375899 0.268535 0.692937
O O7 0.464181 0.273892 0.834359
O O8 0.680691 0.181463 0.870051
O O9 0.896871 0.500000 0.001768
O O10 0.756203 0.393874 0.009910
O O11 0.992881 0.321179 0.056985
O O12 0.228917 0.865159 0.572126
O O13 0.000000 0.742430 0.500000
O O14 0.523005 0.354397 0.064837
O O15 0.329213 0.000000 0.549416
O O16 0.192788 0.000000 0.064020
#
# Coordination Sequence:
#
# PCOD9206133 Si02
#       7
#     8   8   8   8   8   8   8
#     4   9  19  35  54  77 111 145 177 224 276 319
#     4   8  14  25  41  65 100 133 167 213 264 309
#     4   8  13  22  39  65  93 124 168 215 256 306
#     4   9  18  33  54  77 105 141 180 219 263 319
#     4   8  14  25  42  67  96 132 173 212 257 315
#     4  10  21  36  56  83 111 142 183 226 269 321
#     4   8  13  21  37  64  96 128 166 212 259 310
#
# _framework density 21.788471000000001
#
# number of rings (size 3 to 8) (size 9 to 14) (size 15 to 20)
#    0.000    3.429    0.000    1.714    0.000    4.286 
#    0.000    7.857    0.000   22.286    0.000    6.000 
#    0.000    0.000    0.000    0.000    0.000    0.000 
#
# Total GULP energy -156024.041778 kJ/mol
# GULP energy per Si atom -5572.287206 kJ/mol
# Density = 2.173888 g / cm^3
# Si number density = 21.788471 Si / 1000 Ang^3
#
#
#
# Elastic Constant Matrix: (Units=GPa)
#
#
# Indices 1 2 3 4 5 6 
#
# 1 63.0291 -15.2873 -5.3600 0.0000 -6.7070 0.0000
# 2 -15.2873 98.9998 7.8261 0.0000 -13.3026 0.0000
# 3 -5.3600 7.8261 126.8207 0.0001 -2.4177 0.0000
# 4 0.0000 0.0000 0.0001 8.6356 0.0000 -5.6199
# 5 -6.7070 -13.3026 -2.4177 0.0000 33.8144 0.0000
# 6 0.0000 0.0000 0.0000 -5.6199 0.0000 16.4153
#
#
#
# Elastic Compliance Matrix: (Units=1/GPa)
#
#
# Indices 1 2 3 4 5 6 
#
# 1 0.017209 0.003245 0.000617 0.000000 0.004734 0.000000
# 2 0.003245 0.011319 -0.000465 0.000000 0.005063 0.000000
# 3 0.000617 -0.000465 0.007950 0.000000 0.000508 0.000000
# 4 0.000000 0.000000 0.000000 0.148996 0.000000 0.051010
# 5 0.004734 0.005063 0.000508 0.000000 0.032540 0.000000
# 6 0.000000 0.000000 0.000000 0.051010 0.000000 0.078382
#
#
# Mechanical properties :
#
#
# Convention : Reuss Voigt Hill
#
# Bulk Modulus (GPa) = 23.10965 29.24525 26.17745
# Shear Modulus (GPa) = 16.44593 31.88443 24.16518
#
# Velocity S-wave (km/s) = 2.75034 3.82954 3.33390
# Velocity P-wave (km/s) = 4.55140 5.74503 5.18269
#
# Compressibility (1/GPa) = 0.04327197
#
# Stress axis : x y z
#
# Youngs Moduli (GPa) = 58.10945 88.34575 125.79232
#
# Poissons Ratio (x) = -0.28665 -0.07766
# Poissons Ratio (y) = -0.18855 0.05847
# Poissons Ratio (z) = -0.03587 0.04107
#
# Static dielectric constant tensor:
#      x y z
#    x 1.976830 0.000000 -0.008710 
#    y 0.000000 1.719360 0.000000 
#    z -0.008710 0.000000 1.804240 
# 
# From -- ./inp_files/361477.got.cif
#   From: 2010.05.17/outbox.cif.g08.bks.cpg/sg12_181_cif.got.tgz:361477.got - 2010.06.03 13:09:07.
