data_PCOD9206029
_publ_section_title
;
Structure prediction by ZEFSAII (Michael W. Deem and Ramdas Pophale) SiO2 
 PCOD9206029
Probable space group: C 2/M
;
_chemical_formula_sum "Si O2"
_cell_formula_units_Z 56
_cell_length_a 15.434293
_cell_length_b 7.692190
_cell_length_c 18.812508
_cell_angle_alpha 90.000000
_cell_angle_beta 94.996717
_cell_angle_gamma 90.000000
_cell_volume 2224.999120
_symmetry_space_group_name_H-M "C 2/M"
_symmetry_group_IT_number 12
_symmetry_cell_setting 'monoclinic'
loop_
_space_group_symop_operation_xyz
x,y,z
-x,y,-z
-x,-y,-z
x,-y,z
1/2+x,1/2+y,z
1/2-x,1/2+y,-z
1/2-x,1/2-y,-z
1/2+x,1/2-y,z
loop_
_atom_site_type_symbol
_atom_site_label
_atom_site_fract_x
_atom_site_fract_y
_atom_site_fract_z
Si Si1 0.544131 0.710015 0.807585
Si Si2 0.905085 0.790125 0.336802
Si Si3 0.135318 0.295170 0.953381
Si Si4 0.938236 0.708157 0.557666
Si Si5 0.314408 0.802376 0.898078
Si Si6 0.352653 0.301597 0.750486
Si Si7 0.762040 0.301552 0.603886
O O1 0.547073 0.500000 0.810634
O O2 0.605715 0.766047 0.746092
O O3 0.564213 0.774747 0.887504
O O4 0.448520 0.763266 0.776422
O O5 0.832262 0.719550 0.386476
O O6 0.001262 0.742026 0.369762
O O7 0.898084 0.000000 0.337306
O O8 0.154344 0.500000 0.961470
O O9 0.219459 0.202462 0.926723
O O10 0.123290 0.234111 0.033908
O O11 0.930600 0.500000 0.548070
O O12 0.839701 0.775835 0.561035
O O13 0.000000 0.780865 0.500000
O O14 0.308841 0.700962 0.824555
O O15 0.338110 0.000000 0.881663
O O16 0.358217 0.500000 0.724507
O O17 0.304204 0.197419 0.685984
O O18 0.748826 0.500000 0.579119
#
# Coordination Sequence:
#
# PCOD9206029 Si02
#       7
#     8   8   8   8   8   8   8
#     4  10  21  36  55  81 116 151 191 249 304 351
#     4  10  21  39  61  87 118 156 201 243 293 355
#     4  10  21  36  56  81 109 148 199 246 293 355
#     4  10  22  40  61  90 126 158 194 242 294 352
#     4  10  21  37  55  78 112 151 192 244 302 355
#     4  11  22  36  57  85 114 149 198 248 295 355
#     4  10  21  38  62  88 119 161 201 243 299 356
#
# _framework density 25.168548999999999
#
# number of rings (size 3 to 8) (size 9 to 14) (size 15 to 20)
#    0.000    1.857    1.429    2.143    0.000    6.571 
#    0.000    2.857    0.000    0.000    0.000    0.000 
#    0.000    0.000    0.000    0.000    0.000    0.000 
#
# Total GULP energy -156459.315517 kJ/mol
# GULP energy per Si atom -5587.832697 kJ/mol
# Density = 2.511126 g / cm^3
# Si number density = 25.168549 Si / 1000 Ang^3
#
#
#
# Elastic Constant Matrix: (Units=GPa)
#
#
# Indices 1 2 3 4 5 6 
#
# 1 91.9740 4.9573 -6.3159 0.0000 -14.7353 0.0000
# 2 4.9573 60.7200 8.2782 0.0000 -3.3774 0.0000
# 3 -6.3159 8.2782 79.8234 0.0000 -1.3139 0.0000
# 4 0.0000 0.0000 0.0000 18.5175 0.0000 10.0569
# 5 -14.7353 -3.3774 -1.3139 0.0000 41.8885 0.0000
# 6 0.0000 0.0000 0.0000 10.0569 0.0000 16.0667
#
#
#
# Elastic Compliance Matrix: (Units=1/GPa)
#
#
# Indices 1 2 3 4 5 6 
#
# 1 0.011644 -0.000872 0.001079 0.000000 0.004060 0.000000
# 2 -0.000872 0.016841 -0.001799 0.000000 0.000995 0.000000
# 3 0.001079 -0.001799 0.012810 0.000000 0.000636 0.000000
# 4 0.000000 0.000000 0.000000 0.081817 0.000000 -0.051213
# 5 0.004060 0.000995 0.000636 0.000000 0.025401 0.000000
# 6 0.000000 0.000000 0.000000 -0.051213 0.000000 0.094298
#
#
# Mechanical properties :
#
#
# Convention : Reuss Voigt Hill
#
# Bulk Modulus (GPa) = 26.23976 27.37295 26.80635
# Shear Modulus (GPa) = 19.32747 30.33440 24.83094
#
# Velocity S-wave (km/s) = 2.77415 3.47544 3.14440
# Velocity P-wave (km/s) = 4.55076 5.19657 4.88435
#
# Compressibility (1/GPa) = 0.03811010
#
# Stress axis : x y z
#
# Youngs Moduli (GPa) = 85.88040 59.37948 78.06373
#
# Poissons Ratio (x) = 0.05177 -0.08420
# Poissons Ratio (y) = 0.07488 0.14045
# Poissons Ratio (z) = -0.09263 0.10683
#
# Static dielectric constant tensor:
#      x y z
#    x 2.031760 0.000000 -0.030130 
#    y 0.000000 1.933620 0.000000 
#    z -0.030130 0.000000 2.074320 
# 
# From -- ./inp_files/309008.got.cif
#   From: 2010.05.17/outbox.cif.g08.bks.cpg/sg12_155_cif.got.tgz:309008.got - 2010.06.03 13:09:07.
