data_PCOD9206765
_publ_section_title
;
Structure prediction by ZEFSAII (Michael W. Deem and Ramdas Pophale) SiO2 
 PCOD9206765
Probable space group: C 2/M
;
_chemical_formula_sum "Si O2"
_cell_formula_units_Z 48
_cell_length_a 21.593127
_cell_length_b 7.697838
_cell_length_c 33.094973
_cell_angle_alpha 90.000000
_cell_angle_beta 152.621073
_cell_angle_gamma 90.000000
_cell_volume 2529.789923
_symmetry_space_group_name_H-M "C 2/M"
_symmetry_group_IT_number 12
_symmetry_cell_setting 'monoclinic'
loop_
_space_group_symop_operation_xyz
x,y,z
-x,y,-z
-x,-y,-z
x,-y,z
1/2+x,1/2+y,z
1/2-x,1/2+y,-z
1/2-x,1/2-y,-z
1/2+x,1/2-y,z
loop_
_atom_site_type_symbol
_atom_site_label
_atom_site_fract_x
_atom_site_fract_y
_atom_site_fract_z
Si Si1 0.633293 0.708380 0.964277
Si Si2 0.668491 0.799445 0.229625
Si Si3 0.285287 0.000000 0.350544
Si Si4 0.364797 0.294726 0.942984
Si Si5 0.325406 0.292009 0.239243
Si Si6 0.890570 0.793580 0.560438
Si Si7 0.588879 0.000000 0.493426
O O1 0.617277 0.500000 0.955331
O O2 0.491198 0.787975 0.868660
O O3 0.750000 0.750000 0.000000
O O4 0.660634 0.770360 0.026253
O O5 0.714092 0.669918 0.291149
O O6 0.738943 0.737601 0.228562
O O7 0.708837 0.000000 0.260143
O O8 0.438420 0.000000 0.423554
O O9 0.300081 0.000000 0.407145
O O10 0.388416 0.500000 0.961315
O O11 0.242499 0.272679 0.841036
O O12 0.500000 0.220249 0.000000
O O13 0.317250 0.500000 0.233050
O O14 0.480443 0.245246 0.337113
O O15 0.750000 0.750000 0.500000
O O16 0.898158 0.672458 0.525807
O O17 0.899438 0.000000 0.557031
#
# Coordination Sequence:
#
# PCOD9206765 Si02
#       7
#     8   8   4   8   8   8   4
#     4  11  23  41  61  89 131 175 211 260 322 380
#     4  11  22  40  66  92 125 169 216 264 317 380
#     4  11  24  42  68  96 127 165 214 267 321 397
#     4  10  21  36  62  93 123 160 212 263 309 371
#     4  10  22  37  61  94 123 159 212 264 313 374
#     4  11  23  42  66  95 130 169 213 266 327 386
#     4  11  24  42  68  97 126 167 211 263 335 389
#
# _framework density 18.973907000000001
#
# number of rings (size 3 to 8) (size 9 to 14) (size 15 to 20)
#    0.000    1.333    5.000    0.500    2.333    2.333 
#    3.000    1.667    0.000    0.000    0.000    0.000 
#    0.000    0.000    0.000    0.000    0.000    0.000 
#
# Total GULP energy -134030.990098 kJ/mol
# GULP energy per Si atom -5584.624587 kJ/mol
# Density = 1.893072 g / cm^3
# Si number density = 18.973907 Si / 1000 Ang^3
#
#
#
# Elastic Constant Matrix: (Units=GPa)
#
#
# Indices 1 2 3 4 5 6 
#
# 1 110.3327 29.5890 83.0513 -0.0005 -9.6533 0.0009
# 2 29.5890 90.4282 33.2411 -0.0008 -17.6574 0.0030
# 3 83.0513 33.2411 150.4452 0.0005 -12.1356 -0.0003
# 4 -0.0005 -0.0008 0.0005 13.4696 0.0000 9.0334
# 5 -9.6533 -17.6574 -12.1356 0.0000 43.5738 -0.0001
# 6 0.0009 0.0030 -0.0003 9.0334 -0.0001 19.3365
#
#
#
# Elastic Compliance Matrix: (Units=1/GPa)
#
#
# Indices 1 2 3 4 5 6 
#
# 1 0.015887 -0.002082 -0.008280 0.000002 0.000370 -0.000001
# 2 -0.002082 0.013123 -0.001390 0.000003 0.004470 -0.000003
# 3 -0.008280 -0.001390 0.011592 -0.000002 0.000831 0.000002
# 4 0.000002 0.000003 -0.000002 0.108114 0.000001 -0.050508
# 5 0.000370 0.004470 0.000831 0.000001 0.025074 -0.000001
# 6 -0.000001 -0.000003 0.000002 -0.050508 -0.000001 0.075311
#
#
# Mechanical properties :
#
#
# Convention : Reuss Voigt Hill
#
# Bulk Modulus (GPa) = 58.48625 71.44099 64.96362
# Shear Modulus (GPa) = 17.96580 28.96430 23.46505
#
# Velocity S-wave (km/s) = 3.08046 3.91133 3.52049
# Velocity P-wave (km/s) = 6.59877 7.62443 7.13007
#
# Compressibility (1/GPa) = 0.01709803
#
# Stress axis : x y z
#
# Youngs Moduli (GPa) = 62.94351 76.19955 86.26581
#
# Poissons Ratio (x) = 0.15868 0.71432
# Poissons Ratio (y) = 0.13108 0.11987
# Poissons Ratio (z) = 0.52120 0.10588
#
# Static dielectric constant tensor:
#      x y z
#    x 1.662820 0.000000 -0.000720 
#    y 0.000000 1.670680 0.000000 
#    z -0.000720 0.000000 1.640500 
# 
# From -- ./inp_files/378583.got.cif
#   From: 2010.05.17/outbox.cif.g08.bks.cpg/sg12_190_cif.got.tgz:378583.got - 2010.06.03 13:09:07.
