data_PCOD9206428
_publ_section_title
;
Structure prediction by ZEFSAII (Michael W. Deem and Ramdas Pophale) SiO2 
 PCOD9206428
Probable space group: C 2/M
;
_chemical_formula_sum "Si O2"
_cell_formula_units_Z 64
_cell_length_a 20.088096
_cell_length_b 7.874867
_cell_length_c 31.065147
_cell_angle_alpha 90.000000
_cell_angle_beta 38.237653
_cell_angle_gamma 90.000000
_cell_volume 3041.537899
_symmetry_space_group_name_H-M "C 2/M"
_symmetry_group_IT_number 12
_symmetry_cell_setting 'monoclinic'
loop_
_space_group_symop_operation_xyz
x,y,z
-x,y,-z
-x,-y,-z
x,-y,z
1/2+x,1/2+y,z
1/2-x,1/2+y,-z
1/2-x,1/2-y,-z
1/2+x,1/2-y,z
loop_
_atom_site_type_symbol
_atom_site_label
_atom_site_fract_x
_atom_site_fract_y
_atom_site_fract_z
Si Si1 0.281766 0.700876 0.277251
Si Si2 0.956236 0.195403 0.618356
Si Si3 0.071206 0.303287 0.271771
Si Si4 0.634571 0.700782 0.674645
Si Si5 0.305828 0.295629 0.516931
Si Si6 0.666390 0.704550 0.005217
Si Si7 0.922919 0.207739 0.126016
Si Si8 0.288115 0.292541 0.114359
O O1 0.302070 0.500000 0.267086
O O2 0.154052 0.724646 0.341880
O O3 0.334466 0.768866 0.294095
O O4 0.338197 0.767148 0.205195
O O5 0.952643 0.206981 0.672004
O O6 0.071066 0.268357 0.545483
O O7 0.953627 0.000000 0.606173
O O8 0.090952 0.500000 0.273999
O O9 0.968313 0.290241 0.293584
O O10 0.176318 0.240607 0.193327
O O11 0.610219 0.500000 0.689543
O O12 0.734478 0.725084 0.591771
O O13 0.307413 0.500000 0.519099
O O14 0.250000 0.250000 0.500000
O O15 0.663174 0.500000 0.005018
O O16 0.700375 0.766755 0.940419
O O17 0.750000 0.750000 0.000000
O O18 0.543821 0.762839 0.075370
O O19 0.882814 0.259164 0.098963
O O20 0.921850 0.000000 0.126378
O O21 0.288181 0.500000 0.112984
#
# Coordination Sequence:
#
# PCOD9206428 Si02
#       8
#     8   8   8   8   8   8   8   8
#     4  10  22  40  61  86 118 157 199 241 295 356
#     4  11  23  39  61  89 118 149 195 250 297 350
#     4  11  21  36  61  87 117 156 199 246 295 352
#     4  11  24  39  58  88 122 154 198 247 295 354
#     4  11  23  39  61  86 117 156 197 245 299 354
#     4  10  21  36  58  87 119 154 191 238 291 343
#     4   9  17  35  61  84 110 151 198 240 282 338
#     4   9  18  34  59  88 112 147 202 244 279 341
#
# _framework density 21.041985
#
# number of rings (size 3 to 8) (size 9 to 14) (size 15 to 20)
#    0.000    1.750    2.500    1.875    1.750    4.500 
#    0.000    3.750    0.000    0.750    0.000    0.000 
#    0.000    0.000    0.000    0.000    0.000    0.000 
#
# Total GULP energy -178791.456652 kJ/mol
# GULP energy per Si atom -5587.233020 kJ/mol
# Density = 2.099409 g / cm^3
# Si number density = 21.041985 Si / 1000 Ang^3
#
#
#
# Elastic Constant Matrix: (Units=GPa)
#
#
# Indices 1 2 3 4 5 6 
#
# 1 123.8682 -13.6329 34.2868 -0.0005 -4.4860 0.0295
# 2 -13.6329 25.7013 -4.3379 0.0000 2.3351 0.0053
# 3 34.2868 -4.3379 89.1686 0.0010 -18.7038 0.0022
# 4 -0.0005 0.0000 0.0010 8.3949 -0.0041 -5.1445
# 5 -4.4860 2.3351 -18.7038 -0.0041 36.7374 0.0002
# 6 0.0295 0.0053 0.0022 -5.1445 0.0002 25.8934
#
#
#
# Elastic Compliance Matrix: (Units=1/GPa)
#
#
# Indices 1 2 3 4 5 6 
#
# 1 0.009549 0.004537 -0.003658 -0.000007 -0.000985 -0.000013
# 2 0.004537 0.041482 -0.000183 -0.000011 -0.002176 -0.000016
# 3 -0.003658 -0.000183 0.014018 0.000004 0.006702 0.000004
# 4 -0.000007 -0.000011 0.000004 0.135634 0.000016 0.026948
# 5 -0.000985 -0.002176 0.006702 0.000016 0.030650 0.000004
# 6 -0.000013 -0.000016 0.000004 0.026948 0.000004 0.043974
#
#
# Mechanical properties :
#
#
# Convention : Reuss Voigt Hill
#
# Bulk Modulus (GPa) = 15.05054 30.15224 22.60139
# Shear Modulus (GPa) = 16.88837 29.03329 22.96083
#
# Velocity S-wave (km/s) = 2.83610 3.71857 3.30690
# Velocity P-wave (km/s) = 4.22998 5.72692 5.03440
#
# Compressibility (1/GPa) = 0.06644281
#
# Stress axis : x y z
#
# Youngs Moduli (GPa) = 104.72021 24.10674 71.33690
#
# Poissons Ratio (x) = -0.10938 0.26092
# Poissons Ratio (y) = -0.47516 0.01306
# Poissons Ratio (z) = 0.38303 0.00441
#
# Static dielectric constant tensor:
#      x y z
#    x 1.734070 0.000000 -0.001650 
#    y 0.000000 1.775970 0.000000 
#    z -0.001650 0.000000 1.745130 
# 
# From -- ./inp_files/378017.got.cif
#   From: 2010.05.17/outbox.cif.g08.bks.cpg/sg12_190_cif.got.tgz:378017.got - 2010.06.03 13:09:07.
