data_PCOD9206551
_publ_section_title
;
Structure prediction by ZEFSAII (Michael W. Deem and Ramdas Pophale) SiO2 
 PCOD9206551
Probable space group: C 2/M
;
_chemical_formula_sum "Si O2"
_cell_formula_units_Z 42
_cell_length_a 21.748408
_cell_length_b 15.043402
_cell_length_c 9.010283
_cell_angle_alpha 90.000000
_cell_angle_beta 51.408718
_cell_angle_gamma 90.000000
_cell_volume 2304.119862
_symmetry_space_group_name_H-M "C 2/M"
_symmetry_group_IT_number 12
_symmetry_cell_setting 'monoclinic'
loop_
_space_group_symop_operation_xyz
x,y,z
-x,y,-z
-x,-y,-z
x,-y,z
1/2+x,1/2+y,z
1/2-x,1/2+y,-z
1/2-x,1/2-y,-z
1/2+x,1/2-y,z
loop_
_atom_site_type_symbol
_atom_site_label
_atom_site_fract_x
_atom_site_fract_y
_atom_site_fract_z
Si Si1 0.635417 0.000000 0.042557
Si Si2 0.000000 0.500000 0.500000
Si Si3 0.587525 0.338173 0.803750
Si Si4 0.685265 0.500000 0.143605
Si Si5 0.405217 0.862969 0.146262
Si Si6 0.861914 0.500000 0.461369
Si Si7 0.431789 0.601865 0.495274
Si Si8 0.820148 0.000000 0.191918
O O1 0.564729 0.000000 0.264834
O O2 0.627281 0.914282 0.947734
O O3 0.721562 0.000000 0.984039
O O4 0.073195 0.500000 0.509466
O O5 0.614157 0.240731 0.814844
O O6 0.582366 0.344700 0.632909
O O7 0.643691 0.414336 0.781554
O O8 0.500000 0.353535 0.000000
O O9 0.646020 0.583320 0.290013
O O10 0.658517 0.500000 0.013976
O O11 0.374688 0.914998 0.335957
O O12 0.500000 0.871066 0.000000
O O13 0.773545 0.500000 0.653384
O O14 0.500000 0.638185 0.500000
O O15 0.456926 0.500000 0.413463
#
# Coordination Sequence:
#
# PCOD9206551 Si02
#       8
#     4   2   8   4   8   4   8   4
#     4  11  21  41  69  85 122 158 210 261 315 364
#     4  12  20  42  72  88 116 164 204 268 320 354
#     4  11  23  39  64  91 125 165 205 253 303 377
#     4  10  21  36  59  89 120 164 198 256 315 354
#     4  10  22  42  63  89 119 163 206 254 307 366
#     4  11  23  41  65  89 120 154 214 261 309 372
#     4   9  19  37  59  86 122 167 204 239 305 373
#     4  12  23  38  61  95 124 162 208 252 307 372
#
# _framework density 18.228218999999999
#
# number of rings (size 3 to 8) (size 9 to 14) (size 15 to 20)
#    0.571    0.952    3.810    2.000    5.333    0.762 
#    1.714    2.857    0.000    0.000    0.000    0.000 
#    0.000    0.000    0.000    0.000    0.000    0.000 
#
# Total GULP energy -116921.238083 kJ/mol
# GULP energy per Si atom -5567.678004 kJ/mol
# Density = 1.818673 g / cm^3
# Si number density = 18.228219 Si / 1000 Ang^3
#
#
#
# Elastic Constant Matrix: (Units=GPa)
#
#
# Indices 1 2 3 4 5 6 
#
# 1 134.4641 54.7258 61.5595 0.0000 6.9048 0.0000
# 2 54.7258 92.4041 47.8905 0.0000 -1.0362 0.0000
# 3 61.5595 47.8905 129.0658 0.0000 10.2171 0.0000
# 4 0.0000 0.0000 0.0000 -779.7956 0.0000 21.7868
# 5 6.9048 -1.0362 10.2171 0.0000 41.0636 0.0000
# 6 0.0000 0.0000 0.0000 21.7868 0.0000 -6.1041
#
#
#
# Elastic Compliance Matrix: (Units=1/GPa)
#
#
# Indices 1 2 3 4 5 6 
#
# 1 0.010982 -0.004764 -0.003381 0.000000 -0.001126 0.000000
# 2 -0.004764 0.015570 -0.003672 0.000000 0.002108 0.000000
# 3 -0.003381 -0.003672 0.010900 0.000000 -0.002236 0.000000
# 4 0.000000 0.000000 0.000000 -0.001424 0.000000 -0.005084
# 5 -0.001126 0.002108 -0.002236 0.000000 0.025151 0.000000
# 6 0.000000 0.000000 0.000000 -0.005084 0.000000 -0.181971
#
#
# Mechanical properties :
#
#
# Convention : Reuss Voigt Hill
#
# Bulk Modulus (GPa) = 72.37011 76.03174 74.20092
# Shear Modulus (GPa) = -54.02364 -136.18335 -95.10349
#
# Velocity S-wave (km/s) = -5.44993 -8.65288 -7.23098
# Velocity P-wave (km/s) = 0.43145 7.61763 5.37783
#
# Compressibility (1/GPa) = 0.01381786
#
# Stress axis : x y z
#
# Youngs Moduli (GPa) = 91.06206 64.22498 91.74246
#
# Poissons Ratio (x) = 0.30598 0.31017
# Poissons Ratio (y) = 0.43383 0.33687
# Poissons Ratio (z) = 0.30787 0.23583
#
# Static dielectric constant tensor:
#      x y z
#    x 1.604780 0.000000 -0.002740 
#    y 0.000000 1.621900 0.000000 
#    z -0.002740 0.000000 1.622840 
# 
# From -- ./inp_files/73577.got.cif
#   From: 2010.05.17/outbox.cif.g08.bks.cpg/sg12_37_cif.got.tgz:73577.got - 2010.06.03 13:09:07.
