data_PCOD9206225
_publ_section_title
;
Structure prediction by ZEFSAII (Michael W. Deem and Ramdas Pophale) SiO2 
 PCOD9206225
Probable space group: C 2/M
;
_chemical_formula_sum "Si O2"
_cell_formula_units_Z 44
_cell_length_a 15.046512
_cell_length_b 11.857466
_cell_length_c 16.536121
_cell_angle_alpha 90.000000
_cell_angle_beta 127.632681
_cell_angle_gamma 90.000000
_cell_volume 2336.439089
_symmetry_space_group_name_H-M "C 2/M"
_symmetry_group_IT_number 12
_symmetry_cell_setting 'monoclinic'
loop_
_space_group_symop_operation_xyz
x,y,z
-x,y,-z
-x,-y,-z
x,-y,z
1/2+x,1/2+y,z
1/2-x,1/2+y,-z
1/2-x,1/2-y,-z
1/2+x,1/2-y,z
loop_
_atom_site_type_symbol
_atom_site_label
_atom_site_fract_x
_atom_site_fract_y
_atom_site_fract_z
Si Si1 0.447903 0.500000 0.100567
Si Si2 0.000000 0.701745 0.500000
Si Si3 0.180716 0.000000 0.131753
Si Si4 0.322345 0.204000 0.280424
Si Si5 0.828518 0.632010 0.692316
Si Si6 0.359756 0.373038 0.531329
Si Si7 0.994403 0.198154 0.247560
O O1 0.564719 0.500000 0.116785
O O2 0.449221 0.610682 0.157230
O O3 0.350072 0.500000 0.979882
O O4 0.908556 0.644654 0.391740
O O5 0.928973 0.782653 0.519170
O O6 0.248143 0.889166 0.195588
O O7 0.247360 0.293655 0.289004
O O8 0.398023 0.270420 0.257563
O O9 0.830234 0.500000 0.714994
O O10 0.768549 0.639145 0.569840
O O11 0.950393 0.688412 0.757017
O O12 0.392639 0.500000 0.524858
O O13 0.399833 0.358177 0.645453
#
# Coordination Sequence:
#
# PCOD9206225 Si02
#       7
#     4   4   4   8   8   8   8
#     4  11  24  42  68  82 111 157 213 243 294 341
#     4   8  17  31  52  90 122 156 184 230 294 358
#     4  11  24  45  62  85 113 160 197 260 295 337
#     4  10  22  38  63  87 124 153 197 237 298 348
#     4  10  21  36  56  89 127 158 186 237 295 356
#     4   9  16  29  53  84 122 157 192 228 283 351
#     4  11  21  37  61  90 116 156 198 245 287 355
#
# _framework density 18.832077000000002
#
# number of rings (size 3 to 8) (size 9 to 14) (size 15 to 20)
#    0.000    2.000    2.727    0.818    2.545    3.273 
#    0.000    0.000    0.000    1.091    0.000    0.000 
#    0.000    0.000    0.000    0.000    0.000    0.000 
#
# Total GULP energy -122677.131837 kJ/mol
# GULP energy per Si atom -5576.233265 kJ/mol
# Density = 1.878921 g / cm^3
# Si number density = 18.832077 Si / 1000 Ang^3
#
#
#
# Elastic Constant Matrix: (Units=GPa)
#
#
# Indices 1 2 3 4 5 6 
#
# 1 53.6667 14.9383 21.8510 0.0000 -9.4308 0.0000
# 2 14.9383 99.9419 68.9102 0.0000 -5.8475 0.0000
# 3 21.8510 68.9102 149.4981 0.0000 -12.8597 0.0000
# 4 0.0000 0.0000 0.0000 28.2014 0.0000 -15.9165
# 5 -9.4308 -5.8475 -12.8597 0.0000 19.7357 0.0000
# 6 0.0000 0.0000 0.0000 -15.9165 0.0000 -20.2221
#
#
#
# Elastic Compliance Matrix: (Units=1/GPa)
#
#
# Indices 1 2 3 4 5 6 
#
# 1 0.021249 -0.001527 -0.001661 0.000000 0.008620 0.000000
# 2 -0.001527 0.014777 -0.006647 0.000000 -0.000682 0.000000
# 3 -0.001661 -0.006647 0.010337 0.000000 0.003973 0.000000
# 4 0.000000 0.000000 0.000000 0.024552 0.000000 -0.019325
# 5 0.008620 -0.000682 0.003973 0.000000 0.057175 0.000000
# 6 0.000000 0.000000 0.000000 -0.019325 0.000000 -0.034241
#
#
# Mechanical properties :
#
#
# Convention : Reuss Voigt Hill
#
# Bulk Modulus (GPa) = 37.45997 57.16729 47.31363
# Shear Modulus (GPa) = 40.84362 18.70350 29.77356
#
# Velocity S-wave (km/s) = 4.66212 3.15488 3.98050
# Velocity P-wave (km/s) = 6.99395 6.61009 6.80473
#
# Compressibility (1/GPa) = 0.02669516
#
# Stress axis : x y z
#
# Youngs Moduli (GPa) = 47.06013 67.67174 96.73614
#
# Poissons Ratio (x) = 0.10332 0.16064
# Poissons Ratio (y) = 0.07185 0.64301
# Poissons Ratio (z) = 0.07815 0.44981
#
# Static dielectric constant tensor:
#      x y z
#    x 1.650840 0.000000 -0.001410 
#    y 0.000000 1.647300 0.000000 
#    z -0.001410 0.000000 1.681040 
# 
# From -- ./inp_files/269023.got.cif
#   From: 2010.05.17/outbox.cif.g08.bks.cpg/sg12_135_cif.got.tgz:269023.got - 2010.06.03 13:09:07.
