data_PCOD9206705
_publ_section_title
;
Structure prediction by ZEFSAII (Michael W. Deem and Ramdas Pophale) SiO2 
 PCOD9206705
Probable space group: C 2/M
;
_chemical_formula_sum "Si O2"
_cell_formula_units_Z 40
_cell_length_a 7.613558
_cell_length_b 25.379196
_cell_length_c 11.005546
_cell_angle_alpha 90.000000
_cell_angle_beta 120.971518
_cell_angle_gamma 90.000000
_cell_volume 1823.359716
_symmetry_space_group_name_H-M "C 2/M"
_symmetry_group_IT_number 12
_symmetry_cell_setting 'monoclinic'
loop_
_space_group_symop_operation_xyz
x,y,z
-x,y,-z
-x,-y,-z
x,-y,z
1/2+x,1/2+y,z
1/2-x,1/2+y,-z
1/2-x,1/2-y,-z
1/2+x,1/2-y,z
loop_
_atom_site_type_symbol
_atom_site_label
_atom_site_fract_x
_atom_site_fract_y
_atom_site_fract_z
Si Si1 0.775184 0.152221 0.367636
Si Si2 0.100275 0.440633 0.167067
Si Si3 0.574723 0.091702 0.647991
Si Si4 0.285945 0.772870 0.854811
Si Si5 0.083320 0.837298 0.152538
O O1 0.757109 0.105258 0.260307
O O2 0.603781 0.135888 0.403000
O O3 0.712551 0.205630 0.280472
O O4 0.000000 0.154677 0.500000
O O5 0.185406 0.500000 0.192625
O O6 0.946794 0.437587 0.229186
O O7 0.000000 0.429570 0.000000
O O8 0.500000 0.062132 0.500000
O O9 0.791887 0.120909 0.724814
O O10 0.268758 0.709852 0.842930
O O11 0.098967 0.804501 0.849174
O O12 0.500000 0.784749 0.000000
O O13 0.000000 0.863817 0.000000
#
# Coordination Sequence:
#
# PCOD9206705 Si02
#       5
#     8   8   8   8   8
#     4  10  21  36  61  88 124 162 206 253 305 368
#     4   9  21  41  68  91 121 163 209 257 308 370
#     4  10  22  39  58  92 128 160 203 251 315 363
#     4  11  21  37  58  90 122 169 212 255 300 369
#     4  11  22  35  60  87 127 168 212 253 307 362
#
# _framework density 21.937525999999998
#
# number of rings (size 3 to 8) (size 9 to 14) (size 15 to 20)
#    1.200    0.600    0.000    6.600    2.800    1.600 
#    0.000    4.000    0.000    0.600    0.000    0.000 
#    0.000    0.000    0.000    0.000    0.000    0.000 
#
# Total GULP energy -111440.002478 kJ/mol
# GULP energy per Si atom -5572.000124 kJ/mol
# Density = 2.188759 g / cm^3
# Si number density = 21.937526 Si / 1000 Ang^3
#
#
#
# Elastic Constant Matrix: (Units=GPa)
#
#
# Indices 1 2 3 4 5 6 
#
# 1 75.3569 -4.6720 19.3675 0.0000 4.0751 0.0000
# 2 -4.6720 62.4468 49.0286 0.0000 9.0650 0.0000
# 3 19.3675 49.0286 161.7325 0.0000 -0.8591 0.0000
# 4 0.0000 0.0000 0.0000 -12.7372 0.0000 3.4330
# 5 4.0751 9.0650 -0.8591 0.0000 41.2956 0.0000
# 6 0.0000 0.0000 0.0000 3.4330 0.0000 12.8791
#
#
#
# Elastic Compliance Matrix: (Units=1/GPa)
#
#
# Indices 1 2 3 4 5 6 
#
# 1 0.014344 0.003623 -0.002828 0.000000 -0.002270 0.000000
# 2 0.003623 0.022904 -0.007406 0.000000 -0.005539 0.000000
# 3 -0.002828 -0.007406 0.008778 0.000000 0.002088 0.000000
# 4 0.000000 0.000000 0.000000 -0.073248 0.000000 0.019525
# 5 -0.002270 -0.005539 0.002088 0.000000 0.025699 0.000000
# 6 0.000000 0.000000 0.000000 0.019525 0.000000 0.072441
#
#
# Mechanical properties :
#
#
# Convention : Reuss Voigt Hill
#
# Bulk Modulus (GPa) = 30.48483 47.44272 38.96377
# Shear Modulus (GPa) = 52.58965 24.00832 38.29898
#
# Velocity S-wave (km/s) = 4.90148 3.31175 4.18283
# Velocity P-wave (km/s) = 6.77931 6.02469 6.41311
#
# Compressibility (1/GPa) = 0.03280320
#
# Stress axis : x y z
#
# Youngs Moduli (GPa) = 69.71365 43.66082 113.92041
#
# Poissons Ratio (x) = -0.15819 0.32218
# Poissons Ratio (y) = -0.25258 0.84375
# Poissons Ratio (z) = 0.19716 0.32337
#
# Static dielectric constant tensor:
#      x y z
#    x 1.895780 0.000000 -0.074320 
#    y 0.000000 1.771870 0.000000 
#    z -0.074320 0.000000 1.828910 
# 
# From -- ./inp_files/124902.got.cif
#   From: 2010.05.17/outbox.cif.g08.bks.cpg/sg12_63_cif.got.tgz:124902.got - 2010.06.03 13:09:07.
