data_PCOD9206928
_publ_section_title
;
Structure prediction by ZEFSAII (Michael W. Deem and Ramdas Pophale) SiO2 
 PCOD9206928
Probable space group: C 2/M
;
_chemical_formula_sum "Si O2"
_cell_formula_units_Z 56
_cell_length_a 19.474313
_cell_length_b 7.692811
_cell_length_c 19.191135
_cell_angle_alpha 90.000000
_cell_angle_beta 56.192971
_cell_angle_gamma 90.000000
_cell_volume 2388.939241
_symmetry_space_group_name_H-M "C 2/M"
_symmetry_group_IT_number 12
_symmetry_cell_setting 'monoclinic'
loop_
_space_group_symop_operation_xyz
x,y,z
-x,y,-z
-x,-y,-z
x,-y,z
1/2+x,1/2+y,z
1/2-x,1/2+y,-z
1/2-x,1/2-y,-z
1/2+x,1/2-y,z
loop_
_atom_site_type_symbol
_atom_site_label
_atom_site_fract_x
_atom_site_fract_y
_atom_site_fract_z
Si Si1 0.165512 0.802012 0.587278
Si Si2 0.042253 0.292073 0.122380
Si Si3 0.362061 0.198944 0.243362
Si Si4 0.641342 0.289920 0.205793
Si Si5 0.300768 0.208149 0.041352
Si Si6 0.567888 0.799651 0.513670
Si Si7 0.818491 0.212099 0.670662
O O1 0.250000 0.750000 0.500000
O O2 0.145849 0.697386 0.668127
O O3 0.091788 0.785517 0.572807
O O4 0.173344 0.000000 0.605189
O O5 0.037543 0.500000 0.115375
O O6 0.081320 0.266941 0.177584
O O7 0.107604 0.224072 0.027944
O O8 0.949581 0.219948 0.173102
O O9 0.275517 0.272346 0.266154
O O10 0.363560 0.000000 0.216855
O O11 0.640812 0.500000 0.204289
O O12 0.625803 0.237667 0.294276
O O13 0.735320 0.229930 0.135441
O O14 0.307815 0.000000 0.046324
O O15 0.250000 0.250000 0.000000
O O16 0.500000 0.718874 0.500000
O O17 0.648484 0.789018 0.419380
O O18 0.545984 0.000000 0.539361
O O19 0.818862 0.000000 0.664327
#
# Coordination Sequence:
#
# PCOD9206928 Si02
#       7
#     8   8   8   8   8   8   8
#     4  12  24  40  62  84 109 145 186 225 273 328
#     4   9  18  32  53  79 106 141 182 224 272 320
#     4  10  21  37  55  78 110 146 184 225 269 324
#     4   9  18  32  52  79 108 140 181 226 274 322
#     4   8  14  28  49  74 105 138 176 222 268 320
#     4  11  25  42  60  83 111 143 183 229 275 325
#     4  10  21  37  55  77 109 147 181 222 275 326
#
# _framework density 23.441365000000001
#
# number of rings (size 3 to 8) (size 9 to 14) (size 15 to 20)
#    0.000    2.143    1.429    1.714    2.000    2.286 
#    0.000    0.714    0.000    4.286    0.000    0.000 
#    0.000   13.714    0.000    0.000    0.000    0.000 
#
# Total GULP energy -156261.843528 kJ/mol
# GULP energy per Si atom -5580.780126 kJ/mol
# Density = 2.338801 g / cm^3
# Si number density = 23.441365 Si / 1000 Ang^3
#
#
#
# Elastic Constant Matrix: (Units=GPa)
#
#
# Indices 1 2 3 4 5 6 
#
# 1 80.2264 -3.0454 -5.9356 0.0000 -15.6434 0.0004
# 2 -3.0454 57.8684 -8.4317 0.0007 -2.5621 0.0004
# 3 -5.9356 -8.4317 26.1955 0.0000 -7.4754 -0.0002
# 4 0.0000 0.0007 0.0000 9.8501 -0.0001 -1.8599
# 5 -15.6434 -2.5621 -7.4754 -0.0001 46.0777 0.0000
# 6 0.0004 0.0004 -0.0002 -1.8599 0.0000 13.0415
#
#
#
# Elastic Compliance Matrix: (Units=1/GPa)
#
#
# Indices 1 2 3 4 5 6 
#
# 1 0.014052 0.001780 0.005396 0.000000 0.005745 0.000000
# 2 0.001780 0.018543 0.007171 -0.000001 0.002799 -0.000001
# 3 0.005396 0.007171 0.044397 -0.000001 0.009434 0.000000
# 4 0.000000 -0.000001 -0.000001 0.104331 0.000000 0.014879
# 5 0.005745 0.002799 0.009434 0.000000 0.025339 0.000000
# 6 0.000000 -0.000001 0.000000 0.014879 0.000000 0.078800
#
#
# Mechanical properties :
#
#
# Convention : Reuss Voigt Hill
#
# Bulk Modulus (GPa) = 9.46195 14.38498 11.92347
# Shear Modulus (GPa) = 17.12350 25.90741 21.51545
#
# Velocity S-wave (km/s) = 2.70568 3.32806 3.03288
# Velocity P-wave (km/s) = 3.71566 4.57361 4.16677
#
# Compressibility (1/GPa) = 0.10568640
#
# Stress axis : x y z
#
# Youngs Moduli (GPa) = 71.16526 53.92882 22.52385
#
# Poissons Ratio (x) = -0.09600 -0.12155
# Poissons Ratio (y) = -0.12668 -0.16151
# Poissons Ratio (z) = -0.38404 -0.38670
#
# Static dielectric constant tensor:
#      x y z
#    x 1.900230 0.000000 -0.061210 
#    y 0.000000 1.865540 0.000000 
#    z -0.061210 0.000000 1.928670 
# 
# From -- ./inp_files/275142.got.cif
#   From: 2010.05.17/outbox.cif.g08.bks.cpg/sg12_138_cif.got.tgz:275142.got - 2010.06.03 13:09:07.
