data_PCOD9206061
_publ_section_title
;
Structure prediction by ZEFSAII (Michael W. Deem and Ramdas Pophale) SiO2 
 PCOD9206061
Probable space group: C 2/M
;
_chemical_formula_sum "Si O2"
_cell_formula_units_Z 64
_cell_length_a 14.603036
_cell_length_b 9.606532
_cell_length_c 23.219126
_cell_angle_alpha 90.000000
_cell_angle_beta 95.537676
_cell_angle_gamma 90.000000
_cell_volume 3242.082356
_symmetry_space_group_name_H-M "C 2/M"
_symmetry_group_IT_number 12
_symmetry_cell_setting 'monoclinic'
loop_
_space_group_symop_operation_xyz
x,y,z
-x,y,-z
-x,-y,-z
x,-y,z
1/2+x,1/2+y,z
1/2-x,1/2+y,-z
1/2-x,1/2-y,-z
1/2+x,1/2-y,z
loop_
_atom_site_type_symbol
_atom_site_label
_atom_site_fract_x
_atom_site_fract_y
_atom_site_fract_z
Si Si1 0.479772 0.667047 0.400829
Si Si2 0.306993 0.339294 0.458512
Si Si3 0.913044 0.335876 0.159796
Si Si4 0.303067 0.334299 0.867200
Si Si5 0.318692 0.161459 0.755574
Si Si6 0.861468 0.660164 0.630836
Si Si7 0.902523 0.159987 0.270166
Si Si8 0.550534 0.834943 0.063285
O O1 0.489234 0.500000 0.405261
O O2 0.407713 0.710363 0.445612
O O3 0.576907 0.743035 0.405624
O O4 0.436783 0.701625 0.335460
O O5 0.313884 0.500000 0.478270
O O6 0.250000 0.250000 0.500000
O O7 0.243290 0.338256 0.397449
O O8 0.919705 0.500000 0.172404
O O9 0.806596 0.307452 0.136486
O O10 0.935782 0.253298 0.219255
O O11 0.979591 0.303826 0.110810
O O12 0.317724 0.500000 0.867854
O O13 0.336601 0.262824 0.809720
O O14 0.359854 0.258119 0.920552
O O15 0.364215 0.202751 0.697823
O O16 0.208599 0.164434 0.738351
O O17 0.343528 0.000000 0.770511
O O18 0.893272 0.500000 0.628670
O O19 0.930943 0.000000 0.262637
O O20 0.573430 0.000000 0.067088
O O21 0.500000 0.808211 0.000000
#
# Coordination Sequence:
#
# PCOD9206061 Si02
#       8
#     8   8   8   8   8   8   8   8
#     4  10  21  37  57  84 116 148 185 232 283 333
#     4  10  22  42  62  81 113 154 193 235 279 330
#     4   9  20  37  55  80 113 146 182 230 280 328
#     4  10  21  36  55  83 115 144 180 234 286 327
#     4   9  17  34  58  81 111 150 186 222 274 340
#     4  10  21  37  58  84 113 148 188 230 277 333
#     4   9  17  33  57  82 111 147 184 224 276 337
#     4  10  22  40  59  79 109 152 195 229 273 338
#
# _framework density 19.740399
#
# number of rings (size 3 to 8) (size 9 to 14) (size 15 to 20)
#    0.000    2.375    1.250    0.375    1.750    4.250 
#    0.000    2.500    0.000    0.000    0.000    0.000 
#    0.000    0.000    0.000    0.000    0.000    0.000 
#
# Total GULP energy -178703.990535 kJ/mol
# GULP energy per Si atom -5584.499704 kJ/mol
# Density = 1.969547 g / cm^3
# Si number density = 19.740399 Si / 1000 Ang^3
#
#
#
# Elastic Constant Matrix: (Units=GPa)
#
#
# Indices 1 2 3 4 5 6 
#
# 1 65.8964 19.1649 10.6172 0.0000 -6.9787 0.0000
# 2 19.1649 25.4904 18.8253 0.0000 -3.3202 0.0000
# 3 10.6172 18.8253 58.1232 0.0000 -2.1273 0.0000
# 4 0.0000 0.0000 0.0000 30.1615 0.0000 1.4845
# 5 -6.9787 -3.3202 -2.1273 0.0000 32.7915 0.0000
# 6 0.0000 0.0000 0.0000 1.4845 0.0000 22.5263
#
#
#
# Elastic Compliance Matrix: (Units=1/GPa)
#
#
# Indices 1 2 3 4 5 6 
#
# 1 0.019766 -0.015660 0.001561 0.000000 0.002722 0.000000
# 2 -0.015660 0.064539 -0.017968 0.000000 0.002036 0.000000
# 3 0.001561 -0.017968 0.022739 0.000000 -0.000012 0.000000
# 4 0.000000 0.000000 0.000000 0.033263 0.000000 -0.002192
# 5 0.002722 0.002036 -0.000012 0.000000 0.031280 0.000000
# 6 0.000000 0.000000 0.000000 -0.002192 0.000000 0.044537
#
#
# Mechanical properties :
#
#
# Convention : Reuss Voigt Hill
#
# Bulk Modulus (GPa) = 23.30421 27.41387 25.35904
# Shear Modulus (GPa) = 16.97431 23.82271 20.39851
#
# Velocity S-wave (km/s) = 2.93555 3.47767 3.21805
# Velocity P-wave (km/s) = 4.82917 5.48114 5.16545
#
# Compressibility (1/GPa) = 0.04291070
#
# Stress axis : x y z
#
# Youngs Moduli (GPa) = 50.59067 15.49442 43.97733
#
# Poissons Ratio (x) = 0.24264 -0.06864
# Poissons Ratio (y) = 0.79223 0.79020
# Poissons Ratio (z) = -0.07897 0.27841
#
# Static dielectric constant tensor:
#      x y z
#    x 1.711630 0.000000 0.023130 
#    y 0.000000 1.661590 0.000000 
#    z 0.023130 0.000000 1.691430 
# 
# From -- ./inp_files/338753.got.cif
#   From: 2010.05.17/outbox.cif.g08.bks.cpg/sg12_170_cif.got.tgz:338753.got - 2010.06.03 13:09:07.
