data_PCOD9206678
_publ_section_title
;
Structure prediction by ZEFSAII (Michael W. Deem and Ramdas Pophale) SiO2 
 PCOD9206678
Probable space group: C 2/M
;
_chemical_formula_sum "Si O2"
_cell_formula_units_Z 48
_cell_length_a 15.976495
_cell_length_b 13.062049
_cell_length_c 26.328215
_cell_angle_alpha 90.000000
_cell_angle_beta 158.474148
_cell_angle_gamma 90.000000
_cell_volume 2015.982678
_symmetry_space_group_name_H-M "C 2/M"
_symmetry_group_IT_number 12
_symmetry_cell_setting 'monoclinic'
loop_
_space_group_symop_operation_xyz
x,y,z
-x,y,-z
-x,-y,-z
x,-y,z
1/2+x,1/2+y,z
1/2-x,1/2+y,-z
1/2-x,1/2-y,-z
1/2+x,1/2-y,z
loop_
_atom_site_type_symbol
_atom_site_label
_atom_site_fract_x
_atom_site_fract_y
_atom_site_fract_z
Si Si1 0.633918 0.715027 0.627400
Si Si2 0.047178 0.684021 0.679855
Si Si3 0.077419 0.885592 0.973733
Si Si4 0.193447 0.500000 0.394386
Si Si5 0.250852 0.814702 0.873693
Si Si6 0.484378 0.608562 0.811575
Si Si7 0.242505 0.000000 0.688221
O O1 0.500000 0.685167 0.500000
O O2 0.492366 0.771792 0.592507
O O3 0.811514 0.799635 0.710153
O O4 0.779577 0.616148 0.728532
O O5 0.304396 0.636098 0.820839
O O6 0.085267 0.786097 0.734433
O O7 0.898065 0.599256 0.625778
O O8 0.135363 0.880156 0.947212
O O9 0.122344 0.000000 0.018378
O O10 0.202754 0.796367 0.073941
O O11 0.467272 0.500000 0.544460
O O12 0.147005 0.500000 0.306770
O O13 0.137396 0.888242 0.849096
O O14 0.500000 0.852640 0.000000
O O15 0.360479 0.500000 0.747103
#
# Coordination Sequence:
#
# PCOD9206678 Si02
#       7
#     8   8   8   4   8   8   4
#     4  11  23  46  66  91 128 170 220 266 325 388
#     4  10  22  36  65  94 127 162 217 266 314 382
#     4   9  18  36  62  92 121 162 211 260 313 374
#     4  11  20  40  64  96 126 168 207 280 314 368
#     4  10  21  36  60  93 126 164 210 263 320 379
#     4  10  22  41  63  89 129 170 209 262 321 388
#     4  11  24  44  66  90 131 170 215 270 331 374
#
# _framework density 23.809728
#
# number of rings (size 3 to 8) (size 9 to 14) (size 15 to 20)
#    0.000    1.833    2.500    1.500    2.333    2.333 
#    3.000    0.000   11.000    0.000    0.000    0.000 
#    0.000    0.000    0.000    0.000    0.000    0.000 
#
# Total GULP energy -133940.422335 kJ/mol
# GULP energy per Si atom -5580.850931 kJ/mol
# Density = 2.375554 g / cm^3
# Si number density = 23.809728 Si / 1000 Ang^3
#
#
#
# Elastic Constant Matrix: (Units=GPa)
#
#
# Indices 1 2 3 4 5 6 
#
# 1 163.1927 34.6576 21.7658 -0.0008 7.0594 0.0008
# 2 34.6576 120.5754 17.6575 0.0088 9.6065 -0.0014
# 3 21.7658 17.6575 46.4989 0.0102 7.9346 -0.0009
# 4 -0.0008 0.0088 0.0102 11.7200 0.0040 8.3359
# 5 7.0594 9.6065 7.9346 0.0040 24.1520 -0.0016
# 6 0.0008 -0.0014 -0.0009 8.3359 -0.0016 50.9382
#
#
#
# Elastic Compliance Matrix: (Units=1/GPa)
#
#
# Indices 1 2 3 4 5 6 
#
# 1 0.006815 -0.001548 -0.002508 0.000005 -0.000552 -0.000001
# 2 -0.001548 0.009283 -0.002381 -0.000005 -0.002458 0.000001
# 3 -0.002508 -0.002381 0.024681 -0.000020 -0.006428 0.000004
# 4 0.000005 -0.000005 -0.000020 0.096564 -0.000010 -0.015802
# 5 -0.000552 -0.002458 -0.006428 -0.000010 0.044655 0.000003
# 6 -0.000001 0.000001 0.000004 -0.015802 0.000003 0.022218
#
#
# Mechanical properties :
#
#
# Convention : Reuss Voigt Hill
#
# Bulk Modulus (GPa) = 35.83590 53.15877 44.49734
# Shear Modulus (GPa) = 22.08568 34.44111 28.26340
#
# Velocity S-wave (km/s) = 3.04894 3.80743 3.44910
# Velocity P-wave (km/s) = 5.24198 6.45784 5.88141
#
# Compressibility (1/GPa) = 0.02790497
#
# Stress axis : x y z
#
# Youngs Moduli (GPa) = 146.73995 107.72485 40.51688
#
# Poissons Ratio (x) = 0.16671 0.10162
# Poissons Ratio (y) = 0.22708 0.09649
# Poissons Ratio (z) = 0.36803 0.25653
#
# Static dielectric constant tensor:
#      x y z
#    x 1.979440 0.000000 -0.033130 
#    y 0.000000 1.914380 -0.000010 
#    z -0.033130 -0.000010 1.964940 
# 
# From -- ./inp_files/361108.got.cif
#   From: 2010.05.17/outbox.cif.g08.bks.cpg/sg12_181_cif.got.tgz:361108.got - 2010.06.03 13:09:07.
