data_PCOD9206887
_publ_section_title
;
Structure prediction by ZEFSAII (Michael W. Deem and Ramdas Pophale) SiO2 
 PCOD9206887
Probable space group: C 2/M
;
_chemical_formula_sum "Si O2"
_cell_formula_units_Z 64
_cell_length_a 8.604308
_cell_length_b 23.250308
_cell_length_c 17.156739
_cell_angle_alpha 90.000000
_cell_angle_beta 99.932264
_cell_angle_gamma 90.000000
_cell_volume 3380.812462
_symmetry_space_group_name_H-M "C 2/M"
_symmetry_group_IT_number 12
_symmetry_cell_setting 'monoclinic'
loop_
_space_group_symop_operation_xyz
x,y,z
-x,y,-z
-x,-y,-z
x,-y,z
1/2+x,1/2+y,z
1/2-x,1/2+y,-z
1/2-x,1/2-y,-z
1/2+x,1/2-y,z
loop_
_atom_site_type_symbol
_atom_site_label
_atom_site_fract_x
_atom_site_fract_y
_atom_site_fract_z
Si Si1 0.613602 0.066919 0.329126
Si Si2 0.173433 0.799732 0.045113
Si Si3 0.241462 0.243323 0.329999
Si Si4 0.053517 0.391739 0.920914
Si Si5 0.425833 0.671089 0.801531
Si Si6 0.792027 0.439428 0.209714
Si Si7 0.552035 0.181179 0.415351
Si Si8 0.230765 0.649177 0.209342
O O1 0.432697 0.065691 0.283753
O O2 0.608852 0.117389 0.393762
O O3 0.715064 0.093980 0.266131
O O4 0.656575 0.000000 0.351490
O O5 0.300370 0.849800 0.051001
O O6 0.140634 0.788979 0.134207
O O7 0.250000 0.750000 0.000000
O O8 0.000000 0.815119 0.000000
O O9 0.110273 0.200485 0.283959
O O10 0.401444 0.206343 0.353096
O O11 0.235843 0.296068 0.267741
O O12 0.189244 0.273511 0.405485
O O13 0.118507 0.437116 0.865111
O O14 0.916261 0.356859 0.862600
O O15 0.000000 0.414051 0.000000
O O16 0.323785 0.613593 0.796187
O O17 0.607952 0.654900 0.824553
O O18 0.707923 0.500000 0.212758
O O19 0.500000 0.180594 0.500000
#
# Coordination Sequence:
#
# PCOD9206887 Si02
#       8
#     8   8   8   8   8   8   8   8
#     4   9  19  38  61  86 117 152 200 246 288 348
#     4  11  25  35  50  80 117 153 189 240 296 349
#     4  11  22  37  56  87 118 153 192 230 283 357
#     4  10  21  37  54  80 113 146 196 243 295 344
#     4  11  22  35  59  81 114 155 195 241 290 351
#     4   9  19  37  58  80 108 149 198 247 291 343
#     4  11  22  38  61  89 122 155 188 237 295 353
#     4  10  22  37  59  85 116 157 199 243 287 346
#
# _framework density 18.93036
#
# number of rings (size 3 to 8) (size 9 to 14) (size 15 to 20)
#    0.000    1.750    2.500    1.500    7.000    1.000 
#    0.000    0.000    0.000   12.750    0.000    0.875 
#    0.000    0.000    0.000    0.000    0.000    0.000 
#
# Total GULP energy -178318.914448 kJ/mol
# GULP energy per Si atom -5572.466076 kJ/mol
# Density = 1.888727 g / cm^3
# Si number density = 18.930360 Si / 1000 Ang^3
#
#
#
# Elastic Constant Matrix: (Units=GPa)
#
#
# Indices 1 2 3 4 5 6 
#
# 1 82.8018 32.2635 4.9160 0.0000 -5.9019 0.0000
# 2 32.2635 115.1100 28.7317 0.0000 -6.9279 0.0000
# 3 4.9160 28.7317 70.9268 0.0000 -18.7397 0.0000
# 4 0.0000 0.0000 0.0000 -3.4691 0.0000 -4.2704
# 5 -5.9019 -6.9279 -18.7397 0.0000 31.3999 0.0000
# 6 0.0000 0.0000 0.0000 -4.2704 0.0000 13.5704
#
#
#
# Elastic Compliance Matrix: (Units=1/GPa)
#
#
# Indices 1 2 3 4 5 6 
#
# 1 0.013749 -0.004038 0.001342 0.000000 0.002494 0.000000
# 2 -0.004038 0.010852 -0.004374 0.000000 -0.000975 0.000000
# 3 0.001342 -0.004374 0.018508 0.000000 0.010333 0.000000
# 4 0.000000 0.000000 0.000000 -0.207772 0.000000 -0.065382
# 5 0.002494 -0.000975 0.010333 0.000000 0.038268 0.000000
# 6 0.000000 0.000000 0.000000 -0.065382 0.000000 0.053115
#
#
# Mechanical properties :
#
#
# Convention : Reuss Voigt Hill
#
# Bulk Modulus (GPa) = 34.52059 44.51791 39.51925
# Shear Modulus (GPa) = -101.04309 21.82873 -39.60718
#
# Velocity S-wave (km/s) = -7.31383 3.39943 -4.57908
# Velocity P-wave (km/s) = 7.28338 6.24306 2.65252
#
# Compressibility (1/GPa) = 0.02896822
#
# Stress axis : x y z
#
# Youngs Moduli (GPa) = 72.73430 92.14659 54.03103
#
# Poissons Ratio (x) = 0.37212 -0.07251
# Poissons Ratio (y) = 0.29373 0.23632
# Poissons Ratio (z) = -0.09760 0.40304
#
# Static dielectric constant tensor:
#      x y z
#    x 1.650510 0.000000 -0.015100 
#    y 0.000000 1.657670 0.000000 
#    z -0.015100 0.000000 1.703230 
# 
# From -- ./inp_files/258932.got.cif
#   From: 2010.05.17/outbox.cif.g08.bks.cpg/sg12_130_cif.got.tgz:258932.got - 2010.06.03 13:09:07.
