data_PCOD9206834
_publ_section_title
;
Structure prediction by ZEFSAII (Michael W. Deem and Ramdas Pophale) SiO2 
 PCOD9206834
Probable space group: C 2/M
;
_chemical_formula_sum "Si O2"
_cell_formula_units_Z 48
_cell_length_a 23.300986
_cell_length_b 8.598298
_cell_length_c 20.435752
_cell_angle_alpha 90.000000
_cell_angle_beta 136.112321
_cell_angle_gamma 90.000000
_cell_volume 2838.345954
_symmetry_space_group_name_H-M "C 2/M"
_symmetry_group_IT_number 12
_symmetry_cell_setting 'monoclinic'
loop_
_space_group_symop_operation_xyz
x,y,z
-x,y,-z
-x,-y,-z
x,-y,z
1/2+x,1/2+y,z
1/2-x,1/2+y,-z
1/2-x,1/2-y,-z
1/2+x,1/2-y,z
loop_
_atom_site_type_symbol
_atom_site_label
_atom_site_fract_x
_atom_site_fract_y
_atom_site_fract_z
Si Si1 0.595533 0.188625 0.721815
Si Si2 0.658516 0.313579 0.911395
Si Si3 0.055359 0.186835 0.954274
Si Si4 0.383162 0.814604 0.858750
Si Si5 0.204806 0.688851 0.685152
Si Si6 0.443439 0.819461 0.519233
O O1 0.624486 0.251022 0.814866
O O2 0.660011 0.230997 0.717012
O O3 0.504254 0.246906 0.624435
O O4 0.593134 0.000000 0.721332
O O5 0.661547 0.500000 0.911918
O O6 0.599416 0.267271 0.923195
O O7 0.750000 0.250000 0.000000
O O8 0.962249 0.249597 0.884598
O O9 0.054274 0.000000 0.958194
O O10 0.105233 0.252110 0.057666
O O11 0.296417 0.755442 0.759459
O O12 0.386219 0.000000 0.862004
O O13 0.207438 0.500000 0.684946
O O14 0.144273 0.745848 0.576935
O O15 0.500000 0.820035 0.500000
O O16 0.428543 0.000000 0.524383
#
# Coordination Sequence:
#
# PCOD9206834 Si02
#       6
#     8   8   8   8   8   8
#     4   9  17  30  50  74 100 130 161 196 237 279
#     4  11  23  35  50  72  98 129 161 194 234 284
#     4  10  21  37  52  67  92 129 166 194 232 287
#     4  11  21  32  50  75  98 121 155 203 248 279
#     4   9  16  29  50  74 100 130 162 193 231 285
#     4   7  12  25  46  71  96 125 162 196 228 275
#
# _framework density 16.911259000000001
#
# number of rings (size 3 to 8) (size 9 to 14) (size 15 to 20)
#    0.000    2.500    0.000    6.500    0.000    7.333 
#    0.000    0.833    0.000    4.000    0.000    0.000 
#    0.000    0.000    0.000    0.000    0.000    0.000 
#
# Total GULP energy -133789.918693 kJ/mol
# GULP energy per Si atom -5574.579946 kJ/mol
# Density = 1.687277 g / cm^3
# Si number density = 16.911259 Si / 1000 Ang^3
#
#
#
# Elastic Constant Matrix: (Units=GPa)
#
#
# Indices 1 2 3 4 5 6 
#
# 1 73.3362 27.0027 74.5342 0.0000 -0.8954 0.0000
# 2 27.0027 38.9423 32.1045 0.0000 2.2506 0.0000
# 3 74.5342 32.1045 184.4929 0.0000 15.2626 0.0000
# 4 0.0000 0.0000 0.0000 18.6179 0.0000 -4.2566
# 5 -0.8954 2.2506 15.2626 0.0000 26.4234 0.0000
# 6 0.0000 0.0000 0.0000 -4.2566 0.0000 20.2932
#
#
#
# Elastic Compliance Matrix: (Units=1/GPa)
#
#
# Indices 1 2 3 4 5 6 
#
# 1 0.028222 -0.011779 -0.009991 0.000000 0.007731 0.000000
# 2 -0.011779 0.034902 -0.001088 0.000000 -0.002743 0.000000
# 3 -0.009991 -0.001088 0.010151 0.000000 -0.006110 0.000000
# 4 0.000000 0.000000 0.000000 0.056417 0.000000 0.011834
# 5 0.007731 -0.002743 -0.006110 0.000000 0.041870 0.000000
# 6 0.000000 0.000000 0.000000 0.011834 0.000000 0.051760
#
#
# Mechanical properties :
#
#
# Convention : Reuss Voigt Hill
#
# Bulk Modulus (GPa) = 36.28573 62.67269 49.47921
# Shear Modulus (GPa) = 17.97112 23.94224 20.95668
#
# Velocity S-wave (km/s) = 3.26340 3.76674 3.52407
# Velocity P-wave (km/s) = 5.97519 7.48719 6.77351
#
# Compressibility (1/GPa) = 0.02755904
#
# Stress axis : x y z
#
# Youngs Moduli (GPa) = 35.43365 28.65167 98.50823
#
# Poissons Ratio (x) = 0.33748 0.98422
# Poissons Ratio (y) = 0.41737 0.10717
# Poissons Ratio (z) = 0.35403 0.03117
#
# Static dielectric constant tensor:
#      x y z
#    x 1.550570 0.000000 0.009590 
#    y 0.000000 1.574280 0.000000 
#    z 0.009590 0.000000 1.588960 
# 
# From -- ./inp_files/323877.got.cif
#   From: 2010.05.17/outbox.cif.g08.bks.cpg/sg12_162_cif.got.tgz:323877.got - 2010.06.03 13:09:07.
