data_PCOD9206080
_publ_section_title
;
Structure prediction by ZEFSAII (Michael W. Deem and Ramdas Pophale) SiO2 
 PCOD9206080
Probable space group: C 2/M
;
_chemical_formula_sum "Si O2"
_cell_formula_units_Z 40
_cell_length_a 15.387733
_cell_length_b 8.474706
_cell_length_c 31.100991
_cell_angle_alpha 90.000000
_cell_angle_beta 150.416640
_cell_angle_gamma 90.000000
_cell_volume 2002.291237
_symmetry_space_group_name_H-M "C 2/M"
_symmetry_group_IT_number 12
_symmetry_cell_setting 'monoclinic'
loop_
_space_group_symop_operation_xyz
x,y,z
-x,y,-z
-x,-y,-z
x,-y,z
1/2+x,1/2+y,z
1/2-x,1/2+y,-z
1/2-x,1/2-y,-z
1/2+x,1/2-y,z
loop_
_atom_site_type_symbol
_atom_site_label
_atom_site_fract_x
_atom_site_fract_y
_atom_site_fract_z
Si Si1 0.208293 0.818586 0.093683
Si Si2 0.799056 0.688142 0.722846
Si Si3 0.390573 0.679528 0.093415
Si Si4 0.989751 0.188994 0.268883
Si Si5 0.925519 0.190360 0.598066
O O1 0.289532 0.696222 0.095124
O O2 0.302615 0.772784 0.178532
O O3 0.259049 0.000000 0.104494
O O4 0.000000 0.809573 0.000000
O O5 0.798012 0.500000 0.717034
O O6 0.880491 0.762361 0.714432
O O7 0.602849 0.743490 0.649790
O O8 0.928683 0.730198 0.818452
O O9 0.428876 0.500000 0.098161
O O10 0.250000 0.750000 0.000000
O O11 0.061527 0.237864 0.346297
O O12 0.967294 0.000000 0.258967
O O13 0.750000 0.250000 0.500000
O O14 0.925469 0.000000 0.597118
#
# Coordination Sequence:
#
# PCOD9206080 Si02
#       5
#     8   8   8   8   8
#     4  10  21  36  55  85 118 153 198 241 291 354
#     4  10  21  40  61  87 120 157 198 247 299 357
#     4  11  22  36  56  84 117 157 198 241 294 352
#     4  10  21  39  60  87 119 157 199 245 300 357
#     4  10  24  42  63  90 119 154 201 248 303 361
#
# _framework density 19.977112999999999
#
# number of rings (size 3 to 8) (size 9 to 14) (size 15 to 20)
#    0.000    1.800    0.000    6.000    2.800    5.600 
#    0.000    4.000    0.000    0.000    0.000    0.000 
#    0.000    0.000    0.000    0.000    0.000    0.000 
#
# Total GULP energy -111634.202024 kJ/mol
# GULP energy per Si atom -5581.710101 kJ/mol
# Density = 1.993164 g / cm^3
# Si number density = 19.977113 Si / 1000 Ang^3
#
#
#
# Elastic Constant Matrix: (Units=GPa)
#
#
# Indices 1 2 3 4 5 6 
#
# 1 80.3918 13.6856 74.8125 0.0000 -0.9115 0.0000
# 2 13.6856 56.2466 26.9790 0.0000 -0.7753 0.0001
# 3 74.8125 26.9790 197.0599 -0.0001 -1.9211 0.0000
# 4 0.0000 0.0000 -0.0001 37.3574 0.0000 -0.8664
# 5 -0.9115 -0.7753 -1.9211 0.0000 38.6665 0.0000
# 6 0.0000 0.0001 0.0000 -0.8664 0.0000 24.9240
#
#
#
# Elastic Compliance Matrix: (Units=1/GPa)
#
#
# Indices 1 2 3 4 5 6 
#
# 1 0.019319 -0.001265 -0.007160 0.000000 0.000074 0.000000
# 2 -0.001265 0.019114 -0.002134 0.000000 0.000247 0.000000
# 3 -0.007160 -0.002134 0.008087 0.000000 0.000190 0.000000
# 4 0.000000 0.000000 0.000000 0.026790 0.000000 0.000931
# 5 0.000074 0.000247 0.000190 0.000000 0.025878 0.000000
# 6 0.000000 0.000000 0.000000 0.000931 0.000000 0.040154
#
#
# Mechanical properties :
#
#
# Convention : Reuss Voigt Hill
#
# Bulk Modulus (GPa) = 39.36937 62.73917 51.05427
# Shear Modulus (GPa) = 29.59845 34.73765 32.16805
#
# Velocity S-wave (km/s) = 3.85335 4.17450 4.01714
# Velocity P-wave (km/s) = 6.28871 7.39655 6.86501
#
# Compressibility (1/GPa) = 0.02540046
#
# Stress axis : x y z
#
# Youngs Moduli (GPa) = 51.76353 52.31851 123.65547
#
# Poissons Ratio (x) = 0.06618 0.88541
# Poissons Ratio (y) = 0.06548 0.26390
# Poissons Ratio (z) = 0.37064 0.11166
#
# Static dielectric constant tensor:
#      x y z
#    x 1.726690 0.000000 -0.011580 
#    y 0.000000 1.682810 0.000000 
#    z -0.011580 0.000000 1.724510 
# 
# From -- ./inp_files/249513.got.cif
#   From: 2010.05.17/outbox.cif.g08.bks.cpg/sg12_125_cif.got.tgz:249513.got - 2010.06.03 13:09:07.
