data_PCOD9206132
_publ_section_title
;
Structure prediction by ZEFSAII (Michael W. Deem and Ramdas Pophale) SiO2 
 PCOD9206132
Probable space group: C 2/M
;
_chemical_formula_sum "Si O2"
_cell_formula_units_Z 34
_cell_length_a 27.650778
_cell_length_b 13.216395
_cell_length_c 8.156745
_cell_angle_alpha 90.000000
_cell_angle_beta 25.238835
_cell_angle_gamma 90.000000
_cell_volume 1271.003633
_symmetry_space_group_name_H-M "C 2/M"
_symmetry_group_IT_number 12
_symmetry_cell_setting 'monoclinic'
loop_
_space_group_symop_operation_xyz
x,y,z
-x,y,-z
-x,-y,-z
x,-y,z
1/2+x,1/2+y,z
1/2-x,1/2+y,-z
1/2-x,1/2-y,-z
1/2+x,1/2-y,z
loop_
_atom_site_type_symbol
_atom_site_label
_atom_site_fract_x
_atom_site_fract_y
_atom_site_fract_z
Si Si1 0.825647 0.392153 0.376271
Si Si2 0.561500 0.110178 0.487778
Si Si3 0.670587 0.669509 0.560746
Si Si4 0.079243 0.835965 0.503978
Si Si5 0.000000 0.000000 0.500000
O O1 0.794624 0.500000 0.545719
O O2 0.762206 0.383264 0.395063
O O3 0.798600 0.288113 0.547864
O O4 0.959331 0.392278 0.932499
O O5 0.500000 0.113519 0.500000
O O6 0.613394 0.221005 0.354202
O O7 0.619803 0.000000 0.320780
O O8 0.650757 0.627933 0.441255
O O9 0.551426 0.664544 0.025267
O O10 0.072383 0.911095 0.374607
#
# Coordination Sequence:
#
# PCOD9206132 Si02
#       5
#     8   8   8   8   2
#     4   9  18  33  57  83 108 141 181 230 274 316
#     4   9  17  34  57  76 107 143 179 227 276 320
#     4   9  20  36  57  82 109 141 189 226 267 324
#     4  10  21  36  56  83 108 148 186 221 271 327
#     4  12  24  34  54  84 116 150 178 220 272 336
#
# _framework density 26.750513000000002
#
# number of rings (size 3 to 8) (size 9 to 14) (size 15 to 20)
#    0.000    2.588    1.176    0.000    3.294    1.882 
#    0.000    5.882    0.000    0.000    0.000    0.000 
#    0.000    0.000    0.000    0.000    0.000    0.000 
#
# Total GULP energy -94905.604948 kJ/mol
# GULP energy per Si atom -5582.682644 kJ/mol
# Density = 2.668963 g / cm^3
# Si number density = 26.750513 Si / 1000 Ang^3
#
#
#
# Elastic Constant Matrix: (Units=GPa)
#
#
# Indices 1 2 3 4 5 6 
#
# 1 115.9846 23.0466 1.9018 0.0000 3.4944 0.0000
# 2 23.0466 170.2122 37.2688 0.0000 -5.7091 0.0000
# 3 1.9018 37.2688 110.9972 0.0000 -8.7542 0.0000
# 4 0.0000 0.0000 0.0000 23.8825 0.0000 -8.9933
# 5 3.4944 -5.7091 -8.7542 0.0000 15.6340 0.0000
# 6 0.0000 0.0000 0.0000 -8.9933 0.0000 -32.5566
#
#
#
# Elastic Compliance Matrix: (Units=1/GPa)
#
#
# Indices 1 2 3 4 5 6 
#
# 1 0.008955 -0.001315 0.000097 0.000000 -0.002428 0.000000
# 2 -0.001315 0.006555 -0.002057 0.000000 0.001536 0.000000
# 3 0.000097 -0.002057 0.010083 0.000000 0.004873 0.000000
# 4 0.000000 0.000000 0.000000 0.037927 0.000000 -0.010477
# 5 -0.002428 0.001536 0.004873 0.000000 0.067795 0.000000
# 6 0.000000 0.000000 0.000000 -0.010477 0.000000 -0.027822
#
#
# Mechanical properties :
#
#
# Convention : Reuss Voigt Hill
#
# Bulk Modulus (GPa) = 52.51819 57.95873 55.23846
# Shear Modulus (GPa) = 42.95882 23.72376 33.34129
#
# Velocity S-wave (km/s) = 4.01172 2.98124 3.53424
# Velocity P-wave (km/s) = 6.41356 5.79343 6.11137
#
# Compressibility (1/GPa) = 0.01904102
#
# Stress axis : x y z
#
# Youngs Moduli (GPa) = 111.67330 152.55442 99.18014
#
# Poissons Ratio (x) = 0.20062 -0.00959
# Poissons Ratio (y) = 0.14686 0.20404
# Poissons Ratio (z) = -0.01079 0.31385
#
# Static dielectric constant tensor:
#      x y z
#    x 2.019270 0.000000 0.018720 
#    y 0.000000 2.006750 0.000000 
#    z 0.018720 0.000000 2.184680 
# 
# From -- ./inp_files/70803.got.cif
#   From: 2010.05.17/outbox.cif.g08.bks.cpg/sg12_36_cif.got.tgz:70803.got - 2010.06.03 13:09:07.
