data_PCOD9206371
_publ_section_title
;
Structure prediction by ZEFSAII (Michael W. Deem and Ramdas Pophale) SiO2 
 PCOD9206371
Probable space group: C 2/M
;
_chemical_formula_sum "Si O2"
_cell_formula_units_Z 44
_cell_length_a 16.309409
_cell_length_b 20.101803
_cell_length_c 7.971169
_cell_angle_alpha 90.000000
_cell_angle_beta 55.815013
_cell_angle_gamma 90.000000
_cell_volume 2161.824270
_symmetry_space_group_name_H-M "C 2/M"
_symmetry_group_IT_number 12
_symmetry_cell_setting 'monoclinic'
loop_
_space_group_symop_operation_xyz
x,y,z
-x,y,-z
-x,-y,-z
x,-y,z
1/2+x,1/2+y,z
1/2-x,1/2+y,-z
1/2-x,1/2-y,-z
1/2+x,1/2-y,z
loop_
_atom_site_type_symbol
_atom_site_label
_atom_site_fract_x
_atom_site_fract_y
_atom_site_fract_z
Si Si1 0.218219 0.928554 0.399494
Si Si2 0.291793 0.199045 0.159767
Si Si3 0.610974 0.422586 0.867304
Si Si4 0.000000 0.651358 0.000000
Si Si5 0.919691 0.575778 0.386779
Si Si6 0.293852 0.835882 0.771083
O O1 0.223349 0.863722 0.282671
O O2 0.140141 0.922817 0.638069
O O3 0.322819 0.928867 0.378463
O O4 0.207169 0.000000 0.324401
O O5 0.238054 0.266433 0.277779
O O6 0.399370 0.193249 0.122039
O O7 0.312645 0.189126 0.937946
O O8 0.610804 0.500000 0.924035
O O9 0.696449 0.382657 0.866378
O O10 0.500000 0.395038 0.000000
O O11 0.999085 0.606034 0.832897
O O12 0.942037 0.500000 0.412426
O O13 0.883240 0.623889 0.579139
#
# Coordination Sequence:
#
# PCOD9206371 Si02
#       6
#     8   8   8   4   8   8
#     4   8  16  32  54  78 106 141 177 220 271 321
#     4  10  22  37  53  80 112 146 185 225 271 332
#     4   9  18  34  57  83 107 138 186 229 267 324
#     4  10  21  36  58  82 109 142 186 232 273 328
#     4   9  18  35  58  82 109 142 182 227 276 330
#     4  10  21  37  54  78 114 147 181 224 278 328
#
# _framework density 20.353179999999998
#
# number of rings (size 3 to 8) (size 9 to 14) (size 15 to 20)
#    0.000    2.727    0.000    1.909    1.273    9.455 
#    0.000    1.818    0.000    3.273    0.000    0.000 
#    0.000    0.000    0.000    0.000    0.000    0.000 
#
# Total GULP energy -122570.486759 kJ/mol
# GULP energy per Si atom -5571.385762 kJ/mol
# Density = 2.030686 g / cm^3
# Si number density = 20.353180 Si / 1000 Ang^3
#
#
#
# Elastic Constant Matrix: (Units=GPa)
#
#
# Indices 1 2 3 4 5 6 
#
# 1 34.3596 17.3258 6.6407 0.0000 -7.2810 0.0000
# 2 17.3258 107.0055 6.5287 0.0000 2.2310 0.0000
# 3 6.6407 6.5287 30.3091 0.0000 -6.6471 0.0000
# 4 0.0000 0.0000 0.0000 25.7248 0.0000 -1.4331
# 5 -7.2810 2.2310 -6.6471 0.0000 25.8644 0.0000
# 6 0.0000 0.0000 0.0000 -1.4331 0.0000 67.3493
#
#
#
# Elastic Compliance Matrix: (Units=1/GPa)
#
#
# Indices 1 2 3 4 5 6 
#
# 1 0.034677 -0.005536 -0.004408 0.000000 0.009106 0.000000
# 2 -0.005536 0.010403 -0.001660 0.000000 -0.002882 0.000000
# 3 -0.004408 -0.001660 0.036111 0.000000 0.008183 0.000000
# 4 0.000000 0.000000 0.000000 0.038919 0.000000 0.000828
# 5 0.009106 -0.002882 0.008183 0.000000 0.043578 0.000000
# 6 0.000000 0.000000 0.000000 0.000828 0.000000 0.014866
#
#
# Mechanical properties :
#
#
# Convention : Reuss Voigt Hill
#
# Bulk Modulus (GPa) = 17.24631 25.85165 21.54898
# Shear Modulus (GPa) = 22.61520 33.19961 27.90740
#
# Velocity S-wave (km/s) = 3.33699 4.04316 3.70693
# Velocity P-wave (km/s) = 4.83107 5.87583 5.37887
#
# Compressibility (1/GPa) = 0.05798343
#
# Stress axis : x y z
#
# Youngs Moduli (GPa) = 28.83759 96.12615 27.69205
#
# Poissons Ratio (x) = 0.53212 0.12207
# Poissons Ratio (y) = 0.15963 0.04597
# Poissons Ratio (z) = 0.12712 0.15958
#
# Static dielectric constant tensor:
#      x y z
#    x 1.756930 0.000000 0.012780 
#    y 0.000000 1.766470 0.000000 
#    z 0.012780 0.000000 1.748850 
# 
# From -- ./inp_files/75695.got.cif
#   From: 2010.05.17/outbox.cif.g08.bks.cpg/sg12_38_cif.got.tgz:75695.got - 2010.06.03 13:09:07.
