data_PCOD9206839
_publ_section_title
;
Structure prediction by ZEFSAII (Michael W. Deem and Ramdas Pophale) SiO2 
 PCOD9206839
Probable space group: C 2/M
;
_chemical_formula_sum "Si O2"
_cell_formula_units_Z 42
_cell_length_a 29.537518
_cell_length_b 7.331991
_cell_length_c 7.725299
_cell_angle_alpha 90.000000
_cell_angle_beta 81.494660
_cell_angle_gamma 90.000000
_cell_volume 1654.658697
_symmetry_space_group_name_H-M "C 2/M"
_symmetry_group_IT_number 12
_symmetry_cell_setting 'monoclinic'
loop_
_space_group_symop_operation_xyz
x,y,z
-x,y,-z
-x,-y,-z
x,-y,z
1/2+x,1/2+y,z
1/2-x,1/2+y,-z
1/2-x,1/2-y,-z
1/2+x,1/2-y,z
loop_
_atom_site_type_symbol
_atom_site_label
_atom_site_fract_x
_atom_site_fract_y
_atom_site_fract_z
Si Si1 0.236761 0.283474 0.703147
Si Si2 0.549563 0.223244 0.037365
Si Si3 0.166484 0.778467 0.221623
Si Si4 0.926041 0.793557 0.576834
Si Si5 0.000000 0.500000 0.500000
Si Si6 0.860032 0.295669 0.149152
O O1 0.233305 0.500000 0.742043
O O2 0.250000 0.250000 0.500000
O O3 0.281421 0.216774 0.779960
O O4 0.186168 0.204789 0.757423
O O5 0.589220 0.284221 0.882149
O O6 0.550557 0.000000 0.048045
O O7 0.500000 0.276886 0.000000
O O8 0.559803 0.288993 0.226024
O O9 0.127719 0.734477 0.387219
O O10 0.166196 0.000000 0.210488
O O11 0.149934 0.698025 0.050887
O O12 0.961779 0.657557 0.472619
O O13 0.929125 0.000000 0.512249
O O14 0.863145 0.500000 0.220343
#
# Coordination Sequence:
#
# PCOD9206839 Si02
#       6
#     8   8   8   8   2   8
#     4  10  21  37  52  81 118 150 188 238 293 350
#     4   9  17  34  57  84 117 151 194 247 294 344
#     4   9  19  36  58  80 111 146 191 243 291 342
#     4  10  21  38  59  86 116 155 199 245 289 353
#     4  12  22  40  58  86 120 156 202 238 298 346
#     4   9  18  33  57  83 107 147 198 238 283 345
#
# _framework density 25.38288
#
# number of rings (size 3 to 8) (size 9 to 14) (size 15 to 20)
#    0.000    2.476    0.952    0.857    1.333    1.905 
#    3.429    0.000    0.000    0.000    0.000    0.000 
#    0.000    0.000    0.000    0.000    0.000    0.000 
#
# Total GULP energy -117095.293271 kJ/mol
# GULP energy per Si atom -5575.966346 kJ/mol
# Density = 2.532511 g / cm^3
# Si number density = 25.382880 Si / 1000 Ang^3
#
#
#
# Elastic Constant Matrix: (Units=GPa)
#
#
# Indices 1 2 3 4 5 6 
#
# 1 217.0481 23.6521 39.7107 0.0000 -45.2392 0.0000
# 2 23.6521 126.4758 17.2735 0.0000 -21.9450 0.0000
# 3 39.7107 17.2735 23.7669 0.0000 -17.9227 0.0000
# 4 0.0000 0.0000 0.0000 22.1708 0.0000 14.4054
# 5 -45.2392 -21.9450 -17.9227 0.0000 43.9376 0.0000
# 6 0.0000 0.0000 0.0000 14.4054 0.0000 -15.4404
#
#
#
# Elastic Compliance Matrix: (Units=1/GPa)
#
#
# Indices 1 2 3 4 5 6 
#
# 1 0.007034 0.000613 -0.009396 0.000000 0.003716 0.000000
# 2 0.000613 0.009038 -0.005362 0.000000 0.002958 0.000000
# 3 -0.009396 -0.005362 0.075617 0.000000 0.018493 0.000000
# 4 0.000000 0.000000 0.000000 0.028082 0.000000 0.026199
# 5 0.003716 0.002958 0.018493 0.000000 0.035606 0.000000
# 6 0.000000 0.000000 0.000000 0.026199 0.000000 -0.040322
#
#
# Mechanical properties :
#
#
# Convention : Reuss Voigt Hill
#
# Bulk Modulus (GPa) = 15.77331 58.72925 37.25128
# Shear Modulus (GPa) = 30.39957 29.24390 29.82174
#
# Velocity S-wave (km/s) = 3.46445 3.39796 3.43137
# Velocity P-wave (km/s) = 4.71496 6.21147 5.51422
#
# Compressibility (1/GPa) = 0.06339824
#
# Stress axis : x y z
#
# Youngs Moduli (GPa) = 142.16587 110.64985 13.22461
#
# Poissons Ratio (x) = -0.06778 0.12426
# Poissons Ratio (y) = -0.08708 0.07090
# Poissons Ratio (z) = 1.33578 0.59325
#
# Static dielectric constant tensor:
#      x y z
#    x 2.116280 0.000000 -0.063020 
#    y 0.000000 1.997130 0.000000 
#    z -0.063020 0.000000 2.017580 
# 
# From -- ./inp_files/107833.got.cif
#   From: 2010.05.17/outbox.cif.g08.bks.cpg/sg12_54_cif.got.tgz:107833.got - 2010.06.03 13:09:07.
