data_PCOD9206591
_publ_section_title
;
Structure prediction by ZEFSAII (Michael W. Deem and Ramdas Pophale) SiO2 
 PCOD9206591
Probable space group: C 2/M
;
_chemical_formula_sum "Si O2"
_cell_formula_units_Z 44
_cell_length_a 30.036459
_cell_length_b 15.311353
_cell_length_c 5.267044
_cell_angle_alpha 90.000000
_cell_angle_beta 58.827489
_cell_angle_gamma 90.000000
_cell_volume 2072.556930
_symmetry_space_group_name_H-M "C 2/M"
_symmetry_group_IT_number 12
_symmetry_cell_setting 'monoclinic'
loop_
_space_group_symop_operation_xyz
x,y,z
-x,y,-z
-x,-y,-z
x,-y,z
1/2+x,1/2+y,z
1/2-x,1/2+y,-z
1/2-x,1/2-y,-z
1/2+x,1/2-y,z
loop_
_atom_site_type_symbol
_atom_site_label
_atom_site_fract_x
_atom_site_fract_y
_atom_site_fract_z
Si Si1 0.500000 0.189503 0.000000
Si Si2 0.660506 0.907414 0.555807
Si Si3 0.437390 0.903270 0.797921
Si Si4 0.675539 0.398531 0.167097
Si Si5 0.239888 0.148057 0.477697
Si Si6 0.604805 0.238618 0.462396
O O1 0.489177 0.127047 0.791747
O O2 0.553176 0.242850 0.793145
O O3 0.704914 0.897589 0.634392
O O4 0.654005 0.817947 0.420826
O O5 0.669654 0.000000 0.388302
O O6 0.604706 0.912423 0.852173
O O7 0.414949 0.823055 0.704899
O O8 0.439675 0.000000 0.671744
O O9 0.661762 0.500000 0.238805
O O10 0.715335 0.372616 0.277090
O O11 0.626894 0.332737 0.329641
O O12 0.702337 0.384709 0.814751
O O13 0.250000 0.250000 0.500000
#
# Coordination Sequence:
#
# PCOD9206591 Si02
#       6
#     4   8   8   8   8   8
#     4  10  23  40  61  92 124 166 219 278 349 404
#     4  10  21  36  59  93 131 169 214 262 325 402
#     4  10  21  38  62  94 131 169 212 272 340 410
#     4  12  27  45  69 100 140 183 229 277 331 393
#     4  12  24  45  68 101 137 182 223 276 330 395
#     4  11  23  40  63  89 127 169 222 276 338 396
#
# _framework density 21.229814999999999
#
# number of rings (size 3 to 8) (size 9 to 14) (size 15 to 20)
#    0.000    1.091    1.818    4.636    5.091    2.909 
#    0.000    0.455    0.000    2.182    0.000    0.000 
#    0.000    0.000    0.000    0.000    0.000    0.000 
#
# Total GULP energy -122847.659566 kJ/mol
# GULP energy per Si atom -5583.984526 kJ/mol
# Density = 2.118150 g / cm^3
# Si number density = 21.229815 Si / 1000 Ang^3
#
#
#
# Elastic Constant Matrix: (Units=GPa)
#
#
# Indices 1 2 3 4 5 6 
#
# 1 92.1062 22.2690 1.9548 0.0000 -3.0113 0.0000
# 2 22.2690 162.6428 3.8934 0.0000 -12.5711 0.0000
# 3 1.9548 3.8934 24.9663 0.0000 1.1058 0.0000
# 4 0.0000 0.0000 0.0000 7.2654 0.0000 25.1144
# 5 -3.0113 -12.5711 1.1058 0.0000 34.6905 0.0000
# 6 0.0000 0.0000 0.0000 25.1144 0.0000 -10.3999
#
#
#
# Elastic Compliance Matrix: (Units=1/GPa)
#
#
# Indices 1 2 3 4 5 6 
#
# 1 0.011246 -0.001488 -0.000669 0.000000 0.000458 0.000000
# 2 -0.001488 0.006552 -0.001006 0.000000 0.002277 0.000000
# 3 -0.000669 -0.001006 0.040339 0.000000 -0.001708 0.000000
# 4 0.000000 0.000000 0.000000 0.014725 0.000000 0.035558
# 5 0.000458 0.002277 -0.001708 0.000000 0.029746 0.000000
# 6 0.000000 0.000000 0.000000 0.035558 0.000000 -0.010287
#
#
# Mechanical properties :
#
#
# Convention : Reuss Voigt Hill
#
# Bulk Modulus (GPa) = 19.30096 37.32775 28.31435
# Shear Modulus (GPa) = 43.13392 23.08439 33.10916
#
# Velocity S-wave (km/s) = 4.51240 3.30109 3.95341
# Velocity P-wave (km/s) = 6.02164 5.67014 5.84853
#
# Compressibility (1/GPa) = 0.05181090
#
# Stress axis : x y z
#
# Youngs Moduli (GPa) = 88.92003 152.61732 24.78991
#
# Poissons Ratio (x) = 0.22715 0.01658
# Poissons Ratio (y) = 0.13235 0.02494
# Poissons Ratio (z) = 0.05946 0.15356
#
# Static dielectric constant tensor:
#      x y z
#    x 1.774180 0.000000 0.009910 
#    y 0.000000 1.795010 0.000000 
#    z 0.009910 0.000000 1.867310 
# 
# From -- ./inp_files/28111.got.cif
#   From: 2010.05.17/outbox.cif.g08.bks.cpg/sg12_15_cif.got.tgz:28111.got - 2010.06.03 13:09:07.
