data_PCOD9206161
_publ_section_title
;
Structure prediction by ZEFSAII (Michael W. Deem and Ramdas Pophale) SiO2 
 PCOD9206161
Probable space group: C 2/M
;
_chemical_formula_sum "Si O2"
_cell_formula_units_Z 52
_cell_length_a 13.693918
_cell_length_b 13.528545
_cell_length_c 20.540911
_cell_angle_alpha 90.000000
_cell_angle_beta 129.538080
_cell_angle_gamma 90.000000
_cell_volume 2934.718644
_symmetry_space_group_name_H-M "C 2/M"
_symmetry_group_IT_number 12
_symmetry_cell_setting 'monoclinic'
loop_
_space_group_symop_operation_xyz
x,y,z
-x,y,-z
-x,-y,-z
x,-y,z
1/2+x,1/2+y,z
1/2-x,1/2+y,-z
1/2-x,1/2-y,-z
1/2+x,1/2-y,z
loop_
_atom_site_type_symbol
_atom_site_label
_atom_site_fract_x
_atom_site_fract_y
_atom_site_fract_z
Si Si1 0.894178 0.719683 0.792288
Si Si2 0.511687 0.886318 0.387012
Si Si3 0.191625 0.257685 0.903182
Si Si4 0.760325 0.613944 0.195917
Si Si5 0.760830 0.382293 0.613671
Si Si6 0.000000 0.233494 0.500000
Si Si7 0.372919 0.885836 0.913027
O O1 0.826827 0.813412 0.798068
O O2 0.824933 0.680145 0.698984
O O3 0.885753 0.633315 0.842362
O O4 0.040740 0.742309 0.841993
O O5 0.401566 0.877224 0.285924
O O6 0.646708 0.872171 0.409278
O O7 0.489513 0.805888 0.433290
O O8 0.505356 0.000000 0.409114
O O9 0.235619 0.350343 0.877343
O O10 0.249335 0.166633 0.887778
O O11 0.250000 0.250000 0.000000
O O12 0.720802 0.500000 0.184077
O O13 0.754156 0.500000 0.625959
O O14 0.623203 0.335289 0.544784
O O15 0.367696 0.000000 0.927128
O O16 0.500000 0.841876 0.000000
#
# Coordination Sequence:
#
# PCOD9206161 Si02
#       7
#     8   8   8   8   8   4   8
#     4  11  21  39  60  82 118 155 193 245 294 351
#     4  10  21  39  62  90 119 154 203 243 294 364
#     4  11  22  37  60  87 117 152 198 245 288 343
#     4  10  22  39  61  87 117 158 200 242 296 357
#     4  11  23  39  61  89 119 156 200 244 300 364
#     4  12  22  40  62  92 122 156 194 254 306 350
#     4  10  21  36  56  84 116 150 193 240 292 349
#
# _framework density 17.718906
#
# number of rings (size 3 to 8) (size 9 to 14) (size 15 to 20)
#    0.000    1.385    4.615    1.385    0.000    1.846 
#    0.000    0.769    0.000    0.923    0.000    0.000 
#    0.000    0.000    0.000    0.000    0.000    0.000 
#
# Total GULP energy -145079.427478 kJ/mol
# GULP energy per Si atom -5579.977980 kJ/mol
# Density = 1.767858 g / cm^3
# Si number density = 17.718906 Si / 1000 Ang^3
#
#
#
# Elastic Constant Matrix: (Units=GPa)
#
#
# Indices 1 2 3 4 5 6 
#
# 1 84.4827 38.5838 6.9260 0.0000 6.0240 0.0000
# 2 38.5838 92.7468 21.1254 0.0000 -0.5251 0.0000
# 3 6.9260 21.1254 52.8961 0.0000 -3.8446 0.0000
# 4 0.0000 0.0000 0.0000 23.9780 0.0000 2.7624
# 5 6.0240 -0.5251 -3.8446 0.0000 28.0269 0.0000
# 6 0.0000 0.0000 0.0000 2.7624 0.0000 16.9017
#
#
#
# Elastic Compliance Matrix: (Units=1/GPa)
#
#
# Indices 1 2 3 4 5 6 
#
# 1 0.014921 -0.006300 0.000324 0.000000 -0.003281 0.000000
# 2 -0.006300 0.014526 -0.004907 0.000000 0.000953 0.000000
# 3 0.000324 -0.004907 0.021020 0.000000 0.002722 0.000000
# 4 0.000000 0.000000 0.000000 0.042505 0.000000 -0.006947
# 5 -0.003281 0.000953 0.002722 0.000000 0.036776 0.000000
# 6 0.000000 0.000000 0.000000 -0.006947 0.000000 0.060301
#
#
# Mechanical properties :
#
#
# Convention : Reuss Voigt Hill
#
# Bulk Modulus (GPa) = 34.84179 40.37733 37.60956
# Shear Modulus (GPa) = 22.58524 24.68068 23.63296
#
# Velocity S-wave (km/s) = 3.57408 3.73621 3.65604
# Velocity P-wave (km/s) = 6.06122 6.43813 6.25252
#
# Compressibility (1/GPa) = 0.02870117
#
# Stress axis : x y z
#
# Youngs Moduli (GPa) = 67.01845 68.84241 47.57319
#
# Poissons Ratio (x) = 0.43369 -0.01540
# Poissons Ratio (y) = 0.42220 0.23345
# Poissons Ratio (z) = -0.02170 0.33782
#
# Static dielectric constant tensor:
#      x y z
#    x 1.584540 0.000000 -0.011770 
#    y 0.000000 1.590570 0.000000 
#    z -0.011770 0.000000 1.601820 
# 
# From -- ./inp_files/305350.got.cif
#   From: 2010.05.17/outbox.cif.g08.bks.cpg/sg12_153_cif.got.tgz:305350.got - 2010.06.03 13:09:07.
