data_PCOD9206507
_publ_section_title
;
Structure prediction by ZEFSAII (Michael W. Deem and Ramdas Pophale) SiO2 
 PCOD9206507
Probable space group: C 2/M
;
_chemical_formula_sum "Si O2"
_cell_formula_units_Z 50
_cell_length_a 22.786677
_cell_length_b 12.045079
_cell_length_c 7.176093
_cell_angle_alpha 90.000000
_cell_angle_beta 91.645218
_cell_angle_gamma 90.000000
_cell_volume 1968.791113
_symmetry_space_group_name_H-M "C 2/M"
_symmetry_group_IT_number 12
_symmetry_cell_setting 'monoclinic'
loop_
_space_group_symop_operation_xyz
x,y,z
-x,y,-z
-x,-y,-z
x,-y,z
1/2+x,1/2+y,z
1/2-x,1/2+y,-z
1/2-x,1/2-y,-z
1/2+x,1/2-y,z
loop_
_atom_site_type_symbol
_atom_site_label
_atom_site_fract_x
_atom_site_fract_y
_atom_site_fract_z
Si Si1 0.746774 0.877234 0.740224
Si Si2 0.881739 0.312711 0.700613
Si Si3 0.871256 0.881681 0.958837
Si Si4 0.411699 0.687846 0.356928
Si Si5 0.500000 0.500000 0.500000
Si Si6 0.750518 0.125015 0.293925
Si Si7 0.493455 0.117041 0.221347
O O1 0.806131 0.883624 0.866951
O O2 0.758369 0.877768 0.519123
O O3 0.727359 0.747971 0.774999
O O4 0.716113 0.000000 0.773080
O O5 0.899099 0.221669 0.856686
O O6 0.872153 0.248910 0.505930
O O7 0.820371 0.368746 0.747824
O O8 0.941117 0.381171 0.688712
O O9 0.900193 0.000000 0.912450
O O10 0.878444 0.864924 0.178859
O O11 0.449915 0.595728 0.461225
O O12 0.455977 0.779931 0.283311
O O13 0.769178 0.000000 0.229845
O O14 0.463896 0.000000 0.267651
O O15 0.500000 0.120099 0.000000
#
# Coordination Sequence:
#
# PCOD9206507 Si02
#       7
#     8   8   8   8   2   8   8
#     4   8  16  33  55  85 116 151 190 238 292 344
#     4  11  22  36  58  87 112 151 196 234 293 348
#     4  10  21  36  59  84 117 152 190 239 291 340
#     4  12  24  40  58  87 116 152 193 244 291 347
#     4  12  24  40  60  84 116 150 200 238 298 352
#     4   9  17  32  57  84 116 151 193 237 288 351
#     4  11  23  40  59  81 115 154 196 235 286 345
#
# _framework density 25.396293
#
# number of rings (size 3 to 8) (size 9 to 14) (size 15 to 20)
#    0.000    1.760    4.000    0.480    1.120    1.920 
#    0.000    2.800    0.000    0.000    0.000    0.000 
#    0.000    0.000    0.000    0.000    0.000    0.000 
#
# Total GULP energy -139409.992357 kJ/mol
# GULP energy per Si atom -5576.399694 kJ/mol
# Density = 2.533849 g / cm^3
# Si number density = 25.396293 Si / 1000 Ang^3
#
#
#
# Elastic Constant Matrix: (Units=GPa)
#
#
# Indices 1 2 3 4 5 6 
#
# 1 64.0929 50.7124 -2.8323 0.0000 19.3602 0.0000
# 2 50.7124 254.5601 10.3778 0.0000 -6.2462 0.0000
# 3 -2.8323 10.3778 102.1182 0.0000 12.3119 0.0000
# 4 0.0000 0.0000 0.0000 45.4347 0.0000 0.0746
# 5 19.3602 -6.2462 12.3119 0.0000 33.4157 0.0000
# 6 0.0000 0.0000 0.0000 0.0746 0.0000 9.9602
#
#
#
# Elastic Compliance Matrix: (Units=1/GPa)
#
#
# Indices 1 2 3 4 5 6 
#
# 1 0.025274 -0.005584 0.003307 0.000000 -0.016905 0.000000
# 2 -0.005584 0.005206 -0.001247 0.000000 0.004668 0.000000
# 3 0.003307 -0.001247 0.010747 0.000000 -0.006109 0.000000
# 4 0.000000 0.000000 0.000000 0.022010 0.000000 -0.000165
# 5 -0.016905 0.004668 -0.006109 0.000000 0.042844 0.000000
# 6 0.000000 0.000000 0.000000 -0.000165 0.000000 0.100401
#
#
# Mechanical properties :
#
#
# Convention : Reuss Voigt Hill
#
# Bulk Modulus (GPa) = 29.25854 59.69855 44.47855
# Shear Modulus (GPa) = 22.22977 41.92968 32.07972
#
# Velocity S-wave (km/s) = 2.96178 4.06768 3.55796
# Velocity P-wave (km/s) = 4.82100 6.75420 5.86776
#
# Compressibility (1/GPa) = 0.03417805
#
# Stress axis : x y z
#
# Youngs Moduli (GPa) = 39.56709 192.07749 93.04497
#
# Poissons Ratio (x) = 1.07265 -0.30767
# Poissons Ratio (y) = 0.22096 0.11601
# Poissons Ratio (z) = -0.13084 0.23948
#
# Static dielectric constant tensor:
#      x y z
#    x 1.979340 0.000000 -0.021980 
#    y 0.000000 2.044800 0.000000 
#    z -0.021980 0.000000 1.993710 
# 
# From -- ./inp_files/102746.got.cif
#   From: 2010.05.17/outbox.cif.g08.bks.cpg/sg12_52_cif.got.tgz:102746.got - 2010.06.03 13:09:07.
