data_PCOD9206386
_publ_section_title
;
Structure prediction by ZEFSAII (Michael W. Deem and Ramdas Pophale) SiO2 
 PCOD9206386
Probable space group: C 2/M
;
_chemical_formula_sum "Si O2"
_cell_formula_units_Z 56
_cell_length_a 17.877742
_cell_length_b 16.771945
_cell_length_c 21.119394
_cell_angle_alpha 90.000000
_cell_angle_beta 26.569908
_cell_angle_gamma 90.000000
_cell_volume 2832.475524
_symmetry_space_group_name_H-M "C 2/M"
_symmetry_group_IT_number 12
_symmetry_cell_setting 'monoclinic'
loop_
_space_group_symop_operation_xyz
x,y,z
-x,y,-z
-x,-y,-z
x,-y,z
1/2+x,1/2+y,z
1/2-x,1/2+y,-z
1/2-x,1/2-y,-z
1/2+x,1/2-y,z
loop_
_atom_site_type_symbol
_atom_site_label
_atom_site_fract_x
_atom_site_fract_y
_atom_site_fract_z
Si Si1 0.511988 0.095322 0.639391
Si Si2 0.182338 0.089820 0.373759
Si Si3 0.154959 0.904229 0.688856
Si Si4 0.696552 0.403668 0.111087
Si Si5 0.492903 0.902265 0.213628
Si Si6 0.805021 0.342015 0.161678
Si Si7 0.828808 0.684036 0.669374
O O1 0.697407 0.114817 0.473022
O O2 0.483369 0.124650 0.732373
O O3 0.380555 0.127828 0.688503
O O4 0.500269 0.000000 0.649622
O O5 0.314990 0.127842 0.321276
O O6 0.272795 0.089407 0.237654
O O7 0.000000 0.125905 0.500000
O O8 0.151230 0.000000 0.421072
O O9 0.199244 0.857312 0.719362
O O10 0.975173 0.885305 0.795370
O O11 0.161687 0.000000 0.695668
O O12 0.702758 0.500000 0.115947
O O13 0.710201 0.361326 0.168508
O O14 0.855281 0.380353 0.947509
O O15 0.486892 0.000000 0.217514
O O16 0.741144 0.263858 0.246395
O O17 0.000000 0.335632 0.000000
O O18 0.000000 0.695605 0.500000
#
# Coordination Sequence:
#
# PCOD9206386 Si02
#       7
#     8   8   8   8   8   8   8
#     4   9  18  36  64  90 113 145 190 246 299 349
#     4  10  21  36  58  84 114 153 196 243 288 340
#     4   9  19  38  66  92 113 146 195 248 296 349
#     4  10  21  38  60  87 119 153 195 242 289 343
#     4   9  18  34  55  86 117 143 182 236 293 339
#     4  12  24  39  56  84 119 163 200 234 284 350
#     4  10  22  42  59  85 119 154 196 241 296 350
#
# _framework density 19.770692
#
# number of rings (size 3 to 8) (size 9 to 14) (size 15 to 20)
#    0.000    2.143    1.429    1.286    2.000    3.429 
#    2.571    2.857    0.000    4.286    0.000    0.000 
#    0.000    0.000    0.000    0.000    0.000    0.000 
#
# Total GULP energy -156256.950830 kJ/mol
# GULP energy per Si atom -5580.605387 kJ/mol
# Density = 1.972569 g / cm^3
# Si number density = 19.770692 Si / 1000 Ang^3
#
#
#
# Elastic Constant Matrix: (Units=GPa)
#
#
# Indices 1 2 3 4 5 6 
#
# 1 170.5573 41.4778 40.8734 0.1263 2.1672 -0.0163
# 2 41.4778 27.4779 19.0382 -0.1216 0.0661 0.0478
# 3 40.8734 19.0382 47.0379 0.1178 -0.4674 0.0157
# 4 0.1263 -0.1216 0.1178 -31.2052 -0.0012 109.5278
# 5 2.1672 0.0661 -0.4674 -0.0012 36.8127 -0.0157
# 6 -0.0163 0.0478 0.0157 109.5278 -0.0157 5.6833
#
#
#
# Elastic Compliance Matrix: (Units=1/GPa)
#
#
# Indices 1 2 3 4 5 6 
#
# 1 0.009666 -0.012182 -0.003475 0.000008 -0.000591 -0.000019
# 2 -0.012182 0.065932 -0.016096 -0.000033 0.000394 0.000095
# 3 -0.003475 -0.016096 0.030800 0.000005 0.000624 -0.000046
# 4 0.000008 -0.000033 0.000005 -0.000467 0.000003 0.008997
# 5 -0.000591 0.000394 0.000624 0.000003 0.027207 0.000002
# 6 -0.000019 0.000095 -0.000046 0.008997 0.000002 0.002563
#
#
# Mechanical properties :
#
#
# Convention : Reuss Voigt Hill
#
# Bulk Modulus (GPa) = 23.31398 49.76131 36.53764
# Shear Modulus (GPa) = 23.41885 11.83707 17.62796
#
# Velocity S-wave (km/s) = 3.44542 2.44953 2.98924
# Velocity P-wave (km/s) = 5.25792 5.76404 5.51678
#
# Compressibility (1/GPa) = 0.04289272
#
# Stress axis : x y z
#
# Youngs Moduli (GPa) = 103.45840 15.16711 32.46784
#
# Poissons Ratio (x) = 0.18476 0.11281
# Poissons Ratio (y) = 1.26029 0.52261
# Poissons Ratio (z) = 0.35947 0.24414
#
# Static dielectric constant tensor:
#      x y z
#    x 1.678100 0.000000 -0.008840 
#    y 0.000000 1.746660 0.000010 
#    z -0.008840 0.000010 1.688010 
# 
# From -- ./inp_files/272353.got.cif
#   From: 2010.05.17/outbox.cif.g08.bks.cpg/sg12_137_cif.got.tgz:272353.got - 2010.06.03 13:09:07.
