data_PCOD9206055
_publ_section_title
;
Structure prediction by ZEFSAII (Michael W. Deem and Ramdas Pophale) SiO2 
 PCOD9206055
Probable space group: C 2/M
;
_chemical_formula_sum "Si O2"
_cell_formula_units_Z 56
_cell_length_a 18.258050
_cell_length_b 8.746046
_cell_length_c 19.012279
_cell_angle_alpha 90.000000
_cell_angle_beta 75.956506
_cell_angle_gamma 90.000000
_cell_volume 2945.249667
_symmetry_space_group_name_H-M "C 2/M"
_symmetry_group_IT_number 12
_symmetry_cell_setting 'monoclinic'
loop_
_space_group_symop_operation_xyz
x,y,z
-x,y,-z
-x,-y,-z
x,-y,z
1/2+x,1/2+y,z
1/2-x,1/2+y,-z
1/2-x,1/2-y,-z
1/2+x,1/2-y,z
loop_
_atom_site_type_symbol
_atom_site_label
_atom_site_fract_x
_atom_site_fract_y
_atom_site_fract_z
Si Si1 0.872703 0.684876 0.352497
Si Si2 0.914874 0.315543 0.501583
Si Si3 0.200754 0.184245 0.358064
Si Si4 0.658520 0.315616 0.209076
Si Si5 0.486119 0.683137 0.210699
Si Si6 0.774574 0.182307 0.069198
Si Si7 0.563532 0.182954 0.927183
O O1 0.878022 0.500000 0.346179
O O2 0.892862 0.730023 0.427506
O O3 0.786920 0.729474 0.354147
O O4 0.930553 0.757664 0.284230
O O5 0.912709 0.500000 0.505234
O O6 0.856009 0.251465 0.571473
O O7 0.000000 0.265825 0.500000
O O8 0.177342 0.230005 0.284670
O O9 0.196919 0.000000 0.362647
O O10 0.667063 0.500000 0.202001
O O11 0.572397 0.276992 0.209893
O O12 0.715842 0.238575 0.141744
O O13 0.480810 0.500000 0.206608
O O14 0.462743 0.757008 0.142339
O O15 0.857402 0.242310 0.069881
O O16 0.774736 0.000000 0.065414
O O17 0.750000 0.250000 0.000000
O O18 0.572702 0.000000 0.922515
O O19 0.500000 0.219753 0.000000
#
# Coordination Sequence:
#
# PCOD9206055 Si02
#       7
#     8   8   8   8   8   8   8
#     4  10  21  37  57  82 115 155 197 243 298 358
#     4  10  21  36  55  82 115 151 193 243 296 350
#     4  10  21  37  58  83 112 151 194 239 295 353
#     4  10  22  40  60  86 121 156 196 247 298 352
#     4  11  23  38  60  89 118 153 197 245 297 352
#     4  12  25  41  64  92 122 158 199 243 293 348
#     4  11  24  42  64  89 119 157 198 241 294 353
#
# _framework density 19.013669
#
# number of rings (size 3 to 8) (size 9 to 14) (size 15 to 20)
#    0.000    1.429    0.000    5.143    0.000    7.714 
#    0.000    0.000    0.000    0.000    0.000    0.000 
#    0.000    0.000    0.000    0.000    0.000    0.000 
#
# Total GULP energy -156632.279652 kJ/mol
# GULP energy per Si atom -5594.009988 kJ/mol
# Density = 1.897039 g / cm^3
# Si number density = 19.013669 Si / 1000 Ang^3
#
#
#
# Elastic Constant Matrix: (Units=GPa)
#
#
# Indices 1 2 3 4 5 6 
#
# 1 223.0351 75.5875 140.5940 0.0000 0.8450 0.0000
# 2 75.5875 50.5904 75.6685 0.0000 -5.5935 0.0000
# 3 140.5940 75.6685 232.5846 0.0000 0.2048 0.0000
# 4 0.0000 0.0000 0.0000 43.9498 0.0000 -13.9174
# 5 0.8450 -5.5935 0.2048 0.0000 44.9309 0.0000
# 6 0.0000 0.0000 0.0000 -13.9174 0.0000 36.7685
#
#
#
# Elastic Compliance Matrix: (Units=1/GPa)
#
#
# Indices 1 2 3 4 5 6 
#
# 1 0.009751 -0.011557 -0.002133 0.000000 -0.001612 0.000000
# 2 -0.011557 0.053286 -0.010356 0.000000 0.006898 0.000000
# 3 -0.002133 -0.010356 0.008959 0.000000 -0.001290 0.000000
# 4 0.000000 0.000000 0.000000 0.025852 0.000000 0.009785
# 5 -0.001612 0.006898 -0.001290 0.000000 0.023151 0.000000
# 6 0.000000 0.000000 0.000000 0.009785 0.000000 0.030901
#
#
# Mechanical properties :
#
#
# Convention : Reuss Voigt Hill
#
# Bulk Modulus (GPa) = 41.83317 121.10114 81.46716
# Shear Modulus (GPa) = 24.04293 39.42051 31.73172
#
# Velocity S-wave (km/s) = 3.55985 4.55826 4.08964
# Velocity P-wave (km/s) = 6.24068 9.56732 8.07712
#
# Compressibility (1/GPa) = 0.02390447
#
# Stress axis : x y z
#
# Youngs Moduli (GPa) = 102.55385 18.76651 111.61651
#
# Poissons Ratio (x) = 0.21688 0.23808
# Poissons Ratio (y) = 1.18521 1.15592
# Poissons Ratio (z) = 0.21875 0.19435
#
# Static dielectric constant tensor:
#      x y z
#    x 1.633470 0.000000 0.011580 
#    y 0.000000 1.644840 0.000000 
#    z 0.011580 0.000000 1.612060 
# 
# From -- ./inp_files/275061.got.cif
#   From: 2010.05.17/outbox.cif.g08.bks.cpg/sg12_138_cif.got.tgz:275061.got - 2010.06.03 13:09:07.
