data_PCOD9206443
_publ_section_title
;
Structure prediction by ZEFSAII (Michael W. Deem and Ramdas Pophale) SiO2 
 PCOD9206443
Probable space group: C 2/M
;
_chemical_formula_sum "Si O2"
_cell_formula_units_Z 44
_cell_length_a 26.137689
_cell_length_b 7.317813
_cell_length_c 11.822959
_cell_angle_alpha 90.000000
_cell_angle_beta 125.699753
_cell_angle_gamma 90.000000
_cell_volume 1836.439914
_symmetry_space_group_name_H-M "C 2/M"
_symmetry_group_IT_number 12
_symmetry_cell_setting 'monoclinic'
loop_
_space_group_symop_operation_xyz
x,y,z
-x,y,-z
-x,-y,-z
x,-y,z
1/2+x,1/2+y,z
1/2-x,1/2+y,-z
1/2-x,1/2-y,-z
1/2+x,1/2-y,z
loop_
_atom_site_type_symbol
_atom_site_label
_atom_site_fract_x
_atom_site_fract_y
_atom_site_fract_z
Si Si1 0.277031 0.285402 0.410281
Si Si2 0.174592 0.219412 0.899141
Si Si3 0.342606 0.292415 0.873291
Si Si4 0.922881 0.219781 0.565179
Si Si5 0.053374 0.778418 0.157438
Si Si6 0.096846 0.500000 0.641537
O O1 0.275905 0.500000 0.389081
O O2 0.250000 0.250000 0.500000
O O3 0.229860 0.203775 0.257924
O O4 0.349084 0.228935 0.492427
O O5 0.138848 0.339257 0.761079
O O6 0.164160 0.000000 0.870548
O O7 0.250000 0.250000 0.000000
O O8 0.150574 0.282168 0.992689
O O9 0.365458 0.500000 0.913284
O O10 0.382105 0.213990 0.819301
O O11 0.956300 0.276795 0.725729
O O12 0.939239 0.340519 0.480346
O O13 0.928173 0.000000 0.556460
O O14 0.055589 0.000000 0.168383
O O15 0.000000 0.726510 0.000000
#
# Coordination Sequence:
#
# PCOD9206443 Si02
#       6
#     8   8   8   8   8   4
#     4  11  21  31  52  82 122 157 187 232 298 372
#     4  11  23  39  58  87 122 165 211 248 297 359
#     4  10  21  36  58  88 121 154 196 248 300 361
#     4  10  22  38  58  91 123 159 204 247 306 374
#     4   9  18  38  66  92 120 156 200 254 316 373
#     4  12  24  38  61  79 121 166 207 250 299 346
#
# _framework density 23.959401
#
# number of rings (size 3 to 8) (size 9 to 14) (size 15 to 20)
#    0.000    1.636    2.727    2.182    6.364    1.455 
#    0.000    0.455    0.000    2.182    0.000    6.364 
#    0.000    0.000    0.000    0.000    0.000    0.000 
#
# Total GULP energy -122475.103639 kJ/mol
# GULP energy per Si atom -5567.050165 kJ/mol
# Density = 2.390487 g / cm^3
# Si number density = 23.959401 Si / 1000 Ang^3
#
#
#
# Elastic Constant Matrix: (Units=GPa)
#
#
# Indices 1 2 3 4 5 6 
#
# 1 52.7974 17.2923 33.6704 0.0000 -11.9437 0.0000
# 2 17.2923 148.0606 51.0571 0.0000 -11.4590 0.0000
# 3 33.6704 51.0571 190.1200 0.0000 -28.5619 0.0000
# 4 0.0000 0.0000 0.0000 -39.9724 0.0000 -9.8584
# 5 -11.9437 -11.4590 -28.5619 0.0000 19.5910 0.0000
# 6 0.0000 0.0000 0.0000 -9.8584 0.0000 2.4895
#
#
#
# Elastic Compliance Matrix: (Units=1/GPa)
#
#
# Indices 1 2 3 4 5 6 
#
# 1 0.023034 -0.001130 -0.002261 0.000000 0.010086 0.000000
# 2 -0.001130 0.007551 -0.001623 0.000000 0.001361 0.000000
# 3 -0.002261 -0.001623 0.007358 0.000000 0.008400 0.000000
# 4 0.000000 0.000000 0.000000 -0.012656 0.000000 -0.050119
# 5 0.010086 0.001361 0.008400 0.000000 0.070235 0.000000
# 6 0.000000 0.000000 0.000000 -0.050119 0.000000 0.203214
#
#
# Mechanical properties :
#
#
# Convention : Reuss Voigt Hill
#
# Bulk Modulus (GPa) = 35.82293 66.11306 50.96799
# Shear Modulus (GPa) = 15.71991 15.68551 15.70271
#
# Velocity S-wave (km/s) = 2.56424 2.56143 2.56283
# Velocity P-wave (km/s) = 4.87350 6.03337 5.48419
#
# Compressibility (1/GPa) = 0.02791508
#
# Stress axis : x y z
#
# Youngs Moduli (GPa) = 43.41466 132.43152 135.90655
#
# Poissons Ratio (x) = 0.14965 0.30723
# Poissons Ratio (y) = 0.04906 0.22061
# Poissons Ratio (z) = 0.09814 0.21497
#
# Static dielectric constant tensor:
#      x y z
#    x 1.998210 0.000000 -0.012940 
#    y 0.000000 1.750380 0.000000 
#    z -0.012940 0.000000 1.881470 
# 
# From -- ./inp_files/186981.got.cif
#   From: 2010.05.17/outbox.cif.g08.bks.cpg/sg12_94_cif.got.tgz:186981.got - 2010.06.03 13:09:07.
