data_PCOD9206772
_publ_section_title
;
Structure prediction by ZEFSAII (Michael W. Deem and Ramdas Pophale) SiO2 
 PCOD9206772
Probable space group: C 2/M
;
_chemical_formula_sum "Si O2"
_cell_formula_units_Z 64
_cell_length_a 30.484258
_cell_length_b 17.910825
_cell_length_c 10.978739
_cell_angle_alpha 90.000000
_cell_angle_beta 147.839602
_cell_angle_gamma 90.000000
_cell_volume 3190.751818
_symmetry_space_group_name_H-M "C 2/M"
_symmetry_group_IT_number 12
_symmetry_cell_setting 'monoclinic'
loop_
_space_group_symop_operation_xyz
x,y,z
-x,y,-z
-x,-y,-z
x,-y,z
1/2+x,1/2+y,z
1/2-x,1/2+y,-z
1/2-x,1/2-y,-z
1/2+x,1/2-y,z
loop_
_atom_site_type_symbol
_atom_site_label
_atom_site_fract_x
_atom_site_fract_y
_atom_site_fract_z
Si Si1 0.634715 0.709621 0.508476
Si Si2 0.458159 0.718372 0.207693
Si Si3 0.784141 0.676038 0.147363
Si Si4 0.914769 0.634029 0.255145
Si Si5 0.259004 0.082424 0.755912
Si Si6 0.282306 0.083966 0.528045
Si Si7 0.660496 0.586606 0.011115
Si Si8 0.588754 0.781756 0.163672
O O1 0.554038 0.703984 0.402938
O O2 0.675541 0.788553 0.637620
O O3 0.701431 0.644827 0.680536
O O4 0.609957 0.716586 0.309486
O O5 0.440601 0.785519 0.260288
O O6 0.414919 0.643333 0.150830
O O7 0.418568 0.747647 0.987861
O O8 0.855100 0.642304 0.230581
O O9 0.716071 0.617843 0.030883
O O10 0.750000 0.750000 0.000000
O O11 0.000000 0.597362 0.500000
O O12 0.854992 0.596282 0.014955
O O13 0.247198 0.085963 0.582898
O O14 0.236297 0.000000 0.745875
O O15 0.214701 0.092226 0.262975
O O16 0.346732 0.151368 0.677360
O O17 0.318698 0.000000 0.597763
O O18 0.638428 0.500000 0.942324
O O19 0.500000 0.810664 0.000000
#
# Coordination Sequence:
#
# PCOD9206772 Si02
#       8
#     8   8   8   8   8   8   8   8
#     4  11  22  39  65  93 122 162 210 256 306 368
#     4  11  22  39  65  95 125 160 209 262 310 366
#     4  12  22  39  64  89 118 162 210 261 305 358
#     4  12  24  40  65  90 121 162 213 263 307 368
#     4  11  24  41  62  91 127 167 206 253 314 375
#     4  10  21  38  62  93 128 166 206 256 318 375
#     4  11  24  41  64  95 129 166 206 255 318 375
#     4  10  21  36  62  96 124 160 211 258 310 369
#
# _framework density 20.057969
#
# number of rings (size 3 to 8) (size 9 to 14) (size 15 to 20)
#    0.000    1.000    6.250    0.750    0.000    2.500 
#    0.000    0.000    0.000    5.625    0.000    0.000 
#    0.000    0.000    0.000    0.000    0.000    0.000 
#
# Total GULP energy -178702.499731 kJ/mol
# GULP energy per Si atom -5584.453117 kJ/mol
# Density = 2.001232 g / cm^3
# Si number density = 20.057969 Si / 1000 Ang^3
#
#
#
# Elastic Constant Matrix: (Units=GPa)
#
#
# Indices 1 2 3 4 5 6 
#
# 1 78.1837 35.6282 7.7189 0.0000 2.8548 0.0000
# 2 35.6282 90.2635 15.4486 0.0000 22.7159 0.0000
# 3 7.7189 15.4486 46.4717 0.0000 8.3990 0.0000
# 4 0.0000 0.0000 0.0000 4.0754 0.0000 -6.5969
# 5 2.8548 22.7159 8.3990 0.0000 37.3423 0.0000
# 6 0.0000 0.0000 0.0000 -6.5969 0.0000 6.4771
#
#
#
# Elastic Compliance Matrix: (Units=1/GPa)
#
#
# Indices 1 2 3 4 5 6 
#
# 1 0.015925 -0.006936 -0.000919 0.000000 0.003208 0.000000
# 2 -0.006936 0.016526 -0.002732 0.000000 -0.008908 0.000000
# 3 -0.000919 -0.002732 0.023210 0.000000 -0.003488 0.000000
# 4 0.000000 0.000000 0.000000 -0.378291 0.000000 -0.385287
# 5 0.003208 -0.008908 -0.003488 0.000000 0.032738 0.000000
# 6 0.000000 0.000000 0.000000 -0.385287 0.000000 -0.238023
#
#
# Mechanical properties :
#
#
# Convention : Reuss Voigt Hill
#
# Bulk Modulus (GPa) = 28.99672 36.94559 32.97116
# Shear Modulus (GPa) = -10.09596 19.98718 4.94561
#
# Velocity S-wave (km/s) = -2.24596 3.16012 1.57194
# Velocity P-wave (km/s) = 2.78605 5.63689 4.44616
#
# Compressibility (1/GPa) = 0.03448666
#
# Stress axis : x y z
#
# Youngs Moduli (GPa) = 62.79585 60.51179 43.08549
#
# Poissons Ratio (x) = 0.41970 0.03961
# Poissons Ratio (y) = 0.43554 0.11769
# Poissons Ratio (z) = 0.05773 0.16530
#
# Static dielectric constant tensor:
#      x y z
#    x 1.706130 0.000000 -0.045640 
#    y 0.000000 1.691380 0.000000 
#    z -0.045640 0.000000 1.763660 
# 
# From -- ./inp_files/190105.got.cif
#   From: 2010.05.17/outbox.cif.g08.bks.cpg/sg12_96_cif.got.tgz:190105.got - 2010.06.03 13:09:07.
