data_PCOD9206520
_publ_section_title
;
Structure prediction by ZEFSAII (Michael W. Deem and Ramdas Pophale) SiO2 
 PCOD9206520
Probable space group: C 2/M
;
_chemical_formula_sum "Si O2"
_cell_formula_units_Z 48
_cell_length_a 24.152695
_cell_length_b 25.977610
_cell_length_c 10.962487
_cell_angle_alpha 90.000000
_cell_angle_beta 159.669221
_cell_angle_gamma 90.000000
_cell_volume 2389.752836
_symmetry_space_group_name_H-M "C 2/M"
_symmetry_group_IT_number 12
_symmetry_cell_setting 'monoclinic'
loop_
_space_group_symop_operation_xyz
x,y,z
-x,y,-z
-x,-y,-z
x,-y,z
1/2+x,1/2+y,z
1/2-x,1/2+y,-z
1/2-x,1/2-y,-z
1/2+x,1/2-y,z
loop_
_atom_site_type_symbol
_atom_site_label
_atom_site_fract_x
_atom_site_fract_y
_atom_site_fract_z
Si Si1 0.096151 0.375645 0.087281
Si Si2 0.391368 0.718122 0.153962
Si Si3 0.662269 0.938898 0.597645
Si Si4 0.844412 0.938839 0.743614
Si Si5 0.315707 0.867218 0.148549
Si Si6 0.803951 0.181406 0.328449
O O1 0.192320 0.420286 0.354605
O O2 0.223161 0.339468 0.283224
O O3 0.000000 0.349181 0.000000
O O4 0.979298 0.402810 0.748216
O O5 0.500000 0.725616 0.500000
O O6 0.512964 0.698981 0.300817
O O7 0.260736 0.675489 0.920020
O O8 0.301556 0.770007 0.933458
O O9 0.811472 0.926678 0.816840
O O10 0.694163 0.920805 0.800520
O O11 0.627166 0.000000 0.516116
O O12 0.853275 0.000000 0.755051
O O13 0.000000 0.916537 0.000000
O O14 0.500000 0.856564 0.500000
O O15 0.219576 0.862189 0.824284
#
# Coordination Sequence:
#
# PCOD9206520 Si02
#       6
#     8   8   8   8   8   8
#     4  10  21  37  59  83 116 150 194 230 284 335
#     4  10  22  36  61  83 113 150 196 231 281 339
#     4  10  21  36  59  86 118 151 190 234 279 341
#     4   9  19  37  60  82 110 151 194 232 278 338
#     4  11  20  36  59  86 115 148 191 232 286 336
#     4  11  21  38  59  86 113 152 187 242 280 341
#
# _framework density 20.085758999999999
#
# number of rings (size 3 to 8) (size 9 to 14) (size 15 to 20)
#    0.000    1.833    1.667    4.000    2.333    2.333 
#    0.000    0.833    0.000    4.500    0.000    0.000 
#    0.000    0.000    0.000    0.000    0.000    0.000 
#
# Total GULP energy -133923.692402 kJ/mol
# GULP energy per Si atom -5580.153850 kJ/mol
# Density = 2.004004 g / cm^3
# Si number density = 20.085759 Si / 1000 Ang^3
#
#
#
# Elastic Constant Matrix: (Units=GPa)
#
#
# Indices 1 2 3 4 5 6 
#
# 1 108.1151 34.9223 35.7159 0.0000 39.2128 0.0000
# 2 34.9223 47.2646 16.2912 0.0000 16.6015 0.0000
# 3 35.7159 16.2912 60.2798 0.0000 34.0057 0.0000
# 4 0.0000 0.0000 0.0000 15.6927 0.0000 9.8468
# 5 39.2128 16.6015 34.0057 0.0000 40.0068 0.0000
# 6 0.0000 0.0000 0.0000 9.8468 0.0000 19.1813
#
#
#
# Elastic Compliance Matrix: (Units=1/GPa)
#
#
# Indices 1 2 3 4 5 6 
#
# 1 0.016392 -0.007533 -0.000723 0.000000 -0.012327 0.000000
# 2 -0.007533 0.028322 -0.001395 0.000000 -0.003184 0.000000
# 3 -0.000723 -0.001395 0.032024 0.000000 -0.025933 0.000000
# 4 0.000000 0.000000 0.000000 0.094004 0.000000 -0.048258
# 5 -0.012327 -0.003184 -0.025933 0.000000 0.060442 0.000000
# 6 0.000000 0.000000 0.000000 -0.048258 0.000000 0.076907
#
#
# Mechanical properties :
#
#
# Convention : Reuss Voigt Hill
#
# Bulk Modulus (GPa) = 17.41027 43.27981 30.34504
# Shear Modulus (GPa) = 14.42835 23.55818 18.99326
#
# Velocity S-wave (km/s) = 2.68309 3.42845 3.07841
# Velocity P-wave (km/s) = 4.27614 6.10464 5.27030
#
# Compressibility (1/GPa) = 0.05743737
#
# Stress axis : x y z
#
# Youngs Moduli (GPa) = 61.00479 35.30777 31.22623
#
# Poissons Ratio (x) = 0.26597 0.02257
# Poissons Ratio (y) = 0.45954 0.04357
# Poissons Ratio (z) = 0.04409 0.04926
#
# Static dielectric constant tensor:
#      x y z
#    x 1.766440 0.000000 0.029360 
#    y 0.000000 1.686400 0.000000 
#    z 0.029360 0.000000 1.731730 
# 
# From -- ./inp_files/123034.got.cif
#   From: 2010.05.17/outbox.cif.g08.bks.cpg/sg12_62_cif.got.tgz:123034.got - 2010.06.03 13:09:07.
