data_PCOD9206683
_publ_section_title
;
Structure prediction by ZEFSAII (Michael W. Deem and Ramdas Pophale) SiO2 
 PCOD9206683
Probable space group: C 2/M
;
_chemical_formula_sum "Si O2"
_cell_formula_units_Z 44
_cell_length_a 21.220298
_cell_length_b 18.265745
_cell_length_c 5.863701
_cell_angle_alpha 90.000000
_cell_angle_beta 74.152044
_cell_angle_gamma 90.000000
_cell_volume 2186.407634
_symmetry_space_group_name_H-M "C 2/M"
_symmetry_group_IT_number 12
_symmetry_cell_setting 'monoclinic'
loop_
_space_group_symop_operation_xyz
x,y,z
-x,y,-z
-x,-y,-z
x,-y,z
1/2+x,1/2+y,z
1/2-x,1/2+y,-z
1/2-x,1/2-y,-z
1/2+x,1/2-y,z
loop_
_atom_site_type_symbol
_atom_site_label
_atom_site_fract_x
_atom_site_fract_y
_atom_site_fract_z
Si Si1 0.617577 0.416731 0.598344
Si Si2 0.929147 0.805827 0.679511
Si Si3 0.785149 0.799452 0.276165
Si Si4 0.658589 0.815101 0.140889
Si Si5 0.533263 0.911838 0.215170
Si Si6 0.000000 0.864153 0.000000
O O1 0.639680 0.500000 0.570672
O O2 0.604087 0.381191 0.364941
O O3 0.668235 0.362113 0.670058
O O4 0.546264 0.411129 0.790196
O O5 0.882442 0.740200 0.656924
O O6 0.000000 0.796349 0.500000
O O7 0.948930 0.812627 0.920861
O O8 0.750000 0.750000 0.500000
O O9 0.726738 0.837000 0.187798
O O10 0.821848 0.739869 0.082545
O O11 0.606272 0.877530 0.137195
O O12 0.500000 0.891586 0.500000
O O13 0.535201 0.000000 0.213366
O O14 0.500000 0.890235 0.000000
#
# Coordination Sequence:
#
# PCOD9206683 Si02
#       6
#     8   8   8   8   8   4
#     4  11  23  40  62  90 126 164 208 264 325 383
#     4  10  21  36  60  95 119 159 209 258 322 385
#     4  11  24  42  61  91 124 170 224 273 319 395
#     4  11  23  40  67  89 128 173 217 276 326 398
#     4  10  24  44  71 107 140 173 222 286 352 409
#     4  10  21  38  60  88 121 154 204 254 313 378
#
# _framework density 20.124336
#
# number of rings (size 3 to 8) (size 9 to 14) (size 15 to 20)
#    0.000    1.455    3.636    0.818    3.818    4.727 
#    0.000    0.909    0.000    0.000    0.000    0.000 
#    0.000    0.000    0.000    0.000    0.000    0.000 
#
# Total GULP energy -122530.762639 kJ/mol
# GULP energy per Si atom -5569.580120 kJ/mol
# Density = 2.007853 g / cm^3
# Si number density = 20.124336 Si / 1000 Ang^3
#
#
#
# Elastic Constant Matrix: (Units=GPa)
#
#
# Indices 1 2 3 4 5 6 
#
# 1 144.3149 51.1171 55.6675 0.0000 12.1885 0.0000
# 2 51.1171 71.9768 15.7408 0.0000 4.9915 0.0000
# 3 55.6675 15.7408 55.1597 0.0000 13.2391 0.0000
# 4 0.0000 0.0000 0.0000 13.5391 0.0000 1.4383
# 5 12.1885 4.9915 13.2391 0.0000 30.0462 0.0000
# 6 0.0000 0.0000 0.0000 1.4383 0.0000 33.9175
#
#
#
# Elastic Compliance Matrix: (Units=1/GPa)
#
#
# Indices 1 2 3 4 5 6 
#
# 1 0.014364 -0.007516 -0.012583 0.000000 0.000966 0.000000
# 2 -0.007516 0.018763 0.002513 0.000000 -0.001175 0.000000
# 3 -0.012583 0.002513 0.032414 0.000000 -0.009596 0.000000
# 4 0.000000 0.000000 0.000000 0.074194 0.000000 -0.003146
# 5 0.000966 -0.001175 -0.009596 0.000000 0.037313 0.000000
# 6 0.000000 0.000000 0.000000 -0.003146 0.000000 0.029617
#
#
# Mechanical properties :
#
#
# Convention : Reuss Voigt Hill
#
# Bulk Modulus (GPa) = 32.92872 57.38912 45.15892
# Shear Modulus (GPa) = 19.84443 25.42897 22.63670
#
# Velocity S-wave (km/s) = 3.14362 3.55856 3.35751
# Velocity P-wave (km/s) = 5.43825 6.74268 6.12529
#
# Compressibility (1/GPa) = 0.03036862
#
# Stress axis : x y z
#
# Youngs Moduli (GPa) = 69.62044 53.29596 30.85099
#
# Poissons Ratio (x) = 0.40058 0.38819
# Poissons Ratio (y) = 0.52327 -0.07753
# Poissons Ratio (z) = 0.87603 -0.13393
#
# Static dielectric constant tensor:
#      x y z
#    x 1.756940 0.000000 -0.047550 
#    y 0.000000 1.701110 0.000000 
#    z -0.047550 0.000000 1.899070 
# 
# From -- ./inp_files/20407.got.cif
#   From: 2010.05.17/outbox.cif.g08.bks.cpg/sg12_11_cif.got.tgz:20407.got - 2010.06.03 13:09:07.
