data_PCOD9206804
_publ_section_title
;
Structure prediction by ZEFSAII (Michael W. Deem and Ramdas Pophale) SiO2 
 PCOD9206804
Probable space group: C 2/M
;
_chemical_formula_sum "Si O2"
_cell_formula_units_Z 64
_cell_length_a 13.437953
_cell_length_b 15.080882
_cell_length_c 15.173481
_cell_angle_alpha 90.000000
_cell_angle_beta 119.811639
_cell_angle_gamma 90.000000
_cell_volume 2668.068061
_symmetry_space_group_name_H-M "C 2/M"
_symmetry_group_IT_number 12
_symmetry_cell_setting 'monoclinic'
loop_
_space_group_symop_operation_xyz
x,y,z
-x,y,-z
-x,-y,-z
x,-y,z
1/2+x,1/2+y,z
1/2-x,1/2+y,-z
1/2-x,1/2-y,-z
1/2+x,1/2-y,z
loop_
_atom_site_type_symbol
_atom_site_label
_atom_site_fract_x
_atom_site_fract_y
_atom_site_fract_z
Si Si1 0.916530 0.634716 0.385802
Si Si2 0.428163 0.392799 0.169989
Si Si3 0.744410 0.391998 0.062053
Si Si4 0.670096 0.400045 0.512270
Si Si5 0.929868 0.837173 0.357999
Si Si6 0.826423 0.102557 0.779129
Si Si7 0.098281 0.604679 0.319200
Si Si8 0.009923 0.608928 0.903072
O O1 0.786591 0.602180 0.330595
O O2 0.000000 0.602990 0.500000
O O3 0.907727 0.740133 0.384443
O O4 0.980818 0.612368 0.322522
O O5 0.426883 0.500000 0.182000
O O6 0.382930 0.351772 0.240359
O O7 0.557480 0.359964 0.209602
O O8 0.351519 0.371528 0.052174
O O9 0.752076 0.500000 0.071185
O O10 0.710485 0.357286 0.143271
O O11 0.867233 0.362358 0.080846
O O12 0.676547 0.500000 0.479189
O O13 0.567174 0.352155 0.416627
O O14 0.625087 0.401336 0.593821
O O15 0.796098 0.357616 0.577076
O O16 0.856503 0.000000 0.810889
O O17 0.124421 0.500000 0.324064
O O18 0.081321 0.637861 0.211950
O O19 0.006208 0.500000 0.902254
O O20 0.000000 0.637877 0.000000
#
# Coordination Sequence:
#
# PCOD9206804 Si02
#       8
#     8   8   8   8   8   8   8   8
#     4  12  25  41  60  83 123 169 204 246 299 363
#     4  10  21  36  64  94 116 151 201 252 302 355
#     4   9  17  34  60  89 122 153 192 250 303 355
#     4  10  21  40  63  83 116 151 195 255 303 349
#     4  11  23  41  57  87 117 158 199 245 301 361
#     4  10  21  39  62  90 122 156 201 250 297 353
#     4  10  22  38  62  92 118 155 202 254 305 354
#     4   9  17  31  55  90 124 153 192 244 306 362
#
# _framework density 23.987394999999999
#
# number of rings (size 3 to 8) (size 9 to 14) (size 15 to 20)
#    0.000    1.875    2.500    2.250    3.500    4.000 
#    0.000    0.625    0.000    0.000    0.000    0.000 
#    0.000    0.000    0.000    0.000    0.000    0.000 
#
# Total GULP energy -178920.022813 kJ/mol
# GULP energy per Si atom -5591.250713 kJ/mol
# Density = 2.393280 g / cm^3
# Si number density = 23.987395 Si / 1000 Ang^3
#
#
#
# Elastic Constant Matrix: (Units=GPa)
#
#
# Indices 1 2 3 4 5 6 
#
# 1 50.0789 -5.1016 9.7769 0.0000 3.8742 0.0000
# 2 -5.1016 52.5997 -7.1767 0.0000 -2.3783 0.0000
# 3 9.7769 -7.1767 87.0050 0.0000 -16.1720 0.0000
# 4 0.0000 0.0000 0.0000 5.2862 0.0000 -31.3727
# 5 3.8742 -2.3783 -16.1720 0.0000 42.4232 0.0000
# 6 0.0000 0.0000 0.0000 -31.3727 0.0000 -26.4453
#
#
#
# Elastic Compliance Matrix: (Units=1/GPa)
#
#
# Indices 1 2 3 4 5 6 
#
# 1 0.020883 0.001520 -0.002755 0.000000 -0.002872 0.000000
# 2 0.001520 0.019469 0.001735 0.000000 0.001614 0.000000
# 3 -0.002755 0.001735 0.012927 0.000000 0.005277 0.000000
# 4 0.000000 0.000000 0.000000 0.023527 0.000000 -0.027911
# 5 -0.002872 0.001614 0.005277 0.000000 0.025936 0.000000
# 6 0.000000 0.000000 0.000000 -0.027911 0.000000 -0.004703
#
#
# Mechanical properties :
#
#
# Convention : Reuss Voigt Hill
#
# Bulk Modulus (GPa) = 18.42356 20.52010 19.47183
# Shear Modulus (GPa) = 43.42788 17.06515 30.24651
#
# Velocity S-wave (km/s) = 4.25955 2.67014 3.55482
# Velocity P-wave (km/s) = 5.64702 4.25198 4.99841
#
# Compressibility (1/GPa) = 0.05427833
#
# Stress axis : x y z
#
# Youngs Moduli (GPa) = 47.88491 51.36471 77.35654
#
# Poissons Ratio (x) = -0.07806 0.21314
# Poissons Ratio (y) = -0.07277 -0.13422
# Poissons Ratio (z) = 0.13193 -0.08913
#
# Static dielectric constant tensor:
#      x y z
#    x 1.906740 0.000000 0.016850 
#    y 0.000000 1.932730 0.000000 
#    z 0.016850 0.000000 1.918410 
# 
# From -- ./inp_files/216862.got.cif
#   From: 2010.05.17/outbox.cif.g08.bks.cpg/sg12_109_cif.got.tgz:216862.got - 2010.06.03 13:09:07.
