data_PCOD9206369
_publ_section_title
;
Structure prediction by ZEFSAII (Michael W. Deem and Ramdas Pophale) SiO2 
 PCOD9206369
Probable space group: C 2/M
;
_chemical_formula_sum "Si O2"
_cell_formula_units_Z 28
_cell_length_a 6.952683
_cell_length_b 23.065241
_cell_length_c 11.451934
_cell_angle_alpha 90.000000
_cell_angle_beta 45.068127
_cell_angle_gamma 90.000000
_cell_volume 1300.139773
_symmetry_space_group_name_H-M "C 2/M"
_symmetry_group_IT_number 12
_symmetry_cell_setting 'monoclinic'
loop_
_space_group_symop_operation_xyz
x,y,z
-x,y,-z
-x,-y,-z
x,-y,z
1/2+x,1/2+y,z
1/2-x,1/2+y,-z
1/2-x,1/2-y,-z
1/2+x,1/2-y,z
loop_
_atom_site_type_symbol
_atom_site_label
_atom_site_fract_x
_atom_site_fract_y
_atom_site_fract_z
Si Si1 0.000000 0.381801 0.500000
Si Si2 0.179087 0.565137 0.661683
Si Si3 0.090600 0.802832 0.783536
Si Si4 0.058239 0.324580 0.136786
O O1 0.966571 0.420424 0.399215
O O2 0.739414 0.338905 0.619671
O O3 0.500000 0.567886 0.500000
O O4 0.109443 0.500000 0.729992
O O5 0.093788 0.614795 0.789200
O O6 0.249178 0.822833 0.831159
O O7 0.119174 0.733386 0.768990
O O8 0.771281 0.816108 0.939318
#
# Coordination Sequence:
#
# PCOD9206369 Si02
#       4
#     4   8   8   8
#     4  10  21  36  58  80 107 140 184 226 270 312
#     4  10  22  38  56  79 110 146 182 219 263 321
#     4   9  19  33  54  84 106 140 175 224 280 311
#     4   9  19  35  53  80 112 138 178 222 269 325
#
# _framework density 21.536144
#
# number of rings (size 3 to 8) (size 9 to 14) (size 15 to 20)
#    0.000    2.571    0.000    0.429    6.000    2.286 
#    0.000   12.857    0.000    3.429    0.000    0.000 
#    0.000    0.000    0.000    0.000    0.000    0.000 
#
# Total GULP energy -78166.003713 kJ/mol
# GULP energy per Si atom -5583.285980 kJ/mol
# Density = 2.148713 g / cm^3
# Si number density = 21.536144 Si / 1000 Ang^3
#
#
#
# Elastic Constant Matrix: (Units=GPa)
#
#
# Indices 1 2 3 4 5 6 
#
# 1 35.8458 11.6735 -5.2326 0.0000 -5.2752 0.0000
# 2 11.6735 210.2727 63.6746 0.0000 -9.1514 0.0000
# 3 -5.2326 63.6746 44.1872 0.0000 -8.7523 0.0000
# 4 0.0000 0.0000 0.0000 48.3760 0.0000 10.4548
# 5 -5.2752 -9.1514 -8.7523 0.0000 26.2171 0.0000
# 6 0.0000 0.0000 0.0000 10.4548 0.0000 32.5552
#
#
#
# Elastic Compliance Matrix: (Units=1/GPa)
#
#
# Indices 1 2 3 4 5 6 
#
# 1 0.033141 -0.005646 0.013910 0.000000 0.009342 0.000000
# 2 -0.005646 0.009434 -0.014816 0.000000 -0.002789 0.000000
# 3 0.013910 -0.014816 0.048356 0.000000 0.013770 0.000000
# 4 0.000000 0.000000 0.000000 0.022213 0.000000 -0.007134
# 5 0.009342 -0.002789 0.013770 0.000000 0.043646 0.000000
# 6 0.000000 0.000000 0.000000 -0.007134 0.000000 0.033008
#
#
# Mechanical properties :
#
#
# Convention : Reuss Voigt Hill
#
# Bulk Modulus (GPa) = 12.84872 47.83740 30.34306
# Shear Modulus (GPa) = 21.84891 36.10900 28.97896
#
# Velocity S-wave (km/s) = 3.18861 4.09916 3.67222
# Velocity P-wave (km/s) = 4.41989 6.68319 5.66570
#
# Compressibility (1/GPa) = 0.07782874
#
# Stress axis : x y z
#
# Youngs Moduli (GPa) = 30.17400 105.99564 20.67996
#
# Poissons Ratio (x) = 0.59841 -0.28766
# Poissons Ratio (y) = 0.17035 0.30640
# Poissons Ratio (z) = -0.41973 1.57044
#
# Static dielectric constant tensor:
#      x y z
#    x 1.868890 0.000000 0.012110 
#    y 0.000000 1.743430 0.000000 
#    z 0.012110 0.000000 1.822580 
# 
# From -- ./inp_files/36788.got.cif
#   From: 2010.05.17/outbox.cif.g08.bks.cpg/sg12_19_cif.got.tgz:36788.got - 2010.06.03 13:09:07.
