data_PCOD9206187
_publ_section_title
;
Structure prediction by ZEFSAII (Michael W. Deem and Ramdas Pophale) SiO2 
 PCOD9206187
Probable space group: C 2/M
;
_chemical_formula_sum "Si O2"
_cell_formula_units_Z 64
_cell_length_a 15.634046
_cell_length_b 9.258585
_cell_length_c 20.302496
_cell_angle_alpha 90.000000
_cell_angle_beta 91.492350
_cell_angle_gamma 90.000000
_cell_volume 2937.772115
_symmetry_space_group_name_H-M "C 2/M"
_symmetry_group_IT_number 12
_symmetry_cell_setting 'monoclinic'
loop_
_space_group_symop_operation_xyz
x,y,z
-x,y,-z
-x,-y,-z
x,-y,z
1/2+x,1/2+y,z
1/2-x,1/2+y,-z
1/2-x,1/2-y,-z
1/2+x,1/2-y,z
loop_
_atom_site_type_symbol
_atom_site_label
_atom_site_fract_x
_atom_site_fract_y
_atom_site_fract_z
Si Si1 0.402958 0.675937 0.348141
Si Si2 0.676354 0.834237 0.035544
Si Si3 0.337495 0.666150 0.203914
Si Si4 0.147438 0.658108 0.258347
Si Si5 0.086058 0.168255 0.146161
Si Si6 0.060403 0.169238 0.437134
Si Si7 0.778194 0.668062 0.594470
Si Si8 0.576487 0.165516 0.902462
O O1 0.401519 0.500000 0.350941
O O2 0.388275 0.713478 0.271223
O O3 0.494064 0.724563 0.379277
O O4 0.318423 0.720330 0.389436
O O5 0.650787 0.755426 0.101244
O O6 0.699561 0.000000 0.049328
O O7 0.750000 0.750000 0.000000
O O8 0.601381 0.831993 0.979403
O O9 0.362960 0.500000 0.187248
O O10 0.239912 0.659762 0.225235
O O11 0.349405 0.777607 0.144725
O O12 0.107556 0.500000 0.246533
O O13 0.094238 0.781211 0.221625
O O14 0.171702 0.674041 0.334597
O O15 0.996518 0.221798 0.116263
O O16 0.099247 0.000000 0.139952
O O17 0.152856 0.245113 0.447799
O O18 0.000000 0.179355 0.500000
O O19 0.077890 0.000000 0.424656
O O20 0.772065 0.500000 0.573506
O O21 0.552501 0.000000 0.886170
#
# Coordination Sequence:
#
# PCOD9206187 Si02
#       8
#     8   8   8   8   8   8   8   8
#     4   8  17  36  58  81 116 157 194 237 296 354
#     4  11  24  42  62  82 110 148 188 235 287 339
#     4   9  18  35  59  83 108 146 190 231 284 350
#     4   9  19  37  59  83 113 146 185 237 294 346
#     4  12  25  38  57  84 113 148 189 232 283 345
#     4  10  21  36  56  85 121 158 197 243 293 347
#     4   9  19  37  60  84 114 155 199 244 293 353
#     4  11  24  39  56  82 115 147 184 236 288 334
#
# _framework density 21.785215000000001
#
# number of rings (size 3 to 8) (size 9 to 14) (size 15 to 20)
#    0.000    2.125    0.000    4.500    1.750    7.250 
#    0.000    2.500    0.000    0.000    0.000    0.000 
#    0.000    0.000    0.000    0.000    0.000    0.000 
#
# Total GULP energy -178652.312152 kJ/mol
# GULP energy per Si atom -5582.884755 kJ/mol
# Density = 2.173563 g / cm^3
# Si number density = 21.785215 Si / 1000 Ang^3
#
#
#
# Elastic Constant Matrix: (Units=GPa)
#
#
# Indices 1 2 3 4 5 6 
#
# 1 64.2029 2.0496 -16.1024 0.0000 -12.9793 0.0000
# 2 2.0496 85.3964 5.8541 0.0000 -4.4337 0.0000
# 3 -16.1024 5.8541 45.4574 0.0000 4.5764 0.0000
# 4 0.0000 0.0000 0.0000 18.9415 0.0000 -3.6230
# 5 -12.9793 -4.4337 4.5764 0.0000 30.9428 0.0000
# 6 0.0000 0.0000 0.0000 -3.6230 0.0000 24.3873
#
#
#
# Elastic Compliance Matrix: (Units=1/GPa)
#
#
# Indices 1 2 3 4 5 6 
#
# 1 0.018448 -0.000496 0.005915 0.000000 0.006792 0.000000
# 2 -0.000496 0.011944 -0.001893 0.000000 0.001784 0.000000
# 3 0.005915 -0.001893 0.024480 0.000000 -0.001411 0.000000
# 4 0.000000 0.000000 0.000000 0.054338 0.000000 0.008073
# 5 0.006792 0.001784 -0.001411 0.000000 0.035631 0.000000
# 6 0.000000 0.000000 0.000000 0.008073 0.000000 0.042204
#
#
# Mechanical properties :
#
#
# Convention : Reuss Voigt Hill
#
# Bulk Modulus (GPa) = 16.14881 19.85104 17.99992
# Shear Modulus (GPa) = 24.92087 28.40469 26.66278
#
# Velocity S-wave (km/s) = 3.38588 3.61481 3.50221
# Velocity P-wave (km/s) = 4.76596 5.15309 4.96330
#
# Compressibility (1/GPa) = 0.06192408
#
# Stress axis : x y z
#
# Youngs Moduli (GPa) = 54.20616 83.72132 40.85009
#
# Poissons Ratio (x) = 0.04149 -0.24162
# Poissons Ratio (y) = 0.02686 0.07734
# Poissons Ratio (z) = -0.32062 0.15851
#
# Static dielectric constant tensor:
#      x y z
#    x 1.950890 0.000000 -0.042380 
#    y 0.000000 1.772210 0.000000 
#    z -0.042380 0.000000 1.884910 
# 
# From -- ./inp_files/314158.got.cif
#   From: 2010.05.17/outbox.cif.g08.bks.cpg/sg12_158_cif.got.tgz:314158.got - 2010.06.03 13:09:07.
