data_PCOD9206986
_publ_section_title
;
Structure prediction by ZEFSAII (Michael W. Deem and Ramdas Pophale) SiO2 
 PCOD9206986
Probable space group: C 2/M
;
_chemical_formula_sum "Si O2"
_cell_formula_units_Z 48
_cell_length_a 12.786371
_cell_length_b 23.997439
_cell_length_c 17.106297
_cell_angle_alpha 90.000000
_cell_angle_beta 158.593669
_cell_angle_gamma 90.000000
_cell_volume 1915.741331
_symmetry_space_group_name_H-M "C 2/M"
_symmetry_group_IT_number 12
_symmetry_cell_setting 'monoclinic'
loop_
_space_group_symop_operation_xyz
x,y,z
-x,y,-z
-x,-y,-z
x,-y,z
1/2+x,1/2+y,z
1/2-x,1/2+y,-z
1/2-x,1/2-y,-z
1/2+x,1/2-y,z
loop_
_atom_site_type_symbol
_atom_site_label
_atom_site_fract_x
_atom_site_fract_y
_atom_site_fract_z
Si Si1 0.879239 0.561706 0.095373
Si Si2 0.212266 0.259843 0.263766
Si Si3 0.326740 0.165155 0.224649
Si Si4 0.718122 0.674382 0.971320
Si Si5 0.787141 0.065096 0.251028
Si Si6 0.160240 0.435789 0.455292
O O1 0.806914 0.500000 0.015409
O O2 0.175050 0.580318 0.258933
O O3 0.939432 0.558213 0.228449
O O4 0.654334 0.609224 0.918494
O O5 0.500000 0.284917 0.500000
O O6 0.313005 0.223757 0.259971
O O7 0.951276 0.303029 0.072061
O O8 0.055596 0.213665 0.210494
O O9 0.378864 0.176410 0.168631
O O10 0.522252 0.118036 0.400781
O O11 0.000000 0.143825 0.000000
O O12 0.051724 0.086983 0.386140
O O13 0.866126 0.000000 0.313169
O O14 0.500000 0.070608 0.000000
O O15 0.188676 0.500000 0.507081
#
# Coordination Sequence:
#
# PCOD9206986 Si02
#       6
#     8   8   8   8   8   8
#     4   9  17  32  55  79 105 138 175 218 269 320
#     4  10  21  37  56  77 107 144 183 221 261 311
#     4   9  19  36  55  76 105 136 175 226 266 310
#     4   9  20  38  57  80 109 139 177 224 268 312
#     4   9  17  28  43  70 108 141 170 210 260 315
#     4   9  17  30  51  76 102 138 179 217 263 316
#
# _framework density 25.055574
#
# number of rings (size 3 to 8) (size 9 to 14) (size 15 to 20)
#    0.000    2.833    0.000    0.500    0.000    7.000 
#    0.000    6.667    0.000    1.000    0.000    0.000 
#    0.000    1.333    0.000    0.000    0.000    0.000 
#
# Total GULP energy -133804.081907 kJ/mol
# GULP energy per Si atom -5575.170079 kJ/mol
# Density = 2.499855 g / cm^3
# Si number density = 25.055574 Si / 1000 Ang^3
#
#
#
# Elastic Constant Matrix: (Units=GPa)
#
#
# Indices 1 2 3 4 5 6 
#
# 1 55.3094 10.8539 -9.1909 -0.0031 -7.7549 0.0004
# 2 10.8539 112.0172 2.8142 -0.0030 7.4124 -0.0001
# 3 -9.1909 2.8142 65.2628 0.0021 4.8764 0.0038
# 4 -0.0031 -0.0030 0.0021 19.0976 -0.0021 12.8085
# 5 -7.7549 7.4124 4.8764 -0.0021 18.6984 0.0003
# 6 0.0004 -0.0001 0.0038 12.8085 0.0003 26.7130
#
#
#
# Elastic Compliance Matrix: (Units=1/GPa)
#
#
# Indices 1 2 3 4 5 6 
#
# 1 0.020208 -0.002599 0.002300 0.000006 0.008811 -0.000004
# 2 -0.002599 0.009503 -0.000422 0.000001 -0.004735 0.000000
# 3 0.002300 -0.000422 0.015891 0.000000 -0.003023 -0.000002
# 4 0.000006 0.000001 0.000000 0.077184 0.000012 -0.037009
# 5 0.008811 -0.004735 -0.003023 0.000012 0.059800 -0.000006
# 6 -0.000004 0.000000 -0.000002 -0.037009 -0.000006 0.055180
#
#
# Mechanical properties :
#
#
# Convention : Reuss Voigt Hill
#
# Bulk Modulus (GPa) = 22.64565 26.83818 24.74192
# Shear Modulus (GPa) = 19.69065 28.10929 23.89997
#
# Velocity S-wave (km/s) = 2.80639 3.35308 3.09184
# Velocity P-wave (km/s) = 4.42255 5.07204 4.75839
#
# Compressibility (1/GPa) = 0.04415858
#
# Stress axis : x y z
#
# Youngs Moduli (GPa) = 49.48615 105.23059 62.93029
#
# Poissons Ratio (x) = 0.27348 -0.14471
# Poissons Ratio (y) = 0.12861 0.02656
# Poissons Ratio (z) = -0.11379 0.04440
#
# Static dielectric constant tensor:
#      x y z
#    x 2.072080 0.000000 -0.026340 
#    y 0.000000 2.087090 -0.000010 
#    z -0.026340 -0.000010 1.993760 
# 
# From -- ./inp_files/312612.got.cif
#   From: 2010.05.17/outbox.cif.g08.bks.cpg/sg12_157_cif.got.tgz:312612.got - 2010.06.03 13:09:07.
