data_PCOD9206354
_publ_section_title
;
Structure prediction by ZEFSAII (Michael W. Deem and Ramdas Pophale) SiO2 
 PCOD9206354
Probable space group: C 2/M
;
_chemical_formula_sum "Si O2"
_cell_formula_units_Z 64
_cell_length_a 19.135456
_cell_length_b 14.023755
_cell_length_c 25.302484
_cell_angle_alpha 90.000000
_cell_angle_beta 27.796007
_cell_angle_gamma 90.000000
_cell_volume 3166.321297
_symmetry_space_group_name_H-M "C 2/M"
_symmetry_group_IT_number 12
_symmetry_cell_setting 'monoclinic'
loop_
_space_group_symop_operation_xyz
x,y,z
-x,y,-z
-x,-y,-z
x,-y,z
1/2+x,1/2+y,z
1/2-x,1/2+y,-z
1/2-x,1/2-y,-z
1/2+x,1/2-y,z
loop_
_atom_site_type_symbol
_atom_site_label
_atom_site_fract_x
_atom_site_fract_y
_atom_site_fract_z
Si Si1 0.265578 0.745796 0.125632
Si Si2 0.155311 0.112388 0.732889
Si Si3 0.590349 0.252843 0.863295
Si Si4 0.329302 0.386441 0.902083
Si Si5 0.202904 0.388309 0.600605
Si Si6 0.588256 0.768159 0.494041
Si Si7 0.527144 0.112704 0.334638
Si Si8 0.989175 0.387351 0.841354
O O1 0.315982 0.783962 0.149541
O O2 0.192003 0.823521 0.136219
O O3 0.156697 0.658577 0.211779
O O4 0.423700 0.718376 0.993473
O O5 0.161857 0.156600 0.786824
O O6 0.275468 0.165039 0.616286
O O7 0.987796 0.132964 0.823375
O O8 0.180308 0.000000 0.715987
O O9 0.571154 0.172001 0.831993
O O10 0.323399 0.500000 0.893988
O O11 0.187906 0.364823 0.035273
O O12 0.241714 0.500000 0.579473
O O13 0.340778 0.321230 0.522881
O O14 0.128793 0.373011 0.593121
O O15 0.071127 0.367711 0.731525
O O16 0.500000 0.739501 0.500000
O O17 0.488905 0.829870 0.600427
O O18 0.549651 0.000000 0.326976
O O19 0.003724 0.500000 0.841611
#
# Coordination Sequence:
#
# PCOD9206354 Si02
#       8
#     8   8   8   8   8   8   8   8
#     4  10  22  37  58  88 124 161 200 244 302 355
#     4  11  23  39  62  89 119 157 205 253 294 349
#     4  10  21  36  57  89 125 161 195 245 301 360
#     4   9  20  37  62  94 123 156 198 245 300 362
#     4  10  22  41  66  93 121 153 197 253 307 359
#     4  12  25  43  66  87 119 161 207 250 299 356
#     4  11  25  42  62  87 119 162 207 248 296 354
#     4   9  18  35  62  92 123 158 195 240 304 369
#
# _framework density 20.212731000000002
#
# number of rings (size 3 to 8) (size 9 to 14) (size 15 to 20)
#    0.000    1.750    1.250    2.250    1.750    4.750 
#    0.000    5.625    0.000    0.000    0.000    0.000 
#    0.000    0.000    0.000    0.000    0.000    0.000 
#
# Total GULP energy -178850.494007 kJ/mol
# GULP energy per Si atom -5589.077938 kJ/mol
# Density = 2.016673 g / cm^3
# Si number density = 20.212731 Si / 1000 Ang^3
#
#
#
# Elastic Constant Matrix: (Units=GPa)
#
#
# Indices 1 2 3 4 5 6 
#
# 1 84.7381 27.9661 24.3032 -0.0015 -2.4113 -0.0001
# 2 27.9661 65.0958 28.9286 -0.0021 -3.7258 -0.0008
# 3 24.3032 28.9286 48.0737 -0.0079 -3.5856 -0.0024
# 4 -0.0015 -0.0021 -0.0079 23.4242 -0.0013 8.5252
# 5 -2.4113 -3.7258 -3.5856 -0.0013 28.3146 -0.0010
# 6 -0.0001 -0.0008 -0.0024 8.5252 -0.0010 8.1288
#
#
#
# Elastic Compliance Matrix: (Units=1/GPa)
#
#
# Indices 1 2 3 4 5 6 
#
# 1 0.014552 -0.004068 -0.004902 -0.000001 0.000083 -0.000001
# 2 -0.004068 0.022146 -0.011184 -0.000003 0.001151 0.000002
# 3 -0.004902 -0.011184 0.030153 0.000010 0.001929 -0.000002
# 4 -0.000001 -0.000003 0.000010 0.069045 0.000002 -0.072412
# 5 0.000083 0.001151 0.001929 0.000002 0.035720 0.000003
# 6 -0.000001 0.000002 -0.000002 -0.072412 0.000003 0.198962
#
#
# Mechanical properties :
#
#
# Convention : Reuss Voigt Hill
#
# Bulk Modulus (GPa) = 37.67544 40.03372 38.85458
# Shear Modulus (GPa) = 11.91227 19.75417 15.83322
#
# Velocity S-wave (km/s) = 2.43028 3.12959 2.80184
# Velocity P-wave (km/s) = 5.15315 5.73658 5.45267
#
# Compressibility (1/GPa) = 0.02654249
#
# Stress axis : x y z
#
# Youngs Moduli (GPa) = 68.71845 45.15534 33.16373
#
# Poissons Ratio (x) = 0.18371 0.16258
# Poissons Ratio (y) = 0.27958 0.37089
# Poissons Ratio (z) = 0.33687 0.50500
#
# Static dielectric constant tensor:
#      x y z
#    x 1.726520 0.000000 -0.010590 
#    y 0.000000 1.687160 0.000000 
#    z -0.010590 0.000000 1.721680 
# 
# From -- ./inp_files/344012.got.cif
#   From: 2010.05.17/outbox.cif.g08.bks.cpg/sg12_173_cif.got.tgz:344012.got - 2010.06.03 13:09:07.
