data_PCOD9206596
_publ_section_title
;
Structure prediction by ZEFSAII (Michael W. Deem and Ramdas Pophale) SiO2 
 PCOD9206596
Probable space group: C 2/M
;
_chemical_formula_sum "Si O2"
_cell_formula_units_Z 56
_cell_length_a 20.882072
_cell_length_b 21.181065
_cell_length_c 5.780957
_cell_angle_alpha 90.000000
_cell_angle_beta 75.949836
_cell_angle_gamma 90.000000
_cell_volume 2480.448754
_symmetry_space_group_name_H-M "C 2/M"
_symmetry_group_IT_number 12
_symmetry_cell_setting 'monoclinic'
loop_
_space_group_symop_operation_xyz
x,y,z
-x,y,-z
-x,-y,-z
x,-y,z
1/2+x,1/2+y,z
1/2-x,1/2+y,-z
1/2-x,1/2-y,-z
1/2+x,1/2-y,z
loop_
_atom_site_type_symbol
_atom_site_label
_atom_site_fract_x
_atom_site_fract_y
_atom_site_fract_z
Si Si1 0.720751 0.329572 0.438793
Si Si2 0.209699 0.573985 0.262078
Si Si3 0.673493 0.433901 0.206789
Si Si4 0.846788 0.717621 0.258691
Si Si5 0.531226 0.407603 0.224100
Si Si6 0.447182 0.262663 0.852860
Si Si7 0.074158 0.357887 0.450303
O O1 0.756213 0.372522 0.604203
O O2 0.667728 0.375276 0.379218
O O3 0.782147 0.315672 0.214931
O O4 0.684768 0.264099 0.523680
O O5 0.205902 0.500000 0.350810
O O6 0.134169 0.599475 0.296647
O O7 0.260401 0.570623 0.002873
O O8 0.676926 0.500000 0.336244
O O9 0.605844 0.431588 0.129061
O O10 0.896941 0.667104 0.327495
O O11 0.878986 0.764529 0.050292
O O12 0.500000 0.429570 0.500000
O O13 0.532192 0.331361 0.243539
O O14 0.500000 0.422220 0.000000
O O15 0.436567 0.207481 0.679428
O O16 0.500000 0.242463 0.000000
O O17 0.000000 0.387338 0.500000
#
# Coordination Sequence:
#
# PCOD9206596 Si02
#       7
#     8   8   8   8   8   8   8
#     4  10  21  38  63  90 126 159 215 271 332 398
#     4  10  23  41  62  89 122 171 226 278 332 396
#     4  11  24  42  66  88 124 173 223 279 331 397
#     4  10  21  36  59  96 124 164 207 267 334 403
#     4  11  27  44  68 101 139 178 223 279 344 408
#     4  11  21  34  61  88 127 165 205 263 332 408
#     4  11  21  37  60  91 131 166 215 272 337 406
#
# _framework density 22.576559
#
# number of rings (size 3 to 8) (size 9 to 14) (size 15 to 20)
#    0.000    1.429    1.429    3.429    8.000    0.857 
#    0.000    5.714    0.000    0.429    0.000    0.000 
#    0.000    0.000    0.000    0.000    0.000    0.000 
#
# Total GULP energy -155976.757963 kJ/mol
# GULP energy per Si atom -5570.598499 kJ/mol
# Density = 2.252517 g / cm^3
# Si number density = 22.576559 Si / 1000 Ang^3
#
#
#
# Elastic Constant Matrix: (Units=GPa)
#
#
# Indices 1 2 3 4 5 6 
#
# 1 117.8953 29.3056 26.8762 0.0000 -7.5376 0.0000
# 2 29.3056 87.9203 3.5291 0.0000 1.3968 0.0000
# 3 26.8762 3.5291 52.7689 0.0000 -16.3636 0.0000
# 4 0.0000 0.0000 0.0000 -11.3126 0.0000 -40.1091
# 5 -7.5376 1.3968 -16.3636 0.0000 29.4596 0.0000
# 6 0.0000 0.0000 0.0000 -40.1091 0.0000 -433.5781
#
#
#
# Elastic Compliance Matrix: (Units=1/GPa)
#
#
# Indices 1 2 3 4 5 6 
#
# 1 0.010463 -0.003282 -0.005111 0.000000 -0.000007 0.000000
# 2 -0.003282 0.012467 0.000476 0.000000 -0.001166 0.000000
# 3 -0.005111 0.000476 0.025502 0.000000 0.012835 0.000000
# 4 0.000000 0.000000 0.000000 -0.131540 0.000000 0.012168
# 5 -0.000007 -0.001166 0.012835 0.000000 0.041128 0.000000
# 6 0.000000 0.000000 0.000000 0.012168 0.000000 -0.003432
#
#
# Mechanical properties :
#
#
# Convention : Reuss Voigt Hill
#
# Bulk Modulus (GPa) = 30.67720 42.00070 36.33895
# Shear Modulus (GPa) = -267.21821 -69.82798 -168.52310
#
# Velocity S-wave (km/s) = -10.89118 -5.56746 -8.64912
# Velocity P-wave (km/s) = 12.02246 4.76284 9.14397
#
# Compressibility (1/GPa) = 0.03259750
#
# Stress axis : x y z
#
# Youngs Moduli (GPa) = 95.57693 80.20938 39.21232
#
# Poissons Ratio (x) = 0.26326 0.20043
# Poissons Ratio (y) = 0.31370 -0.01867
# Poissons Ratio (z) = 0.48853 -0.03819
#
# Static dielectric constant tensor:
#      x y z
#    x 1.896740 0.000000 -0.015490 
#    y 0.000000 1.853050 0.000000 
#    z -0.015490 0.000000 1.903280 
# 
# From -- ./inp_files/21848.got.cif
#   From: 2010.05.17/outbox.cif.g08.bks.cpg/sg12_11_cif.got.tgz:21848.got - 2010.06.03 13:09:07.
