data_PCOD9206457
_publ_section_title
;
Structure prediction by ZEFSAII (Michael W. Deem and Ramdas Pophale) SiO2 
 PCOD9206457
Probable space group: C 2/M
;
_chemical_formula_sum "Si O2"
_cell_formula_units_Z 48
_cell_length_a 21.287697
_cell_length_b 14.567017
_cell_length_c 11.563360
_cell_angle_alpha 90.000000
_cell_angle_beta 138.555621
_cell_angle_gamma 90.000000
_cell_volume 2373.399940
_symmetry_space_group_name_H-M "C 2/M"
_symmetry_group_IT_number 12
_symmetry_cell_setting 'monoclinic'
loop_
_space_group_symop_operation_xyz
x,y,z
-x,y,-z
-x,-y,-z
x,-y,z
1/2+x,1/2+y,z
1/2-x,1/2+y,-z
1/2-x,1/2-y,-z
1/2+x,1/2-y,z
loop_
_atom_site_type_symbol
_atom_site_label
_atom_site_fract_x
_atom_site_fract_y
_atom_site_fract_z
Si Si1 0.623838 0.399355 0.581142
Si Si2 0.231249 0.828873 0.069399
Si Si3 0.472240 0.602313 0.166762
Si Si4 0.913810 0.603455 0.216881
Si Si5 0.500000 0.746386 0.000000
Si Si6 0.000000 0.255106 0.500000
Si Si7 0.675288 0.825890 0.147305
O O1 0.612918 0.500000 0.622490
O O2 0.554115 0.395992 0.375584
O O3 0.588249 0.313990 0.608122
O O4 0.733385 0.386428 0.699120
O O5 0.321894 0.892433 0.175109
O O6 0.218703 0.773362 0.171140
O O7 0.250000 0.750000 0.000000
O O8 0.130503 0.878738 0.917656
O O9 0.470081 0.500000 0.111869
O O10 0.492253 0.680613 0.100457
O O11 0.951638 0.500000 0.266889
O O12 0.984077 0.679032 0.368043
O O13 0.877095 0.633024 0.039158
O O14 0.405665 0.808449 0.870638
#
# Coordination Sequence:
#
# PCOD9206457 Si02
#       7
#     8   8   8   8   4   4   8
#     4  11  23  37  58  90 121 151 193 246 298 354
#     4   9  17  34  55  83 118 155 190 230 291 349
#     4  10  21  36  58  89 117 151 201 250 293 348
#     4  11  22  37  59  87 122 159 195 240 290 353
#     4  10  21  40  65  78 110 166 198 244 298 342
#     4  12  22  38  58  86 126 158 194 234 294 364
#     4  10  21  39  59  87 115 154 199 241 290 348
#
# _framework density 20.224150000000002
#
# number of rings (size 3 to 8) (size 9 to 14) (size 15 to 20)
#    0.000    1.667    1.667    4.750    2.333    0.667 
#    0.000    1.667    0.000    2.000    0.000    0.000 
#    0.000    0.000    0.000    0.000    0.000    0.000 
#
# Total GULP energy -133933.362582 kJ/mol
# GULP energy per Si atom -5580.556774 kJ/mol
# Density = 2.017812 g / cm^3
# Si number density = 20.224150 Si / 1000 Ang^3
#
#
#
# Elastic Constant Matrix: (Units=GPa)
#
#
# Indices 1 2 3 4 5 6 
#
# 1 78.7062 23.7042 13.5200 0.0000 25.6727 0.0000
# 2 23.7042 129.2979 30.8283 0.0000 10.7664 0.0000
# 3 13.5200 30.8283 73.8865 0.0000 15.7325 0.0000
# 4 0.0000 0.0000 0.0000 22.1092 0.0000 1.1192
# 5 25.6727 10.7664 15.7325 0.0000 26.8715 0.0000
# 6 0.0000 0.0000 0.0000 1.1192 0.0000 18.7116
#
#
#
# Elastic Compliance Matrix: (Units=1/GPa)
#
#
# Indices 1 2 3 4 5 6 
#
# 1 0.019065 -0.002306 0.001320 0.000000 -0.018063 0.000000
# 2 -0.002306 0.008923 -0.003437 0.000000 0.000640 0.000000
# 3 0.001320 -0.003437 0.016796 0.000000 -0.009717 0.000000
# 4 0.000000 0.000000 0.000000 0.045367 0.000000 -0.002714
# 5 -0.018063 0.000640 -0.009717 0.000000 0.059904 0.000000
# 6 0.000000 0.000000 0.000000 -0.002714 0.000000 0.053605
#
#
# Mechanical properties :
#
#
# Convention : Reuss Voigt Hill
#
# Bulk Modulus (GPa) = 27.82628 46.44394 37.13511
# Shear Modulus (GPa) = 22.27297 27.79434 25.03365
#
# Velocity S-wave (km/s) = 3.32219 3.71120 3.52207
# Velocity P-wave (km/s) = 5.33898 6.43261 5.91114
#
# Compressibility (1/GPa) = 0.03593725
#
# Stress axis : x y z
#
# Youngs Moduli (GPa) = 52.45151 112.06910 59.53761
#
# Poissons Ratio (x) = 0.25841 -0.07857
# Poissons Ratio (y) = 0.12094 0.20466
# Poissons Ratio (z) = -0.06922 0.38523
#
# Static dielectric constant tensor:
#      x y z
#    x 1.729120 0.000000 0.019890 
#    y 0.000000 1.762850 0.000000 
#    z 0.019890 0.000000 1.739360 
# 
# From -- ./inp_files/167656.got.cif
#   From: 2010.05.17/outbox.cif.g08.bks.cpg/sg12_84_cif.got.tgz:167656.got - 2010.06.03 13:09:07.
