data_PCOD9206633
_publ_section_title
;
Structure prediction by ZEFSAII (Michael W. Deem and Ramdas Pophale) SiO2 
 PCOD9206633
Probable space group: C 2/M
;
_chemical_formula_sum "Si O2"
_cell_formula_units_Z 40
_cell_length_a 23.342094
_cell_length_b 10.242699
_cell_length_c 8.218961
_cell_angle_alpha 90.000000
_cell_angle_beta 115.496886
_cell_angle_gamma 90.000000
_cell_volume 1773.661136
_symmetry_space_group_name_H-M "C 2/M"
_symmetry_group_IT_number 12
_symmetry_cell_setting 'monoclinic'
loop_
_space_group_symop_operation_xyz
x,y,z
-x,y,-z
-x,-y,-z
x,-y,z
1/2+x,1/2+y,z
1/2-x,1/2+y,-z
1/2-x,1/2-y,-z
1/2+x,1/2-y,z
loop_
_atom_site_type_symbol
_atom_site_label
_atom_site_fract_x
_atom_site_fract_y
_atom_site_fract_z
Si Si1 0.358610 0.148034 0.037245
Si Si2 0.722709 0.647549 0.239861
Si Si3 0.945586 0.356801 0.834711
Si Si4 0.430004 0.358154 0.334503
Si Si5 0.847698 0.779310 0.512468
O O1 0.408299 0.232178 0.204402
O O2 0.344370 0.000000 0.080545
O O3 0.301232 0.245339 0.919487
O O4 0.390917 0.129876 0.901163
O O5 0.716291 0.500000 0.171544
O O6 0.794461 0.682487 0.377395
O O7 0.682737 0.658909 0.361369
O O8 0.971043 0.500000 0.818792
O O9 0.912078 0.292341 0.644185
O O10 0.000000 0.282160 0.000000
O O11 0.500000 0.343793 0.500000
O O12 0.431167 0.500000 0.247004
O O13 0.374182 0.366556 0.400732
#
# Coordination Sequence:
#
# PCOD9206633 Si02
#       5
#     8   8   8   8   8
#     4  10  22  38  58  86 119 156 198 243 294 352
#     4  10  21  39  63  88 117 155 200 250 299 347
#     4   9  17  32  55  83 115 151 194 243 291 343
#     4  11  24  41  61  88 123 159 194 237 293 356
#     4  10  21  36  60  89 119 153 198 244 293 349
#
# _framework density 22.552223000000001
#
# number of rings (size 3 to 8) (size 9 to 14) (size 15 to 20)
#    0.000    2.000    0.000    3.000    0.000    8.400 
#    0.000    0.000    0.000    9.600    0.000    0.000 
#    0.000    0.000    0.000    0.000    0.000    0.000 
#
# Total GULP energy -111447.750587 kJ/mol
# GULP energy per Si atom -5572.387529 kJ/mol
# Density = 2.250089 g / cm^3
# Si number density = 22.552223 Si / 1000 Ang^3
#
#
#
# Elastic Constant Matrix: (Units=GPa)
#
#
# Indices 1 2 3 4 5 6 
#
# 1 65.7868 9.3742 -11.1448 0.0000 -2.2328 0.0000
# 2 9.3742 186.7762 71.7810 0.0000 11.4300 0.0000
# 3 -11.1448 71.7810 90.1845 0.0000 29.7071 0.0000
# 4 0.0000 0.0000 0.0000 7.4050 0.0000 0.8998
# 5 -2.2328 11.4300 29.7071 0.0000 36.9134 0.0000
# 6 0.0000 0.0000 0.0000 0.8998 0.0000 6.3019
#
#
#
# Elastic Compliance Matrix: (Units=1/GPa)
#
#
# Indices 1 2 3 4 5 6 
#
# 1 0.016271 -0.002476 0.004633 0.000000 -0.001978 0.000000
# 2 -0.002476 0.008432 -0.008311 0.000000 0.003928 0.000000
# 3 0.004633 -0.008311 0.023590 0.000000 -0.016131 0.000000
# 4 0.000000 0.000000 0.000000 0.137428 0.000000 -0.019622
# 5 -0.001978 0.003928 -0.016131 0.000000 0.038736 0.000000
# 6 0.000000 0.000000 0.000000 -0.019622 0.000000 0.161484
#
#
# Mechanical properties :
#
#
# Convention : Reuss Voigt Hill
#
# Bulk Modulus (GPa) = 27.78991 53.64090 40.71541
# Shear Modulus (GPa) = 12.18786 28.30653 20.24720
#
# Velocity S-wave (km/s) = 2.32723 3.54666 2.99957
# Velocity P-wave (km/s) = 4.42386 6.37248 5.48540
#
# Compressibility (1/GPa) = 0.03598428
#
# Stress axis : x y z
#
# Youngs Moduli (GPa) = 61.45816 118.59514 42.39138
#
# Poissons Ratio (x) = 0.29366 -0.19640
# Poissons Ratio (y) = 0.15218 0.35233
# Poissons Ratio (z) = -0.28474 0.98568
#
# Static dielectric constant tensor:
#      x y z
#    x 1.868320 0.000000 -0.011710 
#    y 0.000000 1.899330 0.000000 
#    z -0.011710 0.000000 1.829890 
# 
# From -- ./inp_files/102858.got.cif
#   From: 2010.05.17/outbox.cif.g08.bks.cpg/sg12_52_cif.got.tgz:102858.got - 2010.06.03 13:09:07.
