data_PCOD9206499
_publ_section_title
;
Structure prediction by ZEFSAII (Michael W. Deem and Ramdas Pophale) SiO2 
 PCOD9206499
Probable space group: C 2/M
;
_chemical_formula_sum "Si O2"
_cell_formula_units_Z 52
_cell_length_a 10.964964
_cell_length_b 18.091611
_cell_length_c 24.744841
_cell_angle_alpha 90.000000
_cell_angle_beta 144.563830
_cell_angle_gamma 90.000000
_cell_volume 2846.060059
_symmetry_space_group_name_H-M "C 2/M"
_symmetry_group_IT_number 12
_symmetry_cell_setting 'monoclinic'
loop_
_space_group_symop_operation_xyz
x,y,z
-x,y,-z
-x,-y,-z
x,-y,z
1/2+x,1/2+y,z
1/2-x,1/2+y,-z
1/2-x,1/2-y,-z
1/2+x,1/2-y,z
loop_
_atom_site_type_symbol
_atom_site_label
_atom_site_fract_x
_atom_site_fract_y
_atom_site_fract_z
Si Si1 0.793416 0.197360 0.389167
Si Si2 0.108250 0.773819 0.702209
Si Si3 0.738576 0.084781 0.038901
Si Si4 0.005959 0.418247 0.762183
Si Si5 0.605797 0.324481 0.124820
Si Si6 0.000000 0.294673 0.000000
Si Si7 0.319817 0.919688 0.814577
O O1 0.863153 0.218170 0.352477
O O2 0.618448 0.248527 0.356210
O O3 0.669709 0.119750 0.338404
O O4 0.000000 0.193400 0.500000
O O5 0.283242 0.714002 0.784049
O O6 0.168593 0.849490 0.755525
O O7 0.697558 0.149571 0.067530
O O8 0.938082 0.112894 0.078183
O O9 0.758896 0.000000 0.065259
O O10 0.527420 0.088299 0.926461
O O11 0.067404 0.500000 0.765419
O O12 0.203460 0.363749 0.837256
O O13 0.909899 0.423636 0.786621
O O14 0.505684 0.259408 0.053110
O O15 0.221661 0.000000 0.792372
#
# Coordination Sequence:
#
# PCOD9206499 Si02
#       7
#     8   8   8   8   8   4   8
#     4  10  21  37  60  86 109 141 182 235 294 350
#     4  10  21  36  59  82 113 146 187 236 284 342
#     4  11  23  36  52  77 115 155 193 236 280 329
#     4   9  19  35  55  81 110 140 182 232 284 339
#     4  11  22  33  56  79 113 151 196 232 281 326
#     4  12  23  34  53  80 114 154 200 242 269 332
#     4   9  18  34  53  77 110 151 190 226 276 331
#
# _framework density 18.270872000000001
#
# number of rings (size 3 to 8) (size 9 to 14) (size 15 to 20)
#    0.000    1.846    1.538    2.538    6.462    0.308 
#    0.000    3.077    0.000    1.385    0.000    0.000 
#    0.000    0.000    0.000    0.000    0.000    0.000 
#
# Total GULP energy -144874.777867 kJ/mol
# GULP energy per Si atom -5572.106841 kJ/mol
# Density = 1.822929 g / cm^3
# Si number density = 18.270872 Si / 1000 Ang^3
#
#
#
# Elastic Constant Matrix: (Units=GPa)
#
#
# Indices 1 2 3 4 5 6 
#
# 1 58.4162 27.6796 32.4988 0.0001 -0.1058 0.0000
# 2 27.6796 118.9248 29.9386 0.0000 8.0560 0.0000
# 3 32.4988 29.9386 70.1913 0.0003 1.3373 0.0001
# 4 0.0001 0.0000 0.0003 12.3309 0.0001 0.7129
# 5 -0.1058 8.0560 1.3373 0.0001 25.2633 0.0000
# 6 0.0000 0.0000 0.0001 0.7129 0.0000 15.5841
#
#
#
# Elastic Compliance Matrix: (Units=1/GPa)
#
#
# Indices 1 2 3 4 5 6 
#
# 1 0.024123 -0.003257 -0.009812 0.000000 0.001659 0.000000
# 2 -0.003257 0.010061 -0.002725 0.000000 -0.003078 0.000000
# 3 -0.009812 -0.002725 0.019956 0.000000 -0.000229 0.000000
# 4 0.000000 0.000000 0.000000 0.081312 0.000000 -0.003720
# 5 0.001659 -0.003078 -0.000229 0.000000 0.040584 0.000000
# 6 0.000000 0.000000 0.000000 -0.003720 0.000000 0.064338
#
#
# Mechanical properties :
#
#
# Convention : Reuss Voigt Hill
#
# Bulk Modulus (GPa) = 44.33816 47.52958 45.93387
# Shear Modulus (GPa) = 17.89041 21.13001 19.51021
#
# Velocity S-wave (km/s) = 3.13257 3.40440 3.27131
# Velocity P-wave (km/s) = 6.11587 6.44388 6.28202
#
# Compressibility (1/GPa) = 0.02255393
#
# Stress axis : x y z
#
# Youngs Moduli (GPa) = 41.45362 99.39211 50.11000
#
# Poissons Ratio (x) = 0.32373 0.49166
# Poissons Ratio (y) = 0.13502 0.13653
# Poissons Ratio (z) = 0.40673 0.27081
#
# Static dielectric constant tensor:
#      x y z
#    x 1.688080 0.000000 -0.021100 
#    y 0.000000 1.680580 0.000000 
#    z -0.021100 0.000000 1.592860 
# 
# From -- ./inp_files/306154.got.cif
#   From: 2010.05.17/outbox.cif.g08.bks.cpg/sg12_154_cif.got.tgz:306154.got - 2010.06.03 13:09:07.
