data_PCOD9206881
_publ_section_title
;
Structure prediction by ZEFSAII (Michael W. Deem and Ramdas Pophale) SiO2 
 PCOD9206881
Probable space group: C 2/M
;
_chemical_formula_sum "Si O2"
_cell_formula_units_Z 56
_cell_length_a 15.034912
_cell_length_b 7.867438
_cell_length_c 30.928370
_cell_angle_alpha 90.000000
_cell_angle_beta 51.391368
_cell_angle_gamma 90.000000
_cell_volume 2858.771022
_symmetry_space_group_name_H-M "C 2/M"
_symmetry_group_IT_number 12
_symmetry_cell_setting 'monoclinic'
loop_
_space_group_symop_operation_xyz
x,y,z
-x,y,-z
-x,-y,-z
x,-y,z
1/2+x,1/2+y,z
1/2-x,1/2+y,-z
1/2-x,1/2-y,-z
1/2+x,1/2-y,z
loop_
_atom_site_type_symbol
_atom_site_label
_atom_site_fract_x
_atom_site_fract_y
_atom_site_fract_z
Si Si1 0.034422 0.200157 0.354925
Si Si2 0.308820 0.703283 0.936836
Si Si3 0.566304 0.802583 0.853917
Si Si4 0.394754 0.207723 0.061853
Si Si5 0.286019 0.301307 0.270655
Si Si6 0.916092 0.206384 0.563603
Si Si7 0.341610 0.297221 0.348621
O O1 0.163300 0.219164 0.298577
O O2 0.041065 0.268248 0.402176
O O3 0.939217 0.271982 0.351116
O O4 0.009241 0.000000 0.366910
O O5 0.323458 0.500000 0.931114
O O6 0.430500 0.787133 0.893761
O O7 0.221406 0.755068 0.926130
O O8 0.250000 0.750000 0.000000
O O9 0.598902 0.730730 0.891085
O O10 0.627935 0.718166 0.794907
O O11 0.599568 0.000000 0.842578
O O12 0.401462 0.000000 0.060975
O O13 0.500000 0.264750 0.000000
O O14 0.262415 0.500000 0.284754
O O15 0.338117 0.231627 0.300007
O O16 0.786376 0.264887 0.595892
O O17 0.000000 0.260851 0.500000
O O18 0.914249 0.000000 0.565091
O O19 0.360934 0.500000 0.339976
#
# Coordination Sequence:
#
# PCOD9206881 Si02
#       7
#     8   8   8   8   8   8   8
#     4   9  18  35  56  76 103 143 183 215 260 319
#     4  11  21  36  57  80 106 136 171 210 255 309
#     4  11  22  38  58  79 105 139 176 213 262 320
#     4   9  18  35  56  76 102 137 169 199 249 316
#     4  10  21  37  54  77 106 134 174 225 269 307
#     4   9  18  32  51  79 113 143 176 222 268 307
#     4   9  19  35  55  76 104 144 183 218 261 317
#
# _framework density 19.588837999999999
#
# number of rings (size 3 to 8) (size 9 to 14) (size 15 to 20)
#    0.000    2.286    1.429    1.286    0.000    3.143 
#    0.000    9.286    0.000    0.000    0.000    0.000 
#    0.000    0.000    0.000    0.000    0.000    0.000 
#
# Total GULP energy -156224.214045 kJ/mol
# GULP energy per Si atom -5579.436216 kJ/mol
# Density = 1.954425 g / cm^3
# Si number density = 19.588838 Si / 1000 Ang^3
#
#
#
# Elastic Constant Matrix: (Units=GPa)
#
#
# Indices 1 2 3 4 5 6 
#
# 1 183.4594 -0.7329 71.6699 0.0000 5.3815 -0.0002
# 2 -0.7329 20.1179 -13.9395 0.0002 6.6882 -0.0003
# 3 71.6699 -13.9395 136.7746 0.0001 5.0122 0.0001
# 4 0.0000 0.0002 0.0001 23.7229 0.0001 -8.0224
# 5 5.3815 6.6882 5.0122 0.0001 11.9946 0.0001
# 6 -0.0002 -0.0003 0.0001 -8.0224 0.0001 17.1124
#
#
#
# Elastic Compliance Matrix: (Units=1/GPa)
#
#
# Indices 1 2 3 4 5 6 
#
# 1 0.006964 -0.002381 -0.003886 0.000000 -0.000173 0.000000
# 2 -0.002381 0.070699 0.010012 0.000000 -0.042537 0.000001
# 3 -0.003886 0.010012 0.010672 0.000000 -0.008299 0.000000
# 4 0.000000 0.000000 0.000000 0.050095 0.000000 0.023485
# 5 -0.000173 -0.042537 -0.008299 0.000000 0.110635 -0.000001
# 6 0.000000 0.000001 0.000000 0.023485 -0.000001 0.069447
#
#
# Mechanical properties :
#
#
# Convention : Reuss Voigt Hill
#
# Bulk Modulus (GPa) = 10.43568 50.48300 30.45934
# Shear Modulus (GPa) = 14.57881 29.45628 22.01754
#
# Velocity S-wave (km/s) = 2.73104 3.88200 3.35622
# Velocity P-wave (km/s) = 3.90943 6.77647 5.53191
#
# Compressibility (1/GPa) = 0.09582512
#
# Stress axis : x y z
#
# Youngs Moduli (GPa) = 143.58920 14.14453 93.70469
#
# Poissons Ratio (x) = 0.03368 0.36410
# Poissons Ratio (y) = 0.34188 -0.93815
# Poissons Ratio (z) = 0.55793 -0.14161
#
# Static dielectric constant tensor:
#      x y z
#    x 1.690920 0.000000 0.030720 
#    y 0.000000 1.724700 0.000000 
#    z 0.030720 0.000000 1.654850 
# 
# From -- ./inp_files/308985.got.cif
#   From: 2010.05.17/outbox.cif.g08.bks.cpg/sg12_155_cif.got.tgz:308985.got - 2010.06.03 13:09:07.
