data_PCOD9206305
_publ_section_title
;
Structure prediction by ZEFSAII (Michael W. Deem and Ramdas Pophale) SiO2 
 PCOD9206305
Probable space group: C 2/M
;
_chemical_formula_sum "Si O2"
_cell_formula_units_Z 48
_cell_length_a 23.808775
_cell_length_b 8.894735
_cell_length_c 11.531892
_cell_angle_alpha 90.000000
_cell_angle_beta 78.253622
_cell_angle_gamma 90.000000
_cell_volume 2390.997951
_symmetry_space_group_name_H-M "C 2/M"
_symmetry_group_IT_number 12
_symmetry_cell_setting 'monoclinic'
loop_
_space_group_symop_operation_xyz
x,y,z
-x,y,-z
-x,-y,-z
x,-y,z
1/2+x,1/2+y,z
1/2-x,1/2+y,-z
1/2-x,1/2-y,-z
1/2+x,1/2-y,z
loop_
_atom_site_type_symbol
_atom_site_label
_atom_site_fract_x
_atom_site_fract_y
_atom_site_fract_z
Si Si1 0.397641 0.177246 0.757888
Si Si2 0.700296 0.327353 0.594367
Si Si3 0.916062 0.828403 0.506581
Si Si4 0.136027 0.320373 0.830061
Si Si5 0.524131 0.179426 0.730566
Si Si6 0.187109 0.821564 0.035643
O O1 0.407979 0.223920 0.620954
O O2 0.458823 0.210324 0.794049
O O3 0.345912 0.268632 0.835410
O O4 0.386095 0.000000 0.772654
O O5 0.715091 0.500000 0.617846
O O6 0.750000 0.250000 0.500000
O O7 0.643788 0.328884 0.538106
O O8 0.682524 0.235766 0.716224
O O9 0.961296 0.765742 0.394375
O O10 0.929095 0.000000 0.535698
O O11 0.139524 0.500000 0.842608
O O12 0.073334 0.283016 0.803173
O O13 0.149723 0.239783 0.944077
O O14 0.528482 0.000000 0.706199
O O15 0.191703 0.000000 0.029922
O O16 0.250000 0.750000 0.000000
#
# Coordination Sequence:
#
# PCOD9206305 Si02
#       6
#     8   8   8   8   8   8
#     4  11  23  40  63  91 124 165 208 249 300 363
#     4  10  21  36  57  86 120 160 205 251 306 363
#     4  10  21  36  57  90 128 162 202 253 305 358
#     4  10  21  41  65  89 121 158 201 253 304 359
#     4   9  20  39  64  93 125 162 203 248 303 364
#     4  12  27  46  65  88 120 160 206 253 306 364
#
# _framework density 20.075299999999999
#
# number of rings (size 3 to 8) (size 9 to 14) (size 15 to 20)
#    0.000    1.667    0.000    4.000    2.333    6.667 
#    0.000    3.333    0.000    0.000    0.000    0.000 
#    0.000    0.000    0.000    0.000    0.000    0.000 
#
# Total GULP energy -134186.032373 kJ/mol
# GULP energy per Si atom -5591.084682 kJ/mol
# Density = 2.002961 g / cm^3
# Si number density = 20.075300 Si / 1000 Ang^3
#
#
#
# Elastic Constant Matrix: (Units=GPa)
#
#
# Indices 1 2 3 4 5 6 
#
# 1 53.8560 45.0350 34.2977 0.0000 -16.3184 0.0000
# 2 45.0350 111.3619 30.8768 0.0000 -8.0989 0.0000
# 3 34.2977 30.8768 54.1641 0.0000 -6.3050 0.0000
# 4 0.0000 0.0000 0.0000 39.5008 0.0000 2.6484
# 5 -16.3184 -8.0989 -6.3050 0.0000 33.3977 0.0000
# 6 0.0000 0.0000 0.0000 2.6484 0.0000 28.1876
#
#
#
# Elastic Compliance Matrix: (Units=1/GPa)
#
#
# Indices 1 2 3 4 5 6 
#
# 1 0.046699 -0.011925 -0.020913 0.000000 0.015978 0.000000
# 2 -0.011925 0.013782 -0.000608 0.000000 -0.002599 0.000000
# 3 -0.020913 -0.000608 0.031538 0.000000 -0.004412 0.000000
# 4 0.000000 0.000000 0.000000 0.025476 0.000000 -0.002394
# 5 0.015978 -0.002599 -0.004412 0.000000 0.036286 0.000000
# 6 0.000000 0.000000 0.000000 -0.002394 0.000000 0.035701
#
#
# Mechanical properties :
#
#
# Convention : Reuss Voigt Hill
#
# Bulk Modulus (GPa) = 39.79742 48.86677 44.33210
# Shear Modulus (GPa) = 18.88572 27.49539 23.19056
#
# Velocity S-wave (km/s) = 3.07048 3.70484 3.40248
# Velocity P-wave (km/s) = 5.69540 6.53420 6.12917
#
# Compressibility (1/GPa) = 0.02512725
#
# Stress axis : x y z
#
# Youngs Moduli (GPa) = 21.41358 72.56014 31.70779
#
# Poissons Ratio (x) = 0.86527 0.66311
# Poissons Ratio (y) = 0.25535 0.01928
# Poissons Ratio (z) = 0.44782 0.04411
#
# Static dielectric constant tensor:
#      x y z
#    x 1.733600 0.000000 0.011450 
#    y 0.000000 1.676220 0.000000 
#    z 0.011450 0.000000 1.672910 
# 
# From -- ./inp_files/179731.got.cif
#   From: 2010.05.17/outbox.cif.g08.bks.cpg/sg12_90_cif.got.tgz:179731.got - 2010.06.03 13:09:07.
