data_PCOD9206933
_publ_section_title
;
Structure prediction by ZEFSAII (Michael W. Deem and Ramdas Pophale) SiO2 
 PCOD9206933
Probable space group: C 2/M
;
_chemical_formula_sum "Si O2"
_cell_formula_units_Z 60
_cell_length_a 30.696437
_cell_length_b 17.767028
_cell_length_c 6.017266
_cell_angle_alpha 90.000000
_cell_angle_beta 58.241464
_cell_angle_gamma 90.000000
_cell_volume 2790.363441
_symmetry_space_group_name_H-M "C 2/M"
_symmetry_group_IT_number 12
_symmetry_cell_setting 'monoclinic'
loop_
_space_group_symop_operation_xyz
x,y,z
-x,y,-z
-x,-y,-z
x,-y,z
1/2+x,1/2+y,z
1/2-x,1/2+y,-z
1/2-x,1/2-y,-z
1/2+x,1/2-y,z
loop_
_atom_site_type_symbol
_atom_site_label
_atom_site_fract_x
_atom_site_fract_y
_atom_site_fract_z
Si Si1 0.371854 0.716872 0.628507
Si Si2 0.972130 0.000000 0.831267
Si Si3 0.787134 0.419652 0.882901
Si Si4 0.553573 0.653016 0.231278
Si Si5 0.811479 0.085577 0.534723
Si Si6 0.260075 0.166794 0.560328
Si Si7 0.142938 0.651059 0.000822
Si Si8 0.057578 0.701368 0.915752
O O1 0.406239 0.661570 0.682359
O O2 0.340790 0.658803 0.556181
O O3 0.349370 0.770257 0.884713
O O4 0.406471 0.774544 0.388525
O O5 0.939888 0.075610 0.913656
O O6 0.000000 0.000000 0.500000
O O7 0.000000 0.000000 0.000000
O O8 0.786429 0.500000 0.760233
O O9 0.774858 0.346011 0.773110
O O10 0.841685 0.410245 0.857109
O O11 0.740230 0.421242 0.180288
O O12 0.500000 0.655002 0.500000
O O13 0.552371 0.720688 0.062982
O O14 0.788642 0.113932 0.361216
O O15 0.833992 0.000000 0.470382
O O16 0.250000 0.250000 0.500000
O O17 0.311997 0.142919 0.297749
O O18 0.089975 0.651136 0.005515
O O19 0.000000 0.676501 0.000000
#
# Coordination Sequence:
#
# PCOD9206933 Si02
#       8
#     8   4   8   8   8   8   8   8
#     4  11  22  37  57  85 121 160 203 257 308 364
#     4  10  22  36  58  78 110 156 220 274 330 382
#     4  10  21  39  62  85 121 156 195 242 303 378
#     4  10  21  37  55  77 111 157 209 261 313 365
#     4  10  22  37  55  84 121 157 200 246 302 360
#     4  11  20  36  61  86 116 155 197 246 301 367
#     4  10  22  36  58  90 113 152 196 246 304 371
#     4  11  21  37  60  84 117 155 207 259 309 363
#
# _framework density 21.502576000000001
#
# number of rings (size 3 to 8) (size 9 to 14) (size 15 to 20)
#    0.000    1.600    1.333    4.000    2.800    3.733 
#    1.200    0.000    0.000    0.400    0.000    3.733 
#    0.000    0.000    0.000    0.000    0.000    0.000 
#
# Total GULP energy -167045.682040 kJ/mol
# GULP energy per Si atom -5568.189401 kJ/mol
# Density = 2.145364 g / cm^3
# Si number density = 21.502576 Si / 1000 Ang^3
#
#
#
# Elastic Constant Matrix: (Units=GPa)
#
#
# Indices 1 2 3 4 5 6 
#
# 1 142.2610 28.7881 9.6113 0.0000 28.8011 0.0000
# 2 28.7881 50.8348 -2.3213 0.0000 6.0588 0.0000
# 3 9.6113 -2.3213 41.9588 0.0000 9.3375 0.0000
# 4 0.0000 0.0000 0.0000 17.8015 0.0000 8.3595
# 5 28.8011 6.0588 9.3375 0.0000 30.4574 0.0000
# 6 0.0000 0.0000 0.0000 8.3595 0.0000 36.1762
#
#
#
# Elastic Compliance Matrix: (Units=1/GPa)
#
#
# Indices 1 2 3 4 5 6 
#
# 1 0.009604 -0.004519 -0.000675 0.000000 -0.007976 0.000000
# 2 -0.004519 0.022459 0.002491 0.000000 -0.000958 0.000000
# 3 -0.000675 0.002491 0.025858 0.000000 -0.007784 0.000000
# 4 0.000000 0.000000 0.000000 0.063013 0.000000 -0.014561
# 5 -0.007976 -0.000958 -0.007784 0.000000 0.042952 0.000000
# 6 0.000000 0.000000 0.000000 -0.014561 0.000000 0.031007
#
#
# Mechanical properties :
#
#
# Convention : Reuss Voigt Hill
#
# Bulk Modulus (GPa) = 19.04259 34.13453 26.58856
# Shear Modulus (GPa) = 22.95646 30.15212 26.55429
#
# Velocity S-wave (km/s) = 3.27098 3.74873 3.51798
# Velocity P-wave (km/s) = 4.81050 5.88612 5.37528
#
# Compressibility (1/GPa) = 0.05251386
#
# Stress axis : x y z
#
# Youngs Moduli (GPa) = 104.12128 44.52625 38.67326
#
# Poissons Ratio (x) = 0.20122 0.02611
# Poissons Ratio (y) = 0.47054 -0.09633
# Poissons Ratio (z) = 0.07029 -0.11091
#
# Static dielectric constant tensor:
#      x y z
#    x 1.815390 0.000000 -0.005630 
#    y 0.000000 1.818240 0.000000 
#    z -0.005630 0.000000 1.833190 
# 
# From -- ./inp_files/32018.got.cif
#   From: 2010.05.17/outbox.cif.g08.bks.cpg/sg12_17_cif.got.tgz:32018.got - 2010.06.03 13:09:07.
