data_PCOD9206403
_publ_section_title
;
Structure prediction by ZEFSAII (Michael W. Deem and Ramdas Pophale) SiO2 
 PCOD9206403
Probable space group: C 2/M
;
_chemical_formula_sum "Si O2"
_cell_formula_units_Z 46
_cell_length_a 8.872389
_cell_length_b 22.264687
_cell_length_c 15.192016
_cell_angle_alpha 90.000000
_cell_angle_beta 55.024935
_cell_angle_gamma 90.000000
_cell_volume 2459.061431
_symmetry_space_group_name_H-M "C 2/M"
_symmetry_group_IT_number 12
_symmetry_cell_setting 'monoclinic'
loop_
_space_group_symop_operation_xyz
x,y,z
-x,y,-z
-x,-y,-z
x,-y,z
1/2+x,1/2+y,z
1/2-x,1/2+y,-z
1/2-x,1/2-y,-z
1/2+x,1/2-y,z
loop_
_atom_site_type_symbol
_atom_site_label
_atom_site_fract_x
_atom_site_fract_y
_atom_site_fract_z
Si Si1 0.556432 0.431256 0.879652
Si Si2 0.726979 0.292138 0.634188
Si Si3 0.427659 0.103954 0.671184
Si Si4 0.799601 0.839533 0.555432
Si Si5 0.500000 0.000000 0.500000
Si Si6 0.109060 0.184705 0.136910
Si Si7 0.500000 0.240242 0.000000
O O1 0.526927 0.500000 0.862845
O O2 0.770628 0.415160 0.792552
O O3 0.437358 0.384953 0.862387
O O4 0.500000 0.424548 0.000000
O O5 0.851560 0.334299 0.653687
O O6 0.796924 0.224140 0.606521
O O7 0.728407 0.321693 0.537318
O O8 0.521441 0.292514 0.741422
O O9 0.629543 0.119072 0.640223
O O10 0.446494 0.052900 0.590774
O O11 0.000000 0.868062 0.500000
O O12 0.320600 0.200655 0.079941
O O13 0.044749 0.218517 0.069212
#
# Coordination Sequence:
#
# PCOD9206403 Si02
#       7
#     8   8   8   8   2   8   4
#     4  10  21  39  63  87 111 155 209 243 281 346
#     4  10  21  36  58  85 120 155 191 238 303 355
#     4  11  22  39  63  84 119 160 195 244 290 362
#     4  11  22  35  56  93 120 148 194 248 301 348
#     4  12  20  40  60  84 112 170 204 224 288 366
#     4  10  22  37  58  88 118 158 192 245 298 357
#     4  10  22  38  56  86 122 154 192 244 298 364
#
# _framework density 18.706325
#
# number of rings (size 3 to 8) (size 9 to 14) (size 15 to 20)
#    0.000    1.565    3.478    2.087    7.304    0.000 
#    0.000    0.870    0.000    0.000    4.522    0.000 
#    0.000    0.000    0.000    0.000    0.000    0.000 
#
# Total GULP energy -128221.049096 kJ/mol
# GULP energy per Si atom -5574.828222 kJ/mol
# Density = 1.866375 g / cm^3
# Si number density = 18.706325 Si / 1000 Ang^3
#
#
#
# Elastic Constant Matrix: (Units=GPa)
#
#
# Indices 1 2 3 4 5 6 
#
# 1 65.0583 29.2037 34.5995 0.0000 -36.2561 0.0000
# 2 29.2037 92.6164 49.1981 0.0000 -20.9693 0.0000
# 3 34.5995 49.1981 132.4936 0.0000 -30.7141 0.0000
# 4 0.0000 0.0000 0.0000 31.4551 0.0000 -2.0650
# 5 -36.2561 -20.9693 -30.7141 0.0000 37.1521 0.0000
# 6 0.0000 0.0000 0.0000 -2.0650 0.0000 3.4914
#
#
#
# Elastic Compliance Matrix: (Units=1/GPa)
#
#
# Indices 1 2 3 4 5 6 
#
# 1 0.034824 -0.003596 -0.000434 0.000000 0.031595 0.000000
# 2 -0.003596 0.014396 -0.004128 0.000000 0.001204 0.000000
# 3 -0.000434 -0.004128 0.010584 0.000000 0.005996 0.000000
# 4 0.000000 0.000000 0.000000 0.033076 0.000000 0.019563
# 5 0.031595 0.001204 0.005996 0.000000 0.063386 0.000000
# 6 0.000000 0.000000 0.000000 0.019563 0.000000 0.297986
#
#
# Mechanical properties :
#
#
# Convention : Reuss Voigt Hill
#
# Bulk Modulus (GPa) = 22.99541 57.35231 40.17386
# Shear Modulus (GPa) = 10.30795 26.23086 18.26941
#
# Velocity S-wave (km/s) = 2.34997 3.74872 3.12852
# Velocity P-wave (km/s) = 4.43652 7.03300 5.87987
#
# Compressibility (1/GPa) = 0.04348694
#
# Stress axis : x y z
#
# Youngs Moduli (GPa) = 28.71624 69.46236 94.48595
#
# Poissons Ratio (x) = 0.24982 0.04103
# Poissons Ratio (y) = 0.10328 0.38999
# Poissons Ratio (z) = 0.01247 0.28671
#
# Static dielectric constant tensor:
#      x y z
#    x 1.651110 0.000000 -0.013750 
#    y 0.000000 1.630870 0.000000 
#    z -0.013750 0.000000 1.673480 
# 
# From -- ./inp_files/257943.got.cif
#   From: 2010.05.17/outbox.cif.g08.bks.cpg/sg12_129_cif.got.tgz:257943.got - 2010.06.03 13:09:07.
