data_PCOD9206195
_publ_section_title
;
Structure prediction by ZEFSAII (Michael W. Deem and Ramdas Pophale) SiO2 
 PCOD9206195
Probable space group: C 2/M
;
_chemical_formula_sum "Si O2"
_cell_formula_units_Z 64
_cell_length_a 16.296196
_cell_length_b 27.470298
_cell_length_c 7.030046
_cell_angle_alpha 90.000000
_cell_angle_beta 109.368742
_cell_angle_gamma 90.000000
_cell_volume 2968.966968
_symmetry_space_group_name_H-M "C 2/M"
_symmetry_group_IT_number 12
_symmetry_cell_setting 'monoclinic'
loop_
_space_group_symop_operation_xyz
x,y,z
-x,y,-z
-x,-y,-z
x,-y,z
1/2+x,1/2+y,z
1/2-x,1/2+y,-z
1/2-x,1/2-y,-z
1/2+x,1/2-y,z
loop_
_atom_site_type_symbol
_atom_site_label
_atom_site_fract_x
_atom_site_fract_y
_atom_site_fract_z
Si Si1 0.423403 0.231424 0.091232
Si Si2 0.616582 0.235402 0.518653
Si Si3 0.744282 0.943845 0.030967
Si Si4 0.313541 0.703497 0.755688
Si Si5 0.901179 0.058194 0.417722
Si Si6 0.397927 0.872713 0.589644
Si Si7 0.920850 0.381364 0.149474
Si Si8 0.283345 0.593867 0.656163
O O1 0.349371 0.267499 0.962046
O O2 0.403302 0.173821 0.068612
O O3 0.500000 0.240762 0.000000
O O4 0.434822 0.242609 0.323834
O O5 0.630341 0.279663 0.385096
O O6 0.714832 0.220963 0.655121
O O7 0.591249 0.185832 0.386352
O O8 0.830839 0.924490 0.205256
O O9 0.654264 0.914965 0.992217
O O10 0.732383 0.000000 0.078433
O O11 0.760161 0.939589 0.816826
O O12 0.312739 0.645638 0.765067
O O13 0.856103 0.070283 0.582328
O O14 0.000000 0.077766 0.500000
O O15 0.907524 0.000000 0.394722
O O16 0.475867 0.893549 0.778573
O O17 0.301117 0.893250 0.540144
O O18 0.409662 0.881279 0.371664
#
# Coordination Sequence:
#
# PCOD9206195 Si02
#       8
#     8   8   8   8   8   8   8   8
#     4  11  22  35  55  86 123 170 212 251 300 368
#     4   9  19  36  56  77 118 165 213 252 285 357
#     4  10  22  41  67  96 124 156 202 262 319 375
#     4  10  21  36  56  86 116 161 210 257 309 358
#     4  10  23  44  66  87 112 155 208 257 321 386
#     4   8  16  34  59  86 124 169 210 236 293 372
#     4   9  18  34  59  91 126 166 208 246 295 373
#     4  10  21  40  63  91 123 161 204 261 316 373
#
# _framework density 21.556318999999998
#
# number of rings (size 3 to 8) (size 9 to 14) (size 15 to 20)
#    0.000    2.375    0.000    2.250    0.000    7.000 
#    4.500    7.500    0.000    1.875    0.000    0.000 
#    0.000    0.000    0.000    0.000    0.000    0.000 
#
# Total GULP energy -178590.361708 kJ/mol
# GULP energy per Si atom -5580.948803 kJ/mol
# Density = 2.150726 g / cm^3
# Si number density = 21.556319 Si / 1000 Ang^3
#
#
#
# Elastic Constant Matrix: (Units=GPa)
#
#
# Indices 1 2 3 4 5 6 
#
# 1 138.1703 20.8238 48.4035 0.0000 17.0666 0.0000
# 2 20.8238 28.0881 11.8557 0.0000 22.5010 0.0000
# 3 48.4035 11.8557 101.1015 0.0000 14.0389 0.0000
# 4 0.0000 0.0000 0.0000 24.7792 0.0000 1.2763
# 5 17.0666 22.5010 14.0389 0.0000 45.8999 0.0000
# 6 0.0000 0.0000 0.0000 1.2763 0.0000 31.9121
#
#
#
# Elastic Compliance Matrix: (Units=1/GPa)
#
#
# Indices 1 2 3 4 5 6 
#
# 1 0.009405 -0.005731 -0.003901 0.000000 0.000506 0.000000
# 2 -0.005731 0.063009 -0.000680 0.000000 -0.028549 0.000000
# 3 -0.003901 -0.000680 0.012105 0.000000 -0.001918 0.000000
# 4 0.000000 0.000000 0.000000 0.040440 0.000000 -0.001617
# 5 0.000506 -0.028549 -0.001918 0.000000 0.036180 0.000000
# 6 0.000000 0.000000 0.000000 -0.001617 0.000000 0.031401
#
#
# Mechanical properties :
#
#
# Convention : Reuss Voigt Hill
#
# Bulk Modulus (GPa) = 15.65117 47.72510 31.68813
# Shear Modulus (GPa) = 21.32531 32.93671 27.13101
#
# Velocity S-wave (km/s) = 3.14870 3.91312 3.55154
# Velocity P-wave (km/s) = 4.52719 6.52721 5.61694
#
# Compressibility (1/GPa) = 0.06389300
#
# Stress axis : x y z
#
# Youngs Moduli (GPa) = 106.32213 15.87086 82.61120
#
# Poissons Ratio (x) = 0.09096 0.32227
# Poissons Ratio (y) = 0.60938 0.05621
# Poissons Ratio (z) = 0.41477 0.01080
#
# Static dielectric constant tensor:
#      x y z
#    x 1.895100 0.000000 0.013800 
#    y 0.000000 1.726290 0.000000 
#    z 0.013800 0.000000 1.825150 
# 
# From -- ./inp_files/18311.got.cif
#   From: 2010.05.17/outbox.cif.g08.bks.cpg/sg12_10_cif.got.tgz:18311.got - 2010.06.03 13:09:07.
