data_PCOD9206784
_publ_section_title
;
Structure prediction by ZEFSAII (Michael W. Deem and Ramdas Pophale) SiO2 
 PCOD9206784
Probable space group: C 2/M
;
_chemical_formula_sum "Si O2"
_cell_formula_units_Z 60
_cell_length_a 22.577173
_cell_length_b 14.660998
_cell_length_c 16.665742
_cell_angle_alpha 90.000000
_cell_angle_beta 147.509352
_cell_angle_gamma 90.000000
_cell_volume 2963.213771
_symmetry_space_group_name_H-M "C 2/M"
_symmetry_group_IT_number 12
_symmetry_cell_setting 'monoclinic'
loop_
_space_group_symop_operation_xyz
x,y,z
-x,y,-z
-x,-y,-z
x,-y,z
1/2+x,1/2+y,z
1/2-x,1/2+y,-z
1/2-x,1/2-y,-z
1/2+x,1/2-y,z
loop_
_atom_site_type_symbol
_atom_site_label
_atom_site_fract_x
_atom_site_fract_y
_atom_site_fract_z
Si Si1 0.859505 0.398621 0.174643
Si Si2 0.916236 0.000000 0.607654
Si Si3 0.719369 0.394950 0.852814
Si Si4 0.091589 0.679886 0.414912
Si Si5 0.713432 0.710860 0.125628
Si Si6 0.686967 0.391331 0.263514
Si Si7 0.974251 0.848346 0.563682
Si Si8 0.028709 0.827243 0.213904
O O1 0.836808 0.500000 0.180055
O O2 0.813416 0.327812 0.186223
O O3 0.987297 0.386326 0.300854
O O4 0.794148 0.386905 0.017105
O O5 0.946741 0.081237 0.707669
O O6 0.895780 0.078747 0.514810
O O7 0.721000 0.500000 0.826939
O O8 0.762135 0.318837 0.839921
O O9 0.595003 0.371598 0.738250
O O10 0.206072 0.629036 0.558718
O O11 0.080944 0.742605 0.323338
O O12 0.070285 0.750081 0.463914
O O13 0.705969 0.656969 0.200047
O O14 0.600184 0.692756 0.947724
O O15 0.671296 0.500000 0.236600
O O16 0.585506 0.344326 0.193258
O O17 0.000000 0.859445 0.500000
#
# Coordination Sequence:
#
# PCOD9206784 Si02
#       8
#     8   4   8   8   8   8   8   8
#     4  11  22  37  64 100 129 170 210 255 332 402
#     4  10  21  36  63  92 120 165 219 270 309 385
#     4  11  22  38  65  96 134 168 210 262 328 409
#     4  11  23  42  66  91 134 175 213 268 325 396
#     4  12  24  41  66 101 136 167 213 278 335 387
#     4  12  27  45  66  95 131 179 226 276 324 382
#     4  11  21  36  59  97 133 163 203 268 342 390
#     4  11  24  44  68  91 128 174 231 273 316 383
#
# _framework density 20.248287000000001
#
# number of rings (size 3 to 8) (size 9 to 14) (size 15 to 20)
#    0.000    0.800    4.000    4.600    3.733    0.533 
#    0.000    1.333    0.000    2.400    0.000    0.000 
#    0.000    0.000    0.000    0.000    0.000    0.000 
#
# Total GULP energy -167132.806992 kJ/mol
# GULP energy per Si atom -5571.093566 kJ/mol
# Density = 2.020220 g / cm^3
# Si number density = 20.248287 Si / 1000 Ang^3
#
#
#
# Elastic Constant Matrix: (Units=GPa)
#
#
# Indices 1 2 3 4 5 6 
#
# 1 57.6830 39.0564 0.9358 0.0000 -4.7273 0.0000
# 2 39.0564 108.2640 4.8726 0.0000 -9.5777 0.0000
# 3 0.9358 4.8726 27.6368 0.0000 -0.0711 0.0000
# 4 0.0000 0.0000 0.0000 13.6063 0.0000 -3.0191
# 5 -4.7273 -9.5777 -0.0711 0.0000 29.7668 0.0000
# 6 0.0000 0.0000 0.0000 -3.0191 0.0000 19.0747
#
#
#
# Elastic Compliance Matrix: (Units=1/GPa)
#
#
# Indices 1 2 3 4 5 6 
#
# 1 0.022981 -0.008232 0.000676 0.000000 0.001002 0.000000
# 2 -0.008232 0.012534 -0.001924 0.000000 0.002721 0.000000
# 3 0.000676 -0.001924 0.036499 0.000000 -0.000425 0.000000
# 4 0.000000 0.000000 0.000000 0.076170 0.000000 0.012056
# 5 0.001002 0.002721 -0.000425 0.000000 0.034628 0.000000
# 6 0.000000 0.000000 0.000000 0.012056 0.000000 0.054334
#
#
# Mechanical properties :
#
#
# Convention : Reuss Voigt Hill
#
# Bulk Modulus (GPa) = 18.84907 31.47923 25.16415
# Shear Modulus (GPa) = 18.26207 22.40415 20.33311
#
# Velocity S-wave (km/s) = 3.00643 3.32998 3.17233
# Velocity P-wave (km/s) = 4.62393 5.51048 5.08655
#
# Compressibility (1/GPa) = 0.05305300
#
# Stress axis : x y z
#
# Youngs Moduli (GPa) = 43.51367 79.78441 27.39812
#
# Poissons Ratio (x) = 0.65681 -0.01852
# Poissons Ratio (y) = 0.35822 0.05272
# Poissons Ratio (z) = -0.02941 0.15351
#
# Static dielectric constant tensor:
#      x y z
#    x 1.714930 0.000000 -0.017810 
#    y 0.000000 1.702950 0.000000 
#    z -0.017810 0.000000 1.771350 
# 
# From -- ./inp_files/233927.got.cif
#   From: 2010.05.17/outbox.cif.g08.bks.cpg/sg12_117_cif.got.tgz:233927.got - 2010.06.03 13:09:07.
