data_PCOD9206014
_publ_section_title
;
Structure prediction by ZEFSAII (Michael W. Deem and Ramdas Pophale) SiO2 
 PCOD9206014
Probable space group: C 2/M
;
_chemical_formula_sum "Si O2"
_cell_formula_units_Z 56
_cell_length_a 21.361510
_cell_length_b 7.864720
_cell_length_c 29.627648
_cell_angle_alpha 90.000000
_cell_angle_beta 148.494682
_cell_angle_gamma 90.000000
_cell_volume 2601.137229
_symmetry_space_group_name_H-M "C 2/M"
_symmetry_group_IT_number 12
_symmetry_cell_setting 'monoclinic'
loop_
_space_group_symop_operation_xyz
x,y,z
-x,y,-z
-x,-y,-z
x,-y,z
1/2+x,1/2+y,z
1/2-x,1/2+y,-z
1/2-x,1/2-y,-z
1/2+x,1/2-y,z
loop_
_atom_site_type_symbol
_atom_site_label
_atom_site_fract_x
_atom_site_fract_y
_atom_site_fract_z
Si Si1 0.241217 0.301990 0.570291
Si Si2 0.431881 0.296484 0.614648
Si Si3 0.061448 0.206113 0.886428
Si Si4 0.129956 0.196077 0.592661
Si Si5 0.735146 0.797154 0.918808
Si Si6 0.206056 0.293901 0.800107
Si Si7 0.682291 0.699370 0.221046
O O1 0.259329 0.500000 0.592858
O O2 0.355166 0.240531 0.611350
O O3 0.130109 0.283296 0.467406
O O4 0.210548 0.207420 0.597360
O O5 0.417231 0.500000 0.601840
O O6 0.569723 0.252122 0.704656
O O7 0.111165 0.261705 0.868541
O O8 0.931310 0.269618 0.821500
O O9 0.061644 0.000000 0.885712
O O10 0.158486 0.266469 0.983339
O O11 0.199524 0.283321 0.676023
O O12 0.000000 0.269659 0.500000
O O13 0.111565 0.000000 0.594694
O O14 0.736605 0.729826 0.868918
O O15 0.750100 0.000000 0.925425
O O16 0.213699 0.500000 0.805362
O O17 0.290747 0.228955 0.811917
O O18 0.656447 0.500000 0.198929
#
# Coordination Sequence:
#
# PCOD9206014 Si02
#       7
#     8   8   8   8   8   8   8
#     4  10  21  37  57  80 107 146 190 234 283 336
#     4  10  21  36  55  81 113 145 185 234 284 336
#     4   9  19  37  59  84 115 148 188 235 283 339
#     4  11  24  39  56  80 112 150 191 236 285 335
#     4   9  19  36  59  86 114 148 188 234 286 337
#     4  10  21  36  56  83 114 150 189 233 283 336
#     4  10  22  38  57  83 115 152 193 236 284 339
#
# _framework density 21.529043999999999
#
# number of rings (size 3 to 8) (size 9 to 14) (size 15 to 20)
#    0.000    2.143    0.000    2.143    2.000    7.429 
#    0.000    2.857    0.000    0.000    0.000    6.000 
#    0.000    0.000    0.000    0.000    0.000    0.000 
#
# Total GULP energy -156435.277626 kJ/mol
# GULP energy per Si atom -5586.974201 kJ/mol
# Density = 2.148004 g / cm^3
# Si number density = 21.529044 Si / 1000 Ang^3
#
#
#
# Elastic Constant Matrix: (Units=GPa)
#
#
# Indices 1 2 3 4 5 6 
#
# 1 129.0802 -3.9304 41.6354 -0.0003 -16.1952 0.0006
# 2 -3.9304 22.2575 -7.8030 -0.0001 1.7843 0.0011
# 3 41.6354 -7.8030 50.3473 0.0001 5.7734 -0.0001
# 4 -0.0003 -0.0001 0.0001 6.6696 -0.0001 9.9024
# 5 -16.1952 1.7843 5.7734 -0.0001 25.2168 0.0000
# 6 0.0006 0.0011 -0.0001 9.9024 0.0000 16.0894
#
#
#
# Elastic Compliance Matrix: (Units=1/GPa)
#
#
# Indices 1 2 3 4 5 6 
#
# 1 0.013223 -0.003064 -0.012743 0.000015 0.011627 -0.000010
# 2 -0.003064 0.048889 0.011023 0.000058 -0.007951 -0.000039
# 3 -0.012743 0.011023 0.034030 -0.000010 -0.016755 0.000006
# 4 0.000015 0.000058 -0.000010 1.739138 0.000014 -1.070374
# 5 0.011627 -0.007951 -0.016755 0.000014 0.051522 -0.000009
# 6 -0.000010 -0.000039 0.000006 -1.070374 -0.000009 0.720927
#
#
# Mechanical properties :
#
#
# Convention : Reuss Voigt Hill
#
# Bulk Modulus (GPa) = 11.55094 29.05433 20.30264
# Shear Modulus (GPa) = 1.88953 21.04735 11.46844
#
# Velocity S-wave (km/s) = 0.93786 3.13009 2.31053
# Velocity P-wave (km/s) = 2.55924 5.15636 4.07049
#
# Compressibility (1/GPa) = 0.08657306
#
# Stress axis : x y z
#
# Youngs Moduli (GPa) = 75.62656 20.45436 29.38602
#
# Poissons Ratio (x) = 0.06268 0.37447
# Poissons Ratio (y) = 0.23176 -0.32392
# Poissons Ratio (z) = 0.96371 -0.22547
#
# Static dielectric constant tensor:
#      x y z
#    x 1.795260 0.000000 0.009020 
#    y 0.000000 1.786960 0.000000 
#    z 0.009020 0.000000 1.755410 
# 
# From -- ./inp_files/380740.got.cif
#   From: 2010.05.17/outbox.cif.g08.bks.cpg/sg12_191_cif.got.tgz:380740.got - 2010.06.03 13:09:07.
