data_PCOD9206236
_publ_section_title
;
Structure prediction by ZEFSAII (Michael W. Deem and Ramdas Pophale) SiO2 
 PCOD9206236
Probable space group: C 2/M
;
_chemical_formula_sum "Si O2"
_cell_formula_units_Z 56
_cell_length_a 13.064170
_cell_length_b 14.157529
_cell_length_c 15.236140
_cell_angle_alpha 90.000000
_cell_angle_beta 93.413731
_cell_angle_gamma 90.000000
_cell_volume 2813.020746
_symmetry_space_group_name_H-M "C 2/M"
_symmetry_group_IT_number 12
_symmetry_cell_setting 'monoclinic'
loop_
_space_group_symop_operation_xyz
x,y,z
-x,y,-z
-x,-y,-z
x,-y,z
1/2+x,1/2+y,z
1/2-x,1/2+y,-z
1/2-x,1/2-y,-z
1/2+x,1/2-y,z
loop_
_atom_site_type_symbol
_atom_site_label
_atom_site_fract_x
_atom_site_fract_y
_atom_site_fract_z
Si Si1 0.922293 0.391624 0.075751
Si Si2 0.807245 0.109274 0.012743
Si Si3 0.105258 0.788739 0.818710
Si Si4 0.226777 0.758888 0.301646
Si Si5 0.395922 0.387974 0.834360
Si Si6 0.651049 0.891506 0.576735
Si Si7 0.577055 0.108424 0.371589
O O1 0.939995 0.500000 0.106033
O O2 0.807854 0.386507 0.030046
O O3 0.930569 0.315843 0.153645
O O4 0.000000 0.370994 0.000000
O O5 0.880466 0.137518 0.935812
O O6 0.829670 0.000000 0.036906
O O7 0.825750 0.173433 0.097246
O O8 0.173883 0.789376 0.735989
O O9 0.006986 0.855430 0.808785
O O10 0.186699 0.832905 0.227453
O O11 0.264046 0.818167 0.387469
O O12 0.138277 0.684048 0.317936
O O13 0.381231 0.500000 0.826717
O O14 0.544273 0.873740 0.623232
O O15 0.623529 0.885525 0.472669
O O16 0.682086 0.000000 0.596744
O O17 0.590606 0.000000 0.341779
#
# Coordination Sequence:
#
# PCOD9206236 Si02
#       7
#     8   8   8   8   8   8   8
#     4  10  21  36  57  82 110 147 201 257 293 335
#     4  10  21  40  59  78 108 159 209 243 286 343
#     4  12  24  36  59  82 117 155 199 245 294 341
#     4  12  23  36  60  91 123 150 188 240 298 347
#     4  11  24  41  58  82 116 157 202 244 283 342
#     4   9  19  40  66  88 115 154 192 232 283 351
#     4   9  20  40  64  90 119 150 191 233 283 352
#
# _framework density 19.907423999999999
#
# number of rings (size 3 to 8) (size 9 to 14) (size 15 to 20)
#    0.000    1.571    1.429    4.714    2.000    2.857 
#    0.000    0.714    0.000    0.000    0.000    9.000 
#    0.000    0.000    0.000    0.000    0.000    0.000 
#
# Total GULP energy -156585.010983 kJ/mol
# GULP energy per Si atom -5592.321821 kJ/mol
# Density = 1.986211 g / cm^3
# Si number density = 19.907424 Si / 1000 Ang^3
#
#
#
# Elastic Constant Matrix: (Units=GPa)
#
#
# Indices 1 2 3 4 5 6 
#
# 1 43.6630 8.1124 -6.7616 0.0000 -13.1032 0.0000
# 2 8.1124 78.7333 15.5793 0.0000 -3.2727 0.0000
# 3 -6.7616 15.5793 27.6491 0.0000 -3.6188 0.0000
# 4 0.0000 0.0000 0.0000 23.3557 0.0000 -1.0114
# 5 -13.1032 -3.2727 -3.6188 0.0000 30.5256 0.0000
# 6 0.0000 0.0000 0.0000 -1.0114 0.0000 25.2253
#
#
#
# Elastic Compliance Matrix: (Units=1/GPa)
#
#
# Indices 1 2 3 4 5 6 
#
# 1 0.029712 -0.004823 0.011768 0.000000 0.013632 0.000000
# 2 -0.004823 0.015088 -0.009894 0.000000 -0.001626 0.000000
# 3 0.011768 -0.009894 0.045854 0.000000 0.009427 0.000000
# 4 0.000000 0.000000 0.000000 0.042891 0.000000 0.001720
# 5 0.013632 -0.001626 0.009427 0.000000 0.039554 0.000000
# 6 0.000000 0.000000 0.000000 0.001720 0.000000 0.039712
#
#
# Mechanical properties :
#
#
# Convention : Reuss Voigt Hill
#
# Bulk Modulus (GPa) = 11.79859 20.43396 16.11627
# Shear Modulus (GPa) = 20.24604 24.69567 22.47086
#
# Velocity S-wave (km/s) = 3.19252 3.52593 3.36336
# Velocity P-wave (km/s) = 4.41918 5.18296 4.81623
#
# Compressibility (1/GPa) = 0.08475592
#
# Stress axis : x y z
#
# Youngs Moduli (GPa) = 33.65626 66.27653 21.80825
#
# Poissons Ratio (x) = 0.31968 -0.25664
# Poissons Ratio (y) = 0.16234 0.21577
# Poissons Ratio (z) = -0.39607 0.65575
#
# Static dielectric constant tensor:
#      x y z
#    x 1.689480 0.000000 0.010740 
#    y 0.000000 1.705210 0.000000 
#    z 0.010740 0.000000 1.684650 
# 
# From -- ./inp_files/204982.got.cif
#   From: 2010.05.17/outbox.cif.g08.bks.cpg/sg12_103_cif.got.tgz:204982.got - 2010.06.03 13:09:07.
