data_PCOD9206541
_publ_section_title
;
Structure prediction by ZEFSAII (Michael W. Deem and Ramdas Pophale) SiO2 
 PCOD9206541
Probable space group: C 2/M
;
_chemical_formula_sum "Si O2"
_cell_formula_units_Z 64
_cell_length_a 27.024025
_cell_length_b 17.408158
_cell_length_c 24.363923
_cell_angle_alpha 90.000000
_cell_angle_beta 16.446955
_cell_angle_gamma 90.000000
_cell_volume 3245.130640
_symmetry_space_group_name_H-M "C 2/M"
_symmetry_group_IT_number 12
_symmetry_cell_setting 'monoclinic'
loop_
_space_group_symop_operation_xyz
x,y,z
-x,y,-z
-x,-y,-z
x,-y,z
1/2+x,1/2+y,z
1/2-x,1/2+y,-z
1/2-x,1/2-y,-z
1/2+x,1/2-y,z
loop_
_atom_site_type_symbol
_atom_site_label
_atom_site_fract_x
_atom_site_fract_y
_atom_site_fract_z
Si Si1 0.840742 0.091947 0.021454
Si Si2 0.635982 0.907440 0.019088
Si Si3 0.505968 0.838669 0.558766
Si Si4 0.242395 0.907705 0.407088
Si Si5 0.107566 0.093626 0.158315
Si Si6 0.629397 0.325395 0.320587
Si Si7 0.158935 0.673896 0.802401
Si Si8 0.595490 0.659553 0.841008
O O1 0.651258 0.118459 0.243976
O O2 0.848846 0.000000 0.013399
O O3 0.872108 0.119441 0.925794
O O4 0.987824 0.123850 0.905961
O O5 0.730180 0.883804 0.975444
O O6 0.755553 0.873382 0.843319
O O7 0.641878 0.000000 0.009457
O O8 0.433059 0.884734 0.227910
O O9 0.500000 0.855630 0.500000
O O10 0.462749 0.747122 0.610210
O O11 0.698344 0.859683 0.375862
O O12 0.234591 0.877047 0.353138
O O13 0.075034 0.880997 0.619769
O O14 0.237706 0.000000 0.411147
O O15 0.104622 0.000000 0.160965
O O16 0.500000 0.371044 0.500000
O O17 0.749393 0.290670 0.241416
O O18 0.093178 0.747856 0.839398
O O19 0.000000 0.628060 0.000000
O O20 0.500000 0.638397 0.000000
#
# Coordination Sequence:
#
# PCOD9206541 Si02
#       8
#     8   8   8   8   8   8   8   8
#     4  11  25  43  66  91 116 152 200 250 302 369
#     4  10  21  37  60  88 122 165 209 251 286 335
#     4  11  21  41  63  89 123 158 187 238 307 368
#     4  10  21  36  59  88 122 163 206 251 293 339
#     4   9  21  42  60  82 120 161 202 248 300 349
#     4  11  20  35  59  86 123 167 198 233 299 359
#     4  11  19  33  59  86 122 162 195 240 293 351
#     4  11  22  40  64  90 123 158 191 237 308 370
#
# _framework density 19.721855999999999
#
# number of rings (size 3 to 8) (size 9 to 14) (size 15 to 20)
#    0.000    1.500    5.000    1.500    0.000    3.000 
#    0.000    3.750    0.000    0.000    0.000    0.000 
#    0.000    0.000    0.000    0.000    0.000    0.000 
#
# Total GULP energy -178426.128083 kJ/mol
# GULP energy per Si atom -5575.816503 kJ/mol
# Density = 1.967697 g / cm^3
# Si number density = 19.721856 Si / 1000 Ang^3
#
#
#
# Elastic Constant Matrix: (Units=GPa)
#
#
# Indices 1 2 3 4 5 6 
#
# 1 150.5506 33.7752 77.0674 0.0056 -1.8351 0.0105
# 2 33.7752 20.5968 21.7647 -0.0153 -2.1875 -0.0780
# 3 77.0674 21.7647 134.4998 -0.0236 -7.0364 -0.0363
# 4 0.0056 -0.0153 -0.0236 42.6039 0.0033 18.2252
# 5 -1.8351 -2.1875 -7.0364 0.0033 39.0956 -0.0045
# 6 0.0105 -0.0780 -0.0363 18.2252 -0.0045 45.5925
#
#
#
# Elastic Compliance Matrix: (Units=1/GPa)
#
#
# Indices 1 2 3 4 5 6 
#
# 1 0.012580 -0.015766 -0.004717 0.000006 -0.001141 -0.000036
# 2 -0.015766 0.078423 -0.003499 -0.000036 0.003018 0.000150
# 3 -0.004717 -0.003499 0.010783 0.000004 0.001524 0.000002
# 4 0.000006 -0.000036 0.000004 0.028314 -0.000005 -0.011318
# 5 -0.001141 0.003018 0.001524 -0.000005 0.025968 0.000011
# 6 -0.000036 0.000150 0.000002 -0.011318 0.000011 0.026458
#
#
# Mechanical properties :
#
#
# Convention : Reuss Voigt Hill
#
# Bulk Modulus (GPa) = 18.57919 63.42909 41.00414
# Shear Modulus (GPa) = 20.12644 36.99439 28.56042
#
# Velocity S-wave (km/s) = 3.19802 4.33576 3.80960
# Velocity P-wave (km/s) = 4.80390 7.56946 6.33933
#
# Compressibility (1/GPa) = 0.05382366
#
# Stress axis : x y z
#
# Youngs Moduli (GPa) = 79.49230 12.75139 92.73536
#
# Poissons Ratio (x) = 0.20104 0.43739
# Poissons Ratio (y) = 1.25328 0.32444
# Poissons Ratio (z) = 0.37493 0.04461
#
# Static dielectric constant tensor:
#      x y z
#    x 1.717100 -0.000010 -0.069530 
#    y -0.000010 1.683870 0.000010 
#    z -0.069530 0.000010 1.791570 
# 
# From -- ./inp_files/326087.got.cif
#   From: 2010.05.17/outbox.cif.g08.bks.cpg/sg12_164_cif.got.tgz:326087.got - 2010.06.03 13:09:07.
