data_PCOD9206976
_publ_section_title
;
Structure prediction by ZEFSAII (Michael W. Deem and Ramdas Pophale) SiO2 
 PCOD9206976
Probable space group: C 2/M
;
_chemical_formula_sum "Si O2"
_cell_formula_units_Z 48
_cell_length_a 14.876744
_cell_length_b 22.641771
_cell_length_c 8.528202
_cell_angle_alpha 90.000000
_cell_angle_beta 134.001200
_cell_angle_gamma 90.000000
_cell_volume 2066.336599
_symmetry_space_group_name_H-M "C 2/M"
_symmetry_group_IT_number 12
_symmetry_cell_setting 'monoclinic'
loop_
_space_group_symop_operation_xyz
x,y,z
-x,y,-z
-x,-y,-z
x,-y,z
1/2+x,1/2+y,z
1/2-x,1/2+y,-z
1/2-x,1/2-y,-z
1/2+x,1/2-y,z
loop_
_atom_site_type_symbol
_atom_site_label
_atom_site_fract_x
_atom_site_fract_y
_atom_site_fract_z
Si Si1 0.859010 0.788511 0.052591
Si Si2 0.932623 0.500000 0.675367
Si Si3 0.272289 0.395338 0.088250
Si Si4 0.245297 0.815635 0.413157
Si Si5 0.512522 0.828010 0.828373
Si Si6 0.311099 0.000000 0.185114
Si Si7 0.722993 0.565539 0.556237
O O1 0.873877 0.845343 0.178098
O O2 0.815459 0.808375 0.828834
O O3 0.750000 0.750000 0.000000
O O4 0.968116 0.742405 0.167022
O O5 0.870688 0.500000 0.427884
O O6 0.871302 0.553925 0.696873
O O7 0.078547 0.500000 0.814759
O O8 0.135575 0.363594 0.925274
O O9 0.268399 0.442207 0.944517
O O10 0.292448 0.426215 0.278017
O O11 0.250000 0.750000 0.500000
O O12 0.389461 0.836735 0.576405
O O13 0.185670 0.872020 0.432695
O O14 0.500000 0.837558 0.000000
O O15 0.669590 0.500000 0.444197
#
# Coordination Sequence:
#
# PCOD9206976 Si02
#       7
#     8   4   8   8   8   4   8
#     4  10  23  39  55  89 125 154 207 251 301 358
#     4   9  21  31  47  77 120 149 200 227 303 369
#     4  11  21  34  56  82 125 157 196 244 305 357
#     4  12  21  37  65  89 121 163 204 252 301 367
#     4  11  21  38  60  89 121 159 201 252 302 360
#     4  11  19  31  49  81 115 154 185 246 291 363
#     4  10  21  37  55  86 122 161 200 239 305 373
#
# _framework density 23.229517000000001
#
# number of rings (size 3 to 8) (size 9 to 14) (size 15 to 20)
#    0.500    0.833    4.167    3.000    0.000    4.667 
#    0.000    0.000    0.000    0.000    2.167    2.917 
#    0.000    0.000    0.000    0.000    0.000    0.000 
#
# Total GULP energy -133925.815874 kJ/mol
# GULP energy per Si atom -5580.242328 kJ/mol
# Density = 2.317665 g / cm^3
# Si number density = 23.229517 Si / 1000 Ang^3
#
#
#
# Elastic Constant Matrix: (Units=GPa)
#
#
# Indices 1 2 3 4 5 6 
#
# 1 30.4265 14.6554 10.1421 0.0000 -11.3441 0.0000
# 2 14.6554 180.4131 20.4890 0.0000 -16.1685 0.0000
# 3 10.1421 20.4890 41.8890 0.0000 -11.4347 0.0000
# 4 0.0000 0.0000 0.0000 35.7248 0.0000 -14.8586
# 5 -11.3441 -16.1685 -11.4347 0.0000 21.8784 0.0000
# 6 0.0000 0.0000 0.0000 -14.8586 0.0000 41.4582
#
#
#
# Elastic Compliance Matrix: (Units=1/GPa)
#
#
# Indices 1 2 3 4 5 6 
#
# 1 0.041829 -0.001236 -0.004493 0.000000 0.018427 0.000000
# 2 -0.001236 0.006118 -0.001906 0.000000 0.002884 0.000000
# 3 -0.004493 -0.001906 0.029011 0.000000 0.011425 0.000000
# 4 0.000000 0.000000 0.000000 0.032895 0.000000 0.011790
# 5 0.018427 0.002884 0.011425 0.000000 0.063364 0.000000
# 6 0.000000 0.000000 0.000000 0.011790 0.000000 0.028346
#
#
# Mechanical properties :
#
#
# Convention : Reuss Voigt Hill
#
# Bulk Modulus (GPa) = 16.21033 38.14463 27.17748
# Shear Modulus (GPa) = 21.06169 33.64174 27.35172
#
# Velocity S-wave (km/s) = 3.01438 3.80969 3.43513
# Velocity P-wave (km/s) = 4.37136 5.98399 5.24008
#
# Compressibility (1/GPa) = 0.06168907
#
# Stress axis : x y z
#
# Youngs Moduli (GPa) = 23.90658 163.44678 34.46929
#
# Poissons Ratio (x) = 0.20206 0.15486
# Poissons Ratio (y) = 0.02955 0.06569
# Poissons Ratio (z) = 0.10741 0.31151
#
# Static dielectric constant tensor:
#      x y z
#    x 1.913390 0.000000 0.031680 
#    y 0.000000 1.955870 0.000000 
#    z 0.031680 0.000000 1.794150 
# 
# From -- ./inp_files/78917.got.cif
#   From: 2010.05.17/outbox.cif.g08.bks.cpg/sg12_40_cif.got.tgz:78917.got - 2010.06.03 13:09:07.
