data_PCOD9206941
_publ_section_title
;
Structure prediction by ZEFSAII (Michael W. Deem and Ramdas Pophale) SiO2 
 PCOD9206941
Probable space group: C 2/M
;
_chemical_formula_sum "Si O2"
_cell_formula_units_Z 64
_cell_length_a 32.424568
_cell_length_b 8.770097
_cell_length_c 26.102874
_cell_angle_alpha 90.000000
_cell_angle_beta 29.492435
_cell_angle_gamma 90.000000
_cell_volume 3654.301527
_symmetry_space_group_name_H-M "C 2/M"
_symmetry_group_IT_number 12
_symmetry_cell_setting 'monoclinic'
loop_
_space_group_symop_operation_xyz
x,y,z
-x,y,-z
-x,-y,-z
x,-y,z
1/2+x,1/2+y,z
1/2-x,1/2+y,-z
1/2-x,1/2-y,-z
1/2+x,1/2-y,z
loop_
_atom_site_type_symbol
_atom_site_label
_atom_site_fract_x
_atom_site_fract_y
_atom_site_fract_z
Si Si1 0.611201 0.181761 0.027894
Si Si2 0.015758 0.182272 0.226690
Si Si3 0.546849 0.817847 0.302610
Si Si4 0.416638 0.183549 0.059030
Si Si5 0.174197 0.182567 0.549960
Si Si6 0.697799 0.682610 0.205086
Si Si7 0.263024 0.818014 0.727250
Si Si8 0.633732 0.316458 0.478641
O O1 0.565037 0.268961 0.122979
O O2 0.600582 0.000000 0.046861
O O3 0.576581 0.220645 0.008696
O O4 0.710557 0.214278 0.918133
O O5 0.052085 0.261566 0.238197
O O6 0.917606 0.227430 0.329753
O O7 0.019190 0.000000 0.230296
O O8 0.624639 0.755236 0.250787
O O9 0.460436 0.748385 0.418003
O O10 0.543817 0.000000 0.307829
O O11 0.333600 0.263967 0.169920
O O12 0.404018 0.000000 0.076099
O O13 0.500000 0.223313 0.000000
O O14 0.250000 0.250000 0.500000
O O15 0.174361 0.225520 0.489719
O O16 0.179300 0.000000 0.547000
O O17 0.688067 0.500000 0.218421
O O18 0.700189 0.750573 0.259640
O O19 0.313794 0.751371 0.624590
O O20 0.267749 0.000000 0.722840
O O21 0.630575 0.500000 0.478790
#
# Coordination Sequence:
#
# PCOD9206941 Si02
#       8
#     8   8   8   8   8   8   8   8
#     4   9  19  35  56  81 107 140 183 226 267 315
#     4  10  21  37  55  78 110 146 181 219 270 327
#     4  11  22  37  58  84 110 138 179 228 273 319
#     4   9  19  37  58  80 110 148 187 226 273 328
#     4   9  20  36  55  79 107 141 180 221 266 319
#     4  10  21  39  59  80 110 146 181 220 271 328
#     4  11  22  36  56  84 113 142 182 229 273 319
#     4  10  21  39  58  79 110 147 183 220 270 328
#
# _framework density 17.513608000000001
#
# number of rings (size 3 to 8) (size 9 to 14) (size 15 to 20)
#    0.000    2.125    0.000    4.875    0.000    7.750 
#    0.000    6.250    0.000    0.000    0.000    0.000 
#    0.000    0.000    0.000    0.000    0.000    0.000 
#
# Total GULP energy -178682.003817 kJ/mol
# GULP energy per Si atom -5583.812619 kJ/mol
# Density = 1.747375 g / cm^3
# Si number density = 17.513608 Si / 1000 Ang^3
#
#
#
# Elastic Constant Matrix: (Units=GPa)
#
#
# Indices 1 2 3 4 5 6 
#
# 1 164.9355 75.1101 111.2239 -0.0016 -18.4016 0.0040
# 2 75.1101 94.0230 74.0835 0.0112 2.2021 -0.0050
# 3 111.2239 74.0835 135.5007 -0.0036 18.5258 -0.0018
# 4 -0.0016 0.0112 -0.0036 35.0179 -0.0006 1.2052
# 5 -18.4016 2.2021 18.5258 -0.0006 28.0966 0.0005
# 6 0.0040 -0.0050 -0.0018 1.2052 0.0005 30.9777
#
#
#
# Elastic Compliance Matrix: (Units=1/GPa)
#
#
# Indices 1 2 3 4 5 6 
#
# 1 0.034293 -0.002605 -0.032779 0.000000 0.044277 -0.000007
# 2 -0.002605 0.019782 -0.009048 -0.000007 0.002709 0.000003
# 3 -0.032779 -0.009048 0.046239 0.000005 -0.051247 0.000006
# 4 0.000000 -0.000007 0.000005 0.028595 -0.000002 -0.001113
# 5 0.044277 0.002709 -0.051247 -0.000002 0.098169 -0.000010
# 6 -0.000007 0.000003 0.000006 -0.001113 -0.000010 0.032325
#
#
# Mechanical properties :
#
#
# Convention : Reuss Voigt Hill
#
# Bulk Modulus (GPa) = 87.32089 101.69935 94.51012
# Shear Modulus (GPa) = 14.20115 27.75453 20.97784
#
# Velocity S-wave (km/s) = 2.85066 3.98520 3.46468
# Velocity P-wave (km/s) = 7.79757 8.90902 8.37176
#
# Compressibility (1/GPa) = 0.01145201
#
# Stress axis : x y z
#
# Youngs Moduli (GPa) = 29.16009 50.55008 21.62659
#
# Poissons Ratio (x) = 0.13168 0.70889
# Poissons Ratio (y) = 0.07596 0.19567
# Poissons Ratio (z) = 0.95583 0.45737
#
# Static dielectric constant tensor:
#      x y z
#    x 1.574900 0.000000 -0.001800 
#    y 0.000000 1.586770 0.000010 
#    z -0.001800 0.000010 1.570050 
# 
# From -- ./inp_files/353259.got.cif
#   From: 2010.05.17/outbox.cif.g08.bks.cpg/sg12_177_cif.got.tgz:353259.got - 2010.06.03 13:09:07.
