data_PCOD9206217
_publ_section_title
;
Structure prediction by ZEFSAII (Michael W. Deem and Ramdas Pophale) SiO2 
 PCOD9206217
Probable space group: C 2/M
;
_chemical_formula_sum "Si O2"
_cell_formula_units_Z 56
_cell_length_a 9.960295
_cell_length_b 21.704851
_cell_length_c 17.202940
_cell_angle_alpha 90.000000
_cell_angle_beta 53.032082
_cell_angle_gamma 90.000000
_cell_volume 2971.415893
_symmetry_space_group_name_H-M "C 2/M"
_symmetry_group_IT_number 12
_symmetry_cell_setting 'monoclinic'
loop_
_space_group_symop_operation_xyz
x,y,z
-x,y,-z
-x,-y,-z
x,-y,z
1/2+x,1/2+y,z
1/2-x,1/2+y,-z
1/2-x,1/2-y,-z
1/2+x,1/2-y,z
loop_
_atom_site_type_symbol
_atom_site_label
_atom_site_fract_x
_atom_site_fract_y
_atom_site_fract_z
Si Si1 0.333225 0.131946 0.203320
Si Si2 0.326882 0.071486 0.933329
Si Si3 0.268755 0.427941 0.202847
Si Si4 0.952367 0.750157 0.925942
Si Si5 0.310227 0.426939 0.593062
Si Si6 0.009980 0.573999 0.583462
Si Si7 0.402765 0.627698 0.859644
O O1 0.472990 0.079291 0.139021
O O2 0.445815 0.193316 0.148213
O O3 0.256754 0.116228 0.314162
O O4 0.180346 0.132011 0.195471
O O5 0.249258 0.096230 0.878902
O O6 0.280965 0.000000 0.959219
O O7 0.249049 0.109743 0.030323
O O8 0.227563 0.500000 0.207466
O O9 0.450274 0.421380 0.177818
O O10 0.130916 0.400590 0.308975
O O11 0.987793 0.809983 0.861429
O O12 0.750000 0.750000 0.000000
O O13 0.000000 0.754623 0.000000
O O14 0.500000 0.415194 0.500000
O O15 0.297407 0.500000 0.620580
O O16 0.188276 0.417835 0.562124
O O17 0.980279 0.500000 0.588360
O O18 0.000000 0.599151 0.500000
#
# Coordination Sequence:
#
# PCOD9206217 Si02
#       7
#     8   8   8   8   8   8   8
#     4  12  24  40  60  91 124 160 211 263 312 369
#     4  11  21  37  57  85 128 167 197 244 309 373
#     4  10  21  36  56  88 125 162 201 248 311 372
#     4  12  23  43  63  88 120 164 219 261 303 368
#     4  10  22  40  65  94 127 165 203 256 321 380
#     4   9  18  35  58  86 119 156 202 248 297 368
#     4  12  25  37  60  89 124 163 210 254 304 375
#
# _framework density 18.846233000000002
#
# number of rings (size 3 to 8) (size 9 to 14) (size 15 to 20)
#    0.000    1.143    4.286    2.571    2.000    4.000 
#    0.000    0.000    0.000    1.714    0.000    0.000 
#    0.000    0.000    0.000    0.000    0.000    0.000 
#
# Total GULP energy -156187.663074 kJ/mol
# GULP energy per Si atom -5578.130824 kJ/mol
# Density = 1.880334 g / cm^3
# Si number density = 18.846233 Si / 1000 Ang^3
#
#
#
# Elastic Constant Matrix: (Units=GPa)
#
#
# Indices 1 2 3 4 5 6 
#
# 1 89.3504 9.7795 32.7765 0.0000 12.5539 0.0000
# 2 9.7795 47.4395 20.3583 0.0000 14.9406 0.0000
# 3 32.7765 20.3583 86.5395 0.0000 12.0678 0.0000
# 4 0.0000 0.0000 0.0000 15.9364 0.0000 -2.4734
# 5 12.5539 14.9406 12.0678 0.0000 35.4057 0.0000
# 6 0.0000 0.0000 0.0000 -2.4734 0.0000 12.6647
#
#
#
# Elastic Compliance Matrix: (Units=1/GPa)
#
#
# Indices 1 2 3 4 5 6 
#
# 1 0.013328 0.000277 -0.004659 0.000000 -0.003255 0.000000
# 2 0.000277 0.026110 -0.004932 0.000000 -0.009435 0.000000
# 3 -0.004659 -0.004932 0.014656 0.000000 -0.001262 0.000000
# 4 0.000000 0.000000 0.000000 0.064711 0.000000 0.012638
# 5 -0.003255 -0.009435 -0.001262 0.000000 0.033810 0.000000
# 6 0.000000 0.000000 0.000000 0.012638 0.000000 0.081428
#
#
# Mechanical properties :
#
#
# Convention : Reuss Voigt Hill
#
# Bulk Modulus (GPa) = 28.19533 38.79535 33.49534
# Shear Modulus (GPa) = 18.90408 23.49570 21.19989
#
# Velocity S-wave (km/s) = 3.17056 3.53470 3.35757
# Velocity P-wave (km/s) = 5.32884 6.10645 5.73085
#
# Compressibility (1/GPa) = 0.03546686
#
# Stress axis : x y z
#
# Youngs Moduli (GPa) = 75.02998 38.29898 68.23015
#
# Poissons Ratio (x) = -0.01061 0.31790
# Poissons Ratio (y) = -0.02078 0.33648
# Poissons Ratio (z) = 0.34958 0.18887
#
# Static dielectric constant tensor:
#      x y z
#    x 1.671420 0.000000 -0.009770 
#    y 0.000000 1.713400 0.000000 
#    z -0.009770 0.000000 1.764400 
# 
# From -- ./inp_files/198777.got.cif
#   From: 2010.05.17/outbox.cif.g08.bks.cpg/sg12_100_cif.got.tgz:198777.got - 2010.06.03 13:09:07.
