data_PCOD9206732
_publ_section_title
;
Structure prediction by ZEFSAII (Michael W. Deem and Ramdas Pophale) SiO2 
 PCOD9206732
Probable space group: C 2/M
;
_chemical_formula_sum "Si O2"
_cell_formula_units_Z 64
_cell_length_a 13.663226
_cell_length_b 19.430163
_cell_length_c 11.421574
_cell_angle_alpha 90.000000
_cell_angle_beta 83.602638
_cell_angle_gamma 90.000000
_cell_volume 3013.303451
_symmetry_space_group_name_H-M "C 2/M"
_symmetry_group_IT_number 12
_symmetry_cell_setting 'monoclinic'
loop_
_space_group_symop_operation_xyz
x,y,z
-x,y,-z
-x,-y,-z
x,-y,z
1/2+x,1/2+y,z
1/2-x,1/2+y,-z
1/2-x,1/2-y,-z
1/2+x,1/2-y,z
loop_
_atom_site_type_symbol
_atom_site_label
_atom_site_fract_x
_atom_site_fract_y
_atom_site_fract_z
Si Si1 0.683094 0.423054 0.245008
Si Si2 0.819740 0.691690 0.340137
Si Si3 0.110583 0.723944 0.019415
Si Si4 0.207019 0.133334 0.987907
Si Si5 0.851290 0.301182 0.601240
Si Si6 0.752050 0.077078 0.271146
Si Si7 0.031822 0.920954 0.727407
Si Si8 0.510007 0.263961 0.252155
O O1 0.723048 0.500000 0.246893
O O2 0.756937 0.368655 0.290610
O O3 0.666477 0.404941 0.108698
O O4 0.575270 0.422383 0.321424
O O5 0.855985 0.675618 0.466206
O O6 0.746401 0.755767 0.365522
O O7 0.913764 0.716636 0.254103
O O8 0.186285 0.663101 0.990357
O O9 0.900101 0.741205 0.842018
O O10 0.148157 0.796715 0.965425
O O11 0.000000 0.707913 0.000000
O O12 0.215248 0.090059 0.868224
O O13 0.830257 0.368966 0.680274
O O14 0.942113 0.253083 0.628551
O O15 0.854917 0.083293 0.331282
O O16 0.715177 0.000000 0.288656
O O17 0.018941 0.842076 0.775598
O O18 0.031276 0.000000 0.783431
#
# Coordination Sequence:
#
# PCOD9206732 Si02
#       8
#     8   8   8   8   8   8   8   8
#     4  11  23  42  63  92 130 165 205 256 317 376
#     4  11  24  40  67  90 122 162 214 266 314 366
#     4  11  22  33  61  94 129 162 204 260 304 365
#     4  11  22  37  60  96 125 166 209 247 313 376
#     4  11  23  41  63  94 120 165 213 264 311 367
#     4  11  23  41  63  92 132 170 207 255 314 380
#     4  10  21  36  61  94 131 167 200 249 313 381
#     4  12  20  41  65  91 127 161 214 260 309 370
#
# _framework density 21.239149000000001
#
# number of rings (size 3 to 8) (size 9 to 14) (size 15 to 20)
#    0.000    1.000    5.000    2.250    1.750    0.500 
#    0.000    3.125    0.000    6.750    0.000    0.000 
#    0.000    0.000    0.000    0.000    0.000    0.000 
#
# Total GULP energy -178231.102453 kJ/mol
# GULP energy per Si atom -5569.721952 kJ/mol
# Density = 2.119081 g / cm^3
# Si number density = 21.239149 Si / 1000 Ang^3
#
#
#
# Elastic Constant Matrix: (Units=GPa)
#
#
# Indices 1 2 3 4 5 6 
#
# 1 81.1408 28.8439 1.9673 0.0000 6.8801 0.0000
# 2 28.8439 119.8247 15.6823 0.0000 2.5463 0.0000
# 3 1.9673 15.6823 58.7059 0.0000 7.5830 0.0000
# 4 0.0000 0.0000 0.0000 8.7938 0.0000 3.6543
# 5 6.8801 2.5463 7.5830 0.0000 24.8531 0.0000
# 6 0.0000 0.0000 0.0000 3.6543 0.0000 37.4547
#
#
#
# Elastic Compliance Matrix: (Units=1/GPa)
#
#
# Indices 1 2 3 4 5 6 
#
# 1 0.013818 -0.003367 0.000922 0.000000 -0.003762 0.000000
# 2 -0.003367 0.009469 -0.002511 0.000000 0.000728 0.000000
# 3 0.000922 -0.002511 0.018399 0.000000 -0.005612 0.000000
# 4 0.000000 0.000000 0.000000 0.118521 0.000000 -0.011564
# 5 -0.003762 0.000728 -0.005612 0.000000 0.042915 0.000000
# 6 0.000000 0.000000 0.000000 -0.011564 0.000000 0.027827
#
#
# Mechanical properties :
#
#
# Convention : Reuss Voigt Hill
#
# Bulk Modulus (GPa) = 31.47151 39.18427 35.32789
# Shear Modulus (GPa) = 19.88454 28.43220 24.15837
#
# Velocity S-wave (km/s) = 3.06309 3.66275 3.37626
# Velocity P-wave (km/s) = 5.23067 6.03132 5.64521
#
# Compressibility (1/GPa) = 0.03177477
#
# Stress axis : x y z
#
# Youngs Moduli (GPa) = 72.37082 105.60633 54.35161
#
# Poissons Ratio (x) = 0.35557 -0.05013
# Poissons Ratio (y) = 0.24367 0.13646
# Poissons Ratio (z) = -0.06674 0.26515
#
# Static dielectric constant tensor:
#      x y z
#    x 1.768570 0.000000 0.024160 
#    y 0.000000 1.744460 0.000000 
#    z 0.024160 0.000000 1.902160 
# 
# From -- ./inp_files/146133.got.cif
#   From: 2010.05.17/outbox.cif.g08.bks.cpg/sg12_74_cif.got.tgz:146133.got - 2010.06.03 13:09:07.
