data_PCOD9206136
_publ_section_title
;
Structure prediction by ZEFSAII (Michael W. Deem and Ramdas Pophale) SiO2 
 PCOD9206136
Probable space group: C 2/M
;
_chemical_formula_sum "Si O2"
_cell_formula_units_Z 64
_cell_length_a 20.884258
_cell_length_b 8.843036
_cell_length_c 32.863799
_cell_angle_alpha 90.000000
_cell_angle_beta 146.195402
_cell_angle_gamma 90.000000
_cell_volume 3376.726629
_symmetry_space_group_name_H-M "C 2/M"
_symmetry_group_IT_number 12
_symmetry_cell_setting 'monoclinic'
loop_
_space_group_symop_operation_xyz
x,y,z
-x,y,-z
-x,-y,-z
x,-y,z
1/2+x,1/2+y,z
1/2-x,1/2+y,-z
1/2-x,1/2-y,-z
1/2+x,1/2-y,z
loop_
_atom_site_type_symbol
_atom_site_label
_atom_site_fract_x
_atom_site_fract_y
_atom_site_fract_z
Si Si1 0.340512 0.822128 0.105792
Si Si2 0.680651 0.681177 0.764976
Si Si3 0.343078 0.818281 0.335276
Si Si4 0.585468 0.678474 0.937327
Si Si5 0.431103 0.818819 0.923294
Si Si6 0.072967 0.327813 0.496601
Si Si7 0.982611 0.180248 0.251304
Si Si8 0.723602 0.179095 0.351555
O O1 0.408068 0.770831 0.100994
O O2 0.387454 0.725614 0.167738
O O3 0.357476 0.000000 0.122435
O O4 0.206422 0.795624 0.024721
O O5 0.676010 0.500000 0.756183
O O6 0.690903 0.760915 0.726999
O O7 0.795382 0.712441 0.851926
O O8 0.569454 0.727127 0.732520
O O9 0.477033 0.773855 0.414073
O O10 0.265970 0.750913 0.331072
O O11 0.337245 0.000000 0.334937
O O12 0.576376 0.500000 0.923796
O O13 0.485187 0.735788 0.913267
O O14 0.446800 0.000000 0.927076
O O15 0.500000 0.771317 0.000000
O O16 0.109327 0.500000 0.506206
O O17 0.182133 0.226734 0.564745
O O18 0.000000 0.334122 0.500000
O O19 0.100617 0.258426 0.300437
O O20 0.998281 0.000000 0.259710
O O21 0.720178 0.000000 0.345142
#
# Coordination Sequence:
#
# PCOD9206136 Si02
#       8
#     8   8   8   8   8   8   8   8
#     4  10  21  37  57  81 112 148 189 241 293 345
#     4  10  23  40  59  85 117 154 197 246 297 352
#     4  10  21  38  62  89 120 156 193 240 292 346
#     4  10  21  36  56  83 111 145 190 239 292 350
#     4  10  21  38  59  81 111 151 195 242 295 350
#     4   8  16  34  58  86 118 152 192 237 288 343
#     4  11  23  40  60  82 115 156 197 241 296 351
#     4  11  22  36  60  91 121 154 195 240 289 348
#
# _framework density 18.953268000000001
#
# number of rings (size 3 to 8) (size 9 to 14) (size 15 to 20)
#    0.000    2.000    0.000    4.125    1.750    7.000 
#    0.000    0.625    0.000    0.000    0.000    0.000 
#    0.000    0.000    0.000    0.000    0.000    0.000 
#
# Total GULP energy -178688.961796 kJ/mol
# GULP energy per Si atom -5584.030056 kJ/mol
# Density = 1.891013 g / cm^3
# Si number density = 18.953268 Si / 1000 Ang^3
#
#
#
# Elastic Constant Matrix: (Units=GPa)
#
#
# Indices 1 2 3 4 5 6 
#
# 1 105.6937 41.2777 42.5044 0.0000 15.3853 0.0000
# 2 41.2777 55.7311 36.5353 0.0000 10.5840 -0.0001
# 3 42.5044 36.5353 75.3874 0.0000 -6.8511 0.0000
# 4 0.0000 0.0000 0.0000 26.9747 0.0000 3.2304
# 5 15.3853 10.5840 -6.8511 0.0000 17.3419 0.0000
# 6 0.0000 -0.0001 0.0000 3.2304 0.0000 17.5499
#
#
#
# Elastic Compliance Matrix: (Units=1/GPa)
#
#
# Indices 1 2 3 4 5 6 
#
# 1 0.017023 -0.003005 -0.009695 0.000000 -0.017098 0.000000
# 2 -0.003005 0.038321 -0.019459 0.000000 -0.028409 0.000000
# 3 -0.009695 -0.019459 0.031141 0.000000 0.032780 0.000000
# 4 0.000000 0.000000 0.000000 0.037907 0.000000 -0.006978
# 5 -0.017098 -0.028409 0.032780 0.000000 0.103121 0.000000
# 6 0.000000 0.000000 0.000000 -0.006978 0.000000 0.058265
#
#
# Mechanical properties :
#
#
# Convention : Reuss Voigt Hill
#
# Bulk Modulus (GPa) = 45.11498 53.04967 49.08232
# Shear Modulus (GPa) = 13.98659 20.13960 17.06310
#
# Velocity S-wave (km/s) = 2.71947 3.26328 3.00371
# Velocity P-wave (km/s) = 5.80652 6.49993 6.16299
#
# Compressibility (1/GPa) = 0.02216559
#
# Stress axis : x y z
#
# Youngs Moduli (GPa) = 58.74513 26.09537 32.11241
#
# Poissons Ratio (x) = 0.07842 0.31133
# Poissons Ratio (y) = 0.17653 0.62488
# Poissons Ratio (z) = 0.56954 0.50779
#
# Static dielectric constant tensor:
#      x y z
#    x 1.630970 0.000000 0.006460 
#    y 0.000000 1.633330 0.000000 
#    z 0.006460 0.000000 1.683210 
# 
# From -- ./inp_files/378474.got.cif
#   From: 2010.05.17/outbox.cif.g08.bks.cpg/sg12_190_cif.got.tgz:378474.got - 2010.06.03 13:09:07.
