data_PCOD9206553
_publ_section_title
;
Structure prediction by ZEFSAII (Michael W. Deem and Ramdas Pophale) SiO2 
 PCOD9206553
Probable space group: C 2/M
;
_chemical_formula_sum "Si O2"
_cell_formula_units_Z 56
_cell_length_a 17.571153
_cell_length_b 19.049056
_cell_length_c 23.171494
_cell_angle_alpha 90.000000
_cell_angle_beta 21.223647
_cell_angle_gamma 90.000000
_cell_volume 2807.679390
_symmetry_space_group_name_H-M "C 2/M"
_symmetry_group_IT_number 12
_symmetry_cell_setting 'monoclinic'
loop_
_space_group_symop_operation_xyz
x,y,z
-x,y,-z
-x,-y,-z
x,-y,z
1/2+x,1/2+y,z
1/2-x,1/2+y,-z
1/2-x,1/2-y,-z
1/2+x,1/2-y,z
loop_
_atom_site_type_symbol
_atom_site_label
_atom_site_fract_x
_atom_site_fract_y
_atom_site_fract_z
Si Si1 0.916163 0.188835 0.814334
Si Si2 0.792773 0.832453 0.486047
Si Si3 0.294750 0.369900 0.619954
Si Si4 0.244741 0.287103 0.327231
Si Si5 0.409271 0.296829 0.009843
Si Si6 0.877286 0.419727 0.772510
Si Si7 0.653586 0.075187 0.067240
O O1 0.773211 0.255357 0.896616
O O2 0.999171 0.152401 0.697603
O O3 0.123885 0.203983 0.706215
O O4 0.775179 0.138472 0.952507
O O5 0.750000 0.750000 0.500000
O O6 0.816483 0.847465 0.537310
O O7 0.600283 0.882363 0.602873
O O8 0.500000 0.405340 0.500000
O O9 0.267498 0.296608 0.673308
O O10 0.090625 0.415687 0.773388
O O11 0.000000 0.312427 0.500000
O O12 0.401401 0.315518 0.167376
O O13 0.297709 0.362956 0.119523
O O14 0.500000 0.253061 0.000000
O O15 0.864369 0.500000 0.759811
O O16 0.842027 0.422570 0.866612
O O17 0.737700 0.000000 0.988358
#
# Coordination Sequence:
#
# PCOD9206553 Si02
#       7
#     8   8   8   8   8   8   8
#     4  12  22  39  65  92 127 161 215 263 319 371
#     4  11  21  35  62  93 121 162 210 259 315 372
#     4  10  21  36  59  89 126 159 206 263 316 379
#     4  11  23  38  62  94 126 159 209 268 320 371
#     4  12  25  38  66  97 127 166 211 265 316 376
#     4  10  22  41  63  88 124 170 213 252 313 385
#     4  10  21  40  63  87 119 171 215 255 319 385
#
# _framework density 19.945297
#
# number of rings (size 3 to 8) (size 9 to 14) (size 15 to 20)
#    0.000    1.143    5.714    1.286    6.000    1.143 
#    0.000    0.000    0.000    3.857    0.000    0.000 
#    0.000    0.000    0.000    0.000    0.000    0.000 
#
# Total GULP energy -156107.501258 kJ/mol
# GULP energy per Si atom -5575.267902 kJ/mol
# Density = 1.989990 g / cm^3
# Si number density = 19.945297 Si / 1000 Ang^3
#
#
#
# Elastic Constant Matrix: (Units=GPa)
#
#
# Indices 1 2 3 4 5 6 
#
# 1 68.7947 20.7074 43.5553 0.0104 -19.6300 -0.0101
# 2 20.7074 84.4908 27.3112 -0.0356 -1.1680 0.0156
# 3 43.5553 27.3112 124.7966 -0.0160 -5.9390 0.0797
# 4 0.0104 -0.0356 -0.0160 15.3124 0.0202 2.1906
# 5 -19.6300 -1.1680 -5.9390 0.0202 39.0332 -0.0168
# 6 -0.0101 0.0156 0.0797 2.1906 -0.0168 3.6881
#
#
#
# Elastic Compliance Matrix: (Units=1/GPa)
#
#
# Indices 1 2 3 4 5 6 
#
# 1 0.022712 -0.003250 -0.006725 -0.000090 0.010301 0.000321
# 2 -0.003250 0.013202 -0.001827 0.000041 -0.001517 -0.000057
# 3 -0.006725 -0.001827 0.010674 0.000054 -0.001813 -0.000282
# 4 -0.000090 0.000041 0.000054 0.071372 -0.000091 -0.042395
# 5 0.010301 -0.001517 -0.001813 -0.000091 0.030479 0.000266
# 6 0.000321 -0.000057 -0.000282 -0.042395 0.000266 0.296331
#
#
# Mechanical properties :
#
#
# Convention : Reuss Voigt Hill
#
# Bulk Modulus (GPa) = 43.51107 51.24778 47.37943
# Shear Modulus (GPa) = 10.50343 24.04062 17.27202
#
# Velocity S-wave (km/s) = 2.29729 3.47555 2.94593
# Velocity P-wave (km/s) = 5.37581 6.46961 5.94791
#
# Compressibility (1/GPa) = 0.02298266
#
# Stress axis : x y z
#
# Youngs Moduli (GPa) = 44.03009 75.74744 93.68551
#
# Poissons Ratio (x) = 0.24618 0.63007
# Poissons Ratio (y) = 0.14310 0.17117
# Poissons Ratio (z) = 0.29612 0.13839
#
# Static dielectric constant tensor:
#      x y z
#    x 1.763040 0.000000 -0.034990 
#    y 0.000000 1.732990 -0.000040 
#    z -0.034990 -0.000040 1.744380 
# 
# From -- ./inp_files/77342.got.cif
#   From: 2010.05.17/outbox.cif.g08.bks.cpg/sg12_39_cif.got.tgz:77342.got - 2010.06.03 13:09:07.
