data_PCOD9206118
_publ_section_title
;
Structure prediction by ZEFSAII (Michael W. Deem and Ramdas Pophale) SiO2 
 PCOD9206118
Probable space group: C 2/M
;
_chemical_formula_sum "Si O2"
_cell_formula_units_Z 56
_cell_length_a 14.711789
_cell_length_b 7.437839
_cell_length_c 22.750067
_cell_angle_alpha 90.000000
_cell_angle_beta 57.406954
_cell_angle_gamma 90.000000
_cell_volume 2097.365000
_symmetry_space_group_name_H-M "C 2/M"
_symmetry_group_IT_number 12
_symmetry_cell_setting 'monoclinic'
loop_
_space_group_symop_operation_xyz
x,y,z
-x,y,-z
-x,-y,-z
x,-y,z
1/2+x,1/2+y,z
1/2-x,1/2+y,-z
1/2-x,1/2-y,-z
1/2+x,1/2-y,z
loop_
_atom_site_type_symbol
_atom_site_label
_atom_site_fract_x
_atom_site_fract_y
_atom_site_fract_z
Si Si1 0.170246 0.708842 0.104323
Si Si2 0.422115 0.294971 0.405198
Si Si3 0.803863 0.782530 0.159304
Si Si4 0.518258 0.718779 0.737936
Si Si5 0.681781 0.712904 0.446483
Si Si6 0.964840 0.288491 0.950132
Si Si7 0.242373 0.715411 0.302282
O O1 0.192959 0.500000 0.085452
O O2 0.267242 0.788844 0.108514
O O3 0.073369 0.716951 0.185953
O O4 0.129937 0.789636 0.057108
O O5 0.459626 0.500000 0.398546
O O6 0.488224 0.214551 0.327582
O O7 0.405557 0.217007 0.476135
O O8 0.298099 0.295814 0.423134
O O9 0.732506 0.717786 0.238976
O O10 0.926906 0.730693 0.126027
O O11 0.797798 0.000000 0.159554
O O12 0.515321 0.500000 0.738731
O O13 0.636968 0.772159 0.719718
O O14 0.691330 0.500000 0.453935
O O15 0.664465 0.734683 0.382993
O O16 0.944289 0.500000 0.965680
O O17 0.000000 0.206177 0.000000
O O18 0.241421 0.500000 0.300420
#
# Coordination Sequence:
#
# PCOD9206118 Si02
#       7
#     8   8   8   8   8   8   8
#     4  10  21  36  56  82 111 142 181 224 265 315
#     4   8  15  26  39  63 100 138 175 221 269 317
#     4  10  21  38  58  81 110 146 184 221 263 318
#     4   9  16  29  50  73 101 139 180 221 269 318
#     4   9  15  23  40  67  98 133 177 223 269 317
#     4  10  22  40  60  85 117 144 170 217 274 319
#     4   9  17  30  48  70 101 138 176 221 270 314
#
# _framework density 26.70017
#
# number of rings (size 3 to 8) (size 9 to 14) (size 15 to 20)
#    0.000    2.714    1.429    1.286    0.000    4.857 
#    0.000    0.000    0.000    0.857    0.000    6.000 
#    0.000    0.000    0.000    0.000    0.000    0.000 
#
# Total GULP energy -156508.007856 kJ/mol
# GULP energy per Si atom -5589.571709 kJ/mol
# Density = 2.663940 g / cm^3
# Si number density = 26.700170 Si / 1000 Ang^3
#
#
#
# Elastic Constant Matrix: (Units=GPa)
#
#
# Indices 1 2 3 4 5 6 
#
# 1 107.9942 11.0722 53.8095 -0.0001 16.7948 -0.0002
# 2 11.0722 105.0788 10.7769 -0.0002 11.5113 -0.0003
# 3 53.8095 10.7769 161.9052 0.0000 33.9668 0.0000
# 4 -0.0001 -0.0002 0.0000 26.0647 0.0000 -2.3522
# 5 16.7948 11.5113 33.9668 0.0000 58.3014 -0.0001
# 6 -0.0002 -0.0003 0.0000 -2.3522 -0.0001 0.4420
#
#
#
# Elastic Compliance Matrix: (Units=1/GPa)
#
#
# Indices 1 2 3 4 5 6 
#
# 1 0.011222 -0.000710 -0.003456 0.000001 -0.001079 0.000008
# 2 -0.000710 0.009783 -0.000060 0.000001 -0.001692 0.000011
# 3 -0.003456 -0.000060 0.008109 0.000000 -0.003717 -0.000004
# 4 0.000001 0.000001 0.000000 0.073822 0.000000 0.392886
# 5 -0.001079 -0.001692 -0.003717 0.000000 0.019963 0.000005
# 6 0.000008 0.000011 -0.000004 0.392886 0.000005 4.353519
#
#
# Mechanical properties :
#
#
# Convention : Reuss Voigt Hill
#
# Bulk Modulus (GPa) = 48.39868 58.47728 53.43798
# Shear Modulus (GPa) = 1.11315 36.91626 19.01471
#
# Velocity S-wave (km/s) = 0.64638 3.72240 2.67152
# Velocity P-wave (km/s) = 4.32703 6.35799 5.43816
#
# Compressibility (1/GPa) = 0.02066172
#
# Stress axis : x y z
#
# Youngs Moduli (GPa) = 89.10727 102.21815 123.32143
#
# Poissons Ratio (x) = 0.07256 0.42622
# Poissons Ratio (y) = 0.06325 0.00744
# Poissons Ratio (z) = 0.30797 0.00616
#
# Static dielectric constant tensor:
#      x y z
#    x 2.099450 0.000000 0.042710 
#    y 0.000000 2.013540 0.000000 
#    z 0.042710 0.000000 2.141480 
# 
# From -- ./inp_files/338476.got.cif
#   From: 2010.05.17/outbox.cif.g08.bks.cpg/sg12_170_cif.got.tgz:338476.got - 2010.06.03 13:09:07.
