data_PCOD9206292
_publ_section_title
;
Structure prediction by ZEFSAII (Michael W. Deem and Ramdas Pophale) SiO2 
 PCOD9206292
Probable space group: C 2/M
;
_chemical_formula_sum "Si O2"
_cell_formula_units_Z 64
_cell_length_a 15.601837
_cell_length_b 13.870607
_cell_length_c 16.908163
_cell_angle_alpha 90.000000
_cell_angle_beta 54.464841
_cell_angle_gamma 90.000000
_cell_volume 2977.580049
_symmetry_space_group_name_H-M "C 2/M"
_symmetry_group_IT_number 12
_symmetry_cell_setting 'monoclinic'
loop_
_space_group_symop_operation_xyz
x,y,z
-x,y,-z
-x,-y,-z
x,-y,z
1/2+x,1/2+y,z
1/2-x,1/2+y,-z
1/2-x,1/2-y,-z
1/2+x,1/2-y,z
loop_
_atom_site_type_symbol
_atom_site_label
_atom_site_fract_x
_atom_site_fract_y
_atom_site_fract_z
Si Si1 0.819809 0.783006 0.535805
Si Si2 0.412231 0.608133 0.114645
Si Si3 0.992827 0.108836 0.635968
Si Si4 0.306327 0.191608 0.816680
Si Si5 0.741894 0.396554 0.215426
Si Si6 0.111474 0.386022 0.392340
Si Si7 0.357008 0.102011 0.309037
Si Si8 0.503032 0.727877 0.211118
O O1 0.750000 0.750000 0.500000
O O2 0.936127 0.816374 0.449460
O O3 0.819826 0.693574 0.596855
O O4 0.757383 0.878030 0.595563
O O5 0.409666 0.500000 0.151043
O O6 0.298298 0.627054 0.135154
O O7 0.450665 0.684157 0.160599
O O8 0.500000 0.610906 0.000000
O O9 0.870301 0.109666 0.678484
O O10 0.988530 0.142223 0.729646
O O11 0.032566 0.000000 0.606582
O O12 0.257068 0.298091 0.831521
O O13 0.378336 0.153721 0.703584
O O14 0.385964 0.212401 0.847284
O O15 0.739732 0.500000 0.173446
O O16 0.837062 0.398850 0.225875
O O17 0.144245 0.500000 0.375883
O O18 0.000000 0.384042 0.500000
O O19 0.425203 0.193905 0.290139
O O20 0.401298 0.000000 0.312658
#
# Coordination Sequence:
#
# PCOD9206292 Si02
#       8
#     8   8   8   8   8   8   8   8
#     4  12  23  37  50  81 123 168 224 273 321 381
#     4  11  25  46  73 104 134 168 216 274 336 405
#     4  10  21  36  57  85 117 163 221 274 322 379
#     4  11  22  42  70  94 131 173 218 269 331 390
#     4   9  18  35  58  83 113 156 206 256 316 375
#     4  11  24  40  60  87 125 171 218 267 319 381
#     4  11  22  36  56  84 122 164 209 264 318 378
#     4  11  22  42  67  95 127 168 215 267 333 406
#
# _framework density 21.493963000000001
#
# number of rings (size 3 to 8) (size 9 to 14) (size 15 to 20)
#    0.000    1.250    3.750    2.625    0.000    3.000 
#    0.000    1.875    0.000    1.500    0.000    0.000 
#    0.000    0.000    0.000    0.000    0.000    0.000 
#
# Total GULP energy -178230.617833 kJ/mol
# GULP energy per Si atom -5569.706807 kJ/mol
# Density = 2.144504 g / cm^3
# Si number density = 21.493963 Si / 1000 Ang^3
#
#
#
# Elastic Constant Matrix: (Units=GPa)
#
#
# Indices 1 2 3 4 5 6 
#
# 1 76.7776 21.9395 9.3122 0.0000 -11.9432 0.0000
# 2 21.9395 135.2062 11.1034 0.0000 0.9611 0.0000
# 3 9.3122 11.1034 34.2912 0.0000 -16.5022 0.0000
# 4 0.0000 0.0000 0.0000 16.0256 0.0000 -9.1812
# 5 -11.9432 0.9611 -16.5022 0.0000 18.5909 0.0000
# 6 0.0000 0.0000 0.0000 -9.1812 0.0000 17.1854
#
#
#
# Elastic Compliance Matrix: (Units=1/GPa)
#
#
# Indices 1 2 3 4 5 6 
#
# 1 0.015442 -0.002819 0.002729 0.000000 0.012488 0.000000
# 2 -0.002819 0.008334 -0.005258 0.000000 -0.006909 0.000000
# 3 0.002729 -0.005258 0.054288 0.000000 0.050214 0.000000
# 4 0.000000 0.000000 0.000000 0.089924 0.000000 0.048041
# 5 0.012488 -0.006909 0.050214 0.000000 0.106742 0.000000
# 6 0.000000 0.000000 0.000000 0.048041 0.000000 0.083855
#
#
# Mechanical properties :
#
#
# Convention : Reuss Voigt Hill
#
# Bulk Modulus (GPa) = 14.84360 36.77615 25.80987
# Shear Modulus (GPa) = 12.76370 23.95502 18.35936
#
# Velocity S-wave (km/s) = 2.43950 3.34203 2.92578
# Velocity P-wave (km/s) = 3.85432 5.66033 4.84227
#
# Compressibility (1/GPa) = 0.06736911
#
# Stress axis : x y z
#
# Youngs Moduli (GPa) = 64.75992 119.98483 18.42022
#
# Poissons Ratio (x) = 0.33818 -0.05027
# Poissons Ratio (y) = 0.18253 0.09685
# Poissons Ratio (z) = -0.17673 0.63089
#
# Static dielectric constant tensor:
#      x y z
#    x 1.832130 0.000000 -0.007500 
#    y 0.000000 1.812900 0.000000 
#    z -0.007500 0.000000 1.802420 
# 
# From -- ./inp_files/270679.got.cif
#   From: 2010.05.17/outbox.cif.g08.bks.cpg/sg12_136_cif.got.tgz:270679.got - 2010.06.03 13:09:07.
