data_PCOD9206559
_publ_section_title
;
Structure prediction by ZEFSAII (Michael W. Deem and Ramdas Pophale) SiO2 
 PCOD9206559
Probable space group: C 2/M
;
_chemical_formula_sum "Si O2"
_cell_formula_units_Z 56
_cell_length_a 30.968522
_cell_length_b 8.205122
_cell_length_c 12.941410
_cell_angle_alpha 90.000000
_cell_angle_beta 47.150515
_cell_angle_gamma 90.000000
_cell_volume 2410.880456
_symmetry_space_group_name_H-M "C 2/M"
_symmetry_group_IT_number 12
_symmetry_cell_setting 'monoclinic'
loop_
_space_group_symop_operation_xyz
x,y,z
-x,y,-z
-x,-y,-z
x,-y,z
1/2+x,1/2+y,z
1/2-x,1/2+y,-z
1/2-x,1/2-y,-z
1/2+x,1/2-y,z
loop_
_atom_site_type_symbol
_atom_site_label
_atom_site_fract_x
_atom_site_fract_y
_atom_site_fract_z
Si Si1 0.573655 0.302619 0.727572
Si Si2 0.572160 0.815989 0.286302
Si Si3 0.550880 0.804736 0.098154
Si Si4 0.844327 0.802838 0.221926
Si Si5 0.806071 0.815234 0.967827
Si Si6 0.892340 0.807965 0.552020
Si Si7 0.264253 0.814168 0.709876
O O1 0.574485 0.500000 0.726055
O O2 0.508570 0.245645 0.862847
O O3 0.624664 0.247909 0.722570
O O4 0.585146 0.238729 0.593318
O O5 0.545777 0.735802 0.224902
O O6 0.640899 0.804427 0.142505
O O7 0.573726 0.750868 0.400701
O O8 0.550603 0.000000 0.326460
O O9 0.555107 0.000000 0.097901
O O10 0.607973 0.742692 0.944142
O O11 0.777477 0.740381 0.311713
O O12 0.839830 0.000000 0.230432
O O13 0.823025 0.000000 0.908258
O O14 0.750000 0.750000 0.000000
O O15 0.783911 0.820976 0.120429
O O16 0.822152 0.772006 0.660409
O O17 0.900185 0.000000 0.537656
O O18 0.282055 0.000000 0.655990
#
# Coordination Sequence:
#
# PCOD9206559 Si02
#       7
#     8   8   8   8   8   8   8
#     4  10  24  44  63  85 118 161 204 245 293 352
#     4  11  23  38  58  87 122 157 195 243 300 355
#     4  11  24  40  63  93 120 150 197 253 303 349
#     4  10  21  41  66  90 119 156 198 244 297 355
#     4  11  20  32  55  87 120 155 193 240 297 354
#     4  11  24  40  60  88 122 161 202 242 290 355
#     4  10  21  36  59  90 122 156 194 239 296 355
#
# _framework density 23.228027999999998
#
# number of rings (size 3 to 8) (size 9 to 14) (size 15 to 20)
#    0.000    1.429    2.857    2.143    0.000    7.429 
#    0.000    2.857    0.000    0.000    0.000    0.000 
#    0.000    0.000    0.000    0.000    0.000    0.000 
#
# Total GULP energy -156318.403586 kJ/mol
# GULP energy per Si atom -5582.800128 kJ/mol
# Density = 2.317516 g / cm^3
# Si number density = 23.228028 Si / 1000 Ang^3
#
#
#
# Elastic Constant Matrix: (Units=GPa)
#
#
# Indices 1 2 3 4 5 6 
#
# 1 108.6428 -3.2891 11.8334 0.0000 25.9502 0.0000
# 2 -3.2891 26.1434 -1.3795 0.0000 7.8870 0.0000
# 3 11.8334 -1.3795 68.1512 0.0000 20.6887 0.0000
# 4 0.0000 0.0000 0.0000 9.0264 0.0000 5.6369
# 5 25.9502 7.8870 20.6887 0.0000 32.5731 0.0000
# 6 0.0000 0.0000 0.0000 5.6369 0.0000 12.4361
#
#
#
# Elastic Compliance Matrix: (Units=1/GPa)
#
#
# Indices 1 2 3 4 5 6 
#
# 1 0.012016 0.005172 0.001616 0.000000 -0.011852 0.000000
# 2 0.005172 0.044795 0.005639 0.000000 -0.018549 0.000000
# 3 0.001616 0.005639 0.018970 0.000000 -0.014702 0.000000
# 4 0.000000 0.000000 0.000000 0.154529 0.000000 -0.070044
# 5 -0.011852 -0.018549 -0.014702 0.000000 0.053971 0.000000
# 6 0.000000 0.000000 0.000000 -0.070044 0.000000 0.112160
#
#
# Mechanical properties :
#
#
# Convention : Reuss Voigt Hill
#
# Bulk Modulus (GPa) = 9.93677 24.14079 17.03878
# Shear Modulus (GPa) = 12.34174 23.85862 18.10018
#
# Velocity S-wave (km/s) = 2.30756 3.20839 2.79451
# Velocity P-wave (km/s) = 3.37446 4.91330 4.21471
#
# Compressibility (1/GPa) = 0.10063633
#
# Stress axis : x y z
#
# Youngs Moduli (GPa) = 83.22301 22.32408 52.71552
#
# Poissons Ratio (x) = -0.11547 -0.08519
# Poissons Ratio (y) = -0.43047 -0.29729
# Poissons Ratio (z) = -0.13450 -0.12590
#
# Static dielectric constant tensor:
#      x y z
#    x 1.949310 0.000000 0.086170 
#    y 0.000000 1.851820 0.000000 
#    z 0.086170 0.000000 1.944910 
# 
# From -- ./inp_files/187218.got.cif
#   From: 2010.05.17/outbox.cif.g08.bks.cpg/sg12_94_cif.got.tgz:187218.got - 2010.06.03 13:09:07.
