data_PCOD9206738
_publ_section_title
;
Structure prediction by ZEFSAII (Michael W. Deem and Ramdas Pophale) SiO2 
 PCOD9206738
Probable space group: C 2/M
;
_chemical_formula_sum "Si O2"
_cell_formula_units_Z 48
_cell_length_a 5.042321
_cell_length_b 28.856145
_cell_length_c 14.867230
_cell_angle_alpha 90.000000
_cell_angle_beta 83.146313
_cell_angle_gamma 90.000000
_cell_volume 2147.752863
_symmetry_space_group_name_H-M "C 2/M"
_symmetry_group_IT_number 12
_symmetry_cell_setting 'monoclinic'
loop_
_space_group_symop_operation_xyz
x,y,z
-x,y,-z
-x,-y,-z
x,-y,z
1/2+x,1/2+y,z
1/2-x,1/2+y,-z
1/2-x,1/2-y,-z
1/2+x,1/2-y,z
loop_
_atom_site_type_symbol
_atom_site_label
_atom_site_fract_x
_atom_site_fract_y
_atom_site_fract_z
Si Si1 0.155146 0.220126 0.163382
Si Si2 0.041409 0.139692 0.703129
Si Si3 0.080634 0.917036 0.872721
Si Si4 0.594400 0.000000 0.214857
Si Si5 0.073888 0.500000 0.600131
Si Si6 0.000000 0.838469 0.000000
Si Si7 0.599371 0.106334 0.599148
Si Si8 0.769262 0.500000 0.082204
O O1 0.958879 0.264423 0.166117
O O2 0.027118 0.188592 0.247360
O O3 0.140456 0.193209 0.068696
O O4 0.346180 0.125442 0.666915
O O5 0.960753 0.104612 0.786492
O O6 0.858043 0.133690 0.622746
O O7 0.303030 0.953568 0.835118
O O8 0.869156 0.950933 0.926819
O O9 0.169890 0.874332 0.931493
O O10 0.659220 0.000000 0.316226
O O11 0.293105 0.000000 0.191236
O O12 0.000000 0.500000 0.500000
O O13 0.183506 0.551994 0.611110
O O14 0.500000 0.110364 0.500000
O O15 0.000000 0.500000 0.000000
#
# Coordination Sequence:
#
# PCOD9206738 Si02
#       8
#     8   8   8   4   4   4   8   4
#     4  11  24  46  71  98 128 166 212 280 347 407
#     4  11  23  42  68  96 130 173 222 274 332 405
#     4  10  22  37  57  87 126 175 222 271 319 381
#     4  11  19  38  57  80 135 173 228 269 318 372
#     4  10  21  36  61  95 137 180 224 268 312 375
#     4  10  22  41  60  94 126 164 216 267 332 398
#     4  11  23  41  66 101 138 178 221 269 323 383
#     4  11  22  35  55  82 125 178 229 275 311 375
#
# _framework density 22.348939000000001
#
# number of rings (size 3 to 8) (size 9 to 14) (size 15 to 20)
#    0.000    1.333    1.667    4.000    0.000    2.667 
#   12.000    2.500    0.000   10.000    0.000    0.000 
#    0.000    0.000    0.000    0.000    0.000    0.000 
#
# Total GULP energy -133749.104696 kJ/mol
# GULP energy per Si atom -5572.879362 kJ/mol
# Density = 2.229807 g / cm^3
# Si number density = 22.348939 Si / 1000 Ang^3
#
#
#
# Elastic Constant Matrix: (Units=GPa)
#
#
# Indices 1 2 3 4 5 6 
#
# 1 44.3797 -3.4793 5.7248 0.0000 5.2992 0.0000
# 2 -3.4793 79.0508 26.9756 0.0000 5.6319 0.0000
# 3 5.7248 26.9756 105.8720 0.0000 3.2177 0.0000
# 4 0.0000 0.0000 0.0000 34.5892 0.0000 -0.6627
# 5 5.2992 5.6319 3.2177 0.0000 29.4096 0.0000
# 6 0.0000 0.0000 0.0000 -0.6627 0.0000 18.4863
#
#
#
# Elastic Compliance Matrix: (Units=1/GPa)
#
#
# Indices 1 2 3 4 5 6 
#
# 1 0.023416 0.001896 -0.001615 0.000000 -0.004406 0.000000
# 2 0.001896 0.014162 -0.003630 0.000000 -0.002656 0.000000
# 3 -0.001615 -0.003630 0.010462 0.000000 -0.000158 0.000000
# 4 0.000000 0.000000 0.000000 0.028931 0.000000 0.001037
# 5 -0.004406 -0.002656 -0.000158 0.000000 0.035322 0.000000
# 6 0.000000 0.000000 0.000000 0.001037 0.000000 0.054131
#
#
# Mechanical properties :
#
#
# Convention : Reuss Voigt Hill
#
# Bulk Modulus (GPa) = 24.18933 31.97162 28.08047
# Shear Modulus (GPa) = 26.75176 29.83577 28.29376
#
# Velocity S-wave (km/s) = 3.46353 3.65772 3.56195
# Velocity P-wave (km/s) = 5.18090 5.67233 5.43217
#
# Compressibility (1/GPa) = 0.04134054
#
# Stress axis : x y z
#
# Youngs Moduli (GPa) = 42.70613 70.61389 95.57994
#
# Poissons Ratio (x) = -0.13386 0.15439
# Poissons Ratio (y) = -0.08096 0.34696
# Poissons Ratio (z) = 0.06898 0.25633
#
# Static dielectric constant tensor:
#      x y z
#    x 1.700380 0.000000 -0.139710 
#    y 0.000000 1.822410 0.000000 
#    z -0.139710 0.000000 1.760600 
# 
# From -- ./inp_files/192106.got.cif
#   From: 2010.05.17/outbox.cif.g08.bks.cpg/sg12_97_cif.got.tgz:192106.got - 2010.06.03 13:09:07.
