data_PCOD9206970
_publ_section_title
;
Structure prediction by ZEFSAII (Michael W. Deem and Ramdas Pophale) SiO2 
 PCOD9206970
Probable space group: C 2/M
;
_chemical_formula_sum "Si O2"
_cell_formula_units_Z 56
_cell_length_a 30.729675
_cell_length_b 8.716407
_cell_length_c 11.799413
_cell_angle_alpha 90.000000
_cell_angle_beta 65.543954
_cell_angle_gamma 90.000000
_cell_volume 2876.937697
_symmetry_space_group_name_H-M "C 2/M"
_symmetry_group_IT_number 12
_symmetry_cell_setting 'monoclinic'
loop_
_space_group_symop_operation_xyz
x,y,z
-x,y,-z
-x,-y,-z
x,-y,z
1/2+x,1/2+y,z
1/2-x,1/2+y,-z
1/2-x,1/2-y,-z
1/2+x,1/2-y,z
loop_
_atom_site_type_symbol
_atom_site_label
_atom_site_fract_x
_atom_site_fract_y
_atom_site_fract_z
Si Si1 0.196425 0.815096 0.548077
Si Si2 0.977672 0.314529 0.204050
Si Si3 0.954167 0.816308 0.474749
Si Si4 0.763203 0.684998 0.864334
Si Si5 0.147534 0.684274 0.376011
Si Si6 0.572408 0.184249 0.977828
Si Si7 0.170650 0.816032 0.825046
O O1 0.250000 0.750000 0.500000
O O2 0.169598 0.744595 0.470033
O O3 0.170089 0.772304 0.693521
O O4 0.197988 0.000000 0.537794
O O5 0.975729 0.500000 0.215306
O O6 0.960503 0.242442 0.339357
O O7 0.946500 0.270094 0.127214
O O8 0.032022 0.269435 0.111997
O O9 0.905463 0.749190 0.578460
O O10 0.000000 0.769707 0.500000
O O11 0.951250 0.000000 0.476840
O O12 0.763106 0.500000 0.868564
O O13 0.814823 0.733141 0.761360
O O14 0.721165 0.733439 0.823445
O O15 0.750000 0.750000 0.000000
O O16 0.145959 0.500000 0.380456
O O17 0.624995 0.249121 0.937913
O O18 0.574084 0.000000 0.977380
O O19 0.168769 0.000000 0.833135
#
# Coordination Sequence:
#
# PCOD9206970 Si02
#       7
#     8   8   8   8   8   8   8
#     4  11  21  36  60  90 124 158 196 243 297 354
#     4   9  19  38  60  84 117 152 191 242 294 348
#     4  11  25  42  60  86 119 155 201 250 299 355
#     4  10  23  42  59  81 115 154 195 239 288 348
#     4  11  23  42  64  88 120 156 199 249 302 357
#     4   9  19  35  58  88 117 148 190 238 291 351
#     4  10  21  37  55  83 121 153 188 237 291 347
#
# _framework density 19.465143000000001
#
# number of rings (size 3 to 8) (size 9 to 14) (size 15 to 20)
#    0.000    1.857    1.429    3.000    0.000    8.571 
#    0.000    7.143    0.000    0.000    0.000    0.000 
#    0.000    0.000    0.000    0.000    0.000    0.000 
#
# Total GULP energy -156431.429429 kJ/mol
# GULP energy per Si atom -5586.836765 kJ/mol
# Density = 1.942084 g / cm^3
# Si number density = 19.465143 Si / 1000 Ang^3
#
#
#
# Elastic Constant Matrix: (Units=GPa)
#
#
# Indices 1 2 3 4 5 6 
#
# 1 112.6262 30.1045 62.3150 0.0000 -33.3005 0.0000
# 2 30.1045 25.3434 29.7858 0.0000 -7.8233 0.0000
# 3 62.3150 29.7858 137.6493 0.0000 -22.4714 0.0000
# 4 0.0000 0.0000 0.0000 31.6193 0.0000 -2.2242
# 5 -33.3005 -7.8233 -22.4714 0.0000 38.0727 0.0000
# 6 0.0000 0.0000 0.0000 -2.2242 0.0000 33.7671
#
#
#
# Elastic Compliance Matrix: (Units=1/GPa)
#
#
# Indices 1 2 3 4 5 6 
#
# 1 0.017425 -0.013674 -0.003209 0.000000 0.010537 0.000000
# 2 -0.013674 0.064369 -0.008335 0.000000 -0.003653 0.000000
# 3 -0.003209 -0.008335 0.010827 0.000000 0.001870 0.000000
# 4 0.000000 0.000000 0.000000 0.031773 0.000000 0.002093
# 5 0.010537 -0.003653 0.001870 0.000000 0.035835 0.000000
# 6 0.000000 0.000000 0.000000 0.002093 0.000000 0.029753
#
#
# Mechanical properties :
#
#
# Convention : Reuss Voigt Hill
#
# Bulk Modulus (GPa) = 23.70533 57.78106 40.74320
# Shear Modulus (GPa) = 19.64789 30.91938 25.28364
#
# Velocity S-wave (km/s) = 3.18053 3.98986 3.60796
# Velocity P-wave (km/s) = 5.06878 7.13962 6.19139
#
# Compressibility (1/GPa) = 0.04218460
#
# Stress axis : x y z
#
# Youngs Moduli (GPa) = 57.38813 15.53538 92.36460
#
# Poissons Ratio (x) = 0.21243 0.29644
# Poissons Ratio (y) = 0.78473 0.76983
# Poissons Ratio (z) = 0.18418 0.12948
#
# Static dielectric constant tensor:
#      x y z
#    x 1.681390 0.000000 -0.011750 
#    y 0.000000 1.656570 0.000000 
#    z -0.011750 0.000000 1.668460 
# 
# From -- ./inp_files/181032.got.cif
#   From: 2010.05.17/outbox.cif.g08.bks.cpg/sg12_91_cif.got.tgz:181032.got - 2010.06.03 13:09:07.
