data_PCOD9206842
_publ_section_title
;
Structure prediction by ZEFSAII (Michael W. Deem and Ramdas Pophale) SiO2 
 PCOD9206842
Probable space group: C 2/M
;
_chemical_formula_sum "Si O2"
_cell_formula_units_Z 56
_cell_length_a 20.370360
_cell_length_b 10.110465
_cell_length_c 29.214602
_cell_angle_alpha 90.000000
_cell_angle_beta 153.812014
_cell_angle_gamma 90.000000
_cell_volume 2655.346232
_symmetry_space_group_name_H-M "C 2/M"
_symmetry_group_IT_number 12
_symmetry_cell_setting 'monoclinic'
loop_
_space_group_symop_operation_xyz
x,y,z
-x,y,-z
-x,-y,-z
x,-y,z
1/2+x,1/2+y,z
1/2-x,1/2+y,-z
1/2-x,1/2-y,-z
1/2+x,1/2-y,z
loop_
_atom_site_type_symbol
_atom_site_label
_atom_site_fract_x
_atom_site_fract_y
_atom_site_fract_z
Si Si1 0.682506 0.348894 0.704747
Si Si2 0.135761 0.649726 0.989861
Si Si3 0.731823 0.657588 0.835769
Si Si4 0.538624 0.722427 0.838390
Si Si5 0.214815 0.649079 0.641967
Si Si6 0.518667 0.852816 0.288239
Si Si7 0.646627 0.349313 0.521050
O O1 0.713679 0.500000 0.708538
O O2 0.769149 0.323541 0.806008
O O3 0.709245 0.239406 0.683500
O O4 0.503957 0.344237 0.602289
O O5 0.080000 0.500000 0.954083
O O6 0.148553 0.695558 0.050438
O O7 0.307925 0.653698 0.080019
O O8 0.051792 0.733805 0.899230
O O9 0.705063 0.500000 0.825063
O O10 0.585049 0.742462 0.754574
O O11 0.389012 0.641570 0.738020
O O12 0.515435 0.841960 0.787735
O O13 0.159329 0.500000 0.613189
O O14 0.138642 0.736214 0.554567
O O15 0.695224 0.831474 0.404933
O O16 0.480749 0.000000 0.280844
O O17 0.652020 0.500000 0.544407
#
# Coordination Sequence:
#
# PCOD9206842 Si02
#       7
#     8   8   8   8   8   8   8
#     4  10  21  37  53  70 101 143 177 206 247 300
#     4   9  16  30  53  77  99 128 167 206 247 301
#     4   9  19  34  51  74 104 137 172 210 251 295
#     4   9  18  31  50  76 106 131 158 204 263 306
#     4  11  22  35  53  78 104 130 167 214 257 298
#     4   9  17  30  50  76 103 131 167 210 255 304
#     4   9  19  35  54  76 102 134 170 208 254 304
#
# _framework density 21.089528000000001
#
# number of rings (size 3 to 8) (size 9 to 14) (size 15 to 20)
#    0.000    2.571    0.000    1.714    0.000    8.571 
#    0.000    1.429    0.000    3.429    0.000    0.000 
#    0.000    0.000    0.000    0.000    0.000    0.000 
#
# Total GULP energy -156148.166769 kJ/mol
# GULP energy per Si atom -5576.720242 kJ/mol
# Density = 2.104153 g / cm^3
# Si number density = 21.089528 Si / 1000 Ang^3
#
#
#
# Elastic Constant Matrix: (Units=GPa)
#
#
# Indices 1 2 3 4 5 6 
#
# 1 36.6937 25.8913 10.6766 -0.0005 -20.5833 0.0000
# 2 25.8913 93.7997 11.1175 -0.0008 -13.4431 0.0002
# 3 10.6766 11.1175 86.8333 0.0015 -1.9042 0.0000
# 4 -0.0005 -0.0008 0.0015 4.9574 0.0000 -1.1283
# 5 -20.5833 -13.4431 -1.9042 0.0000 38.1671 0.0000
# 6 0.0000 0.0002 0.0000 -1.1283 0.0000 18.1141
#
#
#
# Elastic Compliance Matrix: (Units=1/GPa)
#
#
# Indices 1 2 3 4 5 6 
#
# 1 0.047528 -0.009461 -0.004148 0.000005 0.022092 0.000000
# 2 -0.009461 0.013272 -0.000546 0.000001 -0.000455 0.000000
# 3 -0.004148 -0.000546 0.012056 -0.000004 -0.001828 0.000000
# 4 0.000005 0.000001 -0.000004 0.204620 0.000003 0.012745
# 5 0.022092 -0.000455 -0.001828 0.000003 0.037863 0.000000
# 6 0.000000 0.000000 0.000000 0.012745 0.000000 0.055999
#
#
# Mechanical properties :
#
#
# Convention : Reuss Voigt Hill
#
# Bulk Modulus (GPa) = 22.44872 34.74416 28.59644
# Shear Modulus (GPa) = 12.06278 23.55714 17.80996
#
# Velocity S-wave (km/s) = 2.39420 3.34579 2.90917
# Velocity P-wave (km/s) = 4.27908 5.60679 4.98732
#
# Compressibility (1/GPa) = 0.04454598
#
# Stress axis : x y z
#
# Youngs Moduli (GPa) = 21.04018 75.34615 82.94519
#
# Poissons Ratio (x) = 0.71287 0.34406
# Poissons Ratio (y) = 0.19907 0.04528
# Poissons Ratio (z) = 0.08728 0.04113
#
# Static dielectric constant tensor:
#      x y z
#    x 1.791220 0.000000 0.018080 
#    y 0.000000 1.731580 0.000000 
#    z 0.018080 0.000000 1.777180 
# 
# From -- ./inp_files/380797.got.cif
#   From: 2010.05.17/outbox.cif.g08.bks.cpg/sg12_191_cif.got.tgz:380797.got - 2010.06.03 13:09:07.
