data_PCOD9206879
_publ_section_title
;
Structure prediction by ZEFSAII (Michael W. Deem and Ramdas Pophale) SiO2 
 PCOD9206879
Probable space group: C 2/M
;
_chemical_formula_sum "Si O2"
_cell_formula_units_Z 40
_cell_length_a 27.273624
_cell_length_b 8.774492
_cell_length_c 18.997188
_cell_angle_alpha 90.000000
_cell_angle_beta 29.608770
_cell_angle_gamma 90.000000
_cell_volume 2246.192576
_symmetry_space_group_name_H-M "C 2/M"
_symmetry_group_IT_number 12
_symmetry_cell_setting 'monoclinic'
loop_
_space_group_symop_operation_xyz
x,y,z
-x,y,-z
-x,-y,-z
x,-y,z
1/2+x,1/2+y,z
1/2-x,1/2+y,-z
1/2-x,1/2-y,-z
1/2+x,1/2-y,z
loop_
_atom_site_type_symbol
_atom_site_label
_atom_site_fract_x
_atom_site_fract_y
_atom_site_fract_z
Si Si1 0.115698 0.816737 0.465581
Si Si2 0.594443 0.181724 0.247922
Si Si3 0.248333 0.817763 0.165587
Si Si4 0.435036 0.683001 0.870051
Si Si5 0.658343 0.317420 0.572437
O O1 0.192599 0.780962 0.307973
O O2 0.156467 0.775171 0.492026
O O3 0.010606 0.733578 0.587558
O O4 0.097296 0.000000 0.488079
O O5 0.682449 0.247730 0.185245
O O6 0.595068 0.252879 0.169099
O O7 0.600934 0.000000 0.235668
O O8 0.251627 0.000000 0.154035
O O9 0.358064 0.750008 0.021743
O O10 0.429151 0.500000 0.875610
O O11 0.550025 0.727650 0.737460
O O12 0.664245 0.500000 0.568385
O O13 0.750000 0.250000 0.500000
#
# Coordination Sequence:
#
# PCOD9206879 Si02
#       5
#     8   8   8   8   8
#     4   9  20  37  54  76 107 140 175 214 257 307
#     4  11  21  33  52  78 108 143 180 213 251 305
#     4  11  21  34  53  77 108 143 175 212 258 305
#     4  10  21  37  54  76 107 139 175 216 257 306
#     4   9  19  37  59  78  98 130 171 216 263 311
#
# _framework density 17.807912000000002
#
# number of rings (size 3 to 8) (size 9 to 14) (size 15 to 20)
#    0.000    2.000    0.000    5.400    0.000    8.000 
#    0.000    1.000    0.000    6.000    0.000    0.000 
#    0.000    0.000    0.000    0.000    0.000    0.000 
#
# Total GULP energy -111704.810061 kJ/mol
# GULP energy per Si atom -5585.240503 kJ/mol
# Density = 1.776738 g / cm^3
# Si number density = 17.807912 Si / 1000 Ang^3
#
#
#
# Elastic Constant Matrix: (Units=GPa)
#
#
# Indices 1 2 3 4 5 6 
#
# 1 61.6383 18.5233 37.6478 -0.0002 -30.7749 0.0005
# 2 18.5233 56.4368 46.8467 -0.0006 -5.9202 0.0011
# 3 37.6478 46.8467 140.0641 0.0001 -12.7259 0.0011
# 4 -0.0002 -0.0006 0.0001 33.0289 0.0003 -5.4215
# 5 -30.7749 -5.9202 -12.7259 0.0003 20.7498 -0.0004
# 6 0.0005 0.0011 0.0011 -5.4215 -0.0004 27.2463
#
#
#
# Elastic Compliance Matrix: (Units=1/GPa)
#
#
# Indices 1 2 3 4 5 6 
#
# 1 0.076866 -0.006828 -0.008680 0.000000 0.106732 0.000001
# 2 -0.006828 0.025221 -0.007272 0.000000 -0.007390 -0.000001
# 3 -0.008680 -0.007272 0.011169 0.000000 -0.008098 0.000000
# 4 0.000000 0.000000 0.000000 0.031299 -0.000001 0.006228
# 5 0.106732 -0.007390 -0.008098 -0.000001 0.199416 0.000001
# 6 0.000001 -0.000001 0.000000 0.006228 0.000001 0.037941
#
#
# Mechanical properties :
#
#
# Convention : Reuss Voigt Hill
#
# Bulk Modulus (GPa) = 14.77153 51.57499 33.17326
# Shear Modulus (GPa) = 11.11020 26.54643 18.82831
#
# Velocity S-wave (km/s) = 2.50049 3.86516 3.25514
# Velocity P-wave (km/s) = 4.08038 6.99600 5.72685
#
# Compressibility (1/GPa) = 0.06769778
#
# Stress axis : x y z
#
# Youngs Moduli (GPa) = 13.00960 39.64998 89.53330
#
# Poissons Ratio (x) = 0.27071 0.77714
# Poissons Ratio (y) = 0.08882 0.65107
# Poissons Ratio (z) = 0.11292 0.28833
#
# Static dielectric constant tensor:
#      x y z
#    x 1.577440 0.000000 0.007790 
#    y 0.000000 1.596530 0.000000 
#    z 0.007790 0.000000 1.628990 
# 
# From -- ./inp_files/151742.got.cif
#   From: 2010.05.17/outbox.cif.g08.bks.cpg/sg12_76_cif.got.tgz:151742.got - 2010.06.03 13:09:07.
