data_PCOD9206936
_publ_section_title
;
Structure prediction by ZEFSAII (Michael W. Deem and Ramdas Pophale) SiO2 
 PCOD9206936
Probable space group: C 2/M
;
_chemical_formula_sum "Si O2"
_cell_formula_units_Z 40
_cell_length_a 13.101605
_cell_length_b 33.297133
_cell_length_c 8.124656
_cell_angle_alpha 90.000000
_cell_angle_beta 32.101922
_cell_angle_gamma 90.000000
_cell_volume 1883.562073
_symmetry_space_group_name_H-M "C 2/M"
_symmetry_group_IT_number 12
_symmetry_cell_setting 'monoclinic'
loop_
_space_group_symop_operation_xyz
x,y,z
-x,y,-z
-x,-y,-z
x,-y,z
1/2+x,1/2+y,z
1/2-x,1/2+y,-z
1/2-x,1/2-y,-z
1/2+x,1/2-y,z
loop_
_atom_site_type_symbol
_atom_site_label
_atom_site_fract_x
_atom_site_fract_y
_atom_site_fract_z
Si Si1 0.807374 0.843307 0.156360
Si Si2 0.784091 0.436531 0.722684
Si Si3 0.504610 0.277831 0.299237
Si Si4 0.357111 0.500000 0.850171
Si Si5 0.930696 0.500000 0.282764
Si Si6 0.911612 0.697743 0.274972
O O1 0.780208 0.890648 0.179865
O O2 0.630320 0.826836 0.504440
O O3 0.000000 0.837515 0.000000
O O4 0.849932 0.813914 0.945089
O O5 0.812685 0.461081 0.511664
O O6 0.000000 0.437337 0.500000
O O7 0.638126 0.461606 0.036753
O O8 0.500000 0.270861 0.500000
O O9 0.294397 0.289233 0.517266
O O10 0.538062 0.236571 0.152496
O O11 0.500000 0.500000 0.500000
O O12 0.137491 0.500000 0.088520
O O13 0.000000 0.500000 0.000000
O O14 0.000000 0.674414 0.000000
#
# Coordination Sequence:
#
# PCOD9206936 Si02
#       6
#     8   8   8   4   4   8
#     4  10  22  38  55  80 114 146 184 233 277 326
#     4   9  20  38  57  81 113 147 182 222 272 329
#     4  10  21  37  56  78 107 145 187 232 281 330
#     4   9  19  37  60  84 112 145 181 221 268 330
#     4   9  19  37  60  84 112 145 181 221 270 328
#     4  10  21  37  55  78 108 143 187 234 278 329
#
# _framework density 21.236357999999999
#
# number of rings (size 3 to 8) (size 9 to 14) (size 15 to 20)
#    0.000    2.400    0.000    4.200    0.000    8.800 
#    0.000   10.000    0.000    0.000    0.000    0.000 
#    0.000    0.000    0.000    0.000    0.000    0.000 
#
# Total GULP energy -111497.145063 kJ/mol
# GULP energy per Si atom -5574.857253 kJ/mol
# Density = 2.118802 g / cm^3
# Si number density = 21.236358 Si / 1000 Ang^3
#
#
#
# Elastic Constant Matrix: (Units=GPa)
#
#
# Indices 1 2 3 4 5 6 
#
# 1 66.3905 27.9642 26.0298 0.0000 20.6924 0.0000
# 2 27.9642 136.3115 69.7797 0.0000 25.3426 0.0000
# 3 26.0298 69.7797 143.5034 0.0000 37.1460 0.0000
# 4 0.0000 0.0000 0.0000 29.9849 0.0000 -9.3357
# 5 20.6924 25.3426 37.1460 0.0000 43.4543 0.0000
# 6 0.0000 0.0000 0.0000 -9.3357 0.0000 20.9959
#
#
#
# Elastic Compliance Matrix: (Units=1/GPa)
#
#
# Indices 1 2 3 4 5 6 
#
# 1 0.018378 -0.002243 -0.000406 0.000000 -0.007096 0.000000
# 2 -0.002243 0.010193 -0.004221 0.000000 -0.001268 0.000000
# 3 -0.000406 -0.004221 0.010796 0.000000 -0.006574 0.000000
# 4 0.000000 0.000000 0.000000 0.038709 0.000000 0.017212
# 5 -0.007096 -0.001268 -0.006574 0.000000 0.032751 0.000000
# 6 0.000000 0.000000 0.000000 0.017212 0.000000 0.055281
#
#
# Mechanical properties :
#
#
# Convention : Reuss Voigt Hill
#
# Bulk Modulus (GPa) = 39.02197 65.97255 52.49726
# Shear Modulus (GPa) = 26.54044 33.71580 30.12812
#
# Velocity S-wave (km/s) = 3.53904 3.98885 3.77066
# Velocity P-wave (km/s) = 5.92576 7.23518 6.61296
#
# Compressibility (1/GPa) = 0.02562659
#
# Stress axis : x y z
#
# Youngs Moduli (GPa) = 54.41263 98.10651 92.62315
#
# Poissons Ratio (x) = 0.22006 0.03760
# Poissons Ratio (y) = 0.12205 0.39100
# Poissons Ratio (z) = 0.02209 0.41414
#
# Static dielectric constant tensor:
#      x y z
#    x 1.823690 0.000000 -0.004870 
#    y 0.000000 1.780410 0.000000 
#    z -0.004870 0.000000 1.796890 
# 
# From -- ./inp_files/68504.got.cif
#   From: 2010.05.17/outbox.cif.g08.bks.cpg/sg12_35_cif.got.tgz:68504.got - 2010.06.03 13:09:07.
