data_PCOD9206918
_publ_section_title
;
Structure prediction by ZEFSAII (Michael W. Deem and Ramdas Pophale) SiO2 
 PCOD9206918
Probable space group: C 2/M
;
_chemical_formula_sum "Si O2"
_cell_formula_units_Z 64
_cell_length_a 20.530963
_cell_length_b 7.580358
_cell_length_c 25.259702
_cell_angle_alpha 90.000000
_cell_angle_beta 53.258366
_cell_angle_gamma 90.000000
_cell_volume 3150.247782
_symmetry_space_group_name_H-M "C 2/M"
_symmetry_group_IT_number 12
_symmetry_cell_setting 'monoclinic'
loop_
_space_group_symop_operation_xyz
x,y,z
-x,y,-z
-x,-y,-z
x,-y,z
1/2+x,1/2+y,z
1/2-x,1/2+y,-z
1/2-x,1/2-y,-z
1/2+x,1/2-y,z
loop_
_atom_site_type_symbol
_atom_site_label
_atom_site_fract_x
_atom_site_fract_y
_atom_site_fract_z
Si Si1 0.014936 0.788197 0.645039
Si Si2 0.089255 0.295873 0.720628
Si Si3 0.570019 0.206990 0.149756
Si Si4 0.227784 0.283515 0.138749
Si Si5 0.674714 0.208487 0.277213
Si Si6 0.830688 0.790891 0.995191
Si Si7 0.574732 0.715938 0.501237
Si Si8 0.268624 0.296839 0.635313
O O1 0.055665 0.710437 0.677359
O O2 0.057376 0.731041 0.569807
O O3 0.920372 0.737981 0.687863
O O4 0.020228 0.000000 0.645974
O O5 0.099391 0.500000 0.733043
O O6 0.179009 0.214513 0.678075
O O7 0.017030 0.216630 0.791663
O O8 0.645238 0.277158 0.148670
O O9 0.595592 0.221484 0.076059
O O10 0.566525 0.000000 0.164835
O O11 0.226895 0.500000 0.138306
O O12 0.223127 0.228078 0.201764
O O13 0.305016 0.226518 0.065993
O O14 0.699240 0.294979 0.320299
O O15 0.688903 0.000000 0.276197
O O16 0.841059 0.000000 0.992854
O O17 0.750000 0.750000 0.000000
O O18 0.500000 0.771518 0.500000
O O19 0.574997 0.500000 0.499708
O O20 0.659967 0.780035 0.435893
O O21 0.259506 0.500000 0.621757
#
# Coordination Sequence:
#
# PCOD9206918 Si02
#       8
#     8   8   8   8   8   8   8   8
#     4  11  21  34  56  81 105 138 180 220 260 318
#     4  10  21  37  55  76 109 144 176 218 270 320
#     4   9  16  30  48  70 102 138 169 209 263 312
#     4   8  15  28  47  70 101 132 164 209 261 305
#     4  11  20  34  55  79 108 139 174 220 269 312
#     4   9  16  27  44  71 102 134 170 211 257 310
#     4   9  17  33  55  77 106 138 171 219 273 313
#     4  10  21  38  57  77 103 143 183 215 266 326
#
# _framework density 20.315861999999999
#
# number of rings (size 3 to 8) (size 9 to 14) (size 15 to 20)
#    0.000    2.375    2.500    1.875    0.000    1.500 
#    0.000    3.750    0.000    0.750    0.000    5.250 
#    0.000    0.000    0.000    0.000    0.000    0.000 
#
# Total GULP energy -178475.026250 kJ/mol
# GULP energy per Si atom -5577.344570 kJ/mol
# Density = 2.026962 g / cm^3
# Si number density = 20.315862 Si / 1000 Ang^3
#
#
#
# Elastic Constant Matrix: (Units=GPa)
#
#
# Indices 1 2 3 4 5 6 
#
# 1 65.4739 -12.9285 41.0608 -0.0005 -18.5904 -0.0006
# 2 -12.9285 48.5511 -8.5898 -0.0040 -5.2562 -0.0039
# 3 41.0608 -8.5898 195.6189 0.0002 -12.5302 -0.0003
# 4 -0.0005 -0.0040 0.0002 14.8217 -0.0002 7.6375
# 5 -18.5904 -5.2562 -12.5302 -0.0002 27.8566 -0.0001
# 6 -0.0006 -0.0039 -0.0003 7.6375 -0.0001 9.3532
#
#
#
# Elastic Compliance Matrix: (Units=1/GPa)
#
#
# Indices 1 2 3 4 5 6 
#
# 1 0.023295 0.007223 -0.003593 0.000001 0.015293 0.000004
# 2 0.007223 0.023549 0.000115 0.000002 0.009315 0.000008
# 3 -0.003593 0.000115 0.005889 0.000000 0.000273 0.000000
# 4 0.000001 0.000002 0.000000 0.116479 0.000002 -0.095112
# 5 0.015293 0.009315 0.000273 0.000002 0.047984 0.000004
# 6 0.000004 0.000008 0.000000 -0.095112 0.000004 0.184580
#
#
# Mechanical properties :
#
#
# Convention : Reuss Voigt Hill
#
# Bulk Modulus (GPa) = 16.60512 38.74763 27.67638
# Shear Modulus (GPa) = 12.06680 29.74640 20.90660
#
# Velocity S-wave (km/s) = 2.43977 3.83063 3.21140
# Velocity P-wave (km/s) = 4.01595 6.21924 5.23483
#
# Compressibility (1/GPa) = 0.06022240
#
# Stress axis : x y z
#
# Youngs Moduli (GPa) = 42.92759 42.46454 169.81857
#
# Poissons Ratio (x) = -0.30673 0.61014
# Poissons Ratio (y) = -0.31007 -0.01946
# Poissons Ratio (z) = 0.15424 -0.00487
#
# Static dielectric constant tensor:
#      x y z
#    x 1.681000 0.000000 -0.019950 
#    y 0.000000 1.770700 0.000000 
#    z -0.019950 0.000000 1.764200 
# 
# From -- ./inp_files/346003.got.cif
#   From: 2010.05.17/outbox.cif.g08.bks.cpg/sg12_174_cif.got.tgz:346003.got - 2010.06.03 13:09:07.
