data_PCOD9206399
_publ_section_title
;
Structure prediction by ZEFSAII (Michael W. Deem and Ramdas Pophale) SiO2 
 PCOD9206399
Probable space group: C 2/M
;
_chemical_formula_sum "Si O2"
_cell_formula_units_Z 64
_cell_length_a 9.119724
_cell_length_b 16.808602
_cell_length_c 19.657991
_cell_angle_alpha 90.000000
_cell_angle_beta 90.299556
_cell_angle_gamma 90.000000
_cell_volume 3013.328542
_symmetry_space_group_name_H-M "C 2/M"
_symmetry_group_IT_number 12
_symmetry_cell_setting 'monoclinic'
loop_
_space_group_symop_operation_xyz
x,y,z
-x,y,-z
-x,-y,-z
x,-y,z
1/2+x,1/2+y,z
1/2-x,1/2+y,-z
1/2-x,1/2-y,-z
1/2+x,1/2-y,z
loop_
_atom_site_type_symbol
_atom_site_label
_atom_site_fract_x
_atom_site_fract_y
_atom_site_fract_z
Si Si1 0.083343 0.587588 0.141833
Si Si2 0.179373 0.657360 0.925608
Si Si3 0.071832 0.657281 0.282708
Si Si4 0.664388 0.338697 0.932212
Si Si5 0.577109 0.408558 0.157106
Si Si6 0.076906 0.169757 0.715777
Si Si7 0.935150 0.653534 0.566518
Si Si8 0.084392 0.171879 0.565013
O O1 0.149322 0.500000 0.138045
O O2 0.030199 0.604731 0.217862
O O3 0.203665 0.651412 0.120598
O O4 0.952158 0.597807 0.088595
O O5 0.117287 0.746653 0.931440
O O6 0.287355 0.647571 0.861973
O O7 0.269835 0.641352 0.994240
O O8 0.247054 0.671717 0.278439
O O9 0.044501 0.619880 0.357369
O O10 0.988549 0.741459 0.278031
O O11 0.537085 0.394262 0.904579
O O12 0.623547 0.500000 0.159947
O O13 0.496079 0.382322 0.225579
O O14 0.045820 0.138008 0.639294
O O15 0.760549 0.668916 0.556791
O O16 0.000000 0.610625 0.500000
O O17 0.024730 0.737204 0.568802
O O18 0.000000 0.135793 0.500000
#
# Coordination Sequence:
#
# PCOD9206399 Si02
#       8
#     8   8   8   8   8   8   8   8
#     4  12  25  40  60  89 123 157 196 243 296 352
#     4  11  25  43  63  91 118 151 196 247 299 350
#     4  10  21  36  58  85 116 159 203 244 292 351
#     4  11  23  43  69  87 114 155 198 243 293 358
#     4  12  25  40  60  89 123 157 196 243 296 352
#     4  10  21  36  58  85 116 159 203 244 292 351
#     4   9  16  28  48  79 114 147 191 243 291 339
#     4   9  16  28  48  79 114 147 191 243 291 339
#
# _framework density 21.238970999999999
#
# number of rings (size 3 to 8) (size 9 to 14) (size 15 to 20)
#    0.000    1.500    1.250    5.250    1.750    6.000 
#    0.000    0.000    0.000    0.750    0.000    0.000 
#    0.000    0.000    0.000    0.000    0.000    0.000 
#
# Total GULP energy -178684.387716 kJ/mol
# GULP energy per Si atom -5583.887116 kJ/mol
# Density = 2.119063 g / cm^3
# Si number density = 21.238971 Si / 1000 Ang^3
#
#
#
# Elastic Constant Matrix: (Units=GPa)
#
#
# Indices 1 2 3 4 5 6 
#
# 1 49.8034 1.7202 16.2281 0.0000 -7.8590 0.0000
# 2 1.7202 41.3355 28.0341 0.0000 7.8849 0.0000
# 3 16.2281 28.0341 136.9962 0.0000 -8.9887 0.0000
# 4 0.0000 0.0000 0.0000 -4.9521 0.0000 11.1877
# 5 -7.8590 7.8849 -8.9887 0.0000 31.4076 0.0000
# 6 0.0000 0.0000 0.0000 11.1877 0.0000 9.8304
#
#
#
# Elastic Compliance Matrix: (Units=1/GPa)
#
#
# Indices 1 2 3 4 5 6 
#
# 1 0.021564 -0.000360 -0.002161 0.000000 0.004868 0.000000
# 2 -0.000360 0.030747 -0.006891 0.000000 -0.009781 0.000000
# 3 -0.002161 -0.006891 0.009217 0.000000 0.003827 0.000000
# 4 0.000000 0.000000 0.000000 -0.056547 0.000000 0.064354
# 5 0.004868 -0.009781 0.003827 0.000000 0.036608 0.000000
# 6 0.000000 0.000000 0.000000 0.064354 0.000000 0.028486
#
#
# Mechanical properties :
#
#
# Convention : Reuss Voigt Hill
#
# Bulk Modulus (GPa) = 23.41793 35.56667 29.49230
# Shear Modulus (GPa) = 48.48101 19.40069 33.94085
#
# Velocity S-wave (km/s) = 4.78289 3.02561 4.00189
# Velocity P-wave (km/s) = 6.44602 5.38405 5.93882
#
# Compressibility (1/GPa) = 0.04270232
#
# Stress axis : x y z
#
# Youngs Moduli (GPa) = 46.37417 32.52401 108.49874
#
# Poissons Ratio (x) = 0.01171 0.23450
# Poissons Ratio (y) = 0.01670 0.74765
# Poissons Ratio (z) = 0.10023 0.22412
#
# Static dielectric constant tensor:
#      x y z
#    x 1.774510 0.000000 -0.004790 
#    y 0.000000 1.704690 0.000000 
#    z -0.004790 0.000000 1.830660 
# 
# From -- ./inp_files/300779.got.cif
#   From: 2010.05.17/outbox.cif.g08.bks.cpg/sg12_151_cif.got.tgz:300779.got - 2010.06.03 13:09:07.
