data_PCOD9206140
_publ_section_title
;
Structure prediction by ZEFSAII (Michael W. Deem and Ramdas Pophale) SiO2 
 PCOD9206140
Probable space group: C 2/M
;
_chemical_formula_sum "Si O2"
_cell_formula_units_Z 56
_cell_length_a 20.864074
_cell_length_b 7.856439
_cell_length_c 29.697137
_cell_angle_alpha 90.000000
_cell_angle_beta 149.433483
_cell_angle_gamma 90.000000
_cell_volume 2475.501105
_symmetry_space_group_name_H-M "C 2/M"
_symmetry_group_IT_number 12
_symmetry_cell_setting 'monoclinic'
loop_
_space_group_symop_operation_xyz
x,y,z
-x,y,-z
-x,-y,-z
x,-y,z
1/2+x,1/2+y,z
1/2-x,1/2+y,-z
1/2-x,1/2-y,-z
1/2+x,1/2-y,z
loop_
_atom_site_type_symbol
_atom_site_label
_atom_site_fract_x
_atom_site_fract_y
_atom_site_fract_z
Si Si1 0.345734 0.704753 0.791700
Si Si2 0.637403 0.707953 0.096359
Si Si3 0.190204 0.195428 0.536433
Si Si4 0.863723 0.305356 0.403517
Si Si5 0.076962 0.201028 0.381523
Si Si6 0.125923 0.294587 0.812010
Si Si7 0.894756 0.703435 0.100273
O O1 0.334183 0.500000 0.784545
O O2 0.329721 0.765388 0.833318
O O3 0.233079 0.771683 0.691272
O O4 0.487493 0.739808 0.859244
O O5 0.637462 0.500000 0.097598
O O6 0.732929 0.757505 0.114882
O O7 0.500000 0.766941 0.000000
O O8 0.206751 0.302082 0.591165
O O9 0.080487 0.256492 0.435866
O O10 0.313742 0.207031 0.580364
O O11 0.169507 0.000000 0.537111
O O12 0.890153 0.500000 0.405433
O O13 0.000000 0.227709 0.500000
O O14 0.953611 0.233088 0.278524
O O15 0.105138 0.000000 0.399355
O O16 0.117933 0.500000 0.807937
O O17 0.083616 0.232340 0.835324
O O18 0.899286 0.500000 0.103503
O O19 0.750000 0.750000 0.000000
#
# Coordination Sequence:
#
# PCOD9206140 Si02
#       7
#     8   8   8   8   8   8   8
#     4  10  21  38  60  87 120 158 197 243 299 354
#     4   9  18  35  59  85 113 148 192 240 287 343
#     4  10  21  37  56  80 112 152 194 237 287 341
#     4  10  22  37  57  86 118 156 200 243 293 350
#     4  10  21  36  56  83 113 147 187 238 294 345
#     4  10  21  36  60  88 113 147 195 242 288 348
#     4  11  23  39  61  90 119 153 196 244 301 360
#
# _framework density 22.621683000000001
#
# number of rings (size 3 to 8) (size 9 to 14) (size 15 to 20)
#    0.000    2.000    0.000    3.000    2.000    8.286 
#    0.000    0.714    0.000    1.714    0.000    0.000 
#    0.000    0.000    0.000    0.000    0.000    0.000 
#
# Total GULP energy -156296.316654 kJ/mol
# GULP energy per Si atom -5582.011309 kJ/mol
# Density = 2.257019 g / cm^3
# Si number density = 22.621683 Si / 1000 Ang^3
#
#
#
# Elastic Constant Matrix: (Units=GPa)
#
#
# Indices 1 2 3 4 5 6 
#
# 1 63.9880 4.9745 -10.7350 -0.0001 -10.1991 0.0008
# 2 4.9745 38.5105 -1.3769 -0.0004 -1.5705 0.0022
# 3 -10.7350 -1.3769 78.6108 0.0003 -8.9774 -0.0001
# 4 -0.0001 -0.0004 0.0003 19.1978 -0.0001 3.3364
# 5 -10.1991 -1.5705 -8.9774 -0.0001 37.4594 0.0000
# 6 0.0008 0.0022 -0.0001 3.3364 0.0000 18.4273
#
#
#
# Elastic Compliance Matrix: (Units=1/GPa)
#
#
# Indices 1 2 3 4 5 6 
#
# 1 0.017103 -0.001890 0.002905 0.000000 0.005273 0.000000
# 2 -0.001890 0.026248 0.000276 0.000001 0.000652 -0.000003
# 3 0.002905 0.000276 0.013586 0.000000 0.004058 0.000000
# 4 0.000000 0.000001 0.000000 0.053782 0.000000 -0.009738
# 5 0.005273 0.000652 0.004058 0.000000 0.029131 0.000000
# 6 0.000000 -0.000003 0.000000 -0.009738 0.000000 0.056030
#
#
# Mechanical properties :
#
#
# Convention : Reuss Voigt Hill
#
# Bulk Modulus (GPa) = 16.80193 18.53717 17.66955
# Shear Modulus (GPa) = 23.45902 27.56667 25.51284
#
# Velocity S-wave (km/s) = 3.22376 3.49463 3.36192
# Velocity P-wave (km/s) = 4.61523 4.94928 4.78517
#
# Compressibility (1/GPa) = 0.05951696
#
# Stress axis : x y z
#
# Youngs Moduli (GPa) = 58.47027 38.09878 73.60594
#
# Poissons Ratio (x) = 0.07202 -0.21380
# Poissons Ratio (y) = 0.11052 -0.02032
# Poissons Ratio (z) = -0.16984 -0.01052
#
# Static dielectric constant tensor:
#      x y z
#    x 1.845080 0.000000 0.008320 
#    y 0.000000 1.841510 0.000000 
#    z 0.008320 0.000000 1.914560 
# 
# From -- ./inp_files/281622.got.cif
#   From: 2010.05.17/outbox.cif.g08.bks.cpg/sg12_141_cif.got.tgz:281622.got - 2010.06.03 13:09:07.
