data_PCOD9206528
_publ_section_title
;
Structure prediction by ZEFSAII (Michael W. Deem and Ramdas Pophale) SiO2 
 PCOD9206528
Probable space group: C 2/M
;
_chemical_formula_sum "Si O2"
_cell_formula_units_Z 64
_cell_length_a 28.135230
_cell_length_b 7.890138
_cell_length_c 22.602617
_cell_angle_alpha 90.000000
_cell_angle_beta 37.214928
_cell_angle_gamma 90.000000
_cell_volume 3034.662055
_symmetry_space_group_name_H-M "C 2/M"
_symmetry_group_IT_number 12
_symmetry_cell_setting 'monoclinic'
loop_
_space_group_symop_operation_xyz
x,y,z
-x,y,-z
-x,-y,-z
x,-y,z
1/2+x,1/2+y,z
1/2-x,1/2+y,-z
1/2-x,1/2-y,-z
1/2+x,1/2-y,z
loop_
_atom_site_type_symbol
_atom_site_label
_atom_site_fract_x
_atom_site_fract_y
_atom_site_fract_z
Si Si1 0.137508 0.302683 0.509728
Si Si2 0.609138 0.698292 0.666779
Si Si3 0.698232 0.196577 0.693673
Si Si4 0.409424 0.792474 0.091450
Si Si5 0.172770 0.295535 0.947953
Si Si6 0.348901 0.295588 0.796996
Si Si7 0.929940 0.796247 0.836952
Si Si8 0.007182 0.704302 0.425824
O O1 0.122895 0.500000 0.536477
O O2 0.145407 0.215977 0.565628
O O3 0.217654 0.285392 0.393776
O O4 0.063476 0.232784 0.546263
O O5 0.607356 0.500000 0.684489
O O6 0.657030 0.788296 0.670796
O O7 0.519708 0.764965 0.751279
O O8 0.638721 0.262340 0.802841
O O9 0.713822 0.000000 0.691462
O O10 0.364451 0.737001 0.076858
O O11 0.410980 0.000000 0.090720
O O12 0.500000 0.736223 0.000000
O O13 0.175891 0.500000 0.942070
O O14 0.261178 0.232131 0.871453
O O15 0.117567 0.247806 0.057302
O O16 0.344787 0.500000 0.804758
O O17 0.384723 0.231705 0.823589
O O18 0.410124 0.249944 0.685261
O O19 0.934146 0.000000 0.827461
O O20 0.000275 0.500000 0.434327
O O21 0.000000 0.767543 0.500000
#
# Coordination Sequence:
#
# PCOD9206528 Si02
#       8
#     8   8   8   8   8   8   8   8
#     4  11  23  40  61  87 119 154 196 242 291 349
#     4  11  22  39  61  86 119 155 196 244 294 348
#     4  11  23  38  61  89 118 154 196 243 296 348
#     4   9  19  37  58  84 117 151 192 238 282 339
#     4  10  21  36  59  87 115 153 199 242 289 348
#     4  10  21  38  59  87 119 152 195 245 293 347
#     4  10  21  37  57  85 119 153 191 242 296 343
#     4  10  23  41  61  87 120 158 197 239 292 351
#
# _framework density 21.089662000000001
#
# number of rings (size 3 to 8) (size 9 to 14) (size 15 to 20)
#    0.000    1.750    1.250    2.625    1.750    3.750 
#    0.000    1.250    0.000    3.375    0.000    0.000 
#    0.000    0.000    0.000    0.000    0.000    0.000 
#
# Total GULP energy -178899.779142 kJ/mol
# GULP energy per Si atom -5590.618098 kJ/mol
# Density = 2.104166 g / cm^3
# Si number density = 21.089662 Si / 1000 Ang^3
#
#
#
# Elastic Constant Matrix: (Units=GPa)
#
#
# Indices 1 2 3 4 5 6 
#
# 1 56.7567 -1.3241 30.7686 -0.0157 4.2720 0.0159
# 2 -1.3241 19.2011 -8.7595 -0.0167 -3.4494 0.0177
# 3 30.7686 -8.7595 143.4961 -0.0059 0.9699 0.0073
# 4 -0.0157 -0.0167 -0.0059 27.5979 0.0057 10.0997
# 5 4.2720 -3.4494 0.9699 0.0057 42.0652 -0.0012
# 6 0.0159 0.0177 0.0073 10.0997 -0.0012 -16.1855
#
#
#
# Elastic Compliance Matrix: (Units=1/GPa)
#
#
# Indices 1 2 3 4 5 6 
#
# 1 0.020111 -0.000964 -0.004357 0.000003 -0.002021 0.000019
# 2 -0.000964 0.054414 0.003498 0.000008 0.004479 0.000065
# 3 -0.004357 0.003498 0.008113 0.000000 0.000542 0.000003
# 4 0.000003 0.000008 0.000000 0.029498 -0.000003 0.018407
# 5 -0.002021 0.004479 0.000542 -0.000003 0.024333 -0.000001
# 6 0.000019 0.000065 0.000003 0.018407 -0.000001 -0.050298
#
#
# Mechanical properties :
#
#
# Convention : Reuss Voigt Hill
#
# Bulk Modulus (GPa) = 12.65959 28.98044 20.82001
# Shear Modulus (GPa) = 43.04821 23.94678 33.49750
#
# Velocity S-wave (km/s) = 4.52287 3.37334 3.98972
# Velocity P-wave (km/s) = 5.76982 5.37995 5.57830
#
# Compressibility (1/GPa) = 0.07899150
#
# Stress axis : x y z
#
# Youngs Moduli (GPa) = 49.72434 18.37751 123.25870
#
# Poissons Ratio (x) = 0.01772 0.53709
# Poissons Ratio (y) = 0.04794 -0.43117
# Poissons Ratio (z) = 0.21667 -0.06429
#
# Static dielectric constant tensor:
#      x y z
#    x 1.738710 -0.000010 -0.012220 
#    y -0.000010 1.754690 0.000010 
#    z -0.012220 0.000010 1.718120 
# 
# From -- ./inp_files/353270.got.cif
#   From: 2010.05.17/outbox.cif.g08.bks.cpg/sg12_177_cif.got.tgz:353270.got - 2010.06.03 13:09:07.
