data_PCOD9206148
_publ_section_title
;
Structure prediction by ZEFSAII (Michael W. Deem and Ramdas Pophale) SiO2 
 PCOD9206148
Probable space group: C 2/M
;
_chemical_formula_sum "Si O2"
_cell_formula_units_Z 56
_cell_length_a 9.309277
_cell_length_b 17.806050
_cell_length_c 15.310241
_cell_angle_alpha 90.000000
_cell_angle_beta 85.859109
_cell_angle_gamma 90.000000
_cell_volume 2531.222729
_symmetry_space_group_name_H-M "C 2/M"
_symmetry_group_IT_number 12
_symmetry_cell_setting 'monoclinic'
loop_
_space_group_symop_operation_xyz
x,y,z
-x,y,-z
-x,-y,-z
x,-y,z
1/2+x,1/2+y,z
1/2-x,1/2+y,-z
1/2-x,1/2-y,-z
1/2+x,1/2-y,z
loop_
_atom_site_type_symbol
_atom_site_label
_atom_site_fract_x
_atom_site_fract_y
_atom_site_fract_z
Si Si1 0.658402 0.089708 0.557875
Si Si2 0.128997 0.410168 0.749177
Si Si3 0.423910 0.090299 0.914965
Si Si4 0.238753 0.410871 0.366594
Si Si5 0.962783 0.840526 0.591133
Si Si6 0.388659 0.689750 0.777958
Si Si7 0.791025 0.832987 0.179495
O O1 0.589101 0.116748 0.652896
O O2 0.645251 0.114262 0.456537
O O3 0.824427 0.109709 0.573988
O O4 0.638036 0.000000 0.555708
O O5 0.125226 0.500000 0.747444
O O6 0.287510 0.382738 0.769474
O O7 0.020860 0.384059 0.828735
O O8 0.265780 0.120119 0.900245
O O9 0.421568 0.000000 0.916531
O O10 0.500000 0.116614 0.000000
O O11 0.215062 0.500000 0.356562
O O12 0.403212 0.392843 0.388772
O O13 0.235778 0.372207 0.272107
O O14 0.930388 0.789660 0.675909
O O15 0.000000 0.797684 0.500000
O O16 0.286969 0.752952 0.821475
O O17 0.537463 0.675439 0.820600
#
# Coordination Sequence:
#
# PCOD9206148 Si02
#       7
#     8   8   8   8   8   8   8
#     4   8  13  24  46  77 110 144 183 227 275 327
#     4   9  18  36  61  86 115 149 186 232 283 335
#     4  10  22  42  66  89 113 142 178 225 285 346
#     4   9  16  27  48  79 110 144 188 233 277 327
#     4   8  14  26  45  73 109 150 190 230 275 321
#     4  10  21  36  56  83 117 153 193 234 276 330
#     4  11  22  38  57  81 116 153 190 233 278 329
#
# _framework density 22.123695000000001
#
# number of rings (size 3 to 8) (size 9 to 14) (size 15 to 20)
#    0.000    2.714    0.000    1.714    0.000    5.714 
#    0.000   17.143    0.000    6.000    0.000    0.000 
#    0.000    0.000    0.000    0.000    0.000    0.000 
#
# Total GULP energy -156189.356648 kJ/mol
# GULP energy per Si atom -5578.191309 kJ/mol
# Density = 2.207334 g / cm^3
# Si number density = 22.123695 Si / 1000 Ang^3
#
#
#
# Elastic Constant Matrix: (Units=GPa)
#
#
# Indices 1 2 3 4 5 6 
#
# 1 111.3031 18.6841 55.5490 0.0000 35.5055 0.0000
# 2 18.6841 26.4515 10.0167 0.0000 8.9633 0.0000
# 3 55.5490 10.0167 87.8965 0.0000 41.4881 0.0000
# 4 0.0000 0.0000 0.0000 -8.9986 0.0000 6.4087
# 5 35.5055 8.9633 41.4881 0.0000 39.2590 0.0000
# 6 0.0000 0.0000 0.0000 6.4087 0.0000 13.2820
#
#
#
# Elastic Compliance Matrix: (Units=1/GPa)
#
#
# Indices 1 2 3 4 5 6 
#
# 1 0.014832 -0.006295 -0.005992 0.000000 -0.005645 0.000000
# 2 -0.006295 0.043658 0.002037 0.000000 -0.006427 0.000000
# 3 -0.005992 0.002037 0.025127 0.000000 -0.021600 0.000000
# 4 0.000000 0.000000 0.000000 -0.082707 0.000000 0.039907
# 5 -0.005645 -0.006427 -0.021600 0.000000 0.054870 0.000000
# 6 0.000000 0.000000 0.000000 0.039907 0.000000 0.056034
#
#
# Mechanical properties :
#
#
# Convention : Reuss Voigt Hill
#
# Bulk Modulus (GPa) = 15.84373 43.79452 29.81913
# Shear Modulus (GPa) = 32.60414 18.13524 25.36969
#
# Velocity S-wave (km/s) = 3.84307 2.86618 3.39000
# Velocity P-wave (km/s) = 5.18356 5.54902 5.36940
#
# Compressibility (1/GPa) = 0.06311643
#
# Stress axis : x y z
#
# Youngs Moduli (GPa) = 67.42011 22.90524 39.79784
#
# Poissons Ratio (x) = 0.14419 0.23847
# Poissons Ratio (y) = 0.42442 -0.08105
# Poissons Ratio (z) = 0.40398 -0.04665
#
# Static dielectric constant tensor:
#      x y z
#    x 1.872700 0.000000 -0.021380 
#    y 0.000000 1.769360 0.000000 
#    z -0.021380 0.000000 1.852650 
# 
# From -- ./inp_files/197544.got.cif
#   From: 2010.05.17/outbox.cif.g08.bks.cpg/sg12_99_cif.got.tgz:197544.got - 2010.06.03 13:09:07.
