data_PCOD9206885
_publ_section_title
;
Structure prediction by ZEFSAII (Michael W. Deem and Ramdas Pophale) SiO2 
 PCOD9206885
Probable space group: C 2/M
;
_chemical_formula_sum "Si O2"
_cell_formula_units_Z 48
_cell_length_a 19.677455
_cell_length_b 9.082620
_cell_length_c 15.849095
_cell_angle_alpha 90.000000
_cell_angle_beta 102.349746
_cell_angle_gamma 90.000000
_cell_volume 2767.049812
_symmetry_space_group_name_H-M "C 2/M"
_symmetry_group_IT_number 12
_symmetry_cell_setting 'monoclinic'
loop_
_space_group_symop_operation_xyz
x,y,z
-x,y,-z
-x,-y,-z
x,-y,z
1/2+x,1/2+y,z
1/2-x,1/2+y,-z
1/2-x,1/2-y,-z
1/2+x,1/2-y,z
loop_
_atom_site_type_symbol
_atom_site_label
_atom_site_fract_x
_atom_site_fract_y
_atom_site_fract_z
Si Si1 0.974674 0.175627 0.399067
Si Si2 0.552186 0.176256 0.264259
Si Si3 0.655173 0.174966 0.711994
Si Si4 0.583272 0.174031 0.873503
Si Si5 0.686058 0.676629 0.224133
Si Si6 0.317126 0.324389 0.975082
O O1 0.897297 0.235638 0.360502
O O2 0.000000 0.209741 0.500000
O O3 0.023268 0.252832 0.342362
O O4 0.976592 0.000000 0.387609
O O5 0.494726 0.211678 0.176633
O O6 0.626246 0.240213 0.258370
O O7 0.553384 0.000000 0.273010
O O8 0.630467 0.198568 0.802319
O O9 0.735892 0.214328 0.725709
O O10 0.646911 0.000000 0.694031
O O11 0.615356 0.266136 0.957777
O O12 0.586563 0.000000 0.894276
O O13 0.677526 0.500000 0.230734
O O14 0.680529 0.712127 0.123250
O O15 0.310935 0.500000 0.981377
O O16 0.250000 0.250000 0.000000
#
# Coordination Sequence:
#
# PCOD9206885 Si02
#       6
#     8   8   8   8   8   8
#     4  10  21  38  61  87 111 137 175 222 270 329
#     4  10  22  38  57  81 111 145 182 225 274 326
#     4   9  18  35  57  80 110 146 182 223 271 322
#     4   9  18  35  53  75 108 144 187 230 269 315
#     4  10  21  37  54  78 114 148 182 228 275 316
#     4  11  21  33  52  78 109 146 189 231 269 315
#
# _framework density 17.346995
#
# number of rings (size 3 to 8) (size 9 to 14) (size 15 to 20)
#    0.000    2.167    1.667    2.500    0.000    7.333 
#    0.000    4.167    0.000    0.000    0.000    0.000 
#    0.000    0.000    0.000    0.000    0.000    0.000 
#
# Total GULP energy -133981.368223 kJ/mol
# GULP energy per Si atom -5582.557009 kJ/mol
# Density = 1.730751 g / cm^3
# Si number density = 17.346995 Si / 1000 Ang^3
#
#
#
# Elastic Constant Matrix: (Units=GPa)
#
#
# Indices 1 2 3 4 5 6 
#
# 1 154.1109 63.4094 71.0103 0.0000 6.4518 0.0000
# 2 63.4094 58.1127 65.5736 0.0000 9.1219 0.0000
# 3 71.0103 65.5736 112.0664 0.0000 19.9905 0.0000
# 4 0.0000 0.0000 0.0000 27.6414 0.0000 4.1284
# 5 6.4518 9.1219 19.9905 0.0000 18.3141 0.0000
# 6 0.0000 0.0000 0.0000 4.1284 0.0000 34.1012
#
#
#
# Elastic Compliance Matrix: (Units=1/GPa)
#
#
# Indices 1 2 3 4 5 6 
#
# 1 0.011886 -0.012798 -0.000538 0.000000 0.002774 0.000000
# 2 -0.012798 0.065610 -0.031362 0.000000 0.006063 0.000000
# 3 -0.000538 -0.031362 0.030790 0.000000 -0.017798 0.000000
# 4 0.000000 0.000000 0.000000 0.036844 0.000000 -0.004460
# 5 0.002774 0.006063 -0.017798 0.000000 0.070033 0.000000
# 6 0.000000 0.000000 0.000000 -0.004460 0.000000 0.029865
#
#
# Mechanical properties :
#
#
# Convention : Reuss Voigt Hill
#
# Bulk Modulus (GPa) = 52.94033 80.47519 66.70776
# Shear Modulus (GPa) = 14.67473 24.29778 19.48625
#
# Velocity S-wave (km/s) = 2.91168 3.74664 3.35524
# Velocity P-wave (km/s) = 6.47214 8.07518 7.31769
#
# Compressibility (1/GPa) = 0.01888919
#
# Stress axis : x y z
#
# Youngs Moduli (GPa) = 84.12918 15.24157 32.47783
#
# Poissons Ratio (x) = 0.19507 0.01747
# Poissons Ratio (y) = 1.07671 1.01859
# Poissons Ratio (z) = 0.04526 0.47801
#
# Static dielectric constant tensor:
#      x y z
#    x 1.586010 0.000000 0.011290 
#    y 0.000000 1.573670 0.000000 
#    z 0.011290 0.000000 1.564700 
# 
# From -- ./inp_files/221698.got.cif
#   From: 2010.05.17/outbox.cif.g08.bks.cpg/sg12_111_cif.got.tgz:221698.got - 2010.06.03 13:09:07.
