data_PCOD9206841
_publ_section_title
;
Structure prediction by ZEFSAII (Michael W. Deem and Ramdas Pophale) SiO2 
 PCOD9206841
Probable space group: C 2/M
;
_chemical_formula_sum "Si O2"
_cell_formula_units_Z 48
_cell_length_a 20.246617
_cell_length_b 7.513904
_cell_length_c 27.354456
_cell_angle_alpha 90.000000
_cell_angle_beta 35.299095
_cell_angle_gamma 90.000000
_cell_volume 2404.680331
_symmetry_space_group_name_H-M "C 2/M"
_symmetry_group_IT_number 12
_symmetry_cell_setting 'monoclinic'
loop_
_space_group_symop_operation_xyz
x,y,z
-x,y,-z
-x,-y,-z
x,-y,z
1/2+x,1/2+y,z
1/2-x,1/2+y,-z
1/2-x,1/2-y,-z
1/2+x,1/2-y,z
loop_
_atom_site_type_symbol
_atom_site_label
_atom_site_fract_x
_atom_site_fract_y
_atom_site_fract_z
Si Si1 0.630846 0.711853 0.045167
Si Si2 0.414015 0.787370 0.412721
Si Si3 0.621694 0.796489 0.939257
Si Si4 0.265719 0.297307 0.407821
Si Si5 0.978865 0.218348 0.225396
Si Si6 0.869681 0.786491 0.773236
O O1 0.620284 0.500000 0.044726
O O2 0.530682 0.771970 0.142339
O O3 0.750000 0.750000 0.000000
O O4 0.630818 0.798048 0.992267
O O5 0.346687 0.703386 0.407415
O O6 0.352570 0.721285 0.499347
O O7 0.546643 0.753400 0.322444
O O8 0.395241 0.000000 0.421515
O O9 0.740831 0.716201 0.848255
O O10 0.617564 0.000000 0.922780
O O11 0.500000 0.711466 0.000000
O O12 0.241938 0.500000 0.407045
O O13 0.351128 0.218174 0.315949
O O14 0.064992 0.276402 0.216926
O O15 0.977265 0.000000 0.227689
O O16 0.861892 0.000000 0.782714
#
# Coordination Sequence:
#
# PCOD9206841 Si02
#       6
#     8   8   8   8   8   8
#     4  11  20  32  51  74 100 128 163 201 242 291
#     4   9  15  22  37  62  88 116 151 190 229 274
#     4  10  21  37  53  69  94 130 169 205 246 295
#     4   8  14  25  38  56  88 123 151 182 227 281
#     4   8  14  26  44  64  89 123 154 184 231 284
#     4   9  16  29  45  62  89 124 156 189 238 292
#
# _framework density 19.961074
#
# number of rings (size 3 to 8) (size 9 to 14) (size 15 to 20)
#    0.000    2.833    1.667    2.000    0.000    1.667 
#    0.000    0.833    0.000    0.000    0.000    1.167 
#    0.000    9.333    0.000    0.000    0.000    0.000 
#
# Total GULP energy -133671.308721 kJ/mol
# GULP energy per Si atom -5569.637863 kJ/mol
# Density = 1.991564 g / cm^3
# Si number density = 19.961074 Si / 1000 Ang^3
#
#
#
# Elastic Constant Matrix: (Units=GPa)
#
#
# Indices 1 2 3 4 5 6 
#
# 1 33.4310 -6.9545 30.8303 0.0032 -13.9834 -0.0080
# 2 -6.9545 62.9857 -2.9066 0.0141 -3.0430 0.0027
# 3 30.8303 -2.9066 227.7309 0.0007 -7.3147 0.0004
# 4 0.0032 0.0141 0.0007 16.2314 -0.0003 3.0497
# 5 -13.9834 -3.0430 -7.3147 -0.0003 21.1303 0.0029
# 6 -0.0080 0.0027 0.0004 3.0497 0.0029 5.9475
#
#
#
# Elastic Compliance Matrix: (Units=1/GPa)
#
#
# Indices 1 2 3 4 5 6 
#
# 1 0.049954 0.006805 -0.005645 -0.000027 0.032084 0.000062
# 2 0.006805 0.016933 -0.000488 -0.000017 0.006773 0.000007
# 3 -0.005645 -0.000488 0.005083 0.000003 -0.002046 -0.000008
# 4 -0.000027 -0.000017 0.000003 0.068178 -0.000013 -0.034960
# 5 0.032084 0.006773 -0.002046 -0.000013 0.068825 0.000014
# 6 0.000062 0.000007 -0.000008 -0.034960 0.000014 0.186065
#
#
# Mechanical properties :
#
#
# Convention : Reuss Voigt Hill
#
# Bulk Modulus (GPa) = 13.63981 40.67622 27.15801
# Shear Modulus (GPa) = 11.95794 28.87372 20.41583
#
# Velocity S-wave (km/s) = 2.45023 3.80742 3.20157
# Velocity P-wave (km/s) = 3.85394 6.30480 5.22511
#
# Compressibility (1/GPa) = 0.07331483
#
# Stress axis : x y z
#
# Youngs Moduli (GPa) = 20.01828 59.05718 196.71584
#
# Poissons Ratio (x) = -0.40190 1.11055
# Poissons Ratio (y) = -0.13623 0.09592
# Poissons Ratio (z) = 0.11301 0.02880
#
# Static dielectric constant tensor:
#      x y z
#    x 1.645680 0.000000 -0.005330 
#    y 0.000000 1.775890 0.000000 
#    z -0.005330 0.000000 1.802620 
# 
# From -- ./inp_files/345409.got.cif
#   From: 2010.05.17/outbox.cif.g08.bks.cpg/sg12_173_cif.got.tgz:345409.got - 2010.06.03 13:09:07.
