data_PCOD9206186
_publ_section_title
;
Structure prediction by ZEFSAII (Michael W. Deem and Ramdas Pophale) SiO2 
 PCOD9206186
Probable space group: C 2/M
;
_chemical_formula_sum "Si O2"
_cell_formula_units_Z 42
_cell_length_a 9.839908
_cell_length_b 7.365045
_cell_length_c 22.441293
_cell_angle_alpha 90.000000
_cell_angle_beta 80.157801
_cell_angle_gamma 90.000000
_cell_volume 1602.414944
_symmetry_space_group_name_H-M "C 2/M"
_symmetry_group_IT_number 12
_symmetry_cell_setting 'monoclinic'
loop_
_space_group_symop_operation_xyz
x,y,z
-x,y,-z
-x,-y,-z
x,-y,z
1/2+x,1/2+y,z
1/2-x,1/2+y,-z
1/2-x,1/2-y,-z
1/2+x,1/2-y,z
loop_
_atom_site_type_symbol
_atom_site_label
_atom_site_fract_x
_atom_site_fract_y
_atom_site_fract_z
Si Si1 0.688375 0.784173 0.938565
Si Si2 0.587536 0.710626 0.172065
Si Si3 0.108460 0.709715 0.445514
Si Si4 0.114563 0.779921 0.627722
Si Si5 0.311898 0.280436 0.244790
Si Si6 0.000000 0.000000 0.000000
O O1 0.802825 0.715639 0.883398
O O2 0.664074 0.000000 0.933523
O O3 0.750000 0.750000 0.000000
O O4 0.554558 0.659334 0.949651
O O5 0.573808 0.500000 0.158195
O O6 0.434873 0.786857 0.192051
O O7 0.665848 0.722165 0.229714
O O8 0.126571 0.500000 0.461301
O O9 0.260978 0.784812 0.424634
O O10 0.000000 0.794322 0.500000
O O11 0.029748 0.716566 0.388089
O O12 0.151432 0.720385 0.691494
O O13 0.113676 0.000000 0.627616
O O14 0.314234 0.500000 0.244363
#
# Coordination Sequence:
#
# PCOD9206186 Si02
#       6
#     8   8   8   8   8   2
#     4  11  25  44  68  99 130 172 219 270 331 399
#     4  10  24  41  62  92 122 157 207 258 308 382
#     4  10  21  36  56  85 120 158 203 251 303 365
#     4  10  21  37  58  86 119 157 202 252 305 368
#     4  10  22  40  62  88 121 158 203 253 310 371
#     4  12  26  44  72  92 136 176 210 272 336 386
#
# _framework density 26.210442
#
# number of rings (size 3 to 8) (size 9 to 14) (size 15 to 20)
#    0.000    1.714    0.952    2.000    4.000    2.667 
#    0.000    0.000    0.000    0.000    0.000    0.000 
#    0.000    0.000    0.000    0.000    0.000    0.000 
#
# Total GULP energy -117365.559350 kJ/mol
# GULP energy per Si atom -5588.836160 kJ/mol
# Density = 2.615079 g / cm^3
# Si number density = 26.210442 Si / 1000 Ang^3
#
#
#
# Elastic Constant Matrix: (Units=GPa)
#
#
# Indices 1 2 3 4 5 6 
#
# 1 111.5566 3.9388 -0.4945 0.0000 1.0757 0.0000
# 2 3.9388 148.7228 11.3848 0.0000 -14.0260 0.0000
# 3 -0.4945 11.3848 86.5543 0.0000 -1.2233 0.0000
# 4 0.0000 0.0000 0.0000 14.5966 0.0000 12.5828
# 5 1.0757 -14.0260 -1.2233 0.0000 57.6796 0.0000
# 6 0.0000 0.0000 0.0000 12.5828 0.0000 14.6146
#
#
#
# Elastic Compliance Matrix: (Units=1/GPa)
#
#
# Indices 1 2 3 4 5 6 
#
# 1 0.008976 -0.000266 0.000083 0.000000 -0.000230 0.000000
# 2 -0.000266 0.006958 -0.000893 0.000000 0.001678 0.000000
# 3 0.000083 -0.000893 0.011672 0.000000 0.000029 0.000000
# 4 0.000000 0.000000 0.000000 0.265739 0.000000 -0.228795
# 5 -0.000230 0.001678 0.000029 0.000000 0.017750 0.000000
# 6 0.000000 0.000000 0.000000 -0.228795 0.000000 0.265412
#
#
# Mechanical properties :
#
#
# Convention : Reuss Voigt Hill
#
# Bulk Modulus (GPa) = 39.28681 41.83243 40.55962
# Shear Modulus (GPa) = 8.51582 39.51180 24.01381
#
# Velocity S-wave (km/s) = 1.80446 3.88684 3.03015
# Velocity P-wave (km/s) = 4.40034 6.01151 5.26789
#
# Compressibility (1/GPa) = 0.02545384
#
# Stress axis : x y z
#
# Youngs Moduli (GPa) = 111.40777 143.72863 85.67681
#
# Poissons Ratio (x) = 0.03820 -0.00711
# Poissons Ratio (y) = 0.02961 0.07651
# Poissons Ratio (z) = -0.00924 0.12834
#
# Static dielectric constant tensor:
#      x y z
#    x 2.230490 0.000000 0.068310 
#    y 0.000000 1.965650 0.000000 
#    z 0.068310 0.000000 2.121240 
# 
# From -- ./inp_files/303582.got.cif
#   From: 2010.05.17/outbox.cif.g08.bks.cpg/sg12_152_cif.got.tgz:303582.got - 2010.06.03 13:09:07.
