data_PCOD9206503
_publ_section_title
;
Structure prediction by ZEFSAII (Michael W. Deem and Ramdas Pophale) SiO2 
 PCOD9206503
Probable space group: C 2/M
;
_chemical_formula_sum "Si O2"
_cell_formula_units_Z 64
_cell_length_a 17.698032
_cell_length_b 20.125890
_cell_length_c 20.268203
_cell_angle_alpha 90.000000
_cell_angle_beta 150.205746
_cell_angle_gamma 90.000000
_cell_volume 3587.177710
_symmetry_space_group_name_H-M "C 2/M"
_symmetry_group_IT_number 12
_symmetry_cell_setting 'monoclinic'
loop_
_space_group_symop_operation_xyz
x,y,z
-x,y,-z
-x,-y,-z
x,-y,z
1/2+x,1/2+y,z
1/2-x,1/2+y,-z
1/2-x,1/2-y,-z
1/2+x,1/2-y,z
loop_
_atom_site_type_symbol
_atom_site_label
_atom_site_fract_x
_atom_site_fract_y
_atom_site_fract_z
Si Si1 0.363404 0.730158 0.525607
Si Si2 0.904946 0.189385 0.202725
Si Si3 0.063542 0.292682 0.978315
Si Si4 0.936351 0.352184 0.379807
Si Si5 0.580056 0.352115 0.126940
Si Si6 0.426330 0.076929 0.236409
Si Si7 0.387587 0.422322 0.080154
Si Si8 0.065317 0.314692 0.252253
O O1 0.250000 0.750000 0.500000
O O2 0.478426 0.680002 0.648560
O O3 0.463361 0.790182 0.571604
O O4 0.242907 0.703195 0.381777
O O5 0.882909 0.126290 0.139133
O O6 0.971322 0.250995 0.209642
O O7 0.744110 0.209556 0.111195
O O8 0.001081 0.218088 0.921295
O O9 0.002712 0.332984 0.869827
O O10 0.000000 0.316505 0.000000
O O11 0.757320 0.337587 0.252712
O O12 0.938347 0.406162 0.322768
O O13 0.000000 0.371554 0.500000
O O14 0.538018 0.401834 0.153576
O O15 0.500000 0.378869 0.000000
O O16 0.538247 0.126183 0.282829
O O17 0.459527 0.000000 0.249907
O O18 0.257984 0.090668 0.078134
O O19 0.386843 0.500000 0.096537
#
# Coordination Sequence:
#
# PCOD9206503 Si02
#       8
#     8   8   8   8   8   8   8   8
#     4  10  21  36  59  83 118 157 202 250 304 347
#     4  11  20  37  61  85 113 157 204 261 302 355
#     4  11  21  32  59  93 115 144 204 259 312 357
#     4  12  24  38  58  91 130 163 199 252 303 363
#     4  11  21  34  56  84 120 159 200 245 298 368
#     4  11  23  40  61  89 124 168 208 248 304 368
#     4  11  23  38  60  89 120 165 211 253 302 362
#     4  11  20  38  63  84 118 164 202 254 307 358
#
# _framework density 17.841324
#
# number of rings (size 3 to 8) (size 9 to 14) (size 15 to 20)
#    0.000    1.000    6.250    3.375    1.750    1.000 
#    0.000    1.875    0.000    1.500    0.000    0.000 
#    0.000    4.000    0.000    0.000    0.000    0.000 
#
# Total GULP energy -178565.522330 kJ/mol
# GULP energy per Si atom -5580.172573 kJ/mol
# Density = 1.780072 g / cm^3
# Si number density = 17.841324 Si / 1000 Ang^3
#
#
#
# Elastic Constant Matrix: (Units=GPa)
#
#
# Indices 1 2 3 4 5 6 
#
# 1 78.3429 29.7190 47.0601 0.0010 3.1824 0.0007
# 2 29.7190 77.2331 23.3272 0.0008 7.1928 0.0006
# 3 47.0601 23.3272 125.1198 0.0057 12.9788 0.0037
# 4 0.0010 0.0008 0.0057 19.9561 0.0025 -2.6464
# 5 3.1824 7.1928 12.9788 0.0025 37.2461 0.0012
# 6 0.0007 0.0006 0.0037 -2.6464 0.0012 14.6935
#
#
#
# Elastic Compliance Matrix: (Units=1/GPa)
#
#
# Indices 1 2 3 4 5 6 
#
# 1 0.018396 -0.005391 -0.006079 0.000001 0.001587 0.000001
# 2 -0.005391 0.015421 -0.000608 0.000000 -0.002305 0.000000
# 3 -0.006079 -0.000608 0.010713 -0.000003 -0.003096 -0.000003
# 4 0.000001 0.000000 -0.000003 0.051336 -0.000003 0.009246
# 5 0.001587 -0.002305 -0.003096 -0.000003 0.028237 -0.000002
# 6 0.000001 0.000000 -0.000003 0.009246 -0.000002 0.069723
#
#
# Mechanical properties :
#
#
# Convention : Reuss Voigt Hill
#
# Bulk Modulus (GPa) = 49.08086 53.43427 51.25756
# Shear Modulus (GPa) = 22.24464 26.41844 24.33154
#
# Velocity S-wave (km/s) = 3.53484 3.85222 3.69694
# Velocity P-wave (km/s) = 6.65053 7.05697 6.85676
#
# Compressibility (1/GPa) = 0.02037454
#
# Stress axis : x y z
#
# Youngs Moduli (GPa) = 54.35846 64.84853 93.34157
#
# Poissons Ratio (x) = 0.34958 0.56741
# Poissons Ratio (y) = 0.29303 0.05678
# Poissons Ratio (z) = 0.33044 0.03945
#
# Static dielectric constant tensor:
#      x y z
#    x 1.647680 0.000000 -0.031810 
#    y 0.000000 1.588340 0.000000 
#    z -0.031810 0.000000 1.664520 
# 
# From -- ./inp_files/317816.got.cif
#   From: 2010.05.17/outbox.cif.g08.bks.cpg/sg12_159_cif.got.tgz:317816.got - 2010.06.03 13:09:07.
