data_PCOD9206107
_publ_section_title
;
Structure prediction by ZEFSAII (Michael W. Deem and Ramdas Pophale) SiO2 
 PCOD9206107
Probable space group: C 2/M
;
_chemical_formula_sum "Si O2"
_cell_formula_units_Z 64
_cell_length_a 32.147500
_cell_length_b 8.858489
_cell_length_c 16.091409
_cell_angle_alpha 90.000000
_cell_angle_beta 126.908500
_cell_angle_gamma 90.000000
_cell_volume 3664.133691
_symmetry_space_group_name_H-M "C 2/M"
_symmetry_group_IT_number 12
_symmetry_cell_setting 'monoclinic'
loop_
_space_group_symop_operation_xyz
x,y,z
-x,y,-z
-x,-y,-z
x,-y,z
1/2+x,1/2+y,z
1/2-x,1/2+y,-z
1/2-x,1/2-y,-z
1/2+x,1/2-y,z
loop_
_atom_site_type_symbol
_atom_site_label
_atom_site_fract_x
_atom_site_fract_y
_atom_site_fract_z
Si Si1 0.845274 0.179921 0.795722
Si Si2 0.100838 0.320118 0.298319
Si Si3 0.272643 0.319263 0.943308
Si Si4 0.528231 0.680605 0.447617
Si Si5 0.110888 0.179637 0.972376
Si Si6 0.363214 0.180420 0.472926
Si Si7 0.988441 0.679937 0.232726
Si Si8 0.739474 0.680242 0.730020
O O1 0.874323 0.231782 0.747993
O O2 0.790092 0.262148 0.740761
O O3 0.836430 0.000000 0.785577
O O4 0.878960 0.216234 0.918598
O O5 0.104553 0.500000 0.287274
O O6 0.129677 0.287945 0.420191
O O7 0.040276 0.282376 0.241826
O O8 0.265938 0.500000 0.933696
O O9 0.245553 0.247920 0.829872
O O10 0.250000 0.250000 0.000000
O O11 0.334349 0.287990 0.007583
O O12 0.500000 0.718077 0.500000
O O13 0.534087 0.500000 0.449490
O O14 0.584624 0.757480 0.507757
O O15 0.495241 0.739053 0.329458
O O16 0.063227 0.268127 0.875737
O O17 0.101089 0.000000 0.954075
O O18 0.312477 0.257887 0.374884
O O19 0.360367 0.000000 0.459266
O O20 0.988890 0.500000 0.246300
O O21 0.739003 0.500000 0.732945
#
# Coordination Sequence:
#
# PCOD9206107 Si02
#       8
#     8   8   8   8   8   8   8   8
#     4  10  21  37  57  81 109 143 182 225 273 324
#     4   9  20  37  55  79 109 141 179 223 270 323
#     4  10  21  38  58  82 112 145 183 227 274 325
#     4  10  21  37  57  81 110 143 180 223 271 323
#     4   9  20  37  55  78 109 142 179 223 269 320
#     4  10  21  38  58  81 111 144 182 226 270 323
#     4  10  21  36  56  81 109 143 182 223 268 320
#     4  11  22  37  58  82 110 145 183 225 274 324
#
# _framework density 17.466611
#
# number of rings (size 3 to 8) (size 9 to 14) (size 15 to 20)
#    0.000    2.125    0.000    4.500    0.000    9.000 
#    0.000    3.750    0.000    0.000    0.000    0.000 
#    0.000    0.000    0.000    0.000    0.000    0.000 
#
# Total GULP energy -178696.248891 kJ/mol
# GULP energy per Si atom -5584.257778 kJ/mol
# Density = 1.742686 g / cm^3
# Si number density = 17.466611 Si / 1000 Ang^3
#
#
#
# Elastic Constant Matrix: (Units=GPa)
#
#
# Indices 1 2 3 4 5 6 
#
# 1 135.8359 81.1615 97.9427 0.0000 -19.2715 0.0000
# 2 81.1615 98.1384 80.1138 0.0000 -1.5560 0.0000
# 3 97.9427 80.1138 133.9028 0.0000 15.9456 0.0000
# 4 0.0000 0.0000 0.0000 34.4007 0.0000 1.2047
# 5 -19.2715 -1.5560 15.9456 0.0000 25.0869 0.0000
# 6 0.0000 0.0000 0.0000 1.2047 0.0000 34.5919
#
#
#
# Elastic Compliance Matrix: (Units=1/GPa)
#
#
# Indices 1 2 3 4 5 6 
#
# 1 0.046328 -0.008007 -0.036000 0.000000 0.057974 0.000000
# 2 -0.008007 0.023657 -0.008374 0.000000 0.000639 0.000000
# 3 -0.036000 -0.008374 0.045618 0.000000 -0.057169 0.000000
# 4 0.000000 0.000000 0.000000 0.029105 0.000000 -0.001014
# 5 0.057974 0.000639 -0.057169 0.000000 0.120773 0.000000
# 6 0.000000 0.000000 0.000000 -0.001014 0.000000 0.028944
#
#
# Mechanical properties :
#
#
# Convention : Reuss Voigt Hill
#
# Bulk Modulus (GPa) = 92.22765 98.47924 95.35345
# Shear Modulus (GPa) = 12.41316 26.05983 19.23650
#
# Velocity S-wave (km/s) = 2.66875 3.86681 3.32223
# Velocity P-wave (km/s) = 7.90020 8.74300 8.33226
#
# Compressibility (1/GPa) = 0.01084273
#
# Stress axis : x y z
#
# Youngs Moduli (GPa) = 21.58537 42.27050 21.92135
#
# Poissons Ratio (x) = 0.33845 0.78916
# Poissons Ratio (y) = 0.17283 0.18356
# Poissons Ratio (z) = 0.77706 0.35396
#
# Static dielectric constant tensor:
#      x y z
#    x 1.569060 0.000000 -0.000740 
#    y 0.000000 1.580630 0.000000 
#    z -0.000740 0.000000 1.567320 
# 
# From -- ./inp_files/250111.got.cif
#   From: 2010.05.17/outbox.cif.g08.bks.cpg/sg12_126_cif.got.tgz:250111.got - 2010.06.03 13:09:07.
