data_PCOD9206546
_publ_section_title
;
Structure prediction by ZEFSAII (Michael W. Deem and Ramdas Pophale) SiO2 
 PCOD9206546
Probable space group: C 2/M
;
_chemical_formula_sum "Si O2"
_cell_formula_units_Z 56
_cell_length_a 23.989829
_cell_length_b 9.318136
_cell_length_c 15.857816
_cell_angle_alpha 90.000000
_cell_angle_beta 57.435005
_cell_angle_gamma 90.000000
_cell_volume 2987.545411
_symmetry_space_group_name_H-M "C 2/M"
_symmetry_group_IT_number 12
_symmetry_cell_setting 'monoclinic'
loop_
_space_group_symop_operation_xyz
x,y,z
-x,y,-z
-x,-y,-z
x,-y,z
1/2+x,1/2+y,z
1/2-x,1/2+y,-z
1/2-x,1/2-y,-z
1/2+x,1/2-y,z
loop_
_atom_site_type_symbol
_atom_site_label
_atom_site_fract_x
_atom_site_fract_y
_atom_site_fract_z
Si Si1 0.161936 0.833883 0.028545
Si Si2 0.454367 0.670535 0.456499
Si Si3 0.210136 0.328383 0.605827
Si Si4 0.018551 0.168768 0.078572
Si Si5 0.314430 0.669588 0.657480
Si Si6 0.945279 0.328050 0.289479
Si Si7 0.195095 0.330028 0.162072
O O1 0.155599 0.736090 0.115961
O O2 0.097197 0.821316 0.025381
O O3 0.168791 0.000000 0.050572
O O4 0.228244 0.796924 0.923533
O O5 0.500000 0.709370 0.500000
O O6 0.464444 0.500000 0.432403
O O7 0.378077 0.692735 0.546102
O O8 0.466814 0.758412 0.361064
O O9 0.217563 0.500000 0.589780
O O10 0.250000 0.250000 0.500000
O O11 0.247475 0.290023 0.662375
O O12 0.132620 0.294999 0.662808
O O13 0.984861 0.259059 0.179878
O O14 0.999834 0.000000 0.102769
O O15 0.000000 0.217085 0.000000
O O16 0.312195 0.500000 0.678888
O O17 0.322664 0.757242 0.735939
O O18 0.953203 0.500000 0.285775
O O19 0.186669 0.500000 0.173357
#
# Coordination Sequence:
#
# PCOD9206546 Si02
#       7
#     8   8   8   8   8   8   8
#     4   9  20  40  60  82 114 152 195 238 286 348
#     4  10  22  40  62  87 117 160 205 237 280 350
#     4  10  21  38  59  84 115 150 190 232 282 341
#     4  10  23  42  64  86 113 156 205 243 284 348
#     4  10  21  37  58  85 117 153 192 235 285 343
#     4  11  24  40  60  90 122 153 191 245 304 348
#     4  10  21  36  59  89 116 147 189 241 295 341
#
# _framework density 18.744484
#
# number of rings (size 3 to 8) (size 9 to 14) (size 15 to 20)
#    0.000    2.000    1.429    0.857    4.000    3.429 
#    0.000    0.000    0.000    0.000    0.000    0.000 
#    0.000    0.000    0.000    0.000    0.000    0.000 
#
# Total GULP energy -156364.936623 kJ/mol
# GULP energy per Si atom -5584.462022 kJ/mol
# Density = 1.870182 g / cm^3
# Si number density = 18.744484 Si / 1000 Ang^3
#
#
#
# Elastic Constant Matrix: (Units=GPa)
#
#
# Indices 1 2 3 4 5 6 
#
# 1 90.2666 31.9479 32.7002 0.0000 19.0770 0.0000
# 2 31.9479 42.4046 51.1324 0.0000 16.0307 0.0000
# 3 32.7002 51.1324 93.8227 0.0000 30.0390 0.0000
# 4 0.0000 0.0000 0.0000 33.6121 0.0000 3.0930
# 5 19.0770 16.0307 30.0390 0.0000 28.2349 0.0000
# 6 0.0000 0.0000 0.0000 3.0930 0.0000 22.8059
#
#
#
# Elastic Compliance Matrix: (Units=1/GPa)
#
#
# Indices 1 2 3 4 5 6 
#
# 1 0.016434 -0.016154 0.005603 0.000000 -0.007893 0.000000
# 2 -0.016154 0.084693 -0.043413 0.000000 0.009016 0.000000
# 3 0.005603 -0.043413 0.038955 0.000000 -0.020581 0.000000
# 4 0.000000 0.000000 0.000000 0.030127 0.000000 -0.004086
# 5 -0.007893 0.009016 -0.020581 0.000000 0.057527 0.000000
# 6 0.000000 0.000000 0.000000 -0.004086 0.000000 0.044402
#
#
# Mechanical properties :
#
#
# Convention : Reuss Voigt Hill
#
# Bulk Modulus (GPa) = 31.10080 50.89498 40.99789
# Shear Modulus (GPa) = 12.79477 24.31149 18.55313
#
# Velocity S-wave (km/s) = 2.61547 3.60529 3.14951
# Velocity P-wave (km/s) = 5.07434 6.67396 5.92835
#
# Compressibility (1/GPa) = 0.03215351
#
# Stress axis : x y z
#
# Youngs Moduli (GPa) = 60.84975 11.80736 25.67073
#
# Poissons Ratio (x) = 0.19073 -0.14383
# Poissons Ratio (y) = 0.98295 1.11445
# Poissons Ratio (z) = -0.34094 0.51260
#
# Static dielectric constant tensor:
#      x y z
#    x 1.662790 0.000000 -0.011900 
#    y 0.000000 1.627500 0.000000 
#    z -0.011900 0.000000 1.609600 
# 
# From -- ./inp_files/238356.got.cif
#   From: 2010.05.17/outbox.cif.g08.bks.cpg/sg12_120_cif.got.tgz:238356.got - 2010.06.03 13:09:07.
