data_PCOD9206355
_publ_section_title
;
Structure prediction by ZEFSAII (Michael W. Deem and Ramdas Pophale) SiO2 
 PCOD9206355
Probable space group: C 2/M
;
_chemical_formula_sum "Si O2"
_cell_formula_units_Z 48
_cell_length_a 30.055929
_cell_length_b 17.405485
_cell_length_c 15.925065
_cell_angle_alpha 90.000000
_cell_angle_beta 17.537503
_cell_angle_gamma 90.000000
_cell_volume 2510.382265
_symmetry_space_group_name_H-M "C 2/M"
_symmetry_group_IT_number 12
_symmetry_cell_setting 'monoclinic'
loop_
_space_group_symop_operation_xyz
x,y,z
-x,y,-z
-x,-y,-z
x,-y,z
1/2+x,1/2+y,z
1/2-x,1/2+y,-z
1/2-x,1/2-y,-z
1/2+x,1/2-y,z
loop_
_atom_site_type_symbol
_atom_site_label
_atom_site_fract_x
_atom_site_fract_y
_atom_site_fract_z
Si Si1 0.156779 0.910619 0.973961
Si Si2 0.961981 0.906331 0.162751
Si Si3 0.887328 0.715430 0.538314
Si Si4 0.659032 0.157920 0.940779
Si Si5 0.860291 0.591454 0.201821
Si Si6 0.054446 0.131417 0.492284
O O1 0.075212 0.886334 0.033862
O O2 0.042131 0.900345 0.256852
O O3 0.196982 0.000000 0.894359
O O4 0.261015 0.729247 0.726113
O O5 0.798470 0.879215 0.481890
O O6 0.961484 0.000000 0.162722
O O7 0.000000 0.880681 0.000000
O O8 0.956371 0.775289 0.480742
O O9 0.015292 0.688672 0.246118
O O10 0.773216 0.884429 0.798391
O O11 0.621300 0.107021 0.929379
O O12 0.702118 0.143187 0.265694
O O13 0.856867 0.500000 0.222356
O O14 0.000000 0.624201 0.000000
O O15 0.000000 0.105020 0.500000
#
# Coordination Sequence:
#
# PCOD9206355 Si02
#       6
#     8   8   8   8   8   8
#     4  11  22  39  62  94 131 162 205 267 312 366
#     4   9  18  34  56  83 119 161 201 241 301 368
#     4  10  21  39  61  89 121 158 213 252 313 376
#     4  10  21  39  61  88 122 161 209 254 309 370
#     4  10  21  36  57  89 126 163 205 251 308 373
#     4  10  21  41  68  91 118 170 210 252 316 385
#
# _framework density 19.120593
#
# number of rings (size 3 to 8) (size 9 to 14) (size 15 to 20)
#    1.000    1.000    3.333    0.000    2.333    3.667 
#    0.000    1.667    0.000    3.500    0.000    0.000 
#    0.000    0.000    0.000    0.000    0.000    0.000 
#
# Total GULP energy -133666.355367 kJ/mol
# GULP energy per Si atom -5569.431474 kJ/mol
# Density = 1.907707 g / cm^3
# Si number density = 19.120593 Si / 1000 Ang^3
#
#
#
# Elastic Constant Matrix: (Units=GPa)
#
#
# Indices 1 2 3 4 5 6 
#
# 1 88.0216 4.5445 1.4066 0.0003 9.7132 -0.0002
# 2 4.5445 20.8403 -2.2161 0.0006 -7.0858 -0.0006
# 3 1.4066 -2.2161 73.8778 -0.0004 2.0861 0.0002
# 4 0.0003 0.0006 -0.0004 24.3326 0.0001 0.1354
# 5 9.7132 -7.0858 2.0861 0.0001 21.8193 0.0001
# 6 -0.0002 -0.0006 0.0002 0.1354 0.0001 23.5893
#
#
#
# Elastic Compliance Matrix: (Units=1/GPa)
#
#
# Indices 1 2 3 4 5 6 
#
# 1 0.012425 -0.005175 -0.000189 0.000000 -0.007194 0.000000
# 2 -0.005175 0.056189 0.001207 -0.000001 0.020436 0.000001
# 3 -0.000189 0.001207 0.013599 0.000000 -0.000824 0.000000
# 4 0.000000 -0.000001 0.000000 0.041098 -0.000001 -0.000236
# 5 -0.007194 0.020436 -0.000824 -0.000001 0.055749 0.000000
# 6 0.000000 0.000001 0.000000 -0.000236 0.000000 0.042393
#
#
# Mechanical properties :
#
#
# Convention : Reuss Voigt Hill
#
# Bulk Modulus (GPa) = 13.53200 21.13440 17.33320
# Shear Modulus (GPa) = 19.65402 25.88189 22.76795
#
# Velocity S-wave (km/s) = 3.20956 3.68314 3.45448
# Velocity P-wave (km/s) = 4.56373 5.40042 4.99961
#
# Compressibility (1/GPa) = 0.07389889
#
# Stress axis : x y z
#
# Youngs Moduli (GPa) = 80.48349 17.79700 73.53511
#
# Poissons Ratio (x) = 0.09211 0.01387
# Poissons Ratio (y) = 0.41654 -0.08876
# Poissons Ratio (z) = 0.01519 -0.02148
#
# Static dielectric constant tensor:
#      x y z
#    x 1.657860 0.000000 -0.022120 
#    y 0.000000 1.700650 0.000000 
#    z -0.022120 0.000000 1.654980 
# 
# From -- ./inp_files/251776.got.cif
#   From: 2010.05.17/outbox.cif.g08.bks.cpg/sg12_126_cif.got.tgz:251776.got - 2010.06.03 13:09:07.
