data_PCOD9206487
_publ_section_title
;
Structure prediction by ZEFSAII (Michael W. Deem and Ramdas Pophale) SiO2 
 PCOD9206487
Probable space group: C 2/M
;
_chemical_formula_sum "Si O2"
_cell_formula_units_Z 40
_cell_length_a 11.038048
_cell_length_b 14.057441
_cell_length_c 14.244185
_cell_angle_alpha 90.000000
_cell_angle_beta 107.211738
_cell_angle_gamma 90.000000
_cell_volume 2111.244555
_symmetry_space_group_name_H-M "C 2/M"
_symmetry_group_IT_number 12
_symmetry_cell_setting 'monoclinic'
loop_
_space_group_symop_operation_xyz
x,y,z
-x,y,-z
-x,-y,-z
x,-y,z
1/2+x,1/2+y,z
1/2-x,1/2+y,-z
1/2-x,1/2-y,-z
1/2+x,1/2-y,z
loop_
_atom_site_type_symbol
_atom_site_label
_atom_site_fract_x
_atom_site_fract_y
_atom_site_fract_z
Si Si1 0.365891 0.817315 0.429989
Si Si2 0.095815 0.610990 0.204715
Si Si3 0.782645 0.110839 0.425250
Si Si4 0.176910 0.387373 0.788714
Si Si5 0.851704 0.241076 0.938863
O O1 0.500000 0.851316 0.500000
O O2 0.268548 0.859460 0.483969
O O3 0.369868 0.702066 0.422810
O O4 0.332349 0.855328 0.320540
O O5 0.091509 0.500000 0.178219
O O6 0.172806 0.617915 0.320299
O O7 0.157118 0.669830 0.134600
O O8 0.952648 0.646650 0.190100
O O9 0.827073 0.000000 0.434502
O O10 0.174768 0.500000 0.792175
O O11 0.300666 0.347098 0.866738
O O12 0.750000 0.250000 0.000000
O O13 0.000000 0.232402 0.000000
#
# Coordination Sequence:
#
# PCOD9206487 Si02
#       5
#     8   8   8   8   8
#     4  11  21  35  61  91 128 165 204 252 306 375
#     4  10  21  40  66  92 122 166 214 257 315 386
#     4  10  21  36  58  91 127 164 205 250 309 378
#     4  11  23  40  63  93 128 163 210 263 318 377
#     4  12  25  43  67  92 126 164 217 271 321 374
#
# _framework density 18.946169999999999
#
# number of rings (size 3 to 8) (size 9 to 14) (size 15 to 20)
#    0.000    1.200    6.000    0.600    0.000    2.800 
#    0.000    0.000    0.000    3.600    0.000    0.000 
#    0.000    0.000    0.000    0.000    0.000    0.000 
#
# Total GULP energy -111521.663329 kJ/mol
# GULP energy per Si atom -5576.083166 kJ/mol
# Density = 1.890305 g / cm^3
# Si number density = 18.946170 Si / 1000 Ang^3
#
#
#
# Elastic Constant Matrix: (Units=GPa)
#
#
# Indices 1 2 3 4 5 6 
#
# 1 69.5802 21.6250 53.0459 0.0000 -7.3831 0.0000
# 2 21.6250 79.4208 51.8454 0.0000 -7.5552 0.0000
# 3 53.0459 51.8454 115.0314 0.0000 -11.5212 0.0000
# 4 0.0000 0.0000 0.0000 -51.0699 0.0000 -8.5746
# 5 -7.3831 -7.5552 -11.5212 0.0000 32.7667 0.0000
# 6 0.0000 0.0000 0.0000 -8.5746 0.0000 24.9927
#
#
#
# Elastic Compliance Matrix: (Units=1/GPa)
#
#
# Indices 1 2 3 4 5 6 
#
# 1 0.022283 0.000972 -0.010561 0.000000 0.001532 0.000000
# 2 0.000972 0.017939 -0.008393 0.000000 0.001404 0.000000
# 3 -0.010561 -0.008393 0.017531 0.000000 0.001849 0.000000
# 4 0.000000 0.000000 0.000000 -0.018514 0.000000 -0.006352
# 5 0.001532 0.001404 0.001849 0.000000 0.031838 0.000000
# 6 0.000000 0.000000 0.000000 -0.006352 0.000000 0.037832
#
#
# Mechanical properties :
#
#
# Convention : Reuss Voigt Hill
#
# Bulk Modulus (GPa) = 45.89060 57.45165 51.67112
# Shear Modulus (GPa) = 32.86552 10.50565 21.68559
#
# Velocity S-wave (km/s) = 4.16947 2.35734 3.38685
# Velocity P-wave (km/s) = 6.88864 6.14808 6.52887
#
# Compressibility (1/GPa) = 0.02179096
#
# Stress axis : x y z
#
# Youngs Moduli (GPa) = 44.87654 55.74514 57.04146
#
# Poissons Ratio (x) = -0.05419 0.60239
# Poissons Ratio (y) = -0.04363 0.47874
# Poissons Ratio (z) = 0.47392 0.46786
#
# Static dielectric constant tensor:
#      x y z
#    x 1.698870 0.000000 0.003200 
#    y 0.000000 1.659710 0.000000 
#    z 0.003200 0.000000 1.643150 
# 
# From -- ./inp_files/129824.got.cif
#   From: 2010.05.17/outbox.cif.g08.bks.cpg/sg12_65_cif.got.tgz:129824.got - 2010.06.03 13:09:07.
