data_PCOD9206959
_publ_section_title
;
Structure prediction by ZEFSAII (Michael W. Deem and Ramdas Pophale) SiO2 
 PCOD9206959
Probable space group: C 2/M
;
_chemical_formula_sum "Si O2"
_cell_formula_units_Z 56
_cell_length_a 7.897996
_cell_length_b 19.281589
_cell_length_c 22.698551
_cell_angle_alpha 90.000000
_cell_angle_beta 58.539006
_cell_angle_gamma 90.000000
_cell_volume 2948.524183
_symmetry_space_group_name_H-M "C 2/M"
_symmetry_group_IT_number 12
_symmetry_cell_setting 'monoclinic'
loop_
_space_group_symop_operation_xyz
x,y,z
-x,y,-z
-x,-y,-z
x,-y,z
1/2+x,1/2+y,z
1/2-x,1/2+y,-z
1/2-x,1/2-y,-z
1/2+x,1/2-y,z
loop_
_atom_site_type_symbol
_atom_site_label
_atom_site_fract_x
_atom_site_fract_y
_atom_site_fract_z
Si Si1 0.524335 0.169446 0.354568
Si Si2 0.933873 0.920144 0.075855
Si Si3 0.911978 0.830551 0.354566
Si Si4 0.749625 0.326977 0.202867
Si Si5 0.141778 0.326981 0.202869
Si Si6 0.338561 0.079856 0.075856
Si Si7 0.124230 0.919114 0.417184
O O1 0.681993 0.160508 0.378677
O O2 0.454589 0.249999 0.363612
O O3 0.639457 0.155153 0.272211
O O4 0.332241 0.120484 0.390033
O O5 0.764373 0.877823 0.139271
O O6 0.127162 0.919241 0.081892
O O7 0.869797 0.000000 0.078737
O O8 0.000000 0.892409 0.000000
O O9 0.043919 0.844842 0.272209
O O10 0.997683 0.879515 0.390029
O O11 0.728643 0.249997 0.180910
O O12 0.817815 0.377818 0.139270
O O13 0.914647 0.325775 0.223571
O O14 0.393984 0.000000 0.078742
O O15 0.500000 0.107588 0.000000
O O16 0.000000 0.916878 0.500000
O O17 0.157281 0.000000 0.395150
#
# Coordination Sequence:
#
# PCOD9206959 Si02
#       7
#     8   8   8   8   8   8   8
#     4  11  21  42  69  97 129 169 219 265 316 385
#     4  10  21  37  55  80 115 156 203 252 306 369
#     4  11  21  42  69  97 129 169 219 265 316 385
#     4  11  21  37  61  88 120 156 200 257 311 361
#     4  11  21  37  61  88 120 156 200 257 311 361
#     4  10  21  37  55  80 115 156 203 252 306 369
#     4  11  26  46  66  98 139 170 209 269 324 377
#
# _framework density 18.992550999999999
#
# number of rings (size 3 to 8) (size 9 to 14) (size 15 to 20)
#    0.000    1.286    2.857    5.143    0.000    5.143 
#    0.000    4.286    0.000    0.000    0.000    0.000 
#    0.000    0.000    0.000    0.000    0.000    0.000 
#
# Total GULP energy -156439.805222 kJ/mol
# GULP energy per Si atom -5587.135901 kJ/mol
# Density = 1.894932 g / cm^3
# Si number density = 18.992551 Si / 1000 Ang^3
#
#
#
# Elastic Constant Matrix: (Units=GPa)
#
#
# Indices 1 2 3 4 5 6 
#
# 1 148.0793 47.1690 29.3947 0.0000 -4.0360 0.0000
# 2 47.1690 96.2750 64.9496 0.0000 0.8442 0.0000
# 3 29.3947 64.9496 73.7115 0.0000 0.4707 0.0000
# 4 0.0000 0.0000 0.0000 18.3593 0.0000 -0.3143
# 5 -4.0360 0.8442 0.4707 0.0000 17.3899 0.0000
# 6 0.0000 0.0000 0.0000 -0.3143 0.0000 24.9471
#
#
#
# Elastic Compliance Matrix: (Units=1/GPa)
#
#
# Indices 1 2 3 4 5 6 
#
# 1 0.008089 -0.004429 0.000663 0.000000 0.002074 0.000000
# 2 -0.004429 0.028043 -0.022932 0.000000 -0.001768 0.000000
# 3 0.000663 -0.022932 0.033506 0.000000 0.000360 0.000000
# 4 0.000000 0.000000 0.000000 0.054480 0.000000 0.000686
# 5 0.002074 -0.001768 0.000360 0.000000 0.058062 0.000000
# 6 0.000000 0.000000 0.000000 0.000686 0.000000 0.040093
#
#
# Mechanical properties :
#
#
# Convention : Reuss Voigt Hill
#
# Bulk Modulus (GPa) = 61.56671 66.78804 64.17737
# Shear Modulus (GPa) = 17.78841 23.90943 20.84892
#
# Velocity S-wave (km/s) = 3.06371 3.55193 3.31681
# Velocity P-wave (km/s) = 6.70833 7.21549 6.96653
#
# Compressibility (1/GPa) = 0.01624254
#
# Stress axis : x y z
#
# Youngs Moduli (GPa) = 123.62913 35.65966 29.84559
#
# Poissons Ratio (x) = 0.15793 -0.01980
# Poissons Ratio (y) = 0.54753 0.68442
# Poissons Ratio (z) = -0.08203 0.81775
#
# Static dielectric constant tensor:
#      x y z
#    x 1.678860 0.000000 -0.002000 
#    y 0.000000 1.645680 0.000000 
#    z -0.002000 0.000000 1.636930 
# 
# From -- ./inp_files/333313.got.cif
#   From: 2010.05.17/outbox.cif.g08.bks.cpg/sg12_167_cif.got.tgz:333313.got - 2010.06.03 13:09:07.
