data_PCOD9206385
_publ_section_title
;
Structure prediction by ZEFSAII (Michael W. Deem and Ramdas Pophale) SiO2 
 PCOD9206385
Probable space group: C 2/M
;
_chemical_formula_sum "Si O2"
_cell_formula_units_Z 58
_cell_length_a 19.587806
_cell_length_b 8.146884
_cell_length_c 18.089977
_cell_angle_alpha 90.000000
_cell_angle_beta 97.551423
_cell_angle_gamma 90.000000
_cell_volume 2861.754762
_symmetry_space_group_name_H-M "C 2/M"
_symmetry_group_IT_number 12
_symmetry_cell_setting 'monoclinic'
loop_
_space_group_symop_operation_xyz
x,y,z
-x,y,-z
-x,-y,-z
x,-y,z
1/2+x,1/2+y,z
1/2-x,1/2+y,-z
1/2-x,1/2-y,-z
1/2+x,1/2-y,z
loop_
_atom_site_type_symbol
_atom_site_label
_atom_site_fract_x
_atom_site_fract_y
_atom_site_fract_z
Si Si1 0.052590 0.189841 0.236768
Si Si2 0.200105 0.691462 0.219776
Si Si3 0.275753 0.695715 0.083351
Si Si4 0.463231 0.700300 0.590261
Si Si5 0.825976 0.307599 0.324264
Si Si6 0.405029 0.804709 0.189052
Si Si7 0.174735 0.809869 0.511651
Si Si8 0.000000 0.500000 0.500000
O O1 0.119514 0.287371 0.220786
O O2 0.040526 0.213968 0.322469
O O3 0.980850 0.235438 0.188448
O O4 0.068499 0.000000 0.226297
O O5 0.218257 0.500000 0.229496
O O6 0.224512 0.749722 0.142263
O O7 0.247027 0.784105 0.286359
O O8 0.278198 0.500000 0.084563
O O9 0.350549 0.760569 0.117960
O O10 0.250000 0.750000 0.000000
O O11 0.476730 0.500000 0.576290
O O12 0.389062 0.754578 0.545399
O O13 0.510000 0.847660 0.563811
O O14 0.838534 0.500000 0.336586
O O15 0.872341 0.243527 0.262601
O O16 0.836774 0.220542 0.403475
O O17 0.409355 0.000000 0.195526
O O18 0.250000 0.750000 0.500000
O O19 0.174333 0.000000 0.495873
#
# Coordination Sequence:
#
# PCOD9206385 Si02
#       8
#     8   8   8   8   8   8   8   2
#     4  11  23  40  61  86 124 160 201 257 306 361
#     4  10  21  38  62  90 120 159 202 242 298 364
#     4  10  21  40  66  96 127 159 194 240 292 352
#     4  10  26  42  58  89 120 160 213 264 317 376
#     4  10  21  36  58  84 114 149 199 248 300 362
#     4  10  22  38  61  91 120 155 197 240 292 359
#     4  11  23  38  57  80 113 150 199 259 310 366
#     4  12  26  40  68  78 120 168 212 258 328 376
#
# _framework density 20.267285999999999
#
# number of rings (size 3 to 8) (size 9 to 14) (size 15 to 20)
#    0.000    1.655    0.000    3.517    5.793    4.414 
#    0.000    0.690    0.000    4.138    0.000    0.000 
#    0.000    0.000    0.000    0.000    0.000    0.000 
#
# Total GULP energy -161724.103875 kJ/mol
# GULP energy per Si atom -5576.693237 kJ/mol
# Density = 2.022116 g / cm^3
# Si number density = 20.267286 Si / 1000 Ang^3
#
#
#
# Elastic Constant Matrix: (Units=GPa)
#
#
# Indices 1 2 3 4 5 6 
#
# 1 100.3350 4.0541 19.2640 0.0000 9.6179 0.0000
# 2 4.0541 49.5839 1.1173 0.0000 -6.4761 0.0000
# 3 19.2640 1.1173 70.1056 0.0000 15.9891 0.0000
# 4 0.0000 0.0000 0.0000 31.6323 0.0000 -1.0653
# 5 9.6179 -6.4761 15.9891 0.0000 17.0354 0.0000
# 6 0.0000 0.0000 0.0000 -1.0653 0.0000 20.7597
#
#
#
# Elastic Compliance Matrix: (Units=1/GPa)
#
#
# Indices 1 2 3 4 5 6 
#
# 1 0.010855 -0.001498 -0.001821 0.000000 -0.004989 0.000000
# 2 -0.001498 0.021860 -0.002577 0.000000 0.011574 0.000000
# 3 -0.001821 -0.002577 0.018824 0.000000 -0.017619 0.000000
# 4 0.000000 0.000000 0.000000 0.031668 0.000000 0.001625
# 5 -0.004989 0.011574 -0.017619 0.000000 0.082455 0.000000
# 6 0.000000 0.000000 0.000000 0.001625 0.000000 0.048254
#
#
# Mechanical properties :
#
#
# Convention : Reuss Voigt Hill
#
# Bulk Modulus (GPa) = 25.15864 29.87726 27.51795
# Shear Modulus (GPa) = 20.92428 26.92475 23.92452
#
# Velocity S-wave (km/s) = 3.21661 3.64879 3.43949
# Velocity P-wave (km/s) = 5.12209 5.70309 5.42038
#
# Compressibility (1/GPa) = 0.03974777
#
# Stress axis : x y z
#
# Youngs Moduli (GPa) = 92.12344 45.74540 53.12326
#
# Poissons Ratio (x) = 0.06853 0.09674
# Poissons Ratio (y) = 0.13801 0.13687
# Poissons Ratio (z) = 0.16777 0.11787
#
# Static dielectric constant tensor:
#      x y z
#    x -0.065250 0.000000 -0.639930 
#    y 0.000000 1.731160 0.000000 
#    z -0.639930 0.000000 1.486890 
# 
# From -- ./inp_files/275438.got.cif
#   From: 2010.05.17/outbox.cif.g08.bks.cpg/sg12_138_cif.got.tgz:275438.got - 2010.06.03 13:09:07.
