data_PCOD9206568
_publ_section_title
;
Structure prediction by ZEFSAII (Michael W. Deem and Ramdas Pophale) SiO2 
 PCOD9206568
Probable space group: C 2/M
;
_chemical_formula_sum "Si O2"
_cell_formula_units_Z 64
_cell_length_a 12.996278
_cell_length_b 26.529518
_cell_length_c 11.964347
_cell_angle_alpha 90.000000
_cell_angle_beta 41.988834
_cell_angle_gamma 90.000000
_cell_volume 2759.651434
_symmetry_space_group_name_H-M "C 2/M"
_symmetry_group_IT_number 12
_symmetry_cell_setting 'monoclinic'
loop_
_space_group_symop_operation_xyz
x,y,z
-x,y,-z
-x,-y,-z
x,-y,z
1/2+x,1/2+y,z
1/2-x,1/2+y,-z
1/2-x,1/2-y,-z
1/2+x,1/2-y,z
loop_
_atom_site_type_symbol
_atom_site_label
_atom_site_fract_x
_atom_site_fract_y
_atom_site_fract_z
Si Si1 0.314758 0.694788 0.144422
Si Si2 0.184633 0.404841 0.353618
Si Si3 0.193775 0.057011 0.506230
Si Si4 0.677437 0.190029 0.824104
Si Si5 0.103595 0.838724 0.519472
Si Si6 0.704091 0.558012 0.967603
Si Si7 0.875010 0.844037 0.867030
Si Si8 0.491381 0.942106 0.884388
O O1 0.231137 0.652685 0.286258
O O2 0.273603 0.751500 0.207581
O O3 0.500000 0.687803 0.000000
O O4 0.286420 0.685423 0.035602
O O5 0.245590 0.425132 0.421992
O O6 0.264357 0.435832 0.188756
O O7 0.000000 0.410681 0.500000
O O8 0.086427 0.100949 0.545580
O O9 0.343382 0.057280 0.305724
O O10 0.132039 0.000000 0.558836
O O11 0.724583 0.172250 0.661400
O O12 0.770218 0.157211 0.840769
O O13 0.500000 0.189530 0.000000
O O14 0.000000 0.820094 0.500000
O O15 0.033687 0.819457 0.692614
O O16 0.663639 0.500000 0.024072
O O17 0.862620 0.575006 0.901232
O O18 0.592293 0.601062 0.105056
O O19 0.442261 0.000000 0.942888
O O20 0.500000 0.918144 0.000000
#
# Coordination Sequence:
#
# PCOD9206568 Si02
#       8
#     8   8   8   8   8   8   8   8
#     4  10  22  43  65  89 121 161 206 255 315 380
#     4  11  22  38  63  96 126 161 212 263 314 367
#     4  11  23  38  60  88 127 169 208 256 306 363
#     4  10  23  42  66  91 119 158 208 261 317 378
#     4  10  24  41  60  91 128 162 204 260 316 377
#     4  10  21  36  59  90 127 168 207 253 303 362
#     4  10  22  40  62  91 125 162 201 257 310 375
#     4   9  19  32  52  83 119 161 203 248 296 348
#
# _framework density 23.191334000000001
#
# number of rings (size 3 to 8) (size 9 to 14) (size 15 to 20)
#    0.000    1.875    1.250    1.500    5.250    2.750 
#    0.000    5.625    0.000    4.125    0.000    0.000 
#    0.000    0.000    0.000    0.000    0.000    0.000 
#
# Total GULP energy -178683.585331 kJ/mol
# GULP energy per Si atom -5583.862042 kJ/mol
# Density = 2.313855 g / cm^3
# Si number density = 23.191334 Si / 1000 Ang^3
#
#
#
# Elastic Constant Matrix: (Units=GPa)
#
#
# Indices 1 2 3 4 5 6 
#
# 1 46.9273 -14.0875 12.7431 0.0000 13.1992 0.0000
# 2 -14.0875 129.1332 26.8648 0.0000 9.4714 0.0000
# 3 12.7431 26.8648 137.8668 0.0000 20.1594 0.0000
# 4 0.0000 0.0000 0.0000 22.0258 0.0000 -0.9625
# 5 13.1992 9.4714 20.1594 0.0000 35.9796 0.0000
# 6 0.0000 0.0000 0.0000 -0.9625 0.0000 20.8111
#
#
#
# Elastic Compliance Matrix: (Units=1/GPa)
#
#
# Indices 1 2 3 4 5 6 
#
# 1 0.025586 0.003844 -0.001736 0.000000 -0.009426 0.000000
# 2 0.003844 0.008710 -0.001646 0.000000 -0.002781 0.000000
# 3 -0.001736 -0.001646 0.008254 0.000000 -0.003555 0.000000
# 4 0.000000 0.000000 0.000000 0.045493 0.000000 0.002104
# 5 -0.009426 -0.002781 -0.003555 0.000000 0.033975 0.000000
# 6 0.000000 0.000000 0.000000 0.002104 0.000000 0.048149
#
#
# Mechanical properties :
#
#
# Convention : Reuss Voigt Hill
#
# Bulk Modulus (GPa) = 23.00221 40.55200 31.77711
# Shear Modulus (GPa) = 27.21331 34.99044 31.10188
#
# Velocity S-wave (km/s) = 3.42925 3.88851 3.66607
# Velocity P-wave (km/s) = 5.06158 6.13877 5.62601
#
# Compressibility (1/GPa) = 0.04347408
#
# Stress axis : x y z
#
# Youngs Moduli (GPa) = 39.08416 114.81577 121.14859
#
# Poissons Ratio (x) = -0.44131 0.21027
# Poissons Ratio (y) = -0.15023 0.19939
# Poissons Ratio (z) = 0.06784 0.18897
#
# Static dielectric constant tensor:
#      x y z
#    x 1.918800 0.000000 -0.024220 
#    y 0.000000 1.882280 0.000000 
#    z -0.024220 0.000000 1.924870 
# 
# From -- ./inp_files/149751.got.cif
#   From: 2010.05.17/outbox.cif.g08.bks.cpg/sg12_75_cif.got.tgz:149751.got - 2010.06.03 13:09:07.
