data_PCOD9206352
_publ_section_title
;
Structure prediction by ZEFSAII (Michael W. Deem and Ramdas Pophale) SiO2 
 PCOD9206352
Probable space group: C 2/M
;
_chemical_formula_sum "Si O2"
_cell_formula_units_Z 44
_cell_length_a 22.436876
_cell_length_b 13.608011
_cell_length_c 9.041127
_cell_angle_alpha 90.000000
_cell_angle_beta 58.208358
_cell_angle_gamma 90.000000
_cell_volume 2346.296963
_symmetry_space_group_name_H-M "C 2/M"
_symmetry_group_IT_number 12
_symmetry_cell_setting 'monoclinic'
loop_
_space_group_symop_operation_xyz
x,y,z
-x,y,-z
-x,-y,-z
x,-y,z
1/2+x,1/2+y,z
1/2-x,1/2+y,-z
1/2-x,1/2-y,-z
1/2+x,1/2-y,z
loop_
_atom_site_type_symbol
_atom_site_label
_atom_site_fract_x
_atom_site_fract_y
_atom_site_fract_z
Si Si1 0.276768 0.500000 0.846869
Si Si2 0.923908 0.612338 0.175609
Si Si3 0.672740 0.699398 0.753994
Si Si4 0.672752 0.500000 0.901659
Si Si5 0.925814 0.667417 0.518513
Si Si6 0.671027 0.000000 0.231308
Si Si7 0.190942 0.189269 0.383149
O O1 0.287994 0.594327 0.733420
O O2 0.329953 0.500000 0.917199
O O3 0.201542 0.500000 0.026189
O O4 0.896910 0.500000 0.186979
O O5 0.875056 0.702052 0.182609
O O6 0.931438 0.628844 0.342421
O O7 0.000000 0.618993 0.000000
O O8 0.644658 0.602002 0.871697
O O9 0.747919 0.730460 0.722029
O O10 0.686527 0.672491 0.564727
O O11 0.757795 0.500000 0.762748
O O12 0.876665 0.592649 0.671573
O O13 0.883654 0.768902 0.568368
O O14 0.000000 0.674082 0.500000
#
# Coordination Sequence:
#
# PCOD9206352 Si02
#       7
#     4   8   8   4   8   4   8
#     4  10  23  36  61  89 126 154 208 261 296 368
#     4  10  23  40  60  95 125 159 209 255 309 375
#     4  10  21  38  64  85 126 162 202 261 309 361
#     4  10  21  38  59  90 124 158 198 262 301 361
#     4  11  22  39  62  84 129 166 198 249 318 374
#     4  10  21  36  57  89 124 153 198 252 307 363
#     4  10  21  38  58  93 115 165 211 251 304 367
#
# _framework density 18.752953000000002
#
# number of rings (size 3 to 8) (size 9 to 14) (size 15 to 20)
#    0.545    1.273    2.727    0.818    1.273    5.818 
#    0.000    0.909    0.000    0.000    0.000    0.000 
#    0.000    0.000    0.000    0.000    0.000    0.000 
#
# Total GULP energy -122730.445732 kJ/mol
# GULP energy per Si atom -5578.656624 kJ/mol
# Density = 1.871027 g / cm^3
# Si number density = 18.752953 Si / 1000 Ang^3
#
#
#
# Elastic Constant Matrix: (Units=GPa)
#
#
# Indices 1 2 3 4 5 6 
#
# 1 92.1097 53.4901 20.3340 0.0000 -5.6188 0.0000
# 2 53.4901 149.3394 71.9316 0.0000 11.1202 0.0000
# 3 20.3340 71.9316 98.6658 0.0000 -11.5460 0.0000
# 4 0.0000 0.0000 0.0000-2016.7657 0.0000-1379.3584
# 5 -5.6188 11.1202 -11.5460 0.0000 14.6569 0.0000
# 6 0.0000 0.0000 0.0000-1379.3584 0.0000 -887.2157
#
#
#
# Elastic Compliance Matrix: (Units=1/GPa)
#
#
# Indices 1 2 3 4 5 6 
#
# 1 0.016810 -0.010701 0.006655 0.000000 0.019806 0.000000
# 2 -0.010701 0.021473 -0.017444 0.000000 -0.034136 0.000000
# 3 0.006655 -0.017444 0.025697 0.000000 0.036029 0.000000
# 4 0.000000 0.000000 0.000000 0.007829 0.000000 -0.012172
# 5 0.019806 -0.034136 0.036029 0.000000 0.130100 0.000000
# 6 0.000000 0.000000 0.000000 -0.012172 0.000000 0.017797
#
#
# Mechanical properties :
#
#
# Convention : Reuss Voigt Hill
#
# Bulk Modulus (GPa) = 47.61913 70.18069 58.89991
# Shear Modulus (GPa) = 18.54003 -564.90761 -273.18379
#
# Velocity S-wave (km/s) = 3.14768 -17.37500 -12.08269
# Velocity P-wave (km/s) = 6.21760 19.10538 12.77414
#
# Compressibility (1/GPa) = 0.02099997
#
# Stress axis : x y z
#
# Youngs Moduli (GPa) = 59.48798 46.56996 38.91475
#
# Poissons Ratio (x) = 0.49836 -0.25898
# Poissons Ratio (y) = 0.63660 0.67883
# Poissons Ratio (z) = -0.39589 0.81236
#
# Static dielectric constant tensor:
#      x y z
#    x 1.655560 0.000000 0.009470 
#    y 0.000000 1.664220 0.000000 
#    z 0.009470 0.000000 1.633560 
# 
# From -- ./inp_files/94848.got.cif
#   From: 2010.05.17/outbox.cif.g08.bks.cpg/sg12_48_cif.got.tgz:94848.got - 2010.06.03 13:09:07.
