data_PCOD9206592
_publ_section_title
;
Structure prediction by ZEFSAII (Michael W. Deem and Ramdas Pophale) SiO2 
 PCOD9206592
Probable space group: C 2/M
;
_chemical_formula_sum "Si O2"
_cell_formula_units_Z 56
_cell_length_a 23.712417
_cell_length_b 15.411304
_cell_length_c 9.070921
_cell_angle_alpha 90.000000
_cell_angle_beta 53.211538
_cell_angle_gamma 90.000000
_cell_volume 2654.720793
_symmetry_space_group_name_H-M "C 2/M"
_symmetry_group_IT_number 12
_symmetry_cell_setting 'monoclinic'
loop_
_space_group_symop_operation_xyz
x,y,z
-x,y,-z
-x,-y,-z
x,-y,z
1/2+x,1/2+y,z
1/2-x,1/2+y,-z
1/2-x,1/2-y,-z
1/2+x,1/2-y,z
loop_
_atom_site_type_symbol
_atom_site_label
_atom_site_fract_x
_atom_site_fract_y
_atom_site_fract_z
Si Si1 0.579978 0.653199 0.380192
Si Si2 0.703613 0.402166 0.000463
Si Si3 0.284731 0.841884 0.413100
Si Si4 0.039332 0.672963 0.287695
Si Si5 0.649138 0.400058 0.772908
Si Si6 0.587491 0.748533 0.675335
Si Si7 0.318529 0.898456 0.033483
O O1 0.500000 0.616148 0.500000
O O2 0.641155 0.596070 0.217519
O O3 0.575343 0.738149 0.285395
O O4 0.599417 0.690640 0.509507
O O5 0.724889 0.500000 0.924939
O O6 0.770291 0.360485 0.977077
O O7 0.672085 0.366639 0.898679
O O8 0.250000 0.750000 0.500000
O O9 0.222769 0.903751 0.567079
O O10 0.357882 0.827707 0.384915
O O11 0.301094 0.856433 0.217100
O O12 0.000000 0.641426 0.500000
O O13 0.985919 0.703854 0.244011
O O14 0.100116 0.611833 0.134495
O O15 0.620518 0.500000 0.824162
O O16 0.598577 0.325534 0.783116
O O17 0.300556 0.000000 0.075004
#
# Coordination Sequence:
#
# PCOD9206592 Si02
#       7
#     8   8   8   8   8   8   8
#     4   9  20  39  61  88 120 162 208 252 310 377
#     4  10  22  37  60  93 125 162 206 255 312 376
#     4  10  21  36  59  94 121 161 203 255 311 370
#     4   9  22  41  63  90 122 162 217 265 311 369
#     4  10  21  37  60  91 128 162 200 256 321 378
#     4   9  20  40  59  88 122 162 206 255 312 368
#     4  11  24  42  64  91 125 168 213 258 313 376
#
# _framework density 21.094495999999999
#
# number of rings (size 3 to 8) (size 9 to 14) (size 15 to 20)
#    0.000    2.571    0.000    2.143    8.000    3.429 
#    2.571    4.286    0.000    7.286    0.000    0.000 
#    0.000    0.000    0.000    0.000    0.000    0.000 
#
# Total GULP energy -155987.637451 kJ/mol
# GULP energy per Si atom -5570.987052 kJ/mol
# Density = 2.104648 g / cm^3
# Si number density = 21.094496 Si / 1000 Ang^3
#
#
#
# Elastic Constant Matrix: (Units=GPa)
#
#
# Indices 1 2 3 4 5 6 
#
# 1 148.1963 21.0704 36.3569 0.0000 25.4491 0.0000
# 2 21.0704 40.2867 6.9877 0.0000 -0.4797 0.0000
# 3 36.3569 6.9877 73.5498 0.0000 1.8090 0.0000
# 4 0.0000 0.0000 0.0000 25.3664 0.0000 -12.6986
# 5 25.4491 -0.4797 1.8090 0.0000 24.0021 0.0000
# 6 0.0000 0.0000 0.0000 -12.6986 0.0000 35.6123
#
#
#
# Elastic Compliance Matrix: (Units=1/GPa)
#
#
# Indices 1 2 3 4 5 6 
#
# 1 0.010350 -0.004778 -0.004398 0.000000 -0.010738 0.000000
# 2 -0.004778 0.027455 -0.000385 0.000000 0.005644 0.000000
# 3 -0.004398 -0.000385 0.015722 0.000000 0.003471 0.000000
# 4 0.000000 0.000000 0.000000 0.047989 0.000000 0.017112
# 5 -0.010738 0.005644 0.003471 0.000000 0.052900 0.000000
# 6 0.000000 0.000000 0.000000 0.017112 0.000000 0.034182
#
#
# Mechanical properties :
#
#
# Convention : Reuss Voigt Hill
#
# Bulk Modulus (GPa) = 29.06678 43.42921 36.24799
# Shear Modulus (GPa) = 22.81141 30.17067 26.49104
#
# Velocity S-wave (km/s) = 3.29202 3.78598 3.54761
# Velocity P-wave (km/s) = 5.31593 6.30430 5.83109
#
# Compressibility (1/GPa) = 0.03440353
#
# Stress axis : x y z
#
# Youngs Moduli (GPa) = 96.61641 36.42293 63.60682
#
# Poissons Ratio (x) = 0.17404 0.27976
# Poissons Ratio (y) = 0.46166 0.02450
# Poissons Ratio (z) = 0.42494 0.01403
#
# Static dielectric constant tensor:
#      x y z
#    x 1.920450 0.000000 -0.051650 
#    y 0.000000 1.819900 0.000000 
#    z -0.051650 0.000000 1.793770 
# 
# From -- ./inp_files/87821.got.cif
#   From: 2010.05.17/outbox.cif.g08.bks.cpg/sg12_44_cif.got.tgz:87821.got - 2010.06.03 13:09:07.
