data_PCOD9206537
_publ_section_title
;
Structure prediction by ZEFSAII (Michael W. Deem and Ramdas Pophale) SiO2 
 PCOD9206537
Probable space group: C 2/M
;
_chemical_formula_sum "Si O2"
_cell_formula_units_Z 36
_cell_length_a 22.696424
_cell_length_b 12.821056
_cell_length_c 9.704025
_cell_angle_alpha 90.000000
_cell_angle_beta 143.420607
_cell_angle_gamma 90.000000
_cell_volume 1682.801269
_symmetry_space_group_name_H-M "C 2/M"
_symmetry_group_IT_number 12
_symmetry_cell_setting 'monoclinic'
loop_
_space_group_symop_operation_xyz
x,y,z
-x,y,-z
-x,-y,-z
x,-y,z
1/2+x,1/2+y,z
1/2-x,1/2+y,-z
1/2-x,1/2-y,-z
1/2+x,1/2-y,z
loop_
_atom_site_type_symbol
_atom_site_label
_atom_site_fract_x
_atom_site_fract_y
_atom_site_fract_z
Si Si1 0.000000 0.278062 0.000000
Si Si2 0.827558 0.119168 0.589994
Si Si3 0.354277 0.170949 0.947213
Si Si4 0.104671 0.381994 0.676443
Si Si5 0.276883 0.619405 0.805888
O O1 0.083801 0.201958 0.224123
O O2 0.054520 0.346518 0.985361
O O3 0.746843 0.147215 0.323833
O O4 0.768543 0.119999 0.625161
O O5 0.864360 0.000000 0.639666
O O6 0.359640 0.294863 0.990176
O O7 0.352850 0.115153 0.090207
O O8 0.084808 0.500000 0.588343
O O9 0.181911 0.340790 0.711361
O O10 0.000000 0.326492 0.500000
O O11 0.297845 0.500000 0.887497
#
# Coordination Sequence:
#
# PCOD9206537 Si02
#       5
#     4   8   8   8   8
#     4  10  21  36  59  88 118 150 187 232 291 340
#     4  10  21  38  61  86 117 151 189 235 285 340
#     4  11  22  36  61  86 114 148 195 236 278 339
#     4  10  22  37  56  81 113 150 190 233 285 336
#     4   9  19  37  57  80 111 148 183 230 286 334
#
# _framework density 21.392901999999999
#
# number of rings (size 3 to 8) (size 9 to 14) (size 15 to 20)
#    0.000    2.000    0.000    4.333    6.222    0.889 
#    0.000    1.111    0.000    0.667    0.000    0.000 
#    0.000    0.000    0.000    0.000    0.000    0.000 
#
# Total GULP energy -100357.127949 kJ/mol
# GULP energy per Si atom -5575.395997 kJ/mol
# Density = 2.134421 g / cm^3
# Si number density = 21.392902 Si / 1000 Ang^3
#
#
#
# Elastic Constant Matrix: (Units=GPa)
#
#
# Indices 1 2 3 4 5 6 
#
# 1 106.4533 -9.6242 25.8379 0.0000 9.4243 0.0000
# 2 -9.6242 51.3341 -7.0498 0.0000 -7.5293 0.0000
# 3 25.8379 -7.0498 91.3570 0.0000 -3.8425 0.0000
# 4 0.0000 0.0000 0.0000 16.7970 0.0000 -4.5860
# 5 9.4243 -7.5293 -3.8425 0.0000 16.8443 0.0000
# 6 0.0000 0.0000 0.0000 -4.5860 0.0000 2.1991
#
#
#
# Elastic Compliance Matrix: (Units=1/GPa)
#
#
# Indices 1 2 3 4 5 6 
#
# 1 0.010826 0.000620 -0.003289 0.000000 -0.006530 0.000000
# 2 0.000620 0.021258 0.001868 0.000000 0.009582 0.000000
# 3 -0.003289 0.001868 0.012250 0.000000 0.005470 0.000000
# 4 0.000000 0.000000 0.000000 0.138251 0.000000 0.288313
# 5 -0.006530 0.009582 0.005470 0.000000 0.068551 0.000000
# 6 0.000000 0.000000 0.000000 0.288313 0.000000 1.055989
#
#
# Mechanical properties :
#
#
# Convention : Reuss Voigt Hill
#
# Bulk Modulus (GPa) = 23.40044 29.71913 26.55979
# Shear Modulus (GPa) = 3.77937 23.16678 13.47308
#
# Velocity S-wave (km/s) = 1.33059 3.29434 2.51229
# Velocity P-wave (km/s) = 3.65004 5.32846 4.56702
#
# Compressibility (1/GPa) = 0.04273423
#
# Stress axis : x y z
#
# Youngs Moduli (GPa) = 92.36853 47.04018 81.63003
#
# Poissons Ratio (x) = -0.02918 0.26846
# Poissons Ratio (y) = -0.05729 -0.15249
# Poissons Ratio (z) = 0.30377 -0.08787
#
# Static dielectric constant tensor:
#      x y z
#    x 1.868410 0.000000 0.024330 
#    y 0.000000 1.855980 0.000000 
#    z 0.024330 0.000000 1.783730 
# 
# From -- ./inp_files/58431.got.cif
#   From: 2010.05.17/outbox.cif.g08.bks.cpg/sg12_30_cif.got.tgz:58431.got - 2010.06.03 13:09:07.
