data_PCOD9206722
_publ_section_title
;
Structure prediction by ZEFSAII (Michael W. Deem and Ramdas Pophale) SiO2 
 PCOD9206722
Probable space group: C 2/M
;
_chemical_formula_sum "Si O2"
_cell_formula_units_Z 56
_cell_length_a 14.802213
_cell_length_b 29.896954
_cell_length_c 12.256800
_cell_angle_alpha 90.000000
_cell_angle_beta 29.509440
_cell_angle_gamma 90.000000
_cell_volume 2671.750890
_symmetry_space_group_name_H-M "C 2/M"
_symmetry_group_IT_number 12
_symmetry_cell_setting 'monoclinic'
loop_
_space_group_symop_operation_xyz
x,y,z
-x,y,-z
-x,-y,-z
x,-y,z
1/2+x,1/2+y,z
1/2-x,1/2+y,-z
1/2-x,1/2-y,-z
1/2+x,1/2-y,z
loop_
_atom_site_type_symbol
_atom_site_label
_atom_site_fract_x
_atom_site_fract_y
_atom_site_fract_z
Si Si1 0.821599 0.815417 0.909411
Si Si2 0.007718 0.735013 0.368138
Si Si3 0.783869 0.610050 0.699725
Si Si4 0.378559 0.297213 0.220949
Si Si5 0.145000 0.446530 0.584894
Si Si6 0.581946 0.551262 0.525693
Si Si7 0.772482 0.083804 0.997974
O O1 0.892470 0.783068 0.739818
O O2 0.793746 0.867465 0.920214
O O3 0.983124 0.808900 0.828101
O O4 0.635045 0.795853 0.158235
O O5 0.000000 0.719025 0.500000
O O6 0.795907 0.731196 0.558638
O O7 0.696934 0.656719 0.752909
O O8 0.771670 0.576530 0.610507
O O9 0.000000 0.615817 0.500000
O O10 0.700331 0.591741 0.900753
O O11 0.500000 0.273640 0.000000
O O12 0.168661 0.500000 0.554222
O O13 0.244667 0.429242 0.590414
O O14 0.930449 0.434783 0.808556
O O15 0.500000 0.571483 0.500000
O O16 0.632215 0.500000 0.445233
O O17 0.422097 0.552984 0.783937
#
# Coordination Sequence:
#
# PCOD9206722 Si02
#       7
#     8   8   8   8   8   8   8
#     4  11  24  37  60  88 116 158 202 244 304 356
#     4  11  22  40  58  84 120 153 199 254 297 358
#     4  10  21  36  61  91 124 153 194 244 303 369
#     4  12  20  36  63  86 116 162 199 240 299 365
#     4  10  22  38  61  92 123 156 197 248 304 359
#     4  10  23  41  61  85 116 160 209 248 290 350
#     4  11  21  38  60  89 120 157 197 247 302 358
#
# _framework density 20.960038999999998
#
# number of rings (size 3 to 8) (size 9 to 14) (size 15 to 20)
#    0.000    1.286    2.857    3.857    0.000    4.286 
#    0.000    3.571    0.000    1.714    0.000    0.000 
#    0.000    0.000    0.000    0.000    0.000    0.000 
#
# Total GULP energy -156350.384043 kJ/mol
# GULP energy per Si atom -5583.942287 kJ/mol
# Density = 2.091233 g / cm^3
# Si number density = 20.960039 Si / 1000 Ang^3
#
#
#
# Elastic Constant Matrix: (Units=GPa)
#
#
# Indices 1 2 3 4 5 6 
#
# 1 83.2971 2.2539 19.5966 -0.0001 -2.0255 -0.0001
# 2 2.2539 64.2348 10.8938 0.0000 2.4021 0.0000
# 3 19.5966 10.8938 96.8683 -0.0003 -14.2486 -0.0003
# 4 -0.0001 0.0000 -0.0003 38.8723 0.0002 -9.6036
# 5 -2.0255 2.4021 -14.2486 0.0002 27.1796 0.0002
# 6 -0.0001 0.0000 -0.0003 -9.6036 0.0002 20.6575
#
#
#
# Elastic Compliance Matrix: (Units=1/GPa)
#
#
# Indices 1 2 3 4 5 6 
#
# 1 0.012610 0.000018 -0.002617 0.000000 -0.000434 0.000000
# 2 0.000018 0.016033 -0.002183 0.000000 -0.002560 0.000000
# 3 -0.002617 -0.002183 0.012025 0.000000 0.006302 0.000000
# 4 0.000000 0.000000 0.000000 0.029063 0.000000 0.013511
# 5 -0.000434 -0.002560 0.006302 0.000000 0.040290 0.000000
# 6 0.000000 0.000000 0.000000 0.013511 0.000000 0.054690
#
#
# Mechanical properties :
#
#
# Convention : Reuss Voigt Hill
#
# Bulk Modulus (GPa) = 32.15084 34.43208 33.29146
# Shear Modulus (GPa) = 27.07908 31.45227 29.26567
#
# Velocity S-wave (km/s) = 3.59825 3.87794 3.74071
# Velocity P-wave (km/s) = 5.71276 6.04271 5.88005
#
# Compressibility (1/GPa) = 0.03110338
#
# Stress axis : x y z
#
# Youngs Moduli (GPa) = 79.30333 62.37025 83.15886
#
# Poissons Ratio (x) = -0.00109 0.21760
# Poissons Ratio (y) = -0.00139 0.18156
# Poissons Ratio (z) = 0.20752 0.13617
#
# Static dielectric constant tensor:
#      x y z
#    x 1.836050 0.000000 -0.017580 
#    y 0.000000 1.753820 0.000000 
#    z -0.017580 0.000000 1.760230 
# 
# From -- ./inp_files/150442.got.cif
#   From: 2010.05.17/outbox.cif.g08.bks.cpg/sg12_76_cif.got.tgz:150442.got - 2010.06.03 13:09:07.
