data_PCOD9206275
_publ_section_title
;
Structure prediction by ZEFSAII (Michael W. Deem and Ramdas Pophale) SiO2 
 PCOD9206275
Probable space group: C 2/M
;
_chemical_formula_sum "Si O2"
_cell_formula_units_Z 58
_cell_length_a 22.035534
_cell_length_b 13.844440
_cell_length_c 18.142004
_cell_angle_alpha 90.000000
_cell_angle_beta 25.388454
_cell_angle_gamma 90.000000
_cell_volume 2372.965875
_symmetry_space_group_name_H-M "C 2/M"
_symmetry_group_IT_number 12
_symmetry_cell_setting 'monoclinic'
loop_
_space_group_symop_operation_xyz
x,y,z
-x,y,-z
-x,-y,-z
x,-y,z
1/2+x,1/2+y,z
1/2-x,1/2+y,-z
1/2-x,1/2-y,-z
1/2+x,1/2-y,z
loop_
_atom_site_type_symbol
_atom_site_label
_atom_site_fract_x
_atom_site_fract_y
_atom_site_fract_z
Si Si1 0.067274 0.171390 0.353573
Si Si2 0.000000 0.500000 0.500000
Si Si3 0.643701 0.163243 0.453282
Si Si4 0.159622 0.229605 0.878110
Si Si5 0.488474 0.883440 0.143709
Si Si6 0.242617 0.114773 0.511575
Si Si7 0.772081 0.608641 0.007532
Si Si8 0.431032 0.383814 0.888818
O O1 0.190395 0.238591 0.251864
O O2 0.146031 0.108110 0.206312
O O3 0.000000 0.121776 0.500000
O O4 0.952421 0.240892 0.442881
O O5 0.934075 0.584685 0.514827
O O6 0.795314 0.189501 0.250027
O O7 0.674297 0.131652 0.503129
O O8 0.060446 0.322242 0.000498
O O9 0.094919 0.146218 0.999391
O O10 0.332425 0.854428 0.341522
O O11 0.496509 0.000000 0.122804
O O12 0.590019 0.856554 0.101536
O O13 0.082688 0.151780 0.693698
O O14 0.232152 0.000000 0.514897
O O15 0.810969 0.500000 0.942487
O O16 0.701182 0.655505 0.014138
O O17 0.429953 0.500000 0.883796
#
# Coordination Sequence:
#
# PCOD9206275 Si02
#       8
#     8   2   8   8   8   8   8   8
#     4   9  19  35  54  85 116 142 191 247 283 345
#     4  12  20  36  60  86 122 160 192 244 292 370
#     4  11  22  36  57  87 117 156 198 236 298 352
#     4  10  21  36  57  84 118 153 192 243 293 347
#     4   9  20  38  62  88 113 149 199 251 292 348
#     4  10  22  39  58  84 120 156 197 242 294 355
#     4   9  19  36  58  85 114 150 192 237 294 347
#     4  10  23  37  54  85 122 155 188 236 297 355
#
# _framework density 24.441987000000001
#
# number of rings (size 3 to 8) (size 9 to 14) (size 15 to 20)
#    0.000    2.207    2.759    0.000    4.828    2.483 
#    2.483    3.448    0.000    0.000    0.000    1.931 
#    0.000    0.552    0.000    0.000    0.000    0.000 
#
# Total GULP energy -161798.266697 kJ/mol
# GULP energy per Si atom -5579.250576 kJ/mol
# Density = 2.438636 g / cm^3
# Si number density = 24.441987 Si / 1000 Ang^3
#
#
#
# Elastic Constant Matrix: (Units=GPa)
#
#
# Indices 1 2 3 4 5 6 
#
# 1 84.3832 10.4611 20.7792 -0.0008 -20.8398 -0.0014
# 2 10.4611 84.2293 9.1609 -0.0010 0.6785 -0.0019
# 3 20.7792 9.1609 135.2381 -0.0025 7.4407 -0.0049
# 4 -0.0008 -0.0010 -0.0025 357.7797 0.0016 652.3398
# 5 -20.8398 0.6785 7.4407 0.0016 30.2298 0.0029
# 6 -0.0014 -0.0019 -0.0049 652.3398 0.0029 1274.9961
#
#
#
# Elastic Compliance Matrix: (Units=1/GPa)
#
#
# Indices 1 2 3 4 5 6 
#
# 1 0.015631 -0.001717 -0.002920 0.000000 0.011533 0.000000
# 2 -0.001717 0.012149 -0.000486 0.000000 -0.001337 0.000000
# 3 -0.002920 -0.000486 0.008096 0.000000 -0.003995 0.000000
# 4 0.000000 0.000000 0.000000 0.041639 0.000000 -0.021304
# 5 0.011533 -0.001337 -0.003995 0.000000 0.042044 0.000000
# 6 0.000000 0.000000 0.000000 -0.021304 0.000000 0.011684
#
#
# Mechanical properties :
#
#
# Convention : Reuss Voigt Hill
#
# Bulk Modulus (GPa) = 39.01500 42.73924 40.87712
# Shear Modulus (GPa) = 33.32660 350.16441 191.74550
#
# Velocity S-wave (km/s) = 3.69656 11.98226 8.86677
# Velocity P-wave (km/s) = 5.84948 14.45533 11.02663
#
# Compressibility (1/GPa) = 0.02563117
#
# Stress axis : x y z
#
# Youngs Moduli (GPa) = 63.97652 82.31033 123.52255
#
# Poissons Ratio (x) = 0.14130 0.36067
# Poissons Ratio (y) = 0.10982 0.05999
# Poissons Ratio (z) = 0.18680 0.03998
#
# Static dielectric constant tensor:
#      x y z
#    x 1.961240 0.000000 -0.007040 
#    y 0.000000 1.928650 0.000000 
#    z -0.007040 0.000000 1.940870 
# 
# From -- ./inp_files/328377.got.cif
#   From: 2010.05.17/outbox.cif.g08.bks.cpg/sg12_165_cif.got.tgz:328377.got - 2010.06.03 13:09:07.
