data_PCOD9206484
_publ_section_title
;
Structure prediction by ZEFSAII (Michael W. Deem and Ramdas Pophale) SiO2 
 PCOD9206484
Probable space group: C 2/M
;
_chemical_formula_sum "Si O2"
_cell_formula_units_Z 48
_cell_length_a 19.637390
_cell_length_b 13.743202
_cell_length_c 15.363191
_cell_angle_alpha 90.000000
_cell_angle_beta 142.498251
_cell_angle_gamma 90.000000
_cell_volume 2524.163773
_symmetry_space_group_name_H-M "C 2/M"
_symmetry_group_IT_number 12
_symmetry_cell_setting 'monoclinic'
loop_
_space_group_symop_operation_xyz
x,y,z
-x,y,-z
-x,-y,-z
x,-y,z
1/2+x,1/2+y,z
1/2-x,1/2+y,-z
1/2-x,1/2-y,-z
1/2+x,1/2-y,z
loop_
_atom_site_type_symbol
_atom_site_label
_atom_site_fract_x
_atom_site_fract_y
_atom_site_fract_z
Si Si1 0.515860 0.889021 0.421176
Si Si2 0.339216 0.891013 0.096693
Si Si3 0.074742 0.886592 0.161227
Si Si4 0.087702 0.180000 0.851640
Si Si5 0.048914 0.114232 0.452427
Si Si6 0.282061 0.235077 0.431964
O O1 0.500000 0.843551 0.500000
O O2 0.400364 0.889658 0.252048
O O3 0.612519 0.837140 0.466009
O O4 0.552505 0.000000 0.471096
O O5 0.390925 0.794244 0.104879
O O6 0.358882 0.000000 0.079445
O O7 0.207924 0.871796 0.973377
O O8 0.180064 0.814975 0.277673
O O9 0.995843 0.866973 0.164142
O O10 0.110698 0.000000 0.196902
O O11 0.000000 0.869014 0.000000
O O12 0.033678 0.164134 0.701678
O O13 0.168269 0.167087 0.560679
O O14 0.000000 0.122684 0.500000
O O15 0.057039 0.000000 0.439670
O O16 0.250000 0.250000 0.500000
#
# Coordination Sequence:
#
# PCOD9206484 Si02
#       6
#     8   8   8   8   8   8
#     4  10  21  36  58  91 123 154 198 259 319 372
#     4  10  21  36  61  90 120 160 205 256 321 382
#     4  11  25  42  64  95 130 170 214 264 328 393
#     4  11  22  40  62  89 127 168 210 267 321 383
#     4  11  24  42  64  92 126 171 222 267 317 382
#     4  12  23  39  62  91 128 171 208 262 319 382
#
# _framework density 19.016197999999999
#
# number of rings (size 3 to 8) (size 9 to 14) (size 15 to 20)
#    0.000    1.167    3.333    2.500    2.333    2.000 
#    0.000    0.833    0.000    1.000    0.000    0.000 
#    0.000    0.000    0.000    0.000    0.000    0.000 
#
# Total GULP energy -133958.121578 kJ/mol
# GULP energy per Si atom -5581.588399 kJ/mol
# Density = 1.897292 g / cm^3
# Si number density = 19.016198 Si / 1000 Ang^3
#
#
#
# Elastic Constant Matrix: (Units=GPa)
#
#
# Indices 1 2 3 4 5 6 
#
# 1 101.4954 31.2523 49.1326 0.0000 0.4020 0.0000
# 2 31.2523 151.7540 41.2438 0.0000 12.0208 0.0000
# 3 49.1326 41.2438 123.2314 0.0000 15.9369 0.0000
# 4 0.0000 0.0000 0.0000 33.7699 0.0000 4.5288
# 5 0.4020 12.0208 15.9369 0.0000 24.0470 0.0000
# 6 0.0000 0.0000 0.0000 4.5288 0.0000 6.5127
#
#
#
# Elastic Compliance Matrix: (Units=1/GPa)
#
#
# Indices 1 2 3 4 5 6 
#
# 1 0.012777 -0.001562 -0.005080 0.000000 0.003934 0.000000
# 2 -0.001562 0.007548 -0.001552 0.000000 -0.002719 0.000000
# 3 -0.005080 -0.001552 0.011537 0.000000 -0.006786 0.000000
# 4 0.000000 0.000000 0.000000 0.032658 0.000000 -0.022709
# 5 0.003934 -0.002719 -0.006786 0.000000 0.047376 0.000000
# 6 0.000000 0.000000 0.000000 -0.022709 0.000000 0.169337
#
#
# Mechanical properties :
#
#
# Convention : Reuss Voigt Hill
#
# Bulk Modulus (GPa) = 64.62358 68.85979 66.74169
# Shear Modulus (GPa) = 16.51363 29.85607 23.18485
#
# Velocity S-wave (km/s) = 2.95006 3.96666 3.49552
# Velocity P-wave (km/s) = 6.75729 7.56763 7.17391
#
# Compressibility (1/GPa) = 0.01547423
#
# Stress axis : x y z
#
# Youngs Moduli (GPa) = 78.26281 132.47695 86.67557
#
# Poissons Ratio (x) = 0.20697 0.44034
# Poissons Ratio (y) = 0.12227 0.13451
# Poissons Ratio (z) = 0.39760 0.20559
#
# Static dielectric constant tensor:
#      x y z
#    x 1.610020 0.000000 -0.006010 
#    y 0.000000 1.725870 0.000000 
#    z -0.006010 0.000000 1.649190 
# 
# From -- ./inp_files/225469.got.cif
#   From: 2010.05.17/outbox.cif.g08.bks.cpg/sg12_113_cif.got.tgz:225469.got - 2010.06.03 13:09:07.
