data_PCOD9206493
_publ_section_title
;
Structure prediction by ZEFSAII (Michael W. Deem and Ramdas Pophale) SiO2 
 PCOD9206493
Probable space group: C 2/M
;
_chemical_formula_sum "Si O2"
_cell_formula_units_Z 42
_cell_length_a 12.253403
_cell_length_b 13.328021
_cell_length_c 11.016150
_cell_angle_alpha 90.000000
_cell_angle_beta 86.552216
_cell_angle_gamma 90.000000
_cell_volume 1795.830940
_symmetry_space_group_name_H-M "C 2/M"
_symmetry_group_IT_number 12
_symmetry_cell_setting 'monoclinic'
loop_
_space_group_symop_operation_xyz
x,y,z
-x,y,-z
-x,-y,-z
x,-y,z
1/2+x,1/2+y,z
1/2-x,1/2+y,-z
1/2-x,1/2-y,-z
1/2+x,1/2-y,z
loop_
_atom_site_type_symbol
_atom_site_label
_atom_site_fract_x
_atom_site_fract_y
_atom_site_fract_z
Si Si1 0.818084 0.115742 0.436026
Si Si2 0.932440 0.611980 0.628729
Si Si3 0.344767 0.806631 0.069449
Si Si4 0.300748 0.614348 0.708676
Si Si5 0.500000 0.000000 0.000000
Si Si6 0.514413 0.297402 0.767207
O O1 0.695222 0.114122 0.394184
O O2 0.816253 0.158679 0.572687
O O3 0.898794 0.171252 0.340720
O O4 0.856783 0.000000 0.441495
O O5 0.961326 0.500000 0.671966
O O6 0.000000 0.628842 0.500000
O O7 0.961549 0.692721 0.726871
O O8 0.289131 0.837172 0.201129
O O9 0.404092 0.907623 0.014885
O O10 0.430141 0.722765 0.108947
O O11 0.250000 0.750000 0.000000
O O12 0.267808 0.500000 0.690827
O O13 0.415786 0.624398 0.769059
#
# Coordination Sequence:
#
# PCOD9206493 Si02
#       6
#     8   8   8   8   2   8
#     4  10  22  41  67 107 153 191 230 291 378 475
#     4  10  21  36  58  94 140 189 236 282 346 436
#     4  12  28  52  75 109 141 197 266 324 391 452
#     4  11  23  44  72 104 147 190 239 300 381 467
#     4  12  28  56  84 104 152 204 258 348 386 436
#     4  12  24  41  70 106 146 186 240 302 375 462
#
# _framework density 23.387502999999999
#
# number of rings (size 3 to 8) (size 9 to 14) (size 15 to 20)
#    0.000    0.952    0.952    5.714    1.333    5.333 
#    6.857    0.952    0.000    0.000    0.000    0.000 
#    0.000    0.000    0.000    0.000    0.000    0.000 
#
# Total GULP energy -117318.874044 kJ/mol
# GULP energy per Si atom -5586.613050 kJ/mol
# Density = 2.333427 g / cm^3
# Si number density = 23.387503 Si / 1000 Ang^3
#
#
#
# Elastic Constant Matrix: (Units=GPa)
#
#
# Indices 1 2 3 4 5 6 
#
# 1 120.0740 17.3200 44.0127 0.0000 -1.2654 0.0000
# 2 17.3200 105.1040 40.4236 0.0000 2.3002 0.0000
# 3 44.0127 40.4236 95.1019 0.0000 -11.0562 0.0000
# 4 0.0000 0.0000 0.0000 15.5417 0.0000 -9.6021
# 5 -1.2654 2.3002 -11.0562 0.0000 51.3841 0.0000
# 6 0.0000 0.0000 0.0000 -9.6021 0.0000 44.5785
#
#
#
# Elastic Compliance Matrix: (Units=1/GPa)
#
#
# Indices 1 2 3 4 5 6 
#
# 1 0.010064 0.000223 -0.004846 0.000000 -0.000805 0.000000
# 2 0.000223 0.011507 -0.005183 0.000000 -0.001625 0.000000
# 3 -0.004846 -0.005183 0.015358 0.000000 0.003417 0.000000
# 4 0.000000 0.000000 0.000000 0.074220 0.000000 0.015987
# 5 -0.000805 -0.001625 0.003417 0.000000 0.020249 0.000000
# 6 0.000000 0.000000 0.000000 0.015987 0.000000 0.025876
#
#
# Mechanical properties :
#
#
# Convention : Reuss Voigt Hill
#
# Bulk Modulus (GPa) = 57.74796 58.19916 57.97356
# Shear Modulus (GPa) = 27.37356 36.86911 32.12133
#
# Velocity S-wave (km/s) = 3.42487 3.97475 3.71002
# Velocity P-wave (km/s) = 6.35493 6.78260 6.57224
#
# Compressibility (1/GPa) = 0.01731663
#
# Stress axis : x y z
#
# Youngs Moduli (GPa) = 99.36644 86.90644 65.11269
#
# Poissons Ratio (x) = -0.01937 0.31552
# Poissons Ratio (y) = -0.02215 0.33748
# Poissons Ratio (z) = 0.48151 0.45044
#
# Static dielectric constant tensor:
#      x y z
#    x 1.915530 0.000000 0.018170 
#    y 0.000000 1.885860 0.000000 
#    z 0.018170 0.000000 1.902330 
# 
# From -- ./inp_files/129679.got.cif
#   From: 2010.05.17/outbox.cif.g08.bks.cpg/sg12_65_cif.got.tgz:129679.got - 2010.06.03 13:09:07.
