data_PCOD9206587
_publ_section_title
;
Structure prediction by ZEFSAII (Michael W. Deem and Ramdas Pophale) SiO2 
 PCOD9206587
Probable space group: C 2/M
;
_chemical_formula_sum "Si O2"
_cell_formula_units_Z 58
_cell_length_a 29.781136
_cell_length_b 7.691510
_cell_length_c 27.151980
_cell_angle_alpha 90.000000
_cell_angle_beta 25.481884
_cell_angle_gamma 90.000000
_cell_volume 2675.781928
_symmetry_space_group_name_H-M "C 2/M"
_symmetry_group_IT_number 12
_symmetry_cell_setting 'monoclinic'
loop_
_space_group_symop_operation_xyz
x,y,z
-x,y,-z
-x,-y,-z
x,-y,z
1/2+x,1/2+y,z
1/2-x,1/2+y,-z
1/2-x,1/2-y,-z
1/2+x,1/2-y,z
loop_
_atom_site_type_symbol
_atom_site_label
_atom_site_fract_x
_atom_site_fract_y
_atom_site_fract_z
Si Si1 0.500000 0.500000 0.000000
Si Si2 0.875979 0.301668 0.481631
Si Si3 0.351372 0.708843 0.868408
Si Si4 0.652631 0.197093 0.699467
Si Si5 0.286709 0.708815 0.825533
Si Si6 0.548305 0.788965 0.036808
Si Si7 0.979311 0.704847 0.574633
Si Si8 0.926618 0.799217 0.322874
O O1 0.471717 0.655569 0.987504
O O2 0.910051 0.500000 0.439477
O O3 0.754154 0.300621 0.616004
O O4 0.886864 0.210569 0.418141
O O5 0.947850 0.223214 0.453507
O O6 0.363368 0.500000 0.853402
O O7 0.334411 0.774773 0.829797
O O8 0.456170 0.775206 0.790209
O O9 0.250000 0.750000 0.000000
O O10 0.542934 0.245722 0.832916
O O11 0.639875 0.207664 0.653199
O O12 0.674614 0.000000 0.692265
O O13 0.295759 0.500000 0.816333
O O14 0.359616 0.776089 0.709545
O O15 0.164602 0.748180 0.941908
O O16 0.544615 0.000000 0.028768
O O17 0.005979 0.500000 0.545803
O O18 0.000000 0.779328 0.500000
O O19 0.929160 0.000000 0.304846
#
# Coordination Sequence:
#
# PCOD9206587 Si02
#       8
#     2   8   8   8   8   8   8   8
#     4  12  26  44  76  94 134 184 222 284 342 392
#     4  11  23  40  63  94 134 174 220 275 330 399
#     4  10  21  36  59  92 129 170 211 263 323 394
#     4  11  24  43  66  92 134 174 219 276 332 401
#     4  10  21  42  66  93 133 168 214 271 327 398
#     4  10  25  46  69 103 135 174 227 282 341 404
#     4  10  23  42  64  95 130 168 219 275 330 393
#     4  11  22  38  62  93 131 172 222 266 327 404
#
# _framework density 21.675906000000001
#
# number of rings (size 3 to 8) (size 9 to 14) (size 15 to 20)
#    0.000    1.517    1.379    2.690    2.897    4.690 
#    2.483    1.379    0.000    0.000    0.000    0.000 
#    0.000    0.000    0.000    0.000    0.000    0.000 
#
# Total GULP energy -161741.070941 kJ/mol
# GULP energy per Si atom -5577.278308 kJ/mol
# Density = 2.162657 g / cm^3
# Si number density = 21.675906 Si / 1000 Ang^3
#
#
#
# Elastic Constant Matrix: (Units=GPa)
#
#
# Indices 1 2 3 4 5 6 
#
# 1 81.2913 14.3683 29.8565 0.0513 -7.7164 -0.1607
# 2 14.3683 54.2662 -5.4321 -0.0336 -5.1476 -0.0867
# 3 29.8565 -5.4321 107.9536 0.0153 -20.5932 -0.0506
# 4 0.0513 -0.0336 0.0153 34.0600 0.0329 -15.3717
# 5 -7.7164 -5.1476 -20.5932 0.0329 22.1227 -0.0585
# 6 -0.1607 -0.0867 -0.0506 -15.3717 -0.0585 72.7018
#
#
#
# Elastic Compliance Matrix: (Units=1/GPa)
#
#
# Indices 1 2 3 4 5 6 
#
# 1 0.014627 -0.004280 -0.004228 -0.000015 0.000170 0.000021
# 2 -0.004280 0.020524 0.003456 0.000032 0.006500 0.000029
# 3 -0.004228 0.003456 0.012741 -0.000001 0.011190 0.000012
# 4 -0.000015 0.000032 -0.000001 0.032457 -0.000029 0.006863
# 5 0.000170 0.006500 0.011190 -0.000029 0.057191 0.000056
# 6 0.000021 0.000029 0.000012 0.006863 0.000056 0.015206
#
#
# Mechanical properties :
#
#
# Convention : Reuss Voigt Hill
#
# Bulk Modulus (GPa) = 26.46338 35.67739 31.07039
# Shear Modulus (GPa) = 28.49891 39.42479 33.96185
#
# Velocity S-wave (km/s) = 3.62991 4.26940 3.96258
# Velocity P-wave (km/s) = 5.45926 6.38740 5.94148
#
# Compressibility (1/GPa) = 0.03778806
#
# Stress axis : x y z
#
# Youngs Moduli (GPa) = 68.36629 48.72452 78.48599
#
# Poissons Ratio (x) = 0.20854 0.33186
# Poissons Ratio (y) = 0.29261 -0.27128
# Poissons Ratio (z) = 0.28907 -0.16841
#
# Static dielectric constant tensor:
#      x y z
#    x 1.777380 -0.000020 -0.009890 
#    y -0.000020 1.784620 0.000030 
#    z -0.009890 0.000030 1.789180 
# 
# From -- ./inp_files/351414.got.cif
#   From: 2010.05.17/outbox.cif.g08.bks.cpg/sg12_176_cif.got.tgz:351414.got - 2010.06.03 13:09:07.
