data_PCOD9206828
_publ_section_title
;
Structure prediction by ZEFSAII (Michael W. Deem and Ramdas Pophale) SiO2 
 PCOD9206828
Probable space group: C 2/M
;
_chemical_formula_sum "Si O2"
_cell_formula_units_Z 50
_cell_length_a 14.034414
_cell_length_b 26.873769
_cell_length_c 7.620435
_cell_angle_alpha 90.000000
_cell_angle_beta 124.662703
_cell_angle_gamma 90.000000
_cell_volume 2363.992851
_symmetry_space_group_name_H-M "C 2/M"
_symmetry_group_IT_number 12
_symmetry_cell_setting 'monoclinic'
loop_
_space_group_symop_operation_xyz
x,y,z
-x,y,-z
-x,-y,-z
x,-y,z
1/2+x,1/2+y,z
1/2-x,1/2+y,-z
1/2-x,1/2-y,-z
1/2+x,1/2-y,z
loop_
_atom_site_type_symbol
_atom_site_label
_atom_site_fract_x
_atom_site_fract_y
_atom_site_fract_z
Si Si1 0.000000 0.871479 0.000000
Si Si2 0.763751 0.825327 0.639371
Si Si3 0.000000 0.764966 0.500000
Si Si4 0.042037 0.690411 0.847179
Si Si5 0.500000 0.500000 0.500000
Si Si6 0.890535 0.401002 0.286517
Si Si7 0.849048 0.054242 0.074343
Si Si8 0.743947 0.711634 0.744466
O O1 0.071556 0.905997 0.941035
O O2 0.898625 0.840324 0.799566
O O3 0.681516 0.863920 0.657276
O O4 0.755462 0.769440 0.704965
O O5 0.727742 0.821221 0.397413
O O6 0.013328 0.728416 0.347436
O O7 0.888660 0.797506 0.351495
O O8 0.042064 0.634677 0.778678
O O9 0.178082 0.701669 0.007596
O O10 0.000000 0.698384 0.000000
O O11 0.409080 0.542621 0.324221
O O12 0.000000 0.427027 0.500000
O O13 0.786554 0.430900 0.082431
O O14 0.859991 0.000000 0.992293
#
# Coordination Sequence:
#
# PCOD9206828 Si02
#       8
#     4   8   4   8   2   8   8   8
#     4  10  21  36  68  98 124 160 222 260 325 386
#     4  10  22  38  58  93 126 170 216 276 307 383
#     4  12  24  40  57  84 125 174 219 282 305 374
#     4  12  24  39  62  84 124 178 216 269 321 369
#     4   8  20  42  60  92 122 158 196 252 336 386
#     4  11  21  40  63  93 129 162 214 261 326 396
#     4   9  21  41  69  93 125 161 195 272 335 393
#     4  11  23  37  58  85 127 175 223 256 326 355
#
# _framework density 21.150656000000001
#
# number of rings (size 3 to 8) (size 9 to 14) (size 15 to 20)
#    0.480    0.960    2.400    3.600    3.360    2.880 
#    0.000    0.000    0.000    0.480    0.000    0.000 
#    0.000    0.000    0.000    0.000    0.000    0.000 
#
# Total GULP energy -139204.308458 kJ/mol
# GULP energy per Si atom -5568.172338 kJ/mol
# Density = 2.110252 g / cm^3
# Si number density = 21.150656 Si / 1000 Ang^3
#
#
#
# Elastic Constant Matrix: (Units=GPa)
#
#
# Indices 1 2 3 4 5 6 
#
# 1 72.0822 3.9790 31.4645 0.0000 7.2564 0.0000
# 2 3.9790 34.3318 27.6311 0.0000 5.8792 0.0000
# 3 31.4645 27.6311 168.7570 0.0000 37.0389 0.0000
# 4 0.0000 0.0000 0.0000 40.1661 0.0000 7.9966
# 5 7.2564 5.8792 37.0389 0.0000 43.6019 0.0000
# 6 0.0000 0.0000 0.0000 7.9966 0.0000 5.8006
#
#
#
# Elastic Compliance Matrix: (Units=1/GPa)
#
#
# Indices 1 2 3 4 5 6 
#
# 1 0.015113 0.000594 -0.002883 0.000000 -0.000146 0.000000
# 2 0.000594 0.033573 -0.005645 0.000000 0.000170 0.000000
# 3 -0.002883 -0.005645 0.008746 0.000000 -0.006188 0.000000
# 4 0.000000 0.000000 0.000000 0.034315 0.000000 -0.047306
# 5 -0.000146 0.000170 -0.006188 0.000000 0.028193 0.000000
# 6 0.000000 0.000000 0.000000 -0.047306 0.000000 0.237611
#
#
# Mechanical properties :
#
#
# Convention : Reuss Voigt Hill
#
# Bulk Modulus (GPa) = 24.05947 44.59113 34.32530
# Shear Modulus (GPa) = 12.91078 32.05347 22.48213
#
# Velocity S-wave (km/s) = 2.47335 3.89714 3.26383
# Velocity P-wave (km/s) = 4.42228 6.43263 5.51975
#
# Compressibility (1/GPa) = 0.04156367
#
# Stress axis : x y z
#
# Youngs Moduli (GPa) = 66.16618 29.78598 114.34205
#
# Poissons Ratio (x) = -0.01768 0.32965
# Poissons Ratio (y) = -0.03928 0.64545
# Poissons Ratio (z) = 0.19076 0.16814
#
# Static dielectric constant tensor:
#      x y z
#    x 1.884770 0.000000 0.046860 
#    y 0.000000 1.755390 0.000000 
#    z 0.046860 0.000000 1.812740 
# 
# From -- ./inp_files/67149.got.cif
#   From: 2010.05.17/outbox.cif.g08.bks.cpg/sg12_34_cif.got.tgz:67149.got - 2010.06.03 13:09:07.
