data_PCOD9206946
_publ_section_title
;
Structure prediction by ZEFSAII (Michael W. Deem and Ramdas Pophale) SiO2 
 PCOD9206946
Probable space group: C 2/M
;
_chemical_formula_sum "Si O2"
_cell_formula_units_Z 64
_cell_length_a 9.826621
_cell_length_b 16.531440
_cell_length_c 28.846008
_cell_angle_alpha 90.000000
_cell_angle_beta 131.643356
_cell_angle_gamma 90.000000
_cell_volume 3501.813129
_symmetry_space_group_name_H-M "C 2/M"
_symmetry_group_IT_number 12
_symmetry_cell_setting 'monoclinic'
loop_
_space_group_symop_operation_xyz
x,y,z
-x,y,-z
-x,-y,-z
x,-y,z
1/2+x,1/2+y,z
1/2-x,1/2+y,-z
1/2-x,1/2-y,-z
1/2+x,1/2-y,z
loop_
_atom_site_type_symbol
_atom_site_label
_atom_site_fract_x
_atom_site_fract_y
_atom_site_fract_z
Si Si1 0.343503 0.402481 0.040859
Si Si2 0.578246 0.091659 0.898968
Si Si3 0.725125 0.361697 0.869702
Si Si4 0.026003 0.592478 0.626357
Si Si5 0.034001 0.258277 0.453326
Si Si6 0.238750 0.826243 0.140761
Si Si7 0.692951 0.405723 0.226949
Si Si8 0.380877 0.410501 0.425793
O O1 0.357701 0.500000 0.043247
O O2 0.260930 0.378185 0.072051
O O3 0.543630 0.364227 0.082112
O O4 0.213476 0.375836 0.969566
O O5 0.377664 0.092145 0.875097
O O6 0.606503 0.140520 0.858427
O O7 0.634695 0.000000 0.901716
O O8 0.762516 0.268924 0.866365
O O9 0.517540 0.384811 0.810932
O O10 0.041626 0.500000 0.611221
O O11 0.181954 0.604522 0.699926
O O12 0.030458 0.663882 0.589954
O O13 0.829521 0.596746 0.607187
O O14 0.250000 0.250000 0.500000
O O15 0.000000 0.269411 0.500000
O O16 0.944008 0.173129 0.416383
O O17 0.260856 0.852667 0.199016
O O18 0.700979 0.500000 0.214406
O O19 0.500000 0.412264 0.500000
O O20 0.407099 0.500000 0.409296
#
# Coordination Sequence:
#
# PCOD9206946 Si02
#       8
#     8   8   8   8   8   8   8   8
#     4  10  21  37  55  78 112 153 188 226 293 369
#     4  11  21  34  57  83 109 143 189 242 291 344
#     4  11  22  36  54  81 113 147 186 236 297 343
#     4  10  21  38  62  88 115 158 203 234 285 352
#     4  11  20  35  60  94 125 154 187 236 290 335
#     4  11  22  36  56  83 109 143 190 243 292 331
#     4  10  22  42  62  77 109 158 198 231 279 352
#     4   9  17  33  58  85 118 156 190 225 275 344
#
# _framework density 18.276246
#
# number of rings (size 3 to 8) (size 9 to 14) (size 15 to 20)
#    0.000    1.625    2.500    5.250    0.000    6.250 
#    0.000    0.000    0.000    0.000    0.000    0.000 
#    0.000    0.000    0.000    0.000    0.000    0.000 
#
# Total GULP energy -178574.612745 kJ/mol
# GULP energy per Si atom -5580.456648 kJ/mol
# Density = 1.823465 g / cm^3
# Si number density = 18.276246 Si / 1000 Ang^3
#
#
#
# Elastic Constant Matrix: (Units=GPa)
#
#
# Indices 1 2 3 4 5 6 
#
# 1 76.4403 22.1172 19.0075 0.0000 -1.1959 0.0000
# 2 22.1172 144.2004 31.7825 0.0000 -14.4688 0.0000
# 3 19.0075 31.7825 68.2129 0.0000 1.7122 0.0000
# 4 0.0000 0.0000 0.0000 -194.7781 0.0000 16.0922
# 5 -1.1959 -14.4688 1.7122 0.0000 11.7151 0.0000
# 6 0.0000 0.0000 0.0000 16.0922 0.0000 40.5957
#
#
#
# Elastic Compliance Matrix: (Units=1/GPa)
#
#
# Indices 1 2 3 4 5 6 
#
# 1 0.014330 -0.001450 -0.003321 0.000000 0.000157 0.000000
# 2 -0.001450 0.009285 -0.004222 0.000000 0.011937 0.000000
# 3 -0.003321 -0.004222 0.017757 0.000000 -0.008149 0.000000
# 4 0.000000 0.000000 0.000000 -0.004971 0.000000 0.001971
# 5 0.000157 0.011937 -0.008149 0.000000 0.101310 0.000000
# 6 0.000000 0.000000 0.000000 0.001971 0.000000 0.023852
#
#
# Mechanical properties :
#
#
# Convention : Reuss Voigt Hill
#
# Bulk Modulus (GPa) = 42.76088 48.29642 45.52865
# Shear Modulus (GPa) = 26.68865 -14.09704 6.29581
#
# Velocity S-wave (km/s) = 3.82552 -2.78030 1.85803
# Velocity P-wave (km/s) = 6.55443 4.02199 5.43769
#
# Compressibility (1/GPa) = 0.02338586
#
# Stress axis : x y z
#
# Youngs Moduli (GPa) = 69.78357 107.69497 56.31538
#
# Poissons Ratio (x) = 0.15617 0.18704
# Poissons Ratio (y) = 0.10119 0.23776
# Poissons Ratio (z) = 0.23178 0.45468
#
# Static dielectric constant tensor:
#      x y z
#    x 1.609090 0.000000 0.006340 
#    y 0.000000 1.665040 0.000000 
#    z 0.006340 0.000000 1.605560 
# 
# From -- ./inp_files/372606.got.cif
#   From: 2010.05.17/outbox.cif.g08.bks.cpg/sg12_187_cif.got.tgz:372606.got - 2010.06.03 13:09:07.
