data_PCOD9206116
_publ_section_title
;
Structure prediction by ZEFSAII (Michael W. Deem and Ramdas Pophale) SiO2 
 PCOD9206116
Probable space group: C 2/M
;
_chemical_formula_sum "Si O2"
_cell_formula_units_Z 56
_cell_length_a 8.964296
_cell_length_b 19.758328
_cell_length_c 20.019541
_cell_angle_alpha 90.000000
_cell_angle_beta 63.398756
_cell_angle_gamma 90.000000
_cell_volume 3170.503317
_symmetry_space_group_name_H-M "C 2/M"
_symmetry_group_IT_number 12
_symmetry_cell_setting 'monoclinic'
loop_
_space_group_symop_operation_xyz
x,y,z
-x,y,-z
-x,-y,-z
x,-y,z
1/2+x,1/2+y,z
1/2-x,1/2+y,-z
1/2-x,1/2-y,-z
1/2+x,1/2-y,z
loop_
_atom_site_type_symbol
_atom_site_label
_atom_site_fract_x
_atom_site_fract_y
_atom_site_fract_z
Si Si1 0.119497 0.677831 0.703416
Si Si2 0.679223 0.579995 1.000000
Si Si3 0.973671 0.177831 0.703416
Si Si4 0.763156 0.920187 0.415597
Si Si5 0.594350 0.920187 0.584403
Si Si6 0.442780 0.823318 0.878517
Si Si7 0.800186 0.823318 0.878517
O O1 0.304927 0.682482 0.695073
O O2 0.109954 0.622244 0.648059
O O3 0.064321 0.750000 0.685679
O O4 0.000417 0.663302 0.790811
O O5 0.714813 0.500000 0.000000
O O6 0.819313 0.618965 0.929120
O O7 0.500000 0.587154 0.000000
O O8 0.677552 0.618965 0.070880
O O9 0.917961 0.163302 0.790811
O O10 0.093927 0.122244 0.648059
O O11 0.722894 0.899403 0.500000
O O12 0.590244 0.911764 0.409756
O O13 0.802581 0.000000 0.408026
O O14 0.618633 0.000000 0.591974
O O15 0.609998 0.820578 0.890002
O O16 0.353097 0.750000 0.896903
#
# Coordination Sequence:
#
# PCOD9206116 Si02
#       7
#     8   8   8   8   8   8   8
#     4  10  21  36  56  82 109 140 179 222 268 317
#     4  11  24  39  56  81 111 143 180 219 262 315
#     4  10  21  36  56  82 109 140 179 222 268 317
#     4   9  19  36  56  78 107 144 182 220 267 321
#     4   9  19  36  56  78 107 144 182 220 267 321
#     4  10  21  38  59  81 108 142 179 220 267 319
#     4  10  21  38  59  81 108 142 179 220 267 319
#
# _framework density 17.662811000000001
#
# number of rings (size 3 to 8) (size 9 to 14) (size 15 to 20)
#    0.000    2.143    0.000    3.429    0.000    7.429 
#    0.000    7.143    0.000    0.000    0.000    0.000 
#    0.000    0.000    0.000    0.000    0.000    0.000 
#
# Total GULP energy -156354.819326 kJ/mol
# GULP energy per Si atom -5584.100690 kJ/mol
# Density = 1.762261 g / cm^3
# Si number density = 17.662811 Si / 1000 Ang^3
#
#
#
# Elastic Constant Matrix: (Units=GPa)
#
#
# Indices 1 2 3 4 5 6 
#
# 1 75.0366 76.0373 71.8425 0.0000 -5.2489 0.0000
# 2 76.0373 133.2684 102.7470 0.0000 -2.1915 0.0000
# 3 71.8425 102.7470 120.6962 0.0000 1.5029 0.0000
# 4 0.0000 0.0000 0.0000 47.2994 0.0000 -0.8264
# 5 -5.2489 -2.1915 1.5029 0.0000 33.0280 0.0000
# 6 0.0000 0.0000 0.0000 -0.8264 0.0000 37.2258
#
#
#
# Elastic Compliance Matrix: (Units=1/GPa)
#
#
# Indices 1 2 3 4 5 6 
#
# 1 0.037493 -0.011745 -0.012390 0.000000 0.005743 0.000000
# 2 -0.011745 0.025688 -0.014883 0.000000 0.000515 0.000000
# 3 -0.012390 -0.014883 0.028383 0.000000 -0.004248 0.000000
# 4 0.000000 0.000000 0.000000 0.021150 0.000000 0.000470
# 5 0.005743 0.000515 -0.004248 0.000000 0.031417 0.000000
# 6 0.000000 0.000000 0.000000 0.000470 0.000000 0.026874
#
#
# Mechanical properties :
#
#
# Convention : Reuss Voigt Hill
#
# Bulk Modulus (GPa) = 73.92518 92.25054 83.08786
# Shear Modulus (GPa) = 19.71991 28.73559 24.22775
#
# Velocity S-wave (km/s) = 3.34498 4.03786 3.70764
# Velocity P-wave (km/s) = 7.54075 8.60704 8.09148
#
# Compressibility (1/GPa) = 0.01352719
#
# Stress axis : x y z
#
# Youngs Moduli (GPa) = 26.67177 38.92901 35.23196
#
# Poissons Ratio (x) = 0.45721 0.43654
# Poissons Ratio (y) = 0.31325 0.52437
# Poissons Ratio (z) = 0.33048 0.57939
#
# Static dielectric constant tensor:
#      x y z
#    x 1.586650 0.000000 -0.001210 
#    y 0.000000 1.563880 0.000000 
#    z -0.001210 0.000000 1.601420 
# 
# From -- ./inp_files/257059.got.cif
#   From: 2010.05.17/outbox.cif.g08.bks.cpg/sg12_129_cif.got.tgz:257059.got - 2010.06.03 13:09:07.
