data_PCOD9206482
_publ_section_title
;
Structure prediction by ZEFSAII (Michael W. Deem and Ramdas Pophale) SiO2 
 PCOD9206482
Probable space group: C 2/M
;
_chemical_formula_sum "Si O2"
_cell_formula_units_Z 56
_cell_length_a 25.829816
_cell_length_b 15.709000
_cell_length_c 14.144814
_cell_angle_alpha 90.000000
_cell_angle_beta 152.141095
_cell_angle_gamma 90.000000
_cell_volume 2682.001329
_symmetry_space_group_name_H-M "C 2/M"
_symmetry_group_IT_number 12
_symmetry_cell_setting 'monoclinic'
loop_
_space_group_symop_operation_xyz
x,y,z
-x,y,-z
-x,-y,-z
x,-y,z
1/2+x,1/2+y,z
1/2-x,1/2+y,-z
1/2-x,1/2-y,-z
1/2+x,1/2-y,z
loop_
_atom_site_type_symbol
_atom_site_label
_atom_site_fract_x
_atom_site_fract_y
_atom_site_fract_z
Si Si1 0.297419 0.401582 0.753912
Si Si2 0.572261 0.769674 0.029127
Si Si3 0.256857 0.906838 0.768915
Si Si4 0.570948 0.184693 0.383924
Si Si5 0.968634 0.838601 0.560006
Si Si6 0.868214 0.596097 0.150518
Si Si7 0.305869 0.599269 0.992512
O O1 0.320906 0.500000 0.762007
O O2 0.385361 0.325807 0.878091
O O3 0.178853 0.367054 0.526596
O O4 0.288484 0.401896 0.853304
O O5 0.676963 0.831869 0.177571
O O6 0.500000 0.801699 0.000000
O O7 0.493392 0.774563 0.809334
O O8 0.123969 0.905413 0.556829
O O9 0.295982 0.000000 0.798540
O O10 0.289413 0.899133 0.931871
O O11 0.592370 0.254909 0.498750
O O12 0.483792 0.126841 0.298333
O O13 0.000000 0.839091 0.500000
O O14 0.084085 0.851136 0.800598
O O15 0.886097 0.500000 0.211047
O O16 0.800516 0.638492 0.126037
O O17 0.321959 0.500000 0.049585
#
# Coordination Sequence:
#
# PCOD9206482 Si02
#       7
#     8   8   8   8   8   8   8
#     4  11  24  44  67  95 134 173 215 272 334 397
#     4  11  25  47  73  93 124 167 226 283 337 383
#     4  10  21  39  62  94 131 165 211 270 329 381
#     4  11  24  40  63  93 131 171 218 270 323 393
#     4  12  22  34  62  97 136 177 214 259 320 390
#     4   9  19  35  56  85 125 170 213 258 311 381
#     4  10  21  36  58  90 130 175 219 260 314 390
#
# _framework density 20.879930000000002
#
# number of rings (size 3 to 8) (size 9 to 14) (size 15 to 20)
#    0.000    1.429    4.286    0.857    2.000    2.857 
#    0.000    2.143    0.000    0.000    0.000    0.000 
#    0.000    0.000    0.000    0.000    0.000    0.000 
#
# Total GULP energy -156122.867570 kJ/mol
# GULP energy per Si atom -5575.816699 kJ/mol
# Density = 2.083241 g / cm^3
# Si number density = 20.879930 Si / 1000 Ang^3
#
#
#
# Elastic Constant Matrix: (Units=GPa)
#
#
# Indices 1 2 3 4 5 6 
#
# 1 83.9488 17.0636 15.9363 0.0000 14.2293 0.0000
# 2 17.0636 75.6951 15.4009 0.0000 4.4232 0.0000
# 3 15.9363 15.4009 71.0766 0.0000 15.1488 0.0000
# 4 0.0000 0.0000 0.0000 19.5075 0.0000 6.6284
# 5 14.2293 4.4232 15.1488 0.0000 12.1032 0.0000
# 6 0.0000 0.0000 0.0000 6.6284 0.0000 14.8050
#
#
#
# Elastic Compliance Matrix: (Units=1/GPa)
#
#
# Indices 1 2 3 4 5 6 
#
# 1 0.015364 -0.002600 0.001044 0.000000 -0.018421 0.000000
# 2 -0.002600 0.014288 -0.002798 0.000000 0.001337 0.000000
# 3 0.001044 -0.002798 0.019755 0.000000 -0.024932 0.000000
# 4 0.000000 0.000000 0.000000 0.060460 0.000000 -0.027069
# 5 -0.018421 0.001337 -0.024932 0.000000 0.134997 0.000000
# 6 0.000000 0.000000 0.000000 -0.027069 0.000000 0.079664
#
#
# Mechanical properties :
#
#
# Convention : Reuss Voigt Hill
#
# Bulk Modulus (GPa) = 24.56915 36.39135 30.48025
# Shear Modulus (GPa) = 14.41745 21.43778 17.92761
#
# Velocity S-wave (km/s) = 2.63057 3.20772 2.93338
# Velocity P-wave (km/s) = 4.58465 5.58444 5.10906
#
# Compressibility (1/GPa) = 0.04070145
#
# Stress axis : x y z
#
# Youngs Moduli (GPa) = 65.08530 69.98840 50.61951
#
# Poissons Ratio (x) = 0.18194 -0.05287
# Poissons Ratio (y) = 0.16920 0.14163
# Poissons Ratio (z) = -0.06798 0.19582
#
# Static dielectric constant tensor:
#      x y z
#    x 1.719900 0.000000 0.028530 
#    y 0.000000 1.871480 0.000000 
#    z 0.028530 0.000000 1.802870 
# 
# From -- ./inp_files/246569.got.cif
#   From: 2010.05.17/outbox.cif.g08.bks.cpg/sg12_124_cif.got.tgz:246569.got - 2010.06.03 13:09:07.
