data_PCOD9206458
_publ_section_title
;
Structure prediction by ZEFSAII (Michael W. Deem and Ramdas Pophale) SiO2 
 PCOD9206458
Probable space group: C 2/M
;
_chemical_formula_sum "Si O2"
_cell_formula_units_Z 56
_cell_length_a 14.191709
_cell_length_b 9.747519
_cell_length_c 22.213956
_cell_angle_alpha 90.000000
_cell_angle_beta 116.628437
_cell_angle_gamma 90.000000
_cell_volume 2747.002965
_symmetry_space_group_name_H-M "C 2/M"
_symmetry_group_IT_number 12
_symmetry_cell_setting 'monoclinic'
loop_
_space_group_symop_operation_xyz
x,y,z
-x,y,-z
-x,-y,-z
x,-y,z
1/2+x,1/2+y,z
1/2-x,1/2+y,-z
1/2-x,1/2-y,-z
1/2+x,1/2-y,z
loop_
_atom_site_type_symbol
_atom_site_label
_atom_site_fract_x
_atom_site_fract_y
_atom_site_fract_z
Si Si1 0.260056 0.336650 0.730294
Si Si2 0.429082 0.657623 0.309201
Si Si3 0.791784 0.657947 0.422974
Si Si4 0.910331 0.159720 0.546269
Si Si5 0.005597 0.157598 0.201015
Si Si6 0.876434 0.657094 0.973253
Si Si7 0.318288 0.157447 0.098732
O O1 0.247954 0.500000 0.734227
O O2 0.169396 0.250769 0.735602
O O3 0.242370 0.304972 0.654272
O O4 0.377413 0.299967 0.784609
O O5 0.396384 0.500000 0.310851
O O6 0.491329 0.709368 0.385618
O O7 0.505391 0.655608 0.273608
O O8 0.828335 0.500000 0.432954
O O9 0.877709 0.754489 0.478880
O O10 0.688939 0.665316 0.436249
O O11 0.926318 0.000000 0.535917
O O12 0.914516 0.257450 0.153835
O O13 0.984940 0.000000 0.175364
O O14 0.863258 0.500000 0.946451
O O15 0.791775 0.762977 0.921833
O O16 0.845566 0.654494 0.035111
O O17 0.000000 0.694254 0.000000
O O18 0.312828 0.000000 0.118350
#
# Coordination Sequence:
#
# PCOD9206458 Si02
#       7
#     8   8   8   8   8   8   8
#     4  10  21  37  56  78 106 142 184 229 277 331
#     4  10  21  37  56  77 104 142 185 227 274 333
#     4   9  17  32  53  75 101 135 176 223 279 335
#     4   9  17  32  53  75 100 134 178 224 275 334
#     4  10  21  40  59  75 109 155 187 218 271 330
#     4   9  19  38  62  87 118 154 185 216 263 320
#     4  10  21  36  58  89 118 145 185 230 266 308
#
# _framework density 20.385853000000001
#
# number of rings (size 3 to 8) (size 9 to 14) (size 15 to 20)
#    0.000    2.429    1.429    0.429    0.000    4.857 
#    0.000    7.143    0.000    0.000    0.000    0.000 
#    0.000    0.000    0.000    0.000    0.000    0.000 
#
# Total GULP energy -156309.199685 kJ/mol
# GULP energy per Si atom -5582.471417 kJ/mol
# Density = 2.033945 g / cm^3
# Si number density = 20.385853 Si / 1000 Ang^3
#
#
#
# Elastic Constant Matrix: (Units=GPa)
#
#
# Indices 1 2 3 4 5 6 
#
# 1 92.0629 35.5045 12.0459 0.0000 36.6400 0.0000
# 2 35.5045 76.2382 48.4172 0.0000 43.7982 0.0000
# 3 12.0459 48.4172 60.5459 0.0000 34.7096 0.0000
# 4 0.0000 0.0000 0.0000 26.7073 0.0000 4.7760
# 5 36.6400 43.7982 34.7096 0.0000 45.0291 0.0000
# 6 0.0000 0.0000 0.0000 4.7760 0.0000 24.7280
#
#
#
# Elastic Compliance Matrix: (Units=1/GPa)
#
#
# Indices 1 2 3 4 5 6 
#
# 1 0.018959 -0.004789 0.011165 0.000000 -0.019375 0.000000
# 2 -0.004789 0.037867 -0.018720 0.000000 -0.018505 0.000000
# 3 0.011165 -0.018720 0.043065 0.000000 -0.024073 0.000000
# 4 0.000000 0.000000 0.000000 0.038782 0.000000 -0.007490
# 5 -0.019375 -0.018505 -0.024073 0.000000 0.074528 0.000000
# 6 0.000000 0.000000 0.000000 -0.007490 0.000000 0.041887
#
#
# Mechanical properties :
#
#
# Convention : Reuss Voigt Hill
#
# Bulk Modulus (GPa) = 13.29729 46.75360 30.02545
# Shear Modulus (GPa) = 16.40181 28.15149 22.27665
#
# Velocity S-wave (km/s) = 2.83957 3.72012 3.30926
# Velocity P-wave (km/s) = 4.15786 6.43712 5.41869
#
# Compressibility (1/GPa) = 0.07520328
#
# Stress axis : x y z
#
# Youngs Moduli (GPa) = 52.74427 26.40855 23.22054
#
# Poissons Ratio (x) = 0.12648 -0.25926
# Poissons Ratio (y) = 0.25261 0.43469
# Poissons Ratio (z) = -0.58891 0.49436
#
# Static dielectric constant tensor:
#      x y z
#    x 1.731580 0.000000 -0.022900 
#    y 0.000000 1.695530 0.000000 
#    z -0.022900 0.000000 1.723000 
# 
# From -- ./inp_files/359669.got.cif
#   From: 2010.05.17/outbox.cif.g08.bks.cpg/sg12_180_cif.got.tgz:359669.got - 2010.06.03 13:09:07.
