data_PCOD9206514
_publ_section_title
;
Structure prediction by ZEFSAII (Michael W. Deem and Ramdas Pophale) SiO2 
 PCOD9206514
Probable space group: C 2/M
;
_chemical_formula_sum "Si O2"
_cell_formula_units_Z 56
_cell_length_a 29.351646
_cell_length_b 7.495079
_cell_length_c 17.541911
_cell_angle_alpha 90.000000
_cell_angle_beta 145.184180
_cell_angle_gamma 90.000000
_cell_volume 2203.313312
_symmetry_space_group_name_H-M "C 2/M"
_symmetry_group_IT_number 12
_symmetry_cell_setting 'monoclinic'
loop_
_space_group_symop_operation_xyz
x,y,z
-x,y,-z
-x,-y,-z
x,-y,z
1/2+x,1/2+y,z
1/2-x,1/2+y,-z
1/2-x,1/2-y,-z
1/2+x,1/2-y,z
loop_
_atom_site_type_symbol
_atom_site_label
_atom_site_fract_x
_atom_site_fract_y
_atom_site_fract_z
Si Si1 0.803507 0.782335 0.676512
Si Si2 0.289503 0.704819 0.233798
Si Si3 0.873353 0.203265 0.617053
Si Si4 0.566459 0.713960 0.032152
Si Si5 0.095421 0.290050 0.743145
Si Si6 0.620856 0.212441 0.948955
Si Si7 0.078847 0.783646 0.473451
O O1 0.859397 0.723236 0.682146
O O2 0.716553 0.704750 0.541894
O O3 0.848242 0.729805 0.815031
O O4 0.796901 0.000000 0.663998
O O5 0.273997 0.500000 0.234546
O O6 0.345381 0.704408 0.235822
O O7 0.205135 0.787370 0.095390
O O8 0.344004 0.785350 0.375347
O O9 0.923142 0.285797 0.616371
O O10 0.901105 0.000000 0.665968
O O11 0.564338 0.500000 0.033197
O O12 0.559300 0.760262 0.933686
O O13 0.500000 0.780601 0.000000
O O14 0.113480 0.500000 0.766675
O O15 0.002579 0.264476 0.596782
O O16 0.104544 0.217685 0.841984
O O17 0.628926 0.000000 0.950963
O O18 0.083466 0.000000 0.476883
#
# Coordination Sequence:
#
# PCOD9206514 Si02
#       7
#     8   8   8   8   8   8   8
#     4   9  18  33  52  79 112 144 186 234 278 328
#     4  10  21  40  63  86 114 152 199 241 282 344
#     4   9  18  33  55  80 108 148 189 228 276 333
#     4  10  22  37  57  85 116 150 190 234 281 337
#     4  11  24  39  58  88 121 151 189 240 296 346
#     4  10  23  42  62  86 116 152 196 240 287 346
#     4  10  21  36  59  86 114 152 194 234 284 344
#
# _framework density 25.416267999999999
#
# number of rings (size 3 to 8) (size 9 to 14) (size 15 to 20)
#    0.000    2.143    0.000    2.143    2.000    6.571 
#    0.000    0.000    0.000    0.000    0.000    0.000 
#    0.000    0.000    0.000    0.000    0.000    0.000 
#
# Total GULP energy -156624.786280 kJ/mol
# GULP energy per Si atom -5593.742367 kJ/mol
# Density = 2.535842 g / cm^3
# Si number density = 25.416268 Si / 1000 Ang^3
#
#
#
# Elastic Constant Matrix: (Units=GPa)
#
#
# Indices 1 2 3 4 5 6 
#
# 1 129.7501 -7.7448 6.7408 0.0000 -16.6575 0.0000
# 2 -7.7448 88.4075 -0.8860 0.0000 -2.8158 0.0000
# 3 6.7408 -0.8860 80.2108 0.0000 -18.0800 0.0000
# 4 0.0000 0.0000 0.0000 11.4910 0.0000 -0.8434
# 5 -16.6575 -2.8158 -18.0800 0.0000 47.1969 0.0000
# 6 0.0000 0.0000 0.0000 -0.8434 0.0000 14.4372
#
#
#
# Elastic Compliance Matrix: (Units=1/GPa)
#
#
# Indices 1 2 3 4 5 6 
#
# 1 0.008130 0.000805 -0.000018 0.000000 0.002910 0.000000
# 2 0.000805 0.011419 0.000302 0.000000 0.001081 0.000000
# 3 -0.000018 0.000302 0.013654 0.000000 0.005242 0.000000
# 4 0.000000 0.000000 0.000000 0.087399 0.000000 0.005106
# 5 0.002910 0.001081 0.005242 0.000000 0.024288 0.000000
# 6 0.000000 0.000000 0.000000 0.005106 0.000000 0.069564
#
#
# Mechanical properties :
#
#
# Convention : Reuss Voigt Hill
#
# Bulk Modulus (GPa) = 28.26482 32.73203 30.49843
# Shear Modulus (GPa) = 22.31455 34.64227 28.47841
#
# Velocity S-wave (km/s) = 2.96626 3.69588 3.35099
# Velocity P-wave (km/s) = 4.78294 5.57845 5.19594
#
# Compressibility (1/GPa) = 0.03537966
#
# Stress axis : x y z
#
# Youngs Moduli (GPa) = 123.00530 87.57169 73.24075
#
# Poissons Ratio (x) = -0.07047 0.00134
# Poissons Ratio (y) = -0.09898 -0.02213
# Poissons Ratio (z) = 0.00225 -0.02646
#
# Static dielectric constant tensor:
#      x y z
#    x 2.003060 0.000000 -0.004690 
#    y 0.000000 1.981980 0.000000 
#    z -0.004690 0.000000 2.001620 
# 
# From -- ./inp_files/292504.got.cif
#   From: 2010.05.17/outbox.cif.g08.bks.cpg/sg12_147_cif.got.tgz:292504.got - 2010.06.03 13:09:07.
