data_PCOD9206892
_publ_section_title
;
Structure prediction by ZEFSAII (Michael W. Deem and Ramdas Pophale) SiO2 
 PCOD9206892
Probable space group: C 2/M
;
_chemical_formula_sum "Si O2"
_cell_formula_units_Z 64
_cell_length_a 22.599552
_cell_length_b 19.070302
_cell_length_c 19.140327
_cell_angle_alpha 90.000000
_cell_angle_beta 21.643174
_cell_angle_gamma 90.000000
_cell_volume 3042.476111
_symmetry_space_group_name_H-M "C 2/M"
_symmetry_group_IT_number 12
_symmetry_cell_setting 'monoclinic'
loop_
_space_group_symop_operation_xyz
x,y,z
-x,y,-z
-x,-y,-z
x,-y,z
1/2+x,1/2+y,z
1/2-x,1/2+y,-z
1/2-x,1/2-y,-z
1/2+x,1/2-y,z
loop_
_atom_site_type_symbol
_atom_site_label
_atom_site_fract_x
_atom_site_fract_y
_atom_site_fract_z
Si Si1 0.264502 0.078863 0.507342
Si Si2 0.369726 0.226033 0.551627
Si Si3 0.495182 0.920680 0.389709
Si Si4 0.914817 0.789649 0.248415
Si Si5 0.217507 0.078754 0.023579
Si Si6 0.573456 0.720906 0.209055
Si Si7 0.364978 0.212133 0.088033
Si Si8 0.951176 0.580532 0.901211
O O1 0.389047 0.076930 0.435375
O O2 0.131058 0.132052 0.679675
O O3 0.369849 0.099261 0.323522
O O4 0.206819 0.000000 0.559755
O O5 0.418364 0.145351 0.514010
O O6 0.227163 0.230248 0.649333
O O7 0.516699 0.258958 0.347902
O O8 0.301095 0.267246 0.693102
O O9 0.489471 0.000000 0.426039
O O10 0.674469 0.906121 0.163788
O O11 0.949901 0.752186 0.284631
O O12 0.076384 0.773640 0.028395
O O13 0.091103 0.138083 0.180168
O O14 0.155139 0.000000 0.085867
O O15 0.338878 0.079948 0.956189
O O16 0.750000 0.750000 0.000000
O O17 0.500000 0.208627 0.000000
O O18 0.380876 0.138910 0.029731
O O19 0.955267 0.500000 0.923682
#
# Coordination Sequence:
#
# PCOD9206892 Si02
#       8
#     8   8   8   8   8   8   8   8
#     4   8  16  30  55  85 105 135 184 231 277 327
#     4  10  21  37  54  83 114 145 190 231 278 334
#     4   8  14  30  56  79 105 138 178 223 273 334
#     4  10  22  35  57  80 114 147 179 238 288 325
#     4   9  18  34  56  84 113 141 180 235 287 331
#     4  12  22  34  57  84 108 146 190 237 280 333
#     4  10  22  35  53  81 117 152 187 231 280 335
#     4   9  18  35  58  81 111 151 190 227 277 342
#
# _framework density 21.035496999999999
#
# number of rings (size 3 to 8) (size 9 to 14) (size 15 to 20)
#    0.000    2.500    1.250    2.625    7.000    0.750 
#    0.000    3.750    0.000    5.250    0.000    1.750 
#    0.000    0.000    0.000    0.000    0.000    0.000 
#
# Total GULP energy -178428.446928 kJ/mol
# GULP energy per Si atom -5575.888966 kJ/mol
# Density = 2.098762 g / cm^3
# Si number density = 21.035497 Si / 1000 Ang^3
#
#
#
# Elastic Constant Matrix: (Units=GPa)
#
#
# Indices 1 2 3 4 5 6 
#
# 1 56.4895 20.0428 25.0814 0.0021 9.1680 -0.0018
# 2 20.0428 158.4803 84.2154 0.0023 21.2431 -0.0015
# 3 25.0814 84.2154 129.2182 0.0063 32.0922 -0.0047
# 4 0.0021 0.0023 0.0063 28.6041 -0.0023 5.8272
# 5 9.1680 21.2431 32.0922 -0.0023 26.5118 0.0021
# 6 -0.0018 -0.0015 -0.0047 5.8272 0.0021 23.0239
#
#
#
# Elastic Compliance Matrix: (Units=1/GPa)
#
#
# Indices 1 2 3 4 5 6 
#
# 1 0.019597 -0.000689 -0.002586 -0.000001 -0.003094 0.000002
# 2 -0.000689 0.009678 -0.006158 0.000001 -0.000062 -0.000001
# 3 -0.002586 -0.006158 0.015452 -0.000005 -0.012876 0.000005
# 4 -0.000001 0.000001 -0.000005 0.036861 0.000010 -0.009329
# 5 -0.003094 -0.000062 -0.012876 0.000010 0.054425 -0.000010
# 6 0.000002 -0.000001 0.000005 -0.009329 -0.000010 0.045794
#
#
# Mechanical properties :
#
#
# Convention : Reuss Voigt Hill
#
# Bulk Modulus (GPa) = 38.67003 66.98525 52.82764
# Shear Modulus (GPa) = 23.88979 29.95116 26.92048
#
# Velocity S-wave (km/s) = 3.37366 3.77747 3.58126
# Velocity P-wave (km/s) = 5.79642 7.13714 6.50143
#
# Compressibility (1/GPa) = 0.02585982
#
# Stress axis : x y z
#
# Youngs Moduli (GPa) = 51.02709 103.32908 64.71612
#
# Poissons Ratio (x) = 0.07124 0.16736
# Poissons Ratio (y) = 0.03518 0.39853
# Poissons Ratio (z) = 0.13196 0.63632
#
# Static dielectric constant tensor:
#      x y z
#    x 1.818820 0.000000 -0.033400 
#    y 0.000000 1.816930 0.000000 
#    z -0.033400 0.000000 1.786100 
# 
# From -- ./inp_files/328632.got.cif
#   From: 2010.05.17/outbox.cif.g08.bks.cpg/sg12_165_cif.got.tgz:328632.got - 2010.06.03 13:09:07.
