data_PCOD9206638
_publ_section_title
;
Structure prediction by ZEFSAII (Michael W. Deem and Ramdas Pophale) SiO2 
 PCOD9206638
Probable space group: C 2/M
;
_chemical_formula_sum "Si O2"
_cell_formula_units_Z 60
_cell_length_a 17.859037
_cell_length_b 9.557903
_cell_length_c 20.125595
_cell_angle_alpha 90.000000
_cell_angle_beta 60.420087
_cell_angle_gamma 90.000000
_cell_volume 2987.603069
_symmetry_space_group_name_H-M "C 2/M"
_symmetry_group_IT_number 12
_symmetry_cell_setting 'monoclinic'
loop_
_space_group_symop_operation_xyz
x,y,z
-x,y,-z
-x,-y,-z
x,-y,z
1/2+x,1/2+y,z
1/2-x,1/2+y,-z
1/2-x,1/2-y,-z
1/2+x,1/2-y,z
loop_
_atom_site_type_symbol
_atom_site_label
_atom_site_fract_x
_atom_site_fract_y
_atom_site_fract_z
Si Si1 0.680134 0.662609 0.817491
Si Si2 0.752901 0.000000 0.031312
Si Si3 0.532836 0.664902 0.770204
Si Si4 0.042945 0.665380 0.632303
Si Si5 0.645532 0.244541 0.085023
Si Si6 0.401511 0.338941 0.515466
Si Si7 0.594083 0.840485 0.963466
Si Si8 0.349932 0.836737 0.659962
O O1 0.676229 0.500000 0.839954
O O2 0.604018 0.683651 0.796633
O O3 0.658477 0.758900 0.888911
O O4 0.770821 0.692782 0.743304
O O5 0.702297 0.125676 0.094610
O O6 0.802975 0.121815 0.964595
O O7 0.531464 0.500000 0.753066
O O8 0.555128 0.759375 0.697220
O O9 0.439173 0.709043 0.838807
O O10 0.062648 0.500000 0.625392
O O11 0.941975 0.679997 0.655855
O O12 0.095917 0.746685 0.552202
O O13 0.618065 0.162279 0.029742
O O14 0.500000 0.340272 0.500000
O O15 0.375877 0.500000 0.515358
O O16 0.348251 0.262687 0.596614
O O17 0.588964 0.000000 0.942255
O O18 0.500000 0.772215 0.000000
O O19 0.343648 0.000000 0.641970
#
# Coordination Sequence:
#
# PCOD9206638 Si02
#       8
#     8   4   8   8   8   8   8   8
#     4  10  23  40  61  86 116 158 200 245 294 351
#     4  10  24  38  58  82 116 144 194 240 306 346
#     4  11  23  40  60  83 120 157 199 243 296 353
#     4  10  21  36  60  90 119 156 193 238 294 352
#     4  11  22  42  58  85 113 157 192 249 298 353
#     4   9  17  33  60  89 120 154 189 232 289 350
#     4  11  23  39  61  84 112 152 203 245 292 350
#     4   9  19  38  59  89 120 148 192 242 288 344
#
# _framework density 20.082989000000001
#
# number of rings (size 3 to 8) (size 9 to 14) (size 15 to 20)
#    0.000    1.867    2.667    0.800    1.867    5.600 
#    2.400    0.667    0.000    0.000    0.000    0.000 
#    0.000    0.000    0.000    0.000    0.000    0.000 
#
# Total GULP energy -167086.718339 kJ/mol
# GULP energy per Si atom -5569.557278 kJ/mol
# Density = 2.003728 g / cm^3
# Si number density = 20.082989 Si / 1000 Ang^3
#
#
#
# Elastic Constant Matrix: (Units=GPa)
#
#
# Indices 1 2 3 4 5 6 
#
# 1 33.5531 23.3099 6.9102 0.0000 5.3553 0.0000
# 2 23.3099 133.6115 59.7746 0.0000 6.1366 0.0000
# 3 6.9102 59.7746 82.5346 0.0000 5.5779 0.0000
# 4 0.0000 0.0000 0.0000 58.0377 0.0000 12.6959
# 5 5.3553 6.1366 5.5779 0.0000 24.6383 0.0000
# 6 0.0000 0.0000 0.0000 12.6959 0.0000 32.4901
#
#
#
# Elastic Compliance Matrix: (Units=1/GPa)
#
#
# Indices 1 2 3 4 5 6 
#
# 1 0.035159 -0.006975 0.002546 0.000000 -0.006481 0.000000
# 2 -0.006975 0.012478 -0.008475 0.000000 0.000327 0.000000
# 3 0.002546 -0.008475 0.018214 0.000000 -0.002566 0.000000
# 4 0.000000 0.000000 0.000000 0.018841 0.000000 -0.007362
# 5 -0.006481 0.000327 -0.002566 0.000000 0.042495 0.000000
# 6 0.000000 0.000000 0.000000 -0.007362 0.000000 0.033656
#
#
# Mechanical properties :
#
#
# Convention : Reuss Voigt Hill
#
# Bulk Modulus (GPa) = 24.97307 47.74318 36.35812
# Shear Modulus (GPa) = 25.00009 33.68019 29.34014
#
# Velocity S-wave (km/s) = 3.53206 4.09962 3.82638
# Velocity P-wave (km/s) = 5.39405 6.79954 6.13717
#
# Compressibility (1/GPa) = 0.04004314
#
# Stress axis : x y z
#
# Youngs Moduli (GPa) = 28.44183 80.14239 54.90202
#
# Poissons Ratio (x) = 0.55902 -0.13979
# Poissons Ratio (y) = 0.19839 0.46529
# Poissons Ratio (z) = -0.07242 0.67920
#
# Static dielectric constant tensor:
#      x y z
#    x 1.827140 0.000000 0.015250 
#    y 0.000000 1.687820 0.000000 
#    z 0.015250 0.000000 1.671870 
# 
# From -- ./inp_files/320450.got.cif
#   From: 2010.05.17/outbox.cif.g08.bks.cpg/sg12_161_cif.got.tgz:320450.got - 2010.06.03 13:09:07.
