data_PCOD9207487
_publ_section_title
;
Structure prediction by ZEFSAII (Michael W. Deem and Ramdas Pophale) SiO2 
 PCOD9207487
Probable space group: C 2/M
;
_chemical_formula_sum "Si O2"
_cell_formula_units_Z 56
_cell_length_a 27.499238
_cell_length_b 9.023368
_cell_length_c 18.189893
_cell_angle_alpha 90.000000
_cell_angle_beta 142.675099
_cell_angle_gamma 90.000000
_cell_volume 2736.726755
_symmetry_space_group_name_H-M "C 2/M"
_symmetry_group_IT_number 12
_symmetry_cell_setting 'monoclinic'
loop_
_space_group_symop_operation_xyz
x,y,z
-x,y,-z
-x,-y,-z
x,-y,z
1/2+x,1/2+y,z
1/2-x,1/2+y,-z
1/2-x,1/2-y,-z
1/2+x,1/2-y,z
loop_
_atom_site_type_symbol
_atom_site_label
_atom_site_fract_x
_atom_site_fract_y
_atom_site_fract_z
Si Si1 0.411062 0.827548 0.915699
Si Si2 0.376654 0.170859 0.048394
Si Si3 0.019875 0.825133 0.299250
Si Si4 0.699269 0.676992 0.793950
Si Si5 0.967108 0.675555 0.378562
Si Si6 0.321889 0.827143 0.543193
Si Si7 0.248836 0.672458 0.703152
O O1 0.339298 0.729022 0.797951
O O2 0.400569 0.000000 0.880313
O O3 0.500000 0.779861 0.000000
O O4 0.401284 0.822638 0.992091
O O5 0.435296 0.276377 0.163014
O O6 0.387219 0.000000 0.085790
O O7 0.282441 0.208643 0.936485
O O8 0.092757 0.750433 0.342759
O O9 0.018669 0.760308 0.380031
O O10 0.029171 0.000000 0.310864
O O11 0.686328 0.500000 0.779911
O O12 0.623249 0.763353 0.733454
O O13 0.713717 0.730662 0.727509
O O14 0.970015 0.500000 0.368048
O O15 0.000000 0.702303 0.500000
O O16 0.250000 0.750000 0.500000
O O17 0.300250 0.814749 0.430831
O O18 0.326790 0.000000 0.568586
O O19 0.249057 0.500000 0.726235
#
# Coordination Sequence:
#
# PCOD9207487 Si02
#       7
#     8   8   8   8   8   8   8
#     4   9  19  35  58  87 116 156 203 249 303 359
#     4   9  20  39  60  87 125 164 203 252 306 364
#     4  12  26  42  63  92 125 163 207 254 307 366
#     4  10  21  39  65  94 123 160 204 250 306 366
#     4  11  24  42  66  94 125 163 205 253 308 364
#     4  11  25  43  62  87 121 162 206 253 309 367
#     4  10  21  37  58  87 119 154 198 249 303 361
#
# _framework density 20.462402000000001
#
# number of rings (size 3 to 8) (size 9 to 14) (size 15 to 20)
#    0.000    1.714    0.000    4.714    2.000   10.571 
#    0.000    0.000    0.000    0.000    0.000    0.000 
#    0.000    0.000    0.000    0.000    0.000    0.000 
#
# Total GULP energy -156604.000034 kJ/mol
# GULP energy per Si atom -5593.000001 kJ/mol
# Density = 2.041583 g / cm^3
# Si number density = 20.462402 Si / 1000 Ang^3
#
#
#
# Elastic Constant Matrix: (Units=GPa)
#
#
# Indices 1 2 3 4 5 6 
#
# 1 78.4687 40.1672 22.9600 0.0000 30.5901 0.0000
# 2 40.1672 125.3330 55.4348 0.0000 11.3425 0.0000
# 3 22.9600 55.4348 68.9745 0.0000 14.9848 0.0000
# 4 0.0000 0.0000 0.0000 31.0360 0.0000 2.3860
# 5 30.5901 11.3425 14.9848 0.0000 26.9999 0.0000
# 6 0.0000 0.0000 0.0000 2.3860 0.0000 31.6970
#
#
#
# Elastic Compliance Matrix: (Units=1/GPa)
#
#
# Indices 1 2 3 4 5 6 
#
# 1 0.027050 -0.007526 0.003429 0.000000 -0.029388 0.000000
# 2 -0.007526 0.014476 -0.010985 0.000000 0.008542 0.000000
# 3 0.003429 -0.010985 0.025047 0.000000 -0.013171 0.000000
# 4 0.000000 0.000000 0.000000 0.032408 0.000000 -0.002440
# 5 -0.029388 0.008542 -0.013171 0.000000 0.074054 0.000000
# 6 0.000000 0.000000 0.000000 -0.002440 0.000000 0.031732
#
#
# Mechanical properties :
#
#
# Convention : Reuss Voigt Hill
#
# Bulk Modulus (GPa) = 27.46608 56.65557 42.06083
# Shear Modulus (GPa) = 20.23730 28.22753 24.23242
#
# Velocity S-wave (km/s) = 3.14825 3.71817 3.44501
# Velocity P-wave (km/s) = 5.16402 6.79564 6.03523
#
# Compressibility (1/GPa) = 0.03640854
#
# Stress axis : x y z
#
# Youngs Moduli (GPa) = 36.96916 69.07758 39.92494
#
# Poissons Ratio (x) = 0.51988 -0.13691
# Poissons Ratio (y) = 0.27823 0.43859
# Poissons Ratio (z) = -0.12677 0.75884
#
# Static dielectric constant tensor:
#      x y z
#    x 1.731330 0.000000 -0.001070 
#    y 0.000000 1.688900 0.000000 
#    z -0.001070 0.000000 1.735400 
# 
# From -- ./inp_files/292531.got.cif
#   From: 2010.05.17/outbox.cif.g08.bks.cpg/sg12_147_cif.got.tgz:292531.got - 2010.06.03 13:09:07.
