data_PCOD9207479
_publ_section_title
;
Structure prediction by ZEFSAII (Michael W. Deem and Ramdas Pophale) SiO2 
 PCOD9207479
Probable space group: C 2/M
;
_chemical_formula_sum "Si O2"
_cell_formula_units_Z 64
_cell_length_a 32.903705
_cell_length_b 8.847598
_cell_length_c 15.357414
_cell_angle_alpha 90.000000
_cell_angle_beta 132.738636
_cell_angle_gamma 90.000000
_cell_volume 3283.633869
_symmetry_space_group_name_H-M "C 2/M"
_symmetry_group_IT_number 12
_symmetry_cell_setting 'monoclinic'
loop_
_space_group_symop_operation_xyz
x,y,z
-x,y,-z
-x,-y,-z
x,-y,z
1/2+x,1/2+y,z
1/2-x,1/2+y,-z
1/2-x,1/2-y,-z
1/2+x,1/2-y,z
loop_
_atom_site_type_symbol
_atom_site_label
_atom_site_fract_x
_atom_site_fract_y
_atom_site_fract_z
Si Si1 0.545049 0.678197 0.926248
Si Si2 0.377121 0.817902 0.491543
Si Si3 0.224298 0.320663 0.049330
Si Si4 0.747010 0.181025 0.726462
Si Si5 0.358634 0.819581 0.815934
Si Si6 0.064313 0.817893 0.592114
Si Si7 0.608070 0.320586 0.846190
Si Si8 0.427173 0.818486 0.747505
O O1 0.546555 0.500000 0.947126
O O2 0.558788 0.699506 0.843678
O O3 0.485032 0.744628 0.858516
O O4 0.593743 0.758014 0.050686
O O5 0.312117 0.778768 0.400948
O O6 0.404174 0.751228 0.444024
O O7 0.408536 0.767617 0.624497
O O8 0.380719 0.000000 0.492446
O O9 0.231378 0.500000 0.060383
O O10 0.251323 0.248601 0.174009
O O11 0.250000 0.250000 0.000000
O O12 0.160002 0.274609 0.954528
O O13 0.800068 0.245732 0.753585
O O14 0.751594 0.000000 0.737938
O O15 0.380169 0.784843 0.750238
O O16 0.354199 0.000000 0.819776
O O17 0.091501 0.777290 0.724352
O O18 0.000000 0.771541 0.500000
O O19 0.066130 0.000000 0.587833
O O20 0.622633 0.500000 0.868166
O O21 0.434514 0.000000 0.756999
#
# Coordination Sequence:
#
# PCOD9207479 Si02
#       8
#     8   8   8   8   8   8   8   8
#     4  11  22  38  63  93 125 159 202 254 308 368
#     4  10  23  42  62  87 121 163 206 253 305 361
#     4  12  24  38  59  86 118 157 200 245 301 360
#     4  11  23  41  63  89 123 159 204 257 306 363
#     4  11  23  40  63  91 122 161 204 252 313 371
#     4  10  21  38  60  88 122 160 202 249 301 358
#     4  10  21  37  58  86 121 157 195 245 303 360
#     4  10  23  42  62  87 123 162 204 254 310 371
#
# _framework density 19.490601000000002
#
# number of rings (size 3 to 8) (size 9 to 14) (size 15 to 20)
#    0.000    1.375    1.250    4.125    0.000    8.750 
#    0.000    0.000    0.000    0.000    0.000    0.000 
#    0.000    0.000    0.000    0.000    0.000    0.000 
#
# Total GULP energy -178943.309279 kJ/mol
# GULP energy per Si atom -5591.978415 kJ/mol
# Density = 1.944624 g / cm^3
# Si number density = 19.490601 Si / 1000 Ang^3
#
#
#
# Elastic Constant Matrix: (Units=GPa)
#
#
# Indices 1 2 3 4 5 6 
#
# 1 91.7088 37.7993 15.8195 0.0000 7.3664 0.0000
# 2 37.7993 49.7397 21.8709 0.0000 3.4730 0.0000
# 3 15.8195 21.8709 77.2297 0.0000 6.7004 0.0000
# 4 0.0000 0.0000 0.0000 4.5519 0.0000 -4.8492
# 5 7.3664 3.4730 6.7004 0.0000 37.6937 0.0000
# 6 0.0000 0.0000 0.0000 -4.8492 0.0000 35.3287
#
#
#
# Elastic Compliance Matrix: (Units=1/GPa)
#
#
# Indices 1 2 3 4 5 6 
#
# 1 0.016037 -0.012196 0.000349 0.000000 -0.002072 0.000000
# 2 -0.012196 0.032274 -0.006694 0.000000 0.000600 0.000000
# 3 0.000349 -0.006694 0.014956 0.000000 -0.002110 0.000000
# 4 0.000000 0.000000 0.000000 0.257317 0.000000 0.035319
# 5 -0.002072 0.000600 -0.002110 0.000000 0.027254 0.000000
# 6 0.000000 0.000000 0.000000 0.035319 0.000000 0.033154
#
#
# Mechanical properties :
#
#
# Convention : Reuss Voigt Hill
#
# Bulk Modulus (GPa) = 38.18974 41.07307 39.63141
# Shear Modulus (GPa) = 11.71503 25.06075 18.38789
#
# Velocity S-wave (km/s) = 2.45431 3.58968 3.07485
# Velocity P-wave (km/s) = 5.26004 6.18870 5.74317
#
# Compressibility (1/GPa) = 0.02618504
#
# Stress axis : x y z
#
# Youngs Moduli (GPa) = 62.35533 30.98453 66.86435
#
# Poissons Ratio (x) = 0.37788 -0.02331
# Poissons Ratio (y) = 0.76048 0.44757
# Poissons Ratio (z) = -0.02174 0.20740
#
# Static dielectric constant tensor:
#      x y z
#    x 1.682150 0.000000 -0.005810 
#    y 0.000000 1.656000 0.000000 
#    z -0.005810 0.000000 1.665670 
# 
# From -- ./inp_files/250065.got.cif
#   From: 2010.05.17/outbox.cif.g08.bks.cpg/sg12_126_cif.got.tgz:250065.got - 2010.06.03 13:09:07.
