data_PCOD9207585
_publ_section_title
;
Structure prediction by ZEFSAII (Michael W. Deem and Ramdas Pophale) SiO2 
 PCOD9207585
Probable space group: C 2/M
;
_chemical_formula_sum "Si O2"
_cell_formula_units_Z 48
_cell_length_a 31.383617
_cell_length_b 17.035393
_cell_length_c 8.665069
_cell_angle_alpha 90.000000
_cell_angle_beta 145.924969
_cell_angle_gamma 90.000000
_cell_volume 2595.558425
_symmetry_space_group_name_H-M "C 2/M"
_symmetry_group_IT_number 12
_symmetry_cell_setting 'monoclinic'
loop_
_space_group_symop_operation_xyz
x,y,z
-x,y,-z
-x,-y,-z
x,-y,z
1/2+x,1/2+y,z
1/2-x,1/2+y,-z
1/2-x,1/2-y,-z
1/2+x,1/2-y,z
loop_
_atom_site_type_symbol
_atom_site_label
_atom_site_fract_x
_atom_site_fract_y
_atom_site_fract_z
Si Si1 0.587823 0.500000 0.078595
Si Si2 0.087823 0.000000 0.448342
Si Si3 0.683985 0.356432 0.867385
Si Si4 0.683985 0.643568 0.236526
Si Si5 0.154060 0.323430 0.148538
Si Si6 0.845940 0.676570 0.224178
Si Si7 1.000000 0.409518 0.688312
O O1 0.589403 0.500000 0.268210
O O2 0.631413 0.576604 0.148938
O O3 0.500000 0.500000 0.763401
O O4 0.131413 0.076604 0.639539
O O5 0.655881 0.268799 0.739215
O O6 0.682838 0.362268 0.048515
O O7 0.770516 0.362316 0.067687
O O8 0.770516 0.637683 0.555410
O O9 0.655881 0.731201 0.196070
O O10 0.158908 0.328334 0.976724
O O11 0.076576 0.365082 0.966973
O O12 0.923424 0.634918 0.507519
O O13 1.000000 0.500000 0.737756
O O14 0.000000 0.408761 0.500000
#
# Coordination Sequence:
#
# PCOD9207585 Si02
#       7
#     4   4   8   8   8   8   8
#     4  11  25  41  59  84 113 148 195 243 294 349
#     4  11  25  41  59  84 113 148 195 243 294 349
#     4  10  21  37  59  85 116 151 190 236 289 342
#     4  10  21  37  59  85 116 151 190 236 289 342
#     4   9  19  36  59  85 116 154 193 231 279 341
#     4   9  19  36  59  85 116 154 193 231 279 341
#     4   9  18  32  55  86 113 148 193 230 270 328
#
# _framework density 18.493131000000002
#
# number of rings (size 3 to 8) (size 9 to 14) (size 15 to 20)
#    0.000    2.333    0.000    1.500    4.667    2.667 
#    0.000    0.833    0.000    1.000    0.000    0.000 
#    0.000    0.000    0.000    0.000    0.000    0.000 
#
# Total GULP energy -134013.466599 kJ/mol
# GULP energy per Si atom -5583.894442 kJ/mol
# Density = 1.845104 g / cm^3
# Si number density = 18.493131 Si / 1000 Ang^3
#
#
#
# Elastic Constant Matrix: (Units=GPa)
#
#
# Indices 1 2 3 4 5 6 
#
# 1 57.4297 56.8299 54.4698 0.0000 34.4788 0.0000
# 2 56.8299 121.8724 110.8498 0.0000 40.7919 0.0000
# 3 54.4698 110.8498 167.9491 0.0000 48.9767 0.0000
# 4 0.0000 0.0000 0.0000 28.5326 0.0000 3.4823
# 5 34.4788 40.7919 48.9767 0.0000 35.2574 0.0000
# 6 0.0000 0.0000 0.0000 3.4823 0.0000 23.9210
#
#
#
# Elastic Compliance Matrix: (Units=1/GPa)
#
#
# Indices 1 2 3 4 5 6 
#
# 1 0.051731 -0.015274 0.004879 0.000000 -0.039695 0.000000
# 2 -0.015274 0.026589 -0.013414 0.000000 0.002809 0.000000
# 3 0.004879 -0.013414 0.016962 0.000000 -0.012814 0.000000
# 4 0.000000 0.000000 0.000000 0.035682 0.000000 -0.005194
# 5 -0.039695 0.002809 -0.012814 0.000000 0.081732 0.000000
# 6 0.000000 0.000000 0.000000 -0.005194 0.000000 0.042560
#
#
# Mechanical properties :
#
#
# Convention : Reuss Voigt Hill
#
# Bulk Modulus (GPa) = 20.98050 87.95001 54.46526
# Shear Modulus (GPa) = 15.68567 25.88231 20.78399
#
# Velocity S-wave (km/s) = 2.91553 3.74513 3.35606
# Velocity P-wave (km/s) = 4.76481 8.14634 6.67331
#
# Compressibility (1/GPa) = 0.04766330
#
# Stress axis : x y z
#
# Youngs Moduli (GPa) = 19.33089 37.60961 58.95435
#
# Poissons Ratio (x) = 0.57446 -0.28767
# Poissons Ratio (y) = 0.29527 0.79084
# Poissons Ratio (z) = -0.09432 0.50451
#
# Static dielectric constant tensor:
#      x y z
#    x 1.617120 0.000000 -0.004620 
#    y 0.000000 1.621750 0.000000 
#    z -0.004620 0.000000 1.611000 
# 
# From -- ./inp_files/112978.got.cif
#   From: 2010.05.17/outbox.cif.g08.bks.cpg/sg12_57_cif.got.tgz:112978.got - 2010.06.03 13:09:07.
