data_PCOD9207764
_publ_section_title
;
Structure prediction by ZEFSAII (Michael W. Deem and Ramdas Pophale) SiO2 
 PCOD9207764
Probable space group: C 2/M
;
_chemical_formula_sum "Si O2"
_cell_formula_units_Z 36
_cell_length_a 7.242378
_cell_length_b 17.474869
_cell_length_c 15.984834
_cell_angle_alpha 90.000000
_cell_angle_beta 48.041371
_cell_angle_gamma 90.000000
_cell_volume 1504.384518
_symmetry_space_group_name_H-M "C 2/M"
_symmetry_group_IT_number 12
_symmetry_cell_setting 'monoclinic'
loop_
_space_group_symop_operation_xyz
x,y,z
-x,y,-z
-x,-y,-z
x,-y,z
1/2+x,1/2+y,z
1/2-x,1/2+y,-z
1/2-x,1/2-y,-z
1/2+x,1/2-y,z
loop_
_atom_site_type_symbol
_atom_site_label
_atom_site_fract_x
_atom_site_fract_y
_atom_site_fract_z
Si Si1 0.043859 0.805951 0.845636
Si Si2 0.000000 0.683258 0.000000
Si Si3 0.650545 0.302025 0.373243
Si Si4 0.094051 0.414285 0.259911
Si Si5 0.285415 0.414291 0.387279
O O1 0.992769 0.733554 0.919041
O O2 0.204271 0.763748 0.722265
O O3 0.223105 0.860278 0.846878
O O4 0.782109 0.848858 0.907310
O O5 0.500000 0.273053 0.500000
O O6 0.464053 0.350294 0.370971
O O7 0.846266 0.365432 0.346446
O O8 0.045346 0.500000 0.245915
O O9 0.256949 0.417162 0.295740
O O10 0.362980 0.500000 0.393007
O O11 0.000000 0.403835 0.500000
#
# Coordination Sequence:
#
# PCOD9207764 Si02
#       5
#     8   4   8   8   8
#     4  11  23  44  68 102 126 179 228 280 333 400
#     4  10  22  44  74  88 134 172 230 280 338 388
#     4  12  24  40  70 103 140 174 227 275 335 404
#     4  11  24  43  65  99 141 179 221 273 338 405
#     4  10  21  37  59  91 138 187 218 257 329 404
#
# _framework density 23.930052
#
# number of rings (size 3 to 8) (size 9 to 14) (size 15 to 20)
#    0.000    1.111    4.444    2.000    0.000    2.667 
#    0.000    1.111    0.000    0.000    0.000    0.000 
#    0.000    0.000    0.000    0.000    0.000    0.000 
#
# Total GULP energy -100395.078375 kJ/mol
# GULP energy per Si atom -5577.504354 kJ/mol
# Density = 2.387559 g / cm^3
# Si number density = 23.930052 Si / 1000 Ang^3
#
#
#
# Elastic Constant Matrix: (Units=GPa)
#
#
# Indices 1 2 3 4 5 6 
#
# 1 91.2766 26.6091 34.1450 0.0000 -14.0125 0.0000
# 2 26.6091 143.2860 43.4347 0.0000 -16.9486 0.0000
# 3 34.1450 43.4347 127.6283 0.0000 -24.6566 0.0000
# 4 0.0000 0.0000 0.0000 -33.5115 0.0000 -34.4142
# 5 -14.0125 -16.9486 -24.6566 0.0000 40.6141 0.0000
# 6 0.0000 0.0000 0.0000 -34.4142 0.0000 -36.0100
#
#
#
# Elastic Compliance Matrix: (Units=1/GPa)
#
#
# Indices 1 2 3 4 5 6 
#
# 1 0.012622 -0.001319 -0.002484 0.000001 0.002296 -0.000001
# 2 -0.001319 0.008045 -0.002067 0.000000 0.001647 0.000000
# 3 -0.002484 -0.002067 0.010050 0.000000 0.004382 0.000000
# 4 0.000001 0.000000 0.000000 -1.606592 0.000000 1.535394
# 5 0.002296 0.001647 0.004382 0.000000 0.028762 0.000000
# 6 -0.000001 0.000000 0.000000 1.535394 0.000000 -1.495122
#
#
# Mechanical properties :
#
#
# Convention : Reuss Voigt Hill
#
# Bulk Modulus (GPa) = 52.69683 63.39650 58.04667
# Shear Modulus (GPa) = -1.65335 11.41865 4.88265
#
# Velocity S-wave (km/s) = -0.83211 2.18679 1.42997
# Velocity P-wave (km/s) = 4.59846 5.73812 5.19960
#
# Compressibility (1/GPa) = 0.01897647
#
# Stress axis : x y z
#
# Youngs Moduli (GPa) = 79.22586 124.29388 99.50518
#
# Poissons Ratio (x) = 0.16399 0.24720
# Poissons Ratio (y) = 0.10453 0.20566
# Poissons Ratio (z) = 0.19682 0.25689
#
# Static dielectric constant tensor:
#      x y z
#    x 1.992200 0.000000 -0.003950 
#    y 0.000000 2.155220 0.000000 
#    z -0.003950 0.000000 2.191150 
# 
# From -- ./inp_files/300075.got.cif
#   From: 2010.05.17/outbox.cif.g08.bks.cpg/sg12_151_cif.got.tgz:300075.got - 2010.06.03 13:09:07.
