data_PCOD9207165
_publ_section_title
;
Structure prediction by ZEFSAII (Michael W. Deem and Ramdas Pophale) SiO2 
 PCOD9207165
Probable space group: C 2/M
;
_chemical_formula_sum "Si O2"
_cell_formula_units_Z 28
_cell_length_a 5.141536
_cell_length_b 17.823009
_cell_length_c 13.907529
_cell_angle_alpha 90.000000
_cell_angle_beta 96.758155
_cell_angle_gamma 90.000000
_cell_volume 1265.597909
_symmetry_space_group_name_H-M "C 2/M"
_symmetry_group_IT_number 12
_symmetry_cell_setting 'monoclinic'
loop_
_space_group_symop_operation_xyz
x,y,z
-x,y,-z
-x,-y,-z
x,-y,z
1/2+x,1/2+y,z
1/2-x,1/2+y,-z
1/2-x,1/2-y,-z
1/2+x,1/2-y,z
loop_
_atom_site_type_symbol
_atom_site_label
_atom_site_fract_x
_atom_site_fract_y
_atom_site_fract_z
Si Si1 0.296404 0.584769 0.759680
Si Si2 0.981454 0.300193 0.386165
Si Si3 0.443564 0.302031 0.104517
Si Si4 0.720285 0.000000 0.933769
O O1 0.374922 0.500000 0.730623
O O2 0.111951 0.628533 0.678815
O O3 0.521262 0.640363 0.806157
O O4 0.170466 0.568426 0.858274
O O5 0.754989 0.236963 0.368012
O O6 0.000000 0.319864 0.500000
O O7 0.167084 0.262213 0.110534
O O8 0.500000 0.336224 0.000000
O O9 0.500000 0.000000 0.000000
O O10 0.000000 0.000000 0.000000
#
# Coordination Sequence:
#
# PCOD9207165 Si02
#       4
#     8   8   8   4
#     4  10  23  40  63  93 124 172 201 268 306 386
#     4  10  22  43  69  95 126 163 209 264 320 379
#     4  10  21  37  57  82 115 158 208 253 298 359
#     4  10  24  40  57  86 127 168 204 248 308 362
#
# _framework density 22.123930999999999
#
# number of rings (size 3 to 8) (size 9 to 14) (size 15 to 20)
#    0.857    1.143    0.000    2.571    0.000    8.571 
#    0.000    0.000    0.000    5.143    0.000    0.000 
#    0.000    0.000    0.000    0.000    0.000    0.000 
#
# Total GULP energy -78077.019504 kJ/mol
# GULP energy per Si atom -5576.929965 kJ/mol
# Density = 2.207358 g / cm^3
# Si number density = 22.123931 Si / 1000 Ang^3
#
#
#
# Elastic Constant Matrix: (Units=GPa)
#
#
# Indices 1 2 3 4 5 6 
#
# 1 83.2414 9.6358 27.3711 0.0000 7.0194 0.0000
# 2 9.6358 118.3881 85.0356 0.0000 20.3103 0.0000
# 3 27.3711 85.0356 156.4191 0.0000 21.0412 0.0000
# 4 0.0000 0.0000 0.0000 52.1861 0.0000 4.9297
# 5 7.0194 20.3103 21.0412 0.0000 29.3691 0.0000
# 6 0.0000 0.0000 0.0000 4.9297 0.0000 9.9443
#
#
#
# Elastic Compliance Matrix: (Units=1/GPa)
#
#
# Indices 1 2 3 4 5 6 
#
# 1 0.012912 0.001187 -0.002633 0.000000 -0.002021 0.000000
# 2 0.001187 0.014561 -0.007449 0.000000 -0.005017 0.000000
# 3 -0.002633 -0.007449 0.011206 0.000000 -0.002248 0.000000
# 4 0.000000 0.000000 0.000000 0.020104 0.000000 -0.009966
# 5 -0.002021 -0.005017 -0.002248 0.000000 0.039612 0.000000
# 6 0.000000 0.000000 0.000000 -0.009966 0.000000 0.105500
#
#
# Mechanical properties :
#
#
# Convention : Reuss Voigt Hill
#
# Bulk Modulus (GPa) = 47.87193 66.90372 57.38783
# Shear Modulus (GPa) = 21.86774 34.03366 27.95070
#
# Velocity S-wave (km/s) = 3.14733 3.92640 3.55825
# Velocity P-wave (km/s) = 5.90700 7.13173 6.54806
#
# Compressibility (1/GPa) = 0.02088907
#
# Stress axis : x y z
#
# Youngs Moduli (GPa) = 77.44761 68.67545 89.24082
#
# Poissons Ratio (x) = -0.08150 0.23495
# Poissons Ratio (y) = -0.09191 0.66474
# Poissons Ratio (z) = 0.20390 0.51156
#
# Static dielectric constant tensor:
#      x y z
#    x 1.803690 0.000000 0.013610 
#    y 0.000000 1.961120 0.000000 
#    z 0.013610 0.000000 1.848550 
# 
# From -- ./inp_files/190878.got.cif
#   From: 2010.05.17/outbox.cif.g08.bks.cpg/sg12_96_cif.got.tgz:190878.got - 2010.06.03 13:09:07.
