data_PCOD9207280
_publ_section_title
;
Structure prediction by ZEFSAII (Michael W. Deem and Ramdas Pophale) SiO2 
 PCOD9207280
Probable space group: C 2/M
;
_chemical_formula_sum "Si O2"
_cell_formula_units_Z 56
_cell_length_a 13.724757
_cell_length_b 11.799165
_cell_length_c 20.844670
_cell_angle_alpha 90.000000
_cell_angle_beta 56.426618
_cell_angle_gamma 90.000000
_cell_volume 2812.476367
_symmetry_space_group_name_H-M "C 2/M"
_symmetry_group_IT_number 12
_symmetry_cell_setting 'monoclinic'
loop_
_space_group_symop_operation_xyz
x,y,z
-x,y,-z
-x,-y,-z
x,-y,z
1/2+x,1/2+y,z
1/2-x,1/2+y,-z
1/2-x,1/2-y,-z
1/2+x,1/2-y,z
loop_
_atom_site_type_symbol
_atom_site_label
_atom_site_fract_x
_atom_site_fract_y
_atom_site_fract_z
Si Si1 0.862276 0.127314 0.422167
Si Si2 0.785073 0.628872 0.953380
Si Si3 0.397192 0.627283 0.089861
Si Si4 0.232662 0.130833 0.303836
Si Si5 0.476781 0.210522 0.172124
Si Si6 0.867848 0.282528 0.545304
Si Si7 0.062266 0.866048 0.251578
O O1 0.865733 0.196567 0.486086
O O2 0.735364 0.131942 0.435495
O O3 0.955581 0.170514 0.336739
O O4 0.896811 0.000000 0.424967
O O5 0.751763 0.500000 0.991353
O O6 0.721191 0.635524 0.907742
O O7 0.924553 0.631794 0.894783
O O8 0.750000 0.750000 0.000000
O O9 0.406143 0.500000 0.113455
O O10 0.416463 0.716066 0.138546
O O11 0.500000 0.641157 0.000000
O O12 0.371368 0.151054 0.248421
O O13 0.171265 0.214822 0.376731
O O14 0.176503 0.149219 0.253854
O O15 0.208837 0.000000 0.330523
O O16 0.548600 0.293881 0.192866
O O17 0.000000 0.328128 0.500000
O O18 0.050619 0.000000 0.241617
#
# Coordination Sequence:
#
# PCOD9207280 Si02
#       7
#     8   8   8   8   8   8   8
#     4  10  21  37  57  87 118 152 203 252 294 349
#     4  11  24  43  67  95 127 162 204 254 309 373
#     4  10  21  40  65  91 121 163 205 246 300 373
#     4  11  23  38  57  88 122 155 196 246 306 358
#     4  12  22  40  63  90 123 160 198 253 307 361
#     4  11  21  37  62  83 114 161 201 243 297 357
#     4  10  21  37  60  88 121 158 201 251 300 359
#
# _framework density 19.911280000000001
#
# number of rings (size 3 to 8) (size 9 to 14) (size 15 to 20)
#    0.000    1.286    4.286    2.143    0.000    1.429 
#    0.000    2.143    0.000    0.857    0.000    0.000 
#    0.000    0.000    0.000    0.000    0.000    0.000 
#
# Total GULP energy -156202.418992 kJ/mol
# GULP energy per Si atom -5578.657821 kJ/mol
# Density = 1.986596 g / cm^3
# Si number density = 19.911280 Si / 1000 Ang^3
#
#
#
# Elastic Constant Matrix: (Units=GPa)
#
#
# Indices 1 2 3 4 5 6 
#
# 1 84.1653 10.9140 8.9523 0.0000 -11.5823 0.0000
# 2 10.9140 79.2286 29.9927 0.0000 10.9091 0.0000
# 3 8.9523 29.9927 40.6504 0.0000 -8.2510 0.0000
# 4 0.0000 0.0000 0.0000 13.4837 0.0000 1.4332
# 5 -11.5823 10.9091 -8.2510 0.0000 39.5694 0.0000
# 6 0.0000 0.0000 0.0000 1.4332 0.0000 24.9494
#
#
#
# Elastic Compliance Matrix: (Units=1/GPa)
#
#
# Indices 1 2 3 4 5 6 
#
# 1 0.012796 -0.002247 -0.000286 0.000000 0.004305 0.000000
# 2 -0.002247 0.020607 -0.016703 0.000000 -0.009822 0.000000
# 3 -0.000286 -0.016703 0.039579 0.000000 0.012774 0.000000
# 4 0.000000 0.000000 0.000000 0.074619 0.000000 -0.004287
# 5 0.004305 -0.009822 0.012774 0.000000 0.031904 0.000000
# 6 0.000000 0.000000 0.000000 -0.004287 0.000000 0.040327
#
#
# Mechanical properties :
#
#
# Convention : Reuss Voigt Hill
#
# Bulk Modulus (GPa) = 28.97719 33.75136 31.36427
# Shear Modulus (GPa) = 18.53176 25.87949 22.20563
#
# Velocity S-wave (km/s) = 3.05407 3.60910 3.34313
# Velocity P-wave (km/s) = 5.19820 5.86133 5.53969
#
# Compressibility (1/GPa) = 0.03450991
#
# Stress axis : x y z
#
# Youngs Moduli (GPa) = 78.15140 48.52831 25.26568
#
# Poissons Ratio (x) = 0.10905 0.00723
# Poissons Ratio (y) = 0.17562 0.42200
# Poissons Ratio (z) = 0.02236 0.81055
#
# Static dielectric constant tensor:
#      x y z
#    x 1.724550 0.000000 -0.032400 
#    y 0.000000 1.690880 0.000000 
#    z -0.032400 0.000000 1.697210 
# 
# From -- ./inp_files/304705.got.cif
#   From: 2010.05.17/outbox.cif.g08.bks.cpg/sg12_153_cif.got.tgz:304705.got - 2010.06.03 13:09:07.
