data_PCOD9207539
_publ_section_title
;
Structure prediction by ZEFSAII (Michael W. Deem and Ramdas Pophale) SiO2 
 PCOD9207539
Probable space group: C 2/M
;
_chemical_formula_sum "Si O2"
_cell_formula_units_Z 64
_cell_length_a 23.056520
_cell_length_b 17.305498
_cell_length_c 23.438168
_cell_angle_alpha 90.000000
_cell_angle_beta 158.582705
_cell_angle_gamma 90.000000
_cell_volume 3414.932455
_symmetry_space_group_name_H-M "C 2/M"
_symmetry_group_IT_number 12
_symmetry_cell_setting 'monoclinic'
loop_
_space_group_symop_operation_xyz
x,y,z
-x,y,-z
-x,-y,-z
x,-y,z
1/2+x,1/2+y,z
1/2-x,1/2+y,-z
1/2-x,1/2-y,-z
1/2+x,1/2-y,z
loop_
_atom_site_type_symbol
_atom_site_label
_atom_site_fract_x
_atom_site_fract_y
_atom_site_fract_z
Si Si1 0.889809 0.911454 0.132581
Si Si2 0.762892 0.087400 0.143274
Si Si3 0.266959 0.789204 0.091257
Si Si4 0.765384 0.909197 0.607454
Si Si5 0.485070 0.165727 0.836815
Si Si6 0.355119 0.255643 0.289518
Si Si7 0.393609 0.188987 0.630332
Si Si8 0.221983 0.271885 0.651784
O O1 0.860892 0.901986 0.173730
O O2 0.069663 0.899480 0.276168
O O3 0.847906 0.000000 0.082494
O O4 0.780664 0.859515 0.992374
O O5 0.808590 0.156961 0.227788
O O6 0.789701 0.000000 0.188749
O O7 0.578552 0.099093 0.955730
O O8 0.285908 0.799080 0.176389
O O9 0.443261 0.765755 0.233013
O O10 0.127307 0.727340 0.956723
O O11 0.635303 0.872906 0.445793
O O12 0.767182 0.854037 0.664593
O O13 0.742226 0.000000 0.598230
O O14 0.412809 0.147769 0.708896
O O15 0.349275 0.209135 0.747470
O O16 0.287228 0.231338 0.288462
O O17 0.545561 0.248940 0.467749
O O18 0.250000 0.250000 0.500000
#
# Coordination Sequence:
#
# PCOD9207539 Si02
#       8
#     8   8   8   8   8   8   8   8
#     4  10  21  37  58  90 129 159 187 245 317 368
#     4  10  23  41  61  92 128 155 192 253 320 369
#     4  11  20  36  58  89 117 157 201 249 296 357
#     4  11  24  39  61  91 130 164 199 256 311 351
#     4  11  22  34  64  86 122 155 203 249 300 362
#     4  10  24  39  65  85 116 164 212 251 298 359
#     4  12  21  33  60  91 121 157 206 247 303 367
#     4  11  22  44  59  88 118 160 216 251 291 363
#
# _framework density 18.741219999999998
#
# number of rings (size 3 to 8) (size 9 to 14) (size 15 to 20)
#    0.000    1.250    5.000    0.375    7.000    3.000 
#    0.000    5.000    0.000    1.500    0.000    0.000 
#    0.000    0.000    0.000    0.000    0.000    0.000 
#
# Total GULP energy -178558.301819 kJ/mol
# GULP energy per Si atom -5579.946932 kJ/mol
# Density = 1.869856 g / cm^3
# Si number density = 18.741220 Si / 1000 Ang^3
#
#
#
# Elastic Constant Matrix: (Units=GPa)
#
#
# Indices 1 2 3 4 5 6 
#
# 1 110.6250 35.8803 37.1482 0.0019 -7.7041 0.0023
# 2 35.8803 78.7343 13.8377 0.0062 -0.0970 0.0055
# 3 37.1482 13.8377 57.4472 -0.0006 -4.0890 0.0047
# 4 0.0019 0.0062 -0.0006 25.2059 0.0004 -2.4034
# 5 -7.7041 -0.0970 -4.0890 0.0004 36.5919 0.0007
# 6 0.0023 0.0055 0.0047 -2.4034 0.0007 21.6400
#
#
#
# Elastic Compliance Matrix: (Units=1/GPa)
#
#
# Indices 1 2 3 4 5 6 
#
# 1 0.013126 -0.004711 -0.007214 0.000000 0.001945 0.000001
# 2 -0.004711 0.014957 -0.000629 -0.000004 -0.001023 -0.000004
# 3 -0.007214 -0.000629 0.022293 0.000001 0.000971 -0.000004
# 4 0.000000 -0.000004 0.000001 0.040098 0.000000 0.004453
# 5 0.001945 -0.001023 0.000971 0.000000 0.027844 -0.000001
# 6 0.000001 -0.000004 -0.000004 0.004453 -0.000001 0.046705
#
#
# Mechanical properties :
#
#
# Convention : Reuss Voigt Hill
#
# Bulk Modulus (GPa) = 39.57819 46.72654 43.15237
# Shear Modulus (GPa) = 25.18200 27.35026 26.26613
#
# Velocity S-wave (km/s) = 3.66959 3.82431 3.74774
# Velocity P-wave (km/s) = 6.25449 6.66986 6.46551
#
# Compressibility (1/GPa) = 0.02526644
#
# Stress axis : x y z
#
# Youngs Moduli (GPa) = 76.18661 66.85743 44.85680
#
# Poissons Ratio (x) = 0.31498 0.32362
# Poissons Ratio (y) = 0.35893 0.02822
# Poissons Ratio (z) = 0.54965 0.04206
#
# Static dielectric constant tensor:
#      x y z
#    x 1.668490 0.000000 0.002820 
#    y 0.000000 1.664050 -0.000010 
#    z 0.002820 -0.000010 1.673780 
# 
# From -- ./inp_files/350027.got.cif
#   From: 2010.05.17/outbox.cif.g08.bks.cpg/sg12_176_cif.got.tgz:350027.got - 2010.06.03 13:09:07.
