data_PCOD9207982
_publ_section_title
;
Structure prediction by ZEFSAII (Michael W. Deem and Ramdas Pophale) SiO2 
 PCOD9207982
Probable space group: C 2/M
;
_chemical_formula_sum "Si O2"
_cell_formula_units_Z 56
_cell_length_a 22.981831
_cell_length_b 17.216915
_cell_length_c 14.716839
_cell_angle_alpha 90.000000
_cell_angle_beta 150.496771
_cell_angle_gamma 90.000000
_cell_volume 2867.718921
_symmetry_space_group_name_H-M "C 2/M"
_symmetry_group_IT_number 12
_symmetry_cell_setting 'monoclinic'
loop_
_space_group_symop_operation_xyz
x,y,z
-x,y,-z
-x,-y,-z
x,-y,z
1/2+x,1/2+y,z
1/2-x,1/2+y,-z
1/2-x,1/2-y,-z
1/2+x,1/2-y,z
loop_
_atom_site_type_symbol
_atom_site_label
_atom_site_fract_x
_atom_site_fract_y
_atom_site_fract_z
Si Si1 0.373436 0.413134 0.276592
Si Si2 0.596234 0.346643 0.875612
Si Si3 0.160014 0.588290 0.405453
Si Si4 0.762213 0.239443 0.206985
Si Si5 0.913864 0.279903 0.573259
Si Si6 0.333484 0.213714 0.733336
Si Si7 0.567448 0.623044 0.182130
O O1 0.500000 0.406965 0.500000
O O2 0.327161 0.500000 0.234192
O O3 0.387776 0.402213 0.188189
O O4 0.296906 0.339766 0.204840
O O5 0.527654 0.270482 0.745720
O O6 0.516174 0.385987 0.844533
O O7 0.711119 0.308541 0.077105
O O8 0.122796 0.500000 0.347190
O O9 0.090263 0.635582 0.388606
O O10 0.141357 0.635611 0.286408
O O11 0.300261 0.591110 0.622219
O O12 0.873671 0.273265 0.414613
O O13 0.669223 0.215656 0.160710
O O14 0.803557 0.236058 0.472913
O O15 0.411359 0.284951 0.805195
O O16 0.500000 0.594055 0.000000
#
# Coordination Sequence:
#
# PCOD9207982 Si02
#       7
#     8   8   8   8   8   8   8
#     4  11  24  41  60  91 123 146 190 256 308 343
#     4  12  19  36  66  84 114 162 197 238 294 346
#     4  11  20  31  51  84 124 157 186 239 301 343
#     4  10  21  37  61  85 112 157 202 240 283 353
#     4   9  18  36  54  81 115 153 205 236 277 357
#     4   9  17  33  55  78 114 151 197 233 272 348
#     4  11  18  34  58  84 115 148 200 242 275 347
#
# _framework density 19.527716999999999
#
# number of rings (size 3 to 8) (size 9 to 14) (size 15 to 20)
#    0.857    0.714    5.714    1.286    0.000    1.429 
#    0.000    2.857    0.000    1.286    0.000    2.000 
#    0.000    0.000    0.000    0.000    0.000    0.000 
#
# Total GULP energy -156106.743555 kJ/mol
# GULP energy per Si atom -5575.240841 kJ/mol
# Density = 1.948327 g / cm^3
# Si number density = 19.527717 Si / 1000 Ang^3
#
#
#
# Elastic Constant Matrix: (Units=GPa)
#
#
# Indices 1 2 3 4 5 6 
#
# 1 57.7759 11.0977 4.9435 0.0000 -23.4139 0.0000
# 2 11.0977 96.4221 -11.6094 0.0000 -9.6535 0.0000
# 3 4.9435 -11.6094 52.6124 0.0000 -23.3845 0.0000
# 4 0.0000 0.0000 0.0000 -23.2484 0.0000 -17.7354
# 5 -23.4139 -9.6535 -23.3845 0.0000 25.2652 0.0000
# 6 0.0000 0.0000 0.0000 -17.7354 0.0000 8.2969
#
#
#
# Elastic Compliance Matrix: (Units=1/GPa)
#
#
# Indices 1 2 3 4 5 6 
#
# 1 0.038416 0.004344 0.023632 0.000000 0.059134 0.000000
# 2 0.004344 0.013133 0.011059 0.000000 0.019279 0.000000
# 3 0.023632 0.011059 0.052392 0.000000 0.074617 0.000000
# 4 0.000000 0.000000 0.000000 -0.016351 0.000000 -0.034951
# 5 0.059134 0.019279 0.074617 0.000000 0.170810 0.000000
# 6 0.000000 0.000000 0.000000 -0.034951 0.000000 0.045816
#
#
# Mechanical properties :
#
#
# Convention : Reuss Voigt Hill
#
# Bulk Modulus (GPa) = 5.49421 23.96377 14.72899
# Shear Modulus (GPa) = 17.43279 15.55465 16.49372
#
# Velocity S-wave (km/s) = 2.99108 2.82537 2.90941
# Velocity P-wave (km/s) = 3.84037 4.78977 4.34110
#
# Compressibility (1/GPa) = 0.18200984
#
# Stress axis : x y z
#
# Youngs Moduli (GPa) = 26.03090 76.14556 19.08701
#
# Poissons Ratio (x) = -0.33079 -0.45106
# Poissons Ratio (y) = -0.11308 -0.21108
# Poissons Ratio (z) = -0.61516 -0.84207
#
# Static dielectric constant tensor:
#      x y z
#    x 1.713750 0.000000 -0.020390 
#    y 0.000000 1.651000 0.000000 
#    z -0.020390 0.000000 1.734900 
# 
# From -- ./inp_files/246576.got.cif
#   From: 2010.05.17/outbox.cif.g08.bks.cpg/sg12_124_cif.got.tgz:246576.got - 2010.06.03 13:09:07.
