data_PCOD9207417
_publ_section_title
;
Structure prediction by ZEFSAII (Michael W. Deem and Ramdas Pophale) SiO2 
 PCOD9207417
Probable space group: C 2/M
;
_chemical_formula_sum "Si O2"
_cell_formula_units_Z 64
_cell_length_a 35.358983
_cell_length_b 8.724761
_cell_length_c 18.956786
_cell_angle_alpha 90.000000
_cell_angle_beta 143.759952
_cell_angle_gamma 90.000000
_cell_volume 3457.244372
_symmetry_space_group_name_H-M "C 2/M"
_symmetry_group_IT_number 12
_symmetry_cell_setting 'monoclinic'
loop_
_space_group_symop_operation_xyz
x,y,z
-x,y,-z
-x,-y,-z
x,-y,z
1/2+x,1/2+y,z
1/2-x,1/2+y,-z
1/2-x,1/2-y,-z
1/2+x,1/2-y,z
loop_
_atom_site_type_symbol
_atom_site_label
_atom_site_fract_x
_atom_site_fract_y
_atom_site_fract_z
Si Si1 0.439383 0.683683 0.861071
Si Si2 0.322521 0.183449 0.772623
Si Si3 0.058677 0.683682 0.292337
Si Si4 0.562183 0.686714 0.637468
Si Si5 0.320061 0.685145 0.281971
Si Si6 0.826606 0.683824 0.943537
Si Si7 0.558357 0.316338 0.794290
Si Si8 0.183290 0.683534 0.568034
O O1 0.437561 0.500000 0.855399
O O2 0.375374 0.745144 0.801637
O O3 0.446363 0.749340 0.793375
O O4 0.500000 0.730410 0.000000
O O5 0.337075 0.222496 0.876624
O O6 0.251457 0.244560 0.650285
O O7 0.322985 0.000000 0.767380
O O8 0.055160 0.500000 0.283866
O O9 0.126265 0.727067 0.429623
O O10 0.001392 0.745223 0.254404
O O11 0.500000 0.737032 0.500000
O O12 0.561773 0.500000 0.637104
O O13 0.626679 0.733633 0.694021
O O14 0.559601 0.736033 0.714726
O O15 0.322619 0.500000 0.293478
O O16 0.247249 0.723867 0.151237
O O17 0.332669 0.757233 0.377418
O O18 0.833935 0.500000 0.961747
O O19 0.877225 0.766596 0.068959
O O20 0.552686 0.500000 0.786885
O O21 0.188953 0.500000 0.577596
#
# Coordination Sequence:
#
# PCOD9207417 Si02
#       8
#     8   8   8   8   8   8   8   8
#     4  11  24  40  60  86 113 143 184 233 276 318
#     4  10  21  38  61  85 112 150 186 219 271 333
#     4  11  24  40  58  81 112 149 184 223 277 335
#     4   9  18  33  54  80 109 142 184 232 278 328
#     4   9  18  35  58  81 109 149 189 223 271 333
#     4   9  19  35  55  80 112 148 183 222 271 329
#     4  11  22  35  56  83 109 143 187 233 278 325
#     4  10  21  37  58  85 114 144 183 230 274 320
#
# _framework density 18.511852999999999
#
# number of rings (size 3 to 8) (size 9 to 14) (size 15 to 20)
#    0.000    2.000    0.000    4.125    0.000    9.500 
#    0.000    1.250    0.000    3.375    0.000    0.000 
#    0.000    0.000    0.000    0.000    0.000    0.000 
#
# Total GULP energy -178781.156954 kJ/mol
# GULP energy per Si atom -5586.911155 kJ/mol
# Density = 1.846972 g / cm^3
# Si number density = 18.511853 Si / 1000 Ang^3
#
#
#
# Elastic Constant Matrix: (Units=GPa)
#
#
# Indices 1 2 3 4 5 6 
#
# 1 171.1982 42.5153 90.7708 0.0000 5.7607 0.0000
# 2 42.5153 37.4331 51.5509 0.0000 -3.5525 0.0000
# 3 90.7708 51.5509 159.9602 0.0000 -11.9068 0.0000
# 4 0.0000 0.0000 0.0000 23.3503 0.0000 0.6455
# 5 5.7607 -3.5525 -11.9068 0.0000 19.1323 0.0000
# 6 0.0000 0.0000 0.0000 0.6455 0.0000 26.3361
#
#
#
# Elastic Compliance Matrix: (Units=1/GPa)
#
#
# Indices 1 2 3 4 5 6 
#
# 1 0.009718 -0.006101 -0.004038 0.000000 -0.006572 0.000000
# 2 -0.006101 0.051872 -0.013004 0.000000 0.003376 0.000000
# 3 -0.004038 -0.013004 0.013259 0.000000 0.007053 0.000000
# 4 0.000000 0.000000 0.000000 0.042855 0.000000 -0.001050
# 5 -0.006572 0.003376 0.007053 0.000000 0.059262 0.000000
# 6 0.000000 0.000000 0.000000 -0.001050 0.000000 0.037996
#
#
# Mechanical properties :
#
#
# Convention : Reuss Voigt Hill
#
# Bulk Modulus (GPa) = 35.00900 82.02948 58.51924
# Shear Modulus (GPa) = 18.46600 26.01404 22.24002
#
# Velocity S-wave (km/s) = 3.16179 3.75275 3.46987
# Velocity P-wave (km/s) = 5.68172 7.94894 6.90896
#
# Compressibility (1/GPa) = 0.02856408
#
# Stress axis : x y z
#
# Youngs Moduli (GPa) = 102.89938 19.27836 75.42321
#
# Poissons Ratio (x) = 0.11761 0.30454
# Poissons Ratio (y) = 0.62776 0.98078
# Poissons Ratio (z) = 0.41548 0.25069
#
# Static dielectric constant tensor:
#      x y z
#    x 1.609720 0.000000 0.004760 
#    y 0.000000 1.622390 0.000000 
#    z 0.004760 0.000000 1.620680 
# 
# From -- ./inp_files/295771.got.cif
#   From: 2010.05.17/outbox.cif.g08.bks.cpg/sg12_148_cif.got.tgz:295771.got - 2010.06.03 13:09:07.
