data_PCOD9207330
_publ_section_title
;
Structure prediction by ZEFSAII (Michael W. Deem and Ramdas Pophale) SiO2 
 PCOD9207330
Probable space group: C 2/M
;
_chemical_formula_sum "Si O2"
_cell_formula_units_Z 32
_cell_length_a 32.732305
_cell_length_b 8.760056
_cell_length_c 7.185832
_cell_angle_alpha 90.000000
_cell_angle_beta 61.052131
_cell_angle_gamma 90.000000
_cell_volume 1803.011879
_symmetry_space_group_name_H-M "C 2/M"
_symmetry_group_IT_number 12
_symmetry_cell_setting 'monoclinic'
loop_
_space_group_symop_operation_xyz
x,y,z
-x,y,-z
-x,-y,-z
x,-y,z
1/2+x,1/2+y,z
1/2-x,1/2+y,-z
1/2-x,1/2-y,-z
1/2+x,1/2-y,z
loop_
_atom_site_type_symbol
_atom_site_label
_atom_site_fract_x
_atom_site_fract_y
_atom_site_fract_z
Si Si1 0.497960 0.183032 0.286412
Si Si2 0.927237 0.182303 0.159441
Si Si3 0.325111 0.817909 0.332896
Si Si4 0.744081 0.682289 0.808560
O O1 0.500000 0.218298 0.500000
O O2 0.452006 0.249553 0.288395
O O3 0.498716 0.000000 0.261184
O O4 0.541512 0.254519 0.079740
O O5 0.874556 0.238897 0.255214
O O6 0.929706 0.000000 0.158063
O O7 0.299212 0.755963 0.206318
O O8 0.289817 0.785377 0.581690
O O9 0.331141 0.000000 0.306086
O O10 0.738126 0.500000 0.830094
O O11 0.750000 0.750000 0.000000
#
# Coordination Sequence:
#
# PCOD9207330 Si02
#       4
#     8   8   8   8
#     4  10  21  38  59  81 109 145 183 224 271 324
#     4  11  22  36  57  83 112 144 180 226 274 322
#     4  10  21  38  58  80 110 146 184 225 270 323
#     4  10  21  37  58  83 111 144 182 226 274 323
#
# _framework density 17.748079000000001
#
# number of rings (size 3 to 8) (size 9 to 14) (size 15 to 20)
#    0.000    1.750    0.000    6.000    0.000    7.000 
#    0.000    2.500    0.000    0.000    0.000    0.000 
#    0.000    0.000    0.000    0.000    0.000    0.000 
#
# Total GULP energy -89403.831708 kJ/mol
# GULP energy per Si atom -5587.739482 kJ/mol
# Density = 1.770768 g / cm^3
# Si number density = 17.748079 Si / 1000 Ang^3
#
#
#
# Elastic Constant Matrix: (Units=GPa)
#
#
# Indices 1 2 3 4 5 6 
#
# 1 179.6812 90.0801 96.0275 0.0000 6.9354 0.0000
# 2 90.0801 116.4339 73.4442 0.0000 11.6169 0.0000
# 3 96.0275 73.4442 118.4092 0.0000 38.7553 0.0000
# 4 0.0000 0.0000 0.0000 -2.9299 0.0000 -1.4833
# 5 6.9354 11.6169 38.7553 0.0000 26.3303 0.0000
# 6 0.0000 0.0000 0.0000 -1.4833 0.0000 37.7448
#
#
#
# Elastic Compliance Matrix: (Units=1/GPa)
#
#
# Indices 1 2 3 4 5 6 
#
# 1 0.017636 -0.002434 -0.022429 0.000000 0.029442 0.000000
# 2 -0.002434 0.017122 -0.012318 0.000000 0.011217 0.000000
# 3 -0.022429 -0.012318 0.058973 0.000000 -0.075459 0.000000
# 4 0.000000 0.000000 0.000000 -0.334653 0.000000 -0.013151
# 5 0.029442 0.011217 -0.075459 0.000000 0.136343 0.000000
# 6 0.000000 0.000000 0.000000 -0.013151 0.000000 0.025977
#
#
# Mechanical properties :
#
#
# Convention : Reuss Voigt Hill
#
# Bulk Modulus (GPa) = 51.62728 103.73642 77.68185
# Shear Modulus (GPa) = 2257.69888 22.56054 1140.12971
#
# Velocity S-wave (km/s) = 35.70493 3.56919 25.37303
# Velocity P-wave (km/s) = 41.58055 8.69263 30.03751
#
# Compressibility (1/GPa) = 0.01936961
#
# Stress axis : x y z
#
# Youngs Moduli (GPa) = 56.70199 58.40396 16.95703
#
# Poissons Ratio (x) = 0.14215 0.38033
# Poissons Ratio (y) = 0.13801 0.20887
# Poissons Ratio (z) = 1.27177 0.71939
#
# Static dielectric constant tensor:
#      x y z
#    x 1.574970 0.000000 -0.001410 
#    y 0.000000 1.591140 0.000000 
#    z -0.001410 0.000000 1.584760 
# 
# From -- ./inp_files/30186.got.cif
#   From: 2010.05.17/outbox.cif.g08.bks.cpg/sg12_16_cif.got.tgz:30186.got - 2010.06.03 13:09:07.
