data_PCOD9207249
_publ_section_title
;
Structure prediction by ZEFSAII (Michael W. Deem and Ramdas Pophale) SiO2 
 PCOD9207249
Probable space group: C 2/M
;
_chemical_formula_sum "Si O2"
_cell_formula_units_Z 64
_cell_length_a 30.581235
_cell_length_b 8.937647
_cell_length_c 13.078553
_cell_angle_alpha 90.000000
_cell_angle_beta 57.923652
_cell_angle_gamma 90.000000
_cell_volume 3028.978878
_symmetry_space_group_name_H-M "C 2/M"
_symmetry_group_IT_number 12
_symmetry_cell_setting 'monoclinic'
loop_
_space_group_symop_operation_xyz
x,y,z
-x,y,-z
-x,-y,-z
x,-y,z
1/2+x,1/2+y,z
1/2-x,1/2+y,-z
1/2-x,1/2-y,-z
1/2+x,1/2-y,z
loop_
_atom_site_type_symbol
_atom_site_label
_atom_site_fract_x
_atom_site_fract_y
_atom_site_fract_z
Si Si1 0.870399 0.322626 0.968847
Si Si2 0.870845 0.325023 0.398195
Si Si3 0.263676 0.179238 0.182026
Si Si4 0.933572 0.678280 0.682169
Si Si5 0.976205 0.830109 0.321804
Si Si6 0.459799 0.670380 0.968943
Si Si7 0.789314 0.178425 0.369206
Si Si8 0.841203 0.323183 0.663294
O O1 0.871811 0.500000 0.983238
O O2 0.897114 0.294815 0.826701
O O3 0.905989 0.249928 0.012127
O O4 0.810822 0.275620 0.049480
O O5 0.868740 0.500000 0.372919
O O6 0.928196 0.274221 0.354853
O O7 0.845401 0.224218 0.342743
O O8 0.839685 0.304707 0.543151
O O9 0.279077 0.247994 0.272560
O O10 0.207183 0.241333 0.226704
O O11 0.261178 0.000000 0.191584
O O12 0.944071 0.500000 0.661699
O O13 0.897282 0.726773 0.633796
O O14 0.986570 0.763253 0.637608
O O15 0.010506 0.833632 0.175978
O O16 0.959807 0.000000 0.365339
O O17 0.449203 0.500000 0.016128
O O18 0.500000 0.739509 0.000000
O O19 0.750000 0.250000 0.500000
O O20 0.782924 0.000000 0.372503
O O21 0.837611 0.500000 0.690722
#
# Coordination Sequence:
#
# PCOD9207249 Si02
#       8
#     8   8   8   8   8   8   8   8
#     4   9  20  37  57  84 115 149 191 238 288 343
#     4  11  23  39  59  86 118 154 196 239 288 347
#     4  11  23  38  58  88 121 154 192 238 291 348
#     4   9  19  40  63  83 114 154 196 244 293 345
#     4  10  21  37  57  85 117 151 193 240 294 347
#     4   9  19  35  54  79 110 147 190 237 288 344
#     4  12  24  40  61  85 117 156 193 239 290 342
#     4  10  22  39  61  85 112 154 201 242 291 347
#
# _framework density 21.129234
#
# number of rings (size 3 to 8) (size 9 to 14) (size 15 to 20)
#    0.000    1.875    1.250    2.250    1.750    3.750 
#    0.000    2.500    0.000    0.000    0.000    0.000 
#    0.000    0.000    0.000    0.000    0.000    0.000 
#
# Total GULP energy -178810.571631 kJ/mol
# GULP energy per Si atom -5587.830363 kJ/mol
# Density = 2.108114 g / cm^3
# Si number density = 21.129234 Si / 1000 Ang^3
#
#
#
# Elastic Constant Matrix: (Units=GPa)
#
#
# Indices 1 2 3 4 5 6 
#
# 1 100.4967 8.0281 -4.9085 0.0000 -6.3922 0.0000
# 2 8.0281 32.8642 8.1291 0.0000 -3.6689 0.0000
# 3 -4.9085 8.1291 26.7361 0.0000 -17.0465 0.0000
# 4 0.0000 0.0000 0.0000 18.9005 0.0000 -9.1857
# 5 -6.3922 -3.6689 -17.0465 0.0000 33.8334 0.0000
# 6 0.0000 0.0000 0.0000 -9.1857 0.0000 35.7449
#
#
#
# Elastic Compliance Matrix: (Units=1/GPa)
#
#
# Indices 1 2 3 4 5 6 
#
# 1 0.010840 -0.003632 0.006113 0.000000 0.004734 0.000000
# 2 -0.003632 0.034228 -0.013473 0.000000 -0.003762 0.000000
# 3 0.006113 -0.013473 0.062505 0.000000 0.031186 0.000000
# 4 0.000000 0.000000 0.000000 0.060460 0.000000 0.015537
# 5 0.004734 -0.003762 0.031186 0.000000 0.045756 0.000000
# 6 0.000000 0.000000 0.000000 0.015537 0.000000 0.031969
#
#
# Mechanical properties :
#
#
# Convention : Reuss Voigt Hill
#
# Bulk Modulus (GPa) = 11.68355 20.28827 15.98591
# Shear Modulus (GPa) = 16.87647 27.61897 22.24772
#
# Velocity S-wave (km/s) = 2.82924 3.61937 3.24842
# Velocity P-wave (km/s) = 4.02671 5.20473 4.65315
#
# Compressibility (1/GPa) = 0.08559042
#
# Stress axis : x y z
#
# Youngs Moduli (GPa) = 92.24777 29.21594 15.99872
#
# Poissons Ratio (x) = 0.10610 -0.09780
# Poissons Ratio (y) = 0.33501 0.21554
# Poissons Ratio (z) = -0.56389 0.39361
#
# Static dielectric constant tensor:
#      x y z
#    x 1.774620 0.000000 -0.011100 
#    y 0.000000 1.718590 0.000000 
#    z -0.011100 0.000000 1.798520 
# 
# From -- ./inp_files/249687.got.cif
#   From: 2010.05.17/outbox.cif.g08.bks.cpg/sg12_125_cif.got.tgz:249687.got - 2010.06.03 13:09:07.
