data_PCOD9207035
_publ_section_title
;
Structure prediction by ZEFSAII (Michael W. Deem and Ramdas Pophale) SiO2 
 PCOD9207035
Probable space group: C 2/M
;
_chemical_formula_sum "Si O2"
_cell_formula_units_Z 56
_cell_length_a 17.186224
_cell_length_b 21.942049
_cell_length_c 8.467975
_cell_angle_alpha 90.000000
_cell_angle_beta 61.388718
_cell_angle_gamma 90.000000
_cell_volume 2803.345815
_symmetry_space_group_name_H-M "C 2/M"
_symmetry_group_IT_number 12
_symmetry_cell_setting 'monoclinic'
loop_
_space_group_symop_operation_xyz
x,y,z
-x,y,-z
-x,-y,-z
x,-y,z
1/2+x,1/2+y,z
1/2-x,1/2+y,-z
1/2-x,1/2-y,-z
1/2+x,1/2-y,z
loop_
_atom_site_type_symbol
_atom_site_label
_atom_site_fract_x
_atom_site_fract_y
_atom_site_fract_z
Si Si1 0.512743 0.427608 0.804606
Si Si2 0.861624 0.628747 0.510006
Si Si3 0.815092 0.429242 0.877370
Si Si4 0.343750 0.627060 0.811043
Si Si5 0.204987 0.928356 0.472986
Si Si6 0.595371 0.756553 0.331514
Si Si7 0.535457 0.146638 0.139885
O O1 0.495206 0.500000 0.803480
O O2 0.441659 0.392146 0.769442
O O3 0.612878 0.416473 0.653412
O O4 0.500000 0.411710 0.000000
O O5 0.854569 0.583504 0.665802
O O6 0.782030 0.612651 0.471126
O O7 0.860190 0.695908 0.589986
O O8 0.953981 0.624338 0.327645
O O9 0.795844 0.500000 0.917953
O O10 0.887251 0.403714 0.930486
O O11 0.725821 0.390125 0.985192
O O12 0.313022 0.588061 0.690560
O O13 0.347139 0.697562 0.760662
O O14 0.226945 0.000000 0.468918
O O15 0.500000 0.739112 0.500000
O O16 0.574901 0.794526 0.191919
O O17 0.500000 0.159205 0.000000
#
# Coordination Sequence:
#
# PCOD9207035 Si02
#       7
#     8   8   8   8   8   8   8
#     4  10  21  37  56  81 116 157 200 247 302 363
#     4  10  22  41  62  87 123 162 202 250 303 363
#     4  11  23  39  62  91 123 162 202 243 305 374
#     4  12  23  38  60  88 123 158 202 254 301 353
#     4  11  22  36  59  89 119 156 203 253 305 358
#     4   9  21  41  62  86 121 164 206 246 300 363
#     4  10  22  41  64  91 120 154 202 257 304 355
#
# _framework density 19.976130000000001
#
# number of rings (size 3 to 8) (size 9 to 14) (size 15 to 20)
#    0.000    1.571    0.000    6.000    0.000    7.714 
#    0.000    4.286    0.000    0.000    0.000    0.000 
#    0.000    0.000    0.000    0.000    0.000    0.000 
#
# Total GULP energy -156540.867335 kJ/mol
# GULP energy per Si atom -5590.745262 kJ/mol
# Density = 1.993066 g / cm^3
# Si number density = 19.976130 Si / 1000 Ang^3
#
#
#
# Elastic Constant Matrix: (Units=GPa)
#
#
# Indices 1 2 3 4 5 6 
#
# 1 70.9986 36.1413 -2.2948 0.0000 -5.1038 0.0000
# 2 36.1413 94.0189 29.6623 0.0000 -24.1267 0.0000
# 3 -2.2948 29.6623 61.5375 0.0000 -5.9909 0.0000
# 4 0.0000 0.0000 0.0000 18.6555 0.0000 -6.6671
# 5 -5.1038 -24.1267 -5.9909 0.0000 27.0745 0.0000
# 6 0.0000 0.0000 0.0000 -6.6671 0.0000 24.3570
#
#
#
# Elastic Compliance Matrix: (Units=1/GPa)
#
#
# Indices 1 2 3 4 5 6 
#
# 1 0.019049 -0.010020 0.005131 0.000000 -0.004203 0.000000
# 2 -0.010020 0.021221 -0.009142 0.000000 0.014999 0.000000
# 3 0.005131 -0.009142 0.020593 0.000000 -0.002623 0.000000
# 4 0.000000 0.000000 0.000000 0.059416 0.000000 0.016263
# 5 -0.004203 0.014999 -0.002623 0.000000 0.048928 0.000000
# 6 0.000000 0.000000 0.000000 0.016263 0.000000 0.045508
#
#
# Mechanical properties :
#
#
# Convention : Reuss Voigt Hill
#
# Bulk Modulus (GPa) = 30.48720 39.28585 34.88653
# Shear Modulus (GPa) = 19.70749 24.88716 22.29732
#
# Velocity S-wave (km/s) = 3.14435 3.53348 3.34458
# Velocity P-wave (km/s) = 5.33643 6.02963 5.69359
#
# Compressibility (1/GPa) = 0.03280065
#
# Stress axis : x y z
#
# Youngs Moduli (GPa) = 52.49615 47.12294 48.56007
#
# Poissons Ratio (x) = 0.47216 -0.24916
# Poissons Ratio (y) = 0.52600 0.44396
# Poissons Ratio (z) = -0.26935 0.43082
#
# Static dielectric constant tensor:
#      x y z
#    x 1.683820 0.000000 -0.005220 
#    y 0.000000 1.682660 0.000000 
#    z -0.005220 0.000000 1.727510 
# 
# From -- ./inp_files/65736.got.cif
#   From: 2010.05.17/outbox.cif.g08.bks.cpg/sg12_33_cif.got.tgz:65736.got - 2010.06.03 13:09:07.
