data_PCOD9207973
_publ_section_title
;
Structure prediction by ZEFSAII (Michael W. Deem and Ramdas Pophale) SiO2 
 PCOD9207973
Probable space group: C 2/M
;
_chemical_formula_sum "Si O2"
_cell_formula_units_Z 56
_cell_length_a 21.093962
_cell_length_b 17.522019
_cell_length_c 20.180219
_cell_angle_alpha 90.000000
_cell_angle_beta 158.396137
_cell_angle_gamma 90.000000
_cell_volume 2746.230042
_symmetry_space_group_name_H-M "C 2/M"
_symmetry_group_IT_number 12
_symmetry_cell_setting 'monoclinic'
loop_
_space_group_symop_operation_xyz
x,y,z
-x,y,-z
-x,-y,-z
x,-y,z
1/2+x,1/2+y,z
1/2-x,1/2+y,-z
1/2-x,1/2-y,-z
1/2+x,1/2-y,z
loop_
_atom_site_type_symbol
_atom_site_label
_atom_site_fract_x
_atom_site_fract_y
_atom_site_fract_z
Si Si1 0.333511 0.182208 0.536514
Si Si2 0.026989 0.754559 0.599012
Si Si3 0.666940 0.412849 0.876627
Si Si4 0.123603 0.914567 0.513931
Si Si5 0.428276 0.723964 0.002774
Si Si6 0.481422 0.146225 0.815261
Si Si7 0.987651 0.091845 0.829739
O O1 0.250000 0.250000 0.500000
O O2 0.429431 0.216226 0.566048
O O3 0.457181 0.146619 0.712513
O O4 0.194996 0.121633 0.375388
O O5 0.949990 0.840636 0.520271
O O6 0.000000 0.718778 0.500000
O O7 0.228668 0.746302 0.809473
O O8 0.714065 0.500000 0.934340
O O9 0.489317 0.411071 0.663147
O O10 0.624401 0.379080 0.906938
O O11 0.822965 0.380479 0.985838
O O12 0.324710 0.902252 0.693149
O O13 0.097875 0.000000 0.517203
O O14 0.500000 0.742407 0.000000
O O15 0.525958 0.772932 0.154215
O O16 0.464031 0.636367 0.056687
O O17 0.990286 0.000000 0.836912
#
# Coordination Sequence:
#
# PCOD9207973 Si02
#       7
#     8   8   8   8   8   8   8
#     4  12  22  40  68 101 131 174 224 275 338 407
#     4  12  25  45  68  95 137 180 230 288 340 412
#     4  10  21  37  60  96 132 169 214 272 339 401
#     4  11  22  39  63  97 138 176 219 279 341 400
#     4  12  26  44  67  96 132 182 237 283 340 409
#     4  12  22  39  68  96 134 176 228 279 332 408
#     4  11  23  42  67  99 139 174 220 286 349 405
#
# _framework density 20.391590999999998
#
# number of rings (size 3 to 8) (size 9 to 14) (size 15 to 20)
#    0.000    0.571    5.714    3.000    0.000    2.286 
#    0.000    0.714    0.000    3.857    0.000    0.000 
#    0.000    0.000    0.000    0.000    0.000    0.000 
#
# Total GULP energy -156254.659890 kJ/mol
# GULP energy per Si atom -5580.523568 kJ/mol
# Density = 2.034518 g / cm^3
# Si number density = 20.391591 Si / 1000 Ang^3
#
#
#
# Elastic Constant Matrix: (Units=GPa)
#
#
# Indices 1 2 3 4 5 6 
#
# 1 126.0626 32.9103 38.0609 0.0052 9.9562 0.0002
# 2 32.9103 80.5166 33.6003 0.0084 14.0971 0.0014
# 3 38.0609 33.6003 110.7973 0.0111 16.9824 0.0020
# 4 0.0052 0.0084 0.0111 21.0460 0.0037 0.3716
# 5 9.9562 14.0971 16.9824 0.0037 33.4035 -0.0002
# 6 0.0002 0.0014 0.0020 0.3716 -0.0002 14.6088
#
#
#
# Elastic Compliance Matrix: (Units=1/GPa)
#
#
# Indices 1 2 3 4 5 6 
#
# 1 0.009396 -0.002798 -0.002311 0.000000 -0.000445 0.000000
# 2 -0.002798 0.015598 -0.003132 -0.000003 -0.004157 -0.000001
# 3 -0.002311 -0.003132 0.011345 -0.000003 -0.003757 -0.000001
# 4 0.000000 -0.000003 -0.000003 0.047536 -0.000002 -0.001209
# 5 -0.000445 -0.004157 -0.003757 -0.000002 0.033734 0.000001
# 6 0.000000 -0.000001 -0.000001 -0.001209 0.000001 0.068483
#
#
# Mechanical properties :
#
#
# Convention : Reuss Voigt Hill
#
# Bulk Modulus (GPa) = 50.36019 58.50217 54.43118
# Shear Modulus (GPa) = 23.90131 27.99866 25.94999
#
# Velocity S-wave (km/s) = 3.42733 3.70949 3.57120
# Velocity P-wave (km/s) = 6.35707 6.86285 6.61479
#
# Compressibility (1/GPa) = 0.01985695
#
# Stress axis : x y z
#
# Youngs Moduli (GPa) = 106.42916 64.10958 88.14438
#
# Poissons Ratio (x) = 0.17940 0.20369
# Poissons Ratio (y) = 0.29782 0.27607
# Poissons Ratio (z) = 0.24595 0.20079
#
# Static dielectric constant tensor:
#      x y z
#    x 1.747630 0.000000 -0.003190 
#    y 0.000000 1.768290 0.000000 
#    z -0.003190 0.000000 1.766270 
# 
# From -- ./inp_files/322723.got.cif
#   From: 2010.05.17/outbox.cif.g08.bks.cpg/sg12_162_cif.got.tgz:322723.got - 2010.06.03 13:09:07.
