data_PCOD9207896
_publ_section_title
;
Structure prediction by ZEFSAII (Michael W. Deem and Ramdas Pophale) SiO2 
 PCOD9207896
Probable space group: C 2/M
;
_chemical_formula_sum "Si O2"
_cell_formula_units_Z 56
_cell_length_a 13.351452
_cell_length_b 26.458219
_cell_length_c 9.090917
_cell_angle_alpha 90.000000
_cell_angle_beta 63.956570
_cell_angle_gamma 90.000000
_cell_volume 2885.335189
_symmetry_space_group_name_H-M "C 2/M"
_symmetry_group_IT_number 12
_symmetry_cell_setting 'monoclinic'
loop_
_space_group_symop_operation_xyz
x,y,z
-x,y,-z
-x,-y,-z
x,-y,z
1/2+x,1/2+y,z
1/2-x,1/2+y,-z
1/2-x,1/2-y,-z
1/2+x,1/2-y,z
loop_
_atom_site_type_symbol
_atom_site_label
_atom_site_fract_x
_atom_site_fract_y
_atom_site_fract_z
Si Si1 0.713908 0.851288 0.736670
Si Si2 0.893068 0.217240 0.472991
Si Si3 0.702286 0.805751 0.066758
Si Si4 0.388834 0.659153 0.172494
Si Si5 0.380516 0.441628 0.656290
Si Si6 0.531035 0.826316 0.633523
Si Si7 0.033961 0.055333 0.810473
O O1 0.787347 0.805645 0.622712
O O2 0.788269 0.901483 0.674462
O O3 0.603695 0.854947 0.708200
O O4 0.695354 0.837156 0.919106
O O5 0.897555 0.197139 0.303608
O O6 0.898259 0.277547 0.464697
O O7 0.000000 0.199990 0.500000
O O8 0.785973 0.830111 0.131885
O O9 0.579843 0.805083 0.216770
O O10 0.750000 0.750000 0.000000
O O11 0.385782 0.603336 0.248286
O O12 0.500000 0.662580 0.000000
O O13 0.500000 0.433594 0.500000
O O14 0.347144 0.500000 0.657560
O O15 0.419605 0.433633 0.798507
O O16 0.500000 0.853764 0.500000
O O17 0.075691 0.000000 0.731920
O O18 0.000000 0.051027 0.000000
#
# Coordination Sequence:
#
# PCOD9207896 Si02
#       7
#     8   8   8   8   8   8   8
#     4  12  22  38  61  83 115 154 193 238 292 349
#     4  11  21  36  56  82 113 149 190 233 285 342
#     4  12  24  38  56  83 117 154 196 242 287 341
#     4  11  20  33  54  81 111 146 188 232 284 341
#     4  10  21  37  60  90 119 148 187 237 293 350
#     4  11  24  40  56  80 114 154 197 238 284 342
#     4   9  17  30  49  77 110 139 172 220 277 333
#
# _framework density 19.408491000000001
#
# number of rings (size 3 to 8) (size 9 to 14) (size 15 to 20)
#    0.000    1.143    0.000    9.857    0.000    0.000 
#    0.000    0.000    0.000    3.000    0.000    0.000 
#    0.000    0.000    0.000    0.000    0.000    0.000 
#
# Total GULP energy -156431.401280 kJ/mol
# GULP energy per Si atom -5586.835760 kJ/mol
# Density = 1.936432 g / cm^3
# Si number density = 19.408491 Si / 1000 Ang^3
#
#
#
# Elastic Constant Matrix: (Units=GPa)
#
#
# Indices 1 2 3 4 5 6 
#
# 1 149.7771 51.7482 44.3172 0.0000 26.2101 0.0000
# 2 51.7482 94.9055 9.5313 0.0000 8.8179 0.0000
# 3 44.3172 9.5313 99.3742 0.0000 19.8029 0.0000
# 4 0.0000 0.0000 0.0000 17.6019 0.0000 1.0313
# 5 26.2101 8.8179 19.8029 0.0000 40.0732 0.0000
# 6 0.0000 0.0000 0.0000 1.0313 0.0000 22.5557
#
#
#
# Elastic Compliance Matrix: (Units=1/GPa)
#
#
# Indices 1 2 3 4 5 6 
#
# 1 0.009940 -0.004738 -0.003207 0.000000 -0.003874 0.000000
# 2 -0.004738 0.013050 0.000905 0.000000 -0.000220 0.000000
# 3 -0.003207 0.000905 0.012233 0.000000 -0.004147 0.000000
# 4 0.000000 0.000000 0.000000 0.056965 0.000000 -0.002605
# 5 -0.003874 -0.000220 -0.004147 0.000000 0.029586 0.000000
# 6 0.000000 0.000000 0.000000 -0.002605 0.000000 0.044454
#
#
# Mechanical properties :
#
#
# Convention : Reuss Voigt Hill
#
# Bulk Modulus (GPa) = 47.29508 61.69448 54.49478
# Shear Modulus (GPa) = 26.68744 31.94349 29.31547
#
# Velocity S-wave (km/s) = 3.71218 4.06131 3.89066
# Velocity P-wave (km/s) = 6.54177 7.33817 6.95138
#
# Compressibility (1/GPa) = 0.02114385
#
# Stress axis : x y z
#
# Youngs Moduli (GPa) = 100.59992 76.62954 81.74931
#
# Poissons Ratio (x) = 0.36308 0.26213
# Poissons Ratio (y) = 0.47665 -0.07400
# Poissons Ratio (z) = 0.32258 -0.06936
#
# Static dielectric constant tensor:
#      x y z
#    x 1.726860 0.000000 0.082510 
#    y 0.000000 1.731880 0.000000 
#    z 0.082510 0.000000 1.792550 
# 
# From -- ./inp_files/53205.got.cif
#   From: 2010.05.17/outbox.cif.g08.bks.cpg/sg12_27_cif.got.tgz:53205.got - 2010.06.03 13:09:07.
