data_PCOD9207759
_publ_section_title
;
Structure prediction by ZEFSAII (Michael W. Deem and Ramdas Pophale) SiO2 
 PCOD9207759
Probable space group: C 2/M
;
_chemical_formula_sum "Si O2"
_cell_formula_units_Z 64
_cell_length_a 13.633475
_cell_length_b 25.427645
_cell_length_c 13.271734
_cell_angle_alpha 90.000000
_cell_angle_beta 137.084610
_cell_angle_gamma 90.000000
_cell_volume 3132.816377
_symmetry_space_group_name_H-M "C 2/M"
_symmetry_group_IT_number 12
_symmetry_cell_setting 'monoclinic'
loop_
_space_group_symop_operation_xyz
x,y,z
-x,y,-z
-x,-y,-z
x,-y,z
1/2+x,1/2+y,z
1/2-x,1/2+y,-z
1/2-x,1/2-y,-z
1/2+x,1/2-y,z
loop_
_atom_site_type_symbol
_atom_site_label
_atom_site_fract_x
_atom_site_fract_y
_atom_site_fract_z
Si Si1 0.655343 0.439954 0.594681
Si Si2 0.490602 0.787810 0.113268
Si Si3 0.959068 0.557712 0.352181
Si Si4 0.349829 0.940171 0.938558
Si Si5 0.161377 0.360966 0.393117
Si Si6 0.712984 0.347289 0.958426
Si Si7 0.102136 0.823126 0.282833
Si Si8 0.659234 0.607486 0.130868
O O1 0.500000 0.416771 0.500000
O O2 0.638425 0.500000 0.545878
O O3 0.739882 0.440946 0.763179
O O4 0.738468 0.406005 0.576944
O O5 0.586040 0.830143 0.245556
O O6 0.324801 0.800924 0.017372
O O7 0.554402 0.732453 0.199433
O O8 0.500000 0.791352 0.000000
O O9 0.997908 0.500000 0.338066
O O10 0.039504 0.607142 0.362638
O O11 0.000000 0.557590 0.500000
O O12 0.788478 0.566892 0.220596
O O13 0.367135 0.000000 0.990651
O O14 0.500000 0.923852 0.000000
O O15 0.292237 0.899703 0.977390
O O16 0.266535 0.324186 0.539168
O O17 0.683987 0.352697 0.055916
O O18 0.155943 0.861100 0.233227
O O19 0.947485 0.843359 0.209276
O O20 0.500000 0.583704 0.000000
#
# Coordination Sequence:
#
# PCOD9207759 Si02
#       8
#     8   8   8   8   8   8   8   8
#     4  10  21  38  60  89 128 167 203 253 318 379
#     4  12  25  43  67  96 128 168 220 272 335 391
#     4  11  23  42  68  98 133 176 221 272 334 396
#     4  10  21  37  59  91 128 163 205 256 315 381
#     4  12  23  42  69  96 129 170 220 271 320 399
#     4  11  21  40  66  93 126 174 215 264 330 387
#     4  11  25  43  64  92 130 170 220 276 328 387
#     4  10  22  42  65  93 133 172 216 281 328 383
#
# _framework density 20.428902000000001
#
# number of rings (size 3 to 8) (size 9 to 14) (size 15 to 20)
#    0.000    1.125    2.500    4.875    0.000    0.750 
#    0.000    2.500    0.000    0.375    0.000    0.000 
#    0.000    0.000    0.000    0.000    0.000    0.000 
#
# Total GULP energy -178762.932514 kJ/mol
# GULP energy per Si atom -5586.341641 kJ/mol
# Density = 2.038241 g / cm^3
# Si number density = 20.428902 Si / 1000 Ang^3
#
#
#
# Elastic Constant Matrix: (Units=GPa)
#
#
# Indices 1 2 3 4 5 6 
#
# 1 114.1250 38.8802 53.2319 0.0000 19.9627 0.0000
# 2 38.8802 95.8671 32.1114 0.0000 2.2155 0.0000
# 3 53.2319 32.1114 118.4928 0.0000 11.2834 0.0000
# 4 0.0000 0.0000 0.0000 18.7106 0.0000 16.0675
# 5 19.9627 2.2155 11.2834 0.0000 34.1133 0.0000
# 6 0.0000 0.0000 0.0000 16.0675 0.0000 24.6149
#
#
#
# Elastic Compliance Matrix: (Units=1/GPa)
#
#
# Indices 1 2 3 4 5 6 
#
# 1 0.013086 -0.003729 -0.004297 0.000000 -0.005994 0.000000
# 2 -0.003729 0.012538 -0.001913 0.000000 0.002001 0.000000
# 3 -0.004297 -0.001913 0.010983 0.000000 -0.000994 0.000000
# 4 0.000000 0.000000 0.000000 0.121617 0.000000 -0.079386
# 5 -0.005994 0.002001 -0.000994 0.000000 0.033020 0.000000
# 6 0.000000 0.000000 0.000000 -0.079386 0.000000 0.092446
#
#
# Mechanical properties :
#
#
# Convention : Reuss Voigt Hill
#
# Bulk Modulus (GPa) = 59.78090 64.10355 61.94222
# Shear Modulus (GPa) = 16.17365 29.10520 22.63943
#
# Velocity S-wave (km/s) = 2.81678 3.77862 3.33258
# Velocity P-wave (km/s) = 6.31707 7.10523 6.72271
#
# Compressibility (1/GPa) = 0.01672775
#
# Stress axis : x y z
#
# Youngs Moduli (GPa) = 76.41966 79.75721 91.05067
#
# Poissons Ratio (x) = 0.29743 0.39127
# Poissons Ratio (y) = 0.28498 0.17418
# Poissons Ratio (z) = 0.32839 0.15258
#
# Static dielectric constant tensor:
#      x y z
#    x 1.700940 0.000000 0.017620 
#    y 0.000000 1.747000 0.000000 
#    z 0.017620 0.000000 1.747910 
# 
# From -- ./inp_files/149828.got.cif
#   From: 2010.05.17/outbox.cif.g08.bks.cpg/sg12_75_cif.got.tgz:149828.got - 2010.06.03 13:09:07.
