data_PCOD9207892
_publ_section_title
;
Structure prediction by ZEFSAII (Michael W. Deem and Ramdas Pophale) SiO2 
 PCOD9207892
Probable space group: C 2/M
;
_chemical_formula_sum "Si O2"
_cell_formula_units_Z 56
_cell_length_a 23.462241
_cell_length_b 11.904243
_cell_length_c 28.696099
_cell_angle_alpha 90.000000
_cell_angle_beta 19.465501
_cell_angle_gamma 90.000000
_cell_volume 2670.854557
_symmetry_space_group_name_H-M "C 2/M"
_symmetry_group_IT_number 12
_symmetry_cell_setting 'monoclinic'
loop_
_space_group_symop_operation_xyz
x,y,z
-x,y,-z
-x,-y,-z
x,-y,z
1/2+x,1/2+y,z
1/2-x,1/2+y,-z
1/2-x,1/2-y,-z
1/2+x,1/2-y,z
loop_
_atom_site_type_symbol
_atom_site_label
_atom_site_fract_x
_atom_site_fract_y
_atom_site_fract_z
Si Si1 0.099536 0.123747 0.354907
Si Si2 0.270731 0.135073 0.123302
Si Si3 0.214487 0.379733 0.473568
Si Si4 0.591414 0.812329 0.822415
Si Si5 0.844839 0.374094 0.928377
Si Si6 0.005994 0.288258 0.277015
Si Si7 0.136274 0.325859 0.431541
O O1 0.193136 0.155008 0.234341
O O2 0.247304 0.123313 0.280012
O O3 0.954809 0.210088 0.481383
O O4 0.025458 0.000000 0.406262
O O5 0.141804 0.192978 0.186583
O O6 0.287494 0.000000 0.104700
O O7 0.452471 0.190946 0.970962
O O8 0.289164 0.500000 0.431006
O O9 0.055343 0.351582 0.629433
O O10 0.346093 0.278858 0.379060
O O11 0.165635 0.385370 0.457471
O O12 0.487626 0.863758 0.858940
O O13 0.683802 0.699752 0.732452
O O14 0.761222 0.500000 0.999083
O O15 0.926241 0.371224 0.814351
O O16 0.750000 0.250000 0.000000
O O17 0.000000 0.374380 0.500000
#
# Coordination Sequence:
#
# PCOD9207892 Si02
#       7
#     8   8   8   8   8   8   8
#     4  10  21  37  60  89 124 165 209 260 315 380
#     4  11  21  36  62  92 126 164 207 259 318 384
#     4  11  23  42  64  86 120 163 212 265 317 380
#     4  11  22  38  59  93 128 163 204 263 323 373
#     4  12  25  41  64  95 130 170 211 260 320 384
#     4  11  23  41  60  92 120 164 210 260 314 381
#     4  10  22  40  60  91 121 160 209 263 316 377
#
# _framework density 20.967072000000002
#
# number of rings (size 3 to 8) (size 9 to 14) (size 15 to 20)
#    0.000    1.143    4.286    2.571    0.000    5.714 
#    0.000    0.000    0.000    0.000    0.000    3.000 
#    0.000    0.000    0.000    0.000    0.000    0.000 
#
# Total GULP energy -156139.576046 kJ/mol
# GULP energy per Si atom -5576.413430 kJ/mol
# Density = 2.091935 g / cm^3
# Si number density = 20.967072 Si / 1000 Ang^3
#
#
#
# Elastic Constant Matrix: (Units=GPa)
#
#
# Indices 1 2 3 4 5 6 
#
# 1 91.0693 28.4396 11.8043 0.0032 10.4950 -0.0027
# 2 28.4396 104.6946 34.3772 0.0144 8.8012 -0.0062
# 3 11.8043 34.3772 73.3669 0.0414 16.2979 -0.0308
# 4 0.0032 0.0144 0.0414 1.3115 0.0033 -3.5139
# 5 10.4950 8.8012 16.2979 0.0033 34.5838 -0.0062
# 6 -0.0027 -0.0062 -0.0308 -3.5139 -0.0062 4.6205
#
#
#
# Elastic Compliance Matrix: (Units=1/GPa)
#
#
# Indices 1 2 3 4 5 6 
#
# 1 0.012286 -0.003138 0.000161 -0.000008 -0.003006 -0.000006
# 2 -0.003138 0.012095 -0.005239 0.000014 0.000343 -0.000009
# 3 0.000161 -0.005239 0.017618 0.000203 -0.007018 0.000255
# 4 -0.000008 0.000014 0.000203 -0.734897 -0.000126 -0.558884
# 5 -0.003006 0.000343 -0.007018 -0.000126 0.033048 -0.000100
# 6 -0.000006 -0.000009 0.000255 -0.558884 -0.000100 -0.208599
#
#
# Mechanical properties :
#
#
# Convention : Reuss Voigt Hill
#
# Bulk Modulus (GPa) = 39.11030 46.48590 42.79810
# Shear Modulus (GPa) = -5.92771 21.07048 7.57138
#
# Velocity S-wave (km/s) = -1.68324 3.17351 1.90235
# Velocity P-wave (km/s) = 3.86212 5.97053 5.02808
#
# Compressibility (1/GPa) = 0.02556871
#
# Stress axis : x y z
#
# Youngs Moduli (GPa) = 81.39347 82.67686 56.76028
#
# Poissons Ratio (x) = 0.25941 -0.00915
# Poissons Ratio (y) = 0.25538 0.29735
# Poissons Ratio (z) = -0.01312 0.43313
#
# Static dielectric constant tensor:
#      x y z
#    x 1.755690 0.000000 0.023150 
#    y 0.000000 1.795730 0.000010 
#    z 0.023150 0.000010 1.774870 
# 
# From -- ./inp_files/382839.got.cif
#   From: 2010.05.17/outbox.cif.g08.bks.cpg/sg12_192_cif.got.tgz:382839.got - 2010.06.03 13:09:07.
