data_PCOD9207622
_publ_section_title
;
Structure prediction by ZEFSAII (Michael W. Deem and Ramdas Pophale) SiO2 
 PCOD9207622
Probable space group: C 2/M
;
_chemical_formula_sum "Si O2"
_cell_formula_units_Z 56
_cell_length_a 14.968053
_cell_length_b 11.535634
_cell_length_c 18.206361
_cell_angle_alpha 90.000000
_cell_angle_beta 78.588546
_cell_angle_gamma 90.000000
_cell_volume 3081.474993
_symmetry_space_group_name_H-M "C 2/M"
_symmetry_group_IT_number 12
_symmetry_cell_setting 'monoclinic'
loop_
_space_group_symop_operation_xyz
x,y,z
-x,y,-z
-x,-y,-z
x,-y,z
1/2+x,1/2+y,z
1/2-x,1/2+y,-z
1/2-x,1/2-y,-z
1/2+x,1/2-y,z
loop_
_atom_site_type_symbol
_atom_site_label
_atom_site_fract_x
_atom_site_fract_y
_atom_site_fract_z
Si Si1 0.960886 0.365041 0.659181
Si Si2 0.354429 0.000000 0.053893
Si Si3 0.718641 0.134044 0.409209
Si Si4 0.172592 0.366562 0.589348
Si Si5 0.043559 0.500000 0.105336
Si Si6 0.549241 0.637230 0.917603
Si Si7 0.265160 0.239120 0.085135
Si Si8 0.067087 0.736183 0.183079
O O1 0.952848 0.500000 0.685776
O O2 0.878903 0.349389 0.614787
O O3 0.948452 0.275388 0.728064
O O4 0.063138 0.352787 0.611709
O O5 0.302694 0.888670 0.088891
O O6 0.453437 0.000000 0.072136
O O7 0.369771 0.000000 0.963467
O O8 0.780355 0.249898 0.383703
O O9 0.702697 0.132537 0.499377
O O10 0.750688 0.000000 0.384417
O O11 0.193226 0.500000 0.614687
O O12 0.041632 0.612413 0.154162
O O13 0.545530 0.500000 0.922681
O O14 0.653737 0.677079 0.902718
O O15 0.494816 0.676907 0.854331
O O16 0.500000 0.686493 0.000000
O O17 0.172331 0.249614 0.144515
O O18 0.250000 0.250000 0.000000
#
# Coordination Sequence:
#
# PCOD9207622 Si02
#       8
#     8   4   8   8   4   8   8   8
#     4  10  21  37  59  86 120 156 192 235 286 349
#     4  11  22  38  60  80 103 138 195 249 285 333
#     4   9  18  36  63  93 120 155 200 239 283 345
#     4   9  18  36  63  91 121 157 197 241 285 339
#     4  11  20  38  60  79 105 141 193 242 284 340
#     4  11  24  41  58  81 112 146 190 244 300 350
#     4  12  24  36  59  82 105 141 189 240 289 339
#     4  12  24  39  56  84 114 151 188 238 293 345
#
# _framework density 18.173114000000002
#
# number of rings (size 3 to 8) (size 9 to 14) (size 15 to 20)
#    0.000    1.429    5.000    0.429    3.000    2.857 
#    0.000    3.571    0.000    3.429    0.000    0.000 
#    0.000    0.000    0.000    0.000    0.000    0.000 
#
# Total GULP energy -156032.731636 kJ/mol
# GULP energy per Si atom -5572.597558 kJ/mol
# Density = 1.813175 g / cm^3
# Si number density = 18.173114 Si / 1000 Ang^3
#
#
#
# Elastic Constant Matrix: (Units=GPa)
#
#
# Indices 1 2 3 4 5 6 
#
# 1 113.5525 57.1076 8.7051 0.0000 -3.2377 0.0000
# 2 57.1076 126.2703 15.0593 0.0000 3.0275 0.0000
# 3 8.7051 15.0593 14.5966 0.0000 0.1422 0.0000
# 4 0.0000 0.0000 0.0000 20.1197 0.0000 7.4483
# 5 -3.2377 3.0275 0.1422 0.0000 14.7909 0.0000
# 6 0.0000 0.0000 0.0000 7.4483 0.0000 147.3092
#
#
#
# Elastic Compliance Matrix: (Units=1/GPa)
#
#
# Indices 1 2 3 4 5 6 
#
# 1 0.011625 -0.005146 -0.001659 0.000000 0.003614 0.000000
# 2 -0.005146 0.011355 -0.008613 0.000000 -0.003368 0.000000
# 3 -0.001659 -0.008613 0.078378 0.000000 0.000646 0.000000
# 4 0.000000 0.000000 0.000000 0.050651 0.000000 -0.002561
# 5 0.003614 -0.003368 0.000646 0.000000 0.069083 0.000000
# 6 0.000000 0.000000 0.000000 -0.002561 0.000000 0.006918
#
#
# Mechanical properties :
#
#
# Convention : Reuss Voigt Hill
#
# Bulk Modulus (GPa) = 14.17992 46.24037 30.21014
# Shear Modulus (GPa) = 17.70833 48.01380 32.86107
#
# Velocity S-wave (km/s) = 3.12496 5.14564 4.25694
# Velocity P-wave (km/s) = 4.56510 7.79763 6.38918
#
# Compressibility (1/GPa) = 0.07052225
#
# Stress axis : x y z
#
# Youngs Moduli (GPa) = 86.02228 88.06705 12.75867
#
# Poissons Ratio (x) = 0.45323 0.02116
# Poissons Ratio (y) = 0.44270 0.10989
# Poissons Ratio (z) = 0.14267 0.75851
#
# Static dielectric constant tensor:
#      x y z
#    x 1.580200 0.000000 -0.036020 
#    y 0.000000 1.650780 0.000000 
#    z -0.036020 0.000000 1.538800 
# 
# From -- ./inp_files/268673.got.cif
#   From: 2010.05.17/outbox.cif.g08.bks.cpg/sg12_135_cif.got.tgz:268673.got - 2010.06.03 13:09:07.
