data_PCOD9207818
_publ_section_title
;
Structure prediction by ZEFSAII (Michael W. Deem and Ramdas Pophale) SiO2 
 PCOD9207818
Probable space group: C 2/M
;
_chemical_formula_sum "Si O2"
_cell_formula_units_Z 40
_cell_length_a 25.778957
_cell_length_b 8.932954
_cell_length_c 15.904460
_cell_angle_alpha 90.000000
_cell_angle_beta 36.253545
_cell_angle_gamma 90.000000
_cell_volume 2165.862978
_symmetry_space_group_name_H-M "C 2/M"
_symmetry_group_IT_number 12
_symmetry_cell_setting 'monoclinic'
loop_
_space_group_symop_operation_xyz
x,y,z
-x,y,-z
-x,-y,-z
x,-y,z
1/2+x,1/2+y,z
1/2-x,1/2+y,-z
1/2-x,1/2-y,-z
1/2+x,1/2-y,z
loop_
_atom_site_type_symbol
_atom_site_label
_atom_site_fract_x
_atom_site_fract_y
_atom_site_fract_z
Si Si1 0.262221 0.321504 0.849492
Si Si2 0.417303 0.180318 0.165772
Si Si3 0.261622 0.179189 0.668669
Si Si4 0.613878 0.678266 0.156303
Si Si5 0.064793 0.320306 0.661869
O O1 0.254109 0.500000 0.850306
O O2 0.277343 0.245576 0.740494
O O3 0.339878 0.289904 0.814640
O O4 0.174053 0.257462 0.007365
O O5 0.328662 0.254963 0.248926
O O6 0.433891 0.219710 0.241291
O O7 0.407722 0.000000 0.173093
O O8 0.500000 0.223420 0.000000
O O9 0.343011 0.218632 0.501877
O O10 0.255731 0.000000 0.680862
O O11 0.615974 0.500000 0.140659
O O12 0.516158 0.739912 0.277091
O O13 0.053074 0.500000 0.671013
#
# Coordination Sequence:
#
# PCOD9207818 Si02
#       5
#     8   8   8   8   8
#     4  10  21  38  59  83 114 150 188 233 283 334
#     4  10  21  38  60  83 109 147 191 234 285 339
#     4  11  23  37  56  84 116 151 191 233 278 331
#     4  10  21  37  60  87 112 145 190 235 280 334
#     4  10  22  38  56  83 119 153 185 229 286 338
#
# _framework density 18.468388999999998
#
# number of rings (size 3 to 8) (size 9 to 14) (size 15 to 20)
#    0.000    1.800    0.000    3.600    0.000    7.600 
#    0.000    4.000    0.000    0.000    0.000    0.000 
#    0.000    0.000    0.000    0.000    0.000    0.000 
#
# Total GULP energy -111788.715879 kJ/mol
# GULP energy per Si atom -5589.435794 kJ/mol
# Density = 1.842635 g / cm^3
# Si number density = 18.468389 Si / 1000 Ang^3
#
#
#
# Elastic Constant Matrix: (Units=GPa)
#
#
# Indices 1 2 3 4 5 6 
#
# 1 79.7683 35.3055 44.5591 -0.0007 -43.4034 0.0003
# 2 35.3055 31.0134 26.1300 0.0000 -28.4300 0.0003
# 3 44.5591 26.1300 54.9036 -0.0005 -78.2767 0.0003
# 4 -0.0007 0.0000 -0.0005 30.1306 0.0003 -5.7184
# 5 -43.4034 -28.4300 -78.2767 0.0003 -6.1134 -0.0001
# 6 0.0003 0.0003 0.0003 -5.7184 -0.0001 33.4995
#
#
#
# Elastic Compliance Matrix: (Units=1/GPa)
#
#
# Indices 1 2 3 4 5 6 
#
# 1 0.029083 -0.023593 -0.007807 0.000000 0.003204 0.000000
# 2 -0.023593 0.071118 -0.012849 -0.000001 0.001297 0.000000
# 3 -0.007807 -0.012849 0.010121 0.000000 -0.014410 0.000000
# 4 0.000000 -0.000001 0.000000 0.034300 0.000000 0.005855
# 5 0.003204 0.001297 -0.014410 0.000000 -0.007850 0.000000
# 6 0.000000 0.000000 0.000000 0.005855 0.000000 0.030851
#
#
# Mechanical properties :
#
#
# Convention : Reuss Voigt Hill
#
# Bulk Modulus (GPa) = 45.82375 41.96384 43.89380
# Shear Modulus (GPa) = 18.98281 15.48272 17.23276
#
# Velocity S-wave (km/s) = 3.20949 2.89854 3.05797
# Velocity P-wave (km/s) = 6.21292 5.82867 6.02386
#
# Compressibility (1/GPa) = 0.02182275
#
# Stress axis : x y z
#
# Youngs Moduli (GPa) = 34.38413 14.06120 98.80242
#
# Poissons Ratio (x) = 0.33175 0.77139
# Poissons Ratio (y) = 0.81124 1.26950
# Poissons Ratio (z) = 0.26845 0.18067
#
# Static dielectric constant tensor:
#      x y z
#    x 1.612310 0.000000 0.006430 
#    y 0.000000 1.616500 0.000000 
#    z 0.006430 0.000000 1.607890 
# 
# From -- ./inp_files/211245.got.cif
#   From: 2010.05.17/outbox.cif.g08.bks.cpg/sg12_106_cif.got.tgz:211245.got - 2010.06.03 13:09:07.
