data_PCOD9207167
_publ_section_title
;
Structure prediction by ZEFSAII (Michael W. Deem and Ramdas Pophale) SiO2 
 PCOD9207167
Probable space group: C 2/M
;
_chemical_formula_sum "Si O2"
_cell_formula_units_Z 40
_cell_length_a 13.522251
_cell_length_b 29.140557
_cell_length_c 13.282129
_cell_angle_alpha 90.000000
_cell_angle_beta 21.394685
_cell_angle_gamma 90.000000
_cell_volume 1909.228696
_symmetry_space_group_name_H-M "C 2/M"
_symmetry_group_IT_number 12
_symmetry_cell_setting 'monoclinic'
loop_
_space_group_symop_operation_xyz
x,y,z
-x,y,-z
-x,-y,-z
x,-y,z
1/2+x,1/2+y,z
1/2-x,1/2+y,-z
1/2-x,1/2-y,-z
1/2+x,1/2-y,z
loop_
_atom_site_type_symbol
_atom_site_label
_atom_site_fract_x
_atom_site_fract_y
_atom_site_fract_z
Si Si1 0.412968 0.400350 0.785181
Si Si2 0.592393 0.946483 0.798618
Si Si3 0.964185 0.838678 0.913167
Si Si4 0.969149 0.718211 0.408823
Si Si5 0.220457 0.189144 0.205897
O O1 0.658477 0.417671 0.482383
O O2 0.515595 0.383041 0.796311
O O3 0.269794 0.355682 0.871305
O O4 0.176287 0.437868 0.012745
O O5 0.669856 0.000000 0.726999
O O6 0.500000 0.933688 0.000000
O O7 0.162313 0.797796 0.687343
O O8 0.000000 0.845299 0.000000
O O9 0.659395 0.821349 0.186294
O O10 0.096731 0.767471 0.262815
O O11 0.000000 0.718067 0.500000
O O12 0.000000 0.178847 0.500000
O O13 0.500000 0.200175 0.000000
#
# Coordination Sequence:
#
# PCOD9207167 Si02
#       5
#     8   8   8   8   8
#     4  12  23  37  62  90 116 151 196 242 287 344
#     4  11  24  43  65  89 118 147 179 230 302 374
#     4  10  21  37  57  82 117 160 203 238 274 326
#     4   9  18  34  53  76 115 163 199 234 281 326
#     4  11  21  34  54  83 120 155 194 243 288 336
#
# _framework density 20.950868
#
# number of rings (size 3 to 8) (size 9 to 14) (size 15 to 20)
#    0.000    1.400    0.000    8.400    0.000    3.200 
#    0.000    0.000    0.000    7.200    0.000    0.000 
#    0.000    0.000    0.000    0.000    0.000    0.000 
#
# Total GULP energy -111683.908052 kJ/mol
# GULP energy per Si atom -5584.195403 kJ/mol
# Density = 2.090318 g / cm^3
# Si number density = 20.950868 Si / 1000 Ang^3
#
#
#
# Elastic Constant Matrix: (Units=GPa)
#
#
# Indices 1 2 3 4 5 6 
#
# 1 101.7402 45.1433 43.0079 0.0018 4.5804 -0.0027
# 2 45.1433 82.1896 29.8473 0.0015 17.5641 -0.0052
# 3 43.0079 29.8473 105.8894 -0.0053 -2.8151 0.0321
# 4 0.0018 0.0015 -0.0053 34.7104 0.0022 -7.2334
# 5 4.5804 17.5641 -2.8151 0.0022 20.9958 -0.0106
# 6 -0.0027 -0.0052 0.0321 -7.2334 -0.0106 28.6313
#
#
#
# Elastic Compliance Matrix: (Units=1/GPa)
#
#
# Indices 1 2 3 4 5 6 
#
# 1 0.014469 -0.007025 -0.003838 0.000000 0.002205 0.000005
# 2 -0.007025 0.020751 -0.003429 0.000000 -0.016287 0.000001
# 3 -0.003838 -0.003429 0.012111 -0.000001 0.005330 -0.000013
# 4 0.000000 0.000000 -0.000001 0.030411 0.000000 0.007683
# 5 0.002205 -0.016287 0.005330 0.000000 0.061487 0.000014
# 6 0.000005 0.000001 -0.000013 0.007683 0.000014 0.036868
#
#
# Mechanical properties :
#
#
# Convention : Reuss Voigt Hill
#
# Bulk Modulus (GPa) = 53.34036 58.42402 55.88219
# Shear Modulus (GPa) = 23.70463 28.32221 26.01342
#
# Velocity S-wave (km/s) = 3.36734 3.68073 3.52751
# Velocity P-wave (km/s) = 6.37445 6.78310 6.58195
#
# Compressibility (1/GPa) = 0.01874753
#
# Stress axis : x y z
#
# Youngs Moduli (GPa) = 69.11301 48.19017 82.57035
#
# Poissons Ratio (x) = 0.33852 0.31691
# Poissons Ratio (y) = 0.48550 0.28313
# Poissons Ratio (z) = 0.26526 0.16524
#
# Static dielectric constant tensor:
#      x y z
#    x 2.036960 0.000050 -0.064290 
#    y 0.000050 1.773130 -0.000010 
#    z -0.064290 -0.000010 1.761510 
# 
# From -- ./inp_files/219034.got.cif
#   From: 2010.05.17/outbox.cif.g08.bks.cpg/sg12_110_cif.got.tgz:219034.got - 2010.06.03 13:09:07.
