data_PCOD9207623
_publ_section_title
;
Structure prediction by ZEFSAII (Michael W. Deem and Ramdas Pophale) SiO2 
 PCOD9207623
Probable space group: C 2/M
;
_chemical_formula_sum "Si O2"
_cell_formula_units_Z 64
_cell_length_a 28.983177
_cell_length_b 8.781613
_cell_length_c 14.673550
_cell_angle_alpha 90.000000
_cell_angle_beta 62.650773
_cell_angle_gamma 90.000000
_cell_volume 3317.244010
_symmetry_space_group_name_H-M "C 2/M"
_symmetry_group_IT_number 12
_symmetry_cell_setting 'monoclinic'
loop_
_space_group_symop_operation_xyz
x,y,z
-x,y,-z
-x,-y,-z
x,-y,z
1/2+x,1/2+y,z
1/2-x,1/2+y,-z
1/2-x,1/2-y,-z
1/2+x,1/2-y,z
loop_
_atom_site_type_symbol
_atom_site_label
_atom_site_fract_x
_atom_site_fract_y
_atom_site_fract_z
Si Si1 0.420869 0.179951 0.840182
Si Si2 0.129648 0.181297 0.941385
Si Si3 0.261552 0.818550 0.089487
Si Si4 0.971444 0.182311 0.309992
Si Si5 0.394252 0.820058 0.232212
Si Si6 0.614697 0.318177 0.467391
Si Si7 0.306572 0.179897 0.459648
Si Si8 0.658768 0.820414 0.249088
O O1 0.472817 0.240041 0.745594
O O2 0.372522 0.204340 0.816147
O O3 0.424994 0.000000 0.854432
O O4 0.409692 0.268022 0.943491
O O5 0.185517 0.250647 0.918243
O O6 0.111608 0.247767 0.861331
O O7 0.133369 0.000000 0.933792
O O8 0.212503 0.771105 0.195740
O O9 0.266124 0.000000 0.078477
O O10 0.250000 0.750000 0.000000
O O11 0.937859 0.239755 0.254300
O O12 0.937914 0.222474 0.430327
O O13 0.976441 0.000000 0.302347
O O14 0.340463 0.802175 0.337026
O O15 0.405494 0.000000 0.215575
O O16 0.615902 0.500000 0.454491
O O17 0.661464 0.264992 0.490598
O O18 0.623279 0.236215 0.364063
O O19 0.250000 0.250000 0.500000
O O20 0.303736 0.000000 0.483090
O O21 0.669599 0.000000 0.248216
#
# Coordination Sequence:
#
# PCOD9207623 Si02
#       8
#     8   8   8   8   8   8   8   8
#     4  11  24  42  65  91 123 162 208 259 311 367
#     4  12  25  41  64  93 126 164 207 255 308 370
#     4  12  24  41  64  90 126 166 206 254 310 367
#     4  10  22  42  66  92 124 161 206 258 313 368
#     4  10  22  41  63  89 123 162 205 254 309 367
#     4  10  22  40  62  89 124 162 203 254 310 367
#     4  10  21  37  59  86 120 159 204 252 304 366
#     4  11  24  41  63  92 125 164 210 256 307 368
#
# _framework density 19.293123000000001
#
# number of rings (size 3 to 8) (size 9 to 14) (size 15 to 20)
#    0.000    1.250    1.250    4.500    1.750    5.500 
#    0.000    5.000    0.000    0.000    0.000    0.000 
#    0.000    0.000    0.000    0.000    0.000    0.000 
#
# Total GULP energy -178993.489378 kJ/mol
# GULP energy per Si atom -5593.546543 kJ/mol
# Density = 1.924921 g / cm^3
# Si number density = 19.293123 Si / 1000 Ang^3
#
#
#
# Elastic Constant Matrix: (Units=GPa)
#
#
# Indices 1 2 3 4 5 6 
#
# 1 16.6882 1.7034 5.0428 0.0000 -19.4061 0.0000
# 2 1.7034 73.2732 25.5815 0.0000 1.7636 0.0000
# 3 5.0428 25.5815 73.8895 0.0000 10.7942 0.0000
# 4 0.0000 0.0000 0.0000 36.5353 0.0000 -1.3781
# 5 -19.4061 1.7636 10.7942 0.0000 34.3875 0.0000
# 6 0.0000 0.0000 0.0000 -1.3781 0.0000 34.0455
#
#
#
# Elastic Compliance Matrix: (Units=1/GPa)
#
#
# Indices 1 2 3 4 5 6 
#
# 1 0.252930 0.004933 -0.041697 0.000000 0.155573 0.000000
# 2 0.004933 0.015649 -0.006334 0.000000 0.003970 0.000000
# 3 -0.041697 -0.006334 0.023018 0.000000 -0.030432 0.000000
# 4 0.000000 0.000000 0.000000 0.027413 0.000000 0.001110
# 5 0.155573 0.003970 -0.030432 0.000000 0.126225 0.000000
# 6 0.000000 0.000000 0.000000 0.001110 0.000000 0.029417
#
#
# Mechanical properties :
#
#
# Convention : Reuss Voigt Hill
#
# Bulk Modulus (GPa) = 4.86855 25.38958 15.12907
# Shear Modulus (GPa) = 7.94515 29.76188 18.85352
#
# Velocity S-wave (km/s) = 2.03152 3.93188 3.12943
# Velocity P-wave (km/s) = 2.83402 5.81389 4.57346
#
# Compressibility (1/GPa) = 0.20540003
#
# Stress axis : x y z
#
# Youngs Moduli (GPa) = 3.95367 63.90250 43.44399
#
# Poissons Ratio (x) = -0.31523 1.81148
# Poissons Ratio (y) = -0.01950 0.27519
# Poissons Ratio (z) = 0.16486 0.40478
#
# Static dielectric constant tensor:
#      x y z
#    x 1.636710 0.000000 -0.009200 
#    y 0.000000 1.642170 0.000000 
#    z -0.009200 0.000000 1.673460 
# 
# From -- ./inp_files/249129.got.cif
#   From: 2010.05.17/outbox.cif.g08.bks.cpg/sg12_125_cif.got.tgz:249129.got - 2010.06.03 13:09:07.
