data_PCOD9207525
_publ_section_title
;
Structure prediction by ZEFSAII (Michael W. Deem and Ramdas Pophale) SiO2 
 PCOD9207525
Probable space group: C 2/M
;
_chemical_formula_sum "Si O2"
_cell_formula_units_Z 56
_cell_length_a 12.519652
_cell_length_b 22.390994
_cell_length_c 10.493597
_cell_angle_alpha 90.000000
_cell_angle_beta 66.308631
_cell_angle_gamma 90.000000
_cell_volume 2693.730833
_symmetry_space_group_name_H-M "C 2/M"
_symmetry_group_IT_number 12
_symmetry_cell_setting 'monoclinic'
loop_
_space_group_symop_operation_xyz
x,y,z
-x,y,-z
-x,-y,-z
x,-y,z
1/2+x,1/2+y,z
1/2-x,1/2+y,-z
1/2-x,1/2-y,-z
1/2+x,1/2-y,z
loop_
_atom_site_type_symbol
_atom_site_label
_atom_site_fract_x
_atom_site_fract_y
_atom_site_fract_z
Si Si1 0.381355 0.356191 0.981153
Si Si2 0.189268 0.567951 0.956871
Si Si3 0.972000 0.432937 0.712485
Si Si4 0.141679 0.653775 0.751865
Si Si5 0.177020 0.189451 0.516429
Si Si6 0.699340 0.841449 0.294878
Si Si7 0.466851 0.256598 0.744133
O O1 0.318105 0.411152 0.939374
O O2 0.404701 0.300503 0.874635
O O3 0.500000 0.370710 0.000000
O O4 0.287238 0.339712 0.133925
O O5 0.188715 0.500000 0.903673
O O6 0.145798 0.620149 0.883860
O O7 0.101323 0.567063 0.118919
O O8 0.997339 0.500000 0.663777
O O9 0.886142 0.397692 0.662185
O O10 0.084707 0.393474 0.682714
O O11 0.272926 0.665489 0.640017
O O12 0.057224 0.711878 0.777637
O O13 0.250000 0.250000 0.500000
O O14 0.225275 0.153987 0.614742
O O15 0.045054 0.203994 0.611884
O O16 0.616621 0.784658 0.302636
#
# Coordination Sequence:
#
# PCOD9207525 Si02
#       7
#     8   8   8   8   8   8   8
#     4  11  22  37  62  90 118 151 201 257 304 354
#     4  10  22  40  62  89 120 159 202 251 308 356
#     4   9  19  37  63  89 116 151 196 255 307 347
#     4  10  21  37  58  89 121 157 199 242 299 361
#     4  10  22  38  53  82 122 165 194 231 299 364
#     4  10  21  39  58  89 120 156 198 242 301 363
#     4  10  22  36  59  89 124 154 195 247 305 357
#
# _framework density 20.789012
#
# number of rings (size 3 to 8) (size 9 to 14) (size 15 to 20)
#    0.000    2.000    1.429    1.286    4.000   10.000 
#    0.000    2.143    0.000    2.571    0.000    0.000 
#    0.000    0.000    0.000    0.000    0.000    0.000 
#
# Total GULP energy -156287.969674 kJ/mol
# GULP energy per Si atom -5581.713203 kJ/mol
# Density = 2.074170 g / cm^3
# Si number density = 20.789012 Si / 1000 Ang^3
#
#
#
# Elastic Constant Matrix: (Units=GPa)
#
#
# Indices 1 2 3 4 5 6 
#
# 1 75.1315 11.1522 -1.0159 0.0000 -7.6748 0.0000
# 2 11.1522 77.6289 13.9455 0.0000 -8.6218 0.0000
# 3 -1.0159 13.9455 42.6785 0.0000 -2.8700 0.0000
# 4 0.0000 0.0000 0.0000 11.2539 0.0000 -3.0345
# 5 -7.6748 -8.6218 -2.8700 0.0000 35.1120 0.0000
# 6 0.0000 0.0000 0.0000 -3.0345 0.0000 13.6502
#
#
#
# Elastic Compliance Matrix: (Units=1/GPa)
#
#
# Indices 1 2 3 4 5 6 
#
# 1 0.013879 -0.001902 0.001131 0.000000 0.002659 0.000000
# 2 -0.001902 0.014270 -0.004525 0.000000 0.002718 0.000000
# 3 0.001131 -0.004525 0.025016 0.000000 0.001181 0.000000
# 4 0.000000 0.000000 0.000000 0.094524 0.000000 0.021013
# 5 0.002659 0.002718 0.001181 0.000000 0.029826 0.000000
# 6 0.000000 0.000000 0.000000 0.021013 0.000000 0.077930
#
#
# Mechanical properties :
#
#
# Convention : Reuss Voigt Hill
#
# Bulk Modulus (GPa) = 23.48940 27.06694 25.27817
# Shear Modulus (GPa) = 17.84259 23.42703 20.63481
#
# Velocity S-wave (km/s) = 2.93280 3.36057 3.15395
# Velocity P-wave (km/s) = 4.77409 5.30151 5.04470
#
# Compressibility (1/GPa) = 0.04257240
#
# Stress axis : x y z
#
# Youngs Moduli (GPa) = 72.05033 70.07790 39.97447
#
# Poissons Ratio (x) = 0.13326 -0.04519
# Poissons Ratio (y) = 0.13701 0.18089
# Poissons Ratio (z) = -0.08146 0.31712
#
# Static dielectric constant tensor:
#      x y z
#    x 1.465820 0.000000 -0.139950 
#    y 0.000000 1.627540 0.000000 
#    z -0.139950 0.000000 1.698300 
# 
# From -- ./inp_files/133852.got.cif
#   From: 2010.05.17/outbox.cif.g08.bks.cpg/sg12_67_cif.got.tgz:133852.got - 2010.06.03 13:09:07.
