data_PCOD9207272
_publ_section_title
;
Structure prediction by ZEFSAII (Michael W. Deem and Ramdas Pophale) SiO2 
 PCOD9207272
Probable space group: C 2/M
;
_chemical_formula_sum "Si O2"
_cell_formula_units_Z 48
_cell_length_a 21.993662
_cell_length_b 16.616641
_cell_length_c 11.192727
_cell_angle_alpha 90.000000
_cell_angle_beta 26.343310
_cell_angle_gamma 90.000000
_cell_volume 1815.155384
_symmetry_space_group_name_H-M "C 2/M"
_symmetry_group_IT_number 12
_symmetry_cell_setting 'monoclinic'
loop_
_space_group_symop_operation_xyz
x,y,z
-x,y,-z
-x,-y,-z
x,-y,z
1/2+x,1/2+y,z
1/2-x,1/2+y,-z
1/2-x,1/2-y,-z
1/2+x,1/2-y,z
loop_
_atom_site_type_symbol
_atom_site_label
_atom_site_fract_x
_atom_site_fract_y
_atom_site_fract_z
Si Si1 0.205783 0.908159 0.642716
Si Si2 0.918728 0.792654 0.538513
Si Si3 0.244540 0.200684 0.387292
Si Si4 0.698201 0.907208 0.051885
Si Si5 0.864811 0.095833 0.976689
Si Si6 0.528014 0.907823 0.130575
O O1 0.167457 0.876201 0.580127
O O2 0.166168 0.000000 0.715987
O O3 0.144204 0.871455 0.872451
O O4 0.370519 0.903833 0.370290
O O5 0.844813 0.755366 0.554954
O O6 0.798618 0.843947 0.811807
O O7 0.000000 0.746954 0.500000
O O8 0.026423 0.854908 0.291749
O O9 0.250000 0.250000 0.500000
O O10 0.382866 0.162164 0.089821
O O11 0.723025 0.894907 0.149293
O O12 0.560506 0.901136 0.215339
O O13 0.744923 0.000000 0.949482
O O14 0.893080 0.000000 0.928576
O O15 0.573958 0.000000 0.015661
#
# Coordination Sequence:
#
# PCOD9207272 Si02
#       6
#     8   8   8   8   8   8
#     4  10  21  37  57  86 122 155 192 241 294 348
#     4   9  18  35  58  80 114 154 196 236 284 349
#     4  11  23  39  59  86 115 149 199 248 292 346
#     4   8  14  27  54  87 116 152 194 238 285 338
#     4   9  17  30  52  87 125 153 186 234 292 351
#     4   9  18  36  62  87 115 155 201 244 287 345
#
# _framework density 26.444016000000001
#
# number of rings (size 3 to 8) (size 9 to 14) (size 15 to 20)
#    0.000    2.667    0.000    1.500    0.000    6.667 
#    6.000    5.000    3.667    3.000    0.000    0.000 
#    0.000    0.000    0.000    0.000    0.000    0.000 
#
# Total GULP energy -134080.250355 kJ/mol
# GULP energy per Si atom -5586.677098 kJ/mol
# Density = 2.638383 g / cm^3
# Si number density = 26.444016 Si / 1000 Ang^3
#
#
#
# Elastic Constant Matrix: (Units=GPa)
#
#
# Indices 1 2 3 4 5 6 
#
# 1 94.4954 8.7618 22.6537 0.0000 -18.3570 0.0000
# 2 8.7618 61.4596 13.1667 0.0000 -8.2643 0.0000
# 3 22.6537 13.1667 79.7605 0.0000 -7.9315 0.0002
# 4 0.0000 0.0000 0.0000 17.6648 0.0000 8.2421
# 5 -18.3570 -8.2643 -7.9315 0.0000 37.6877 -0.0001
# 6 0.0000 0.0000 0.0002 8.2421 -0.0001 43.4018
#
#
#
# Elastic Compliance Matrix: (Units=1/GPa)
#
#
# Indices 1 2 3 4 5 6 
#
# 1 0.012351 -0.000423 -0.002910 0.000000 0.005311 0.000000
# 2 -0.000423 0.017263 -0.002424 0.000000 0.003069 0.000000
# 3 -0.002910 -0.002424 0.013860 0.000000 0.000968 0.000000
# 4 0.000000 0.000000 0.000000 0.062113 0.000000 -0.011795
# 5 0.005311 0.003069 0.000968 0.000000 0.029997 0.000000
# 6 0.000000 0.000000 0.000000 -0.011795 0.000000 0.025280
#
#
# Mechanical properties :
#
#
# Convention : Reuss Voigt Hill
#
# Bulk Modulus (GPa) = 31.28947 36.09776 33.69362
# Shear Modulus (GPa) = 27.31729 32.49311 29.90520
#
# Velocity S-wave (km/s) = 3.21756 3.50916 3.36651
# Velocity P-wave (km/s) = 5.06573 5.48627 5.28019
#
# Compressibility (1/GPa) = 0.03195963
#
# Stress axis : x y z
#
# Youngs Moduli (GPa) = 80.96465 57.92645 72.14751
#
# Poissons Ratio (x) = 0.02452 0.20995
# Poissons Ratio (y) = 0.03427 0.17491
# Poissons Ratio (z) = 0.23561 0.14044
#
# Static dielectric constant tensor:
#      x y z
#    x 2.163470 0.000000 0.018000 
#    y 0.000000 2.326920 0.000000 
#    z 0.018000 0.000000 2.048270 
# 
# From -- ./inp_files/177687.got.cif
#   From: 2010.05.17/outbox.cif.g08.bks.cpg/sg12_89_cif.got.tgz:177687.got - 2010.06.03 13:09:07.
