data_PCOD9207195
_publ_section_title
;
Structure prediction by ZEFSAII (Michael W. Deem and Ramdas Pophale) SiO2 
 PCOD9207195
Probable space group: C 2/M
;
_chemical_formula_sum "Si O2"
_cell_formula_units_Z 64
_cell_length_a 12.023915
_cell_length_b 14.720545
_cell_length_c 20.381120
_cell_angle_alpha 90.000000
_cell_angle_beta 50.711851
_cell_angle_gamma 90.000000
_cell_volume 2792.046416
_symmetry_space_group_name_H-M "C 2/M"
_symmetry_group_IT_number 12
_symmetry_cell_setting 'monoclinic'
loop_
_space_group_symop_operation_xyz
x,y,z
-x,y,-z
-x,-y,-z
x,-y,z
1/2+x,1/2+y,z
1/2-x,1/2+y,-z
1/2-x,1/2-y,-z
1/2+x,1/2-y,z
loop_
_atom_site_type_symbol
_atom_site_label
_atom_site_fract_x
_atom_site_fract_y
_atom_site_fract_z
Si Si1 0.149579 0.611356 0.106869
Si Si2 0.835478 0.394772 0.261307
Si Si3 0.852476 0.889623 0.148996
Si Si4 0.224959 0.144856 0.587710
Si Si5 0.191664 0.651576 0.579997
Si Si6 0.098557 0.889596 0.250319
Si Si7 0.162669 0.889006 0.079683
Si Si8 0.116027 0.604189 0.343415
O O1 0.147376 0.500000 0.110218
O O2 0.269181 0.640126 0.115098
O O3 0.992230 0.645058 0.186438
O O4 0.202525 0.638615 0.014994
O O5 0.844596 0.500000 0.237786
O O6 0.806226 0.392556 0.349512
O O7 0.705740 0.355735 0.266883
O O8 0.751378 0.867577 0.248668
O O9 0.014679 0.859013 0.100040
O O10 0.859879 0.000000 0.143388
O O11 0.261335 0.250526 0.565377
O O12 0.235378 0.105469 0.510389
O O13 0.334177 0.105935 0.600117
O O14 0.064836 0.138279 0.675663
O O15 0.025024 0.660562 0.620661
O O16 0.155528 0.860079 0.157821
O O17 0.094819 0.000000 0.251781
O O18 0.162541 0.000000 0.080261
O O19 0.079742 0.500000 0.338296
#
# Coordination Sequence:
#
# PCOD9207195 Si02
#       8
#     8   8   8   8   8   8   8   8
#     4   9  16  28  50  82 117 149 186 239 297 348
#     4  10  21  37  57  83 116 155 196 238 290 354
#     4   9  15  27  51  84 117 146 184 242 301 343
#     4  11  25  41  60  86 118 154 196 247 305 362
#     4  11  25  41  60  86 118 154 196 247 305 362
#     4  10  21  37  57  83 116 155 196 238 290 354
#     4   9  16  28  50  82 117 149 186 239 297 348
#     4  11  21  39  67  94 120 155 204 257 303 352
#
# _framework density 22.922255
#
# number of rings (size 3 to 8) (size 9 to 14) (size 15 to 20)
#    0.000    2.000    2.500    1.500    1.750    5.000 
#    0.000    3.750    0.000    0.750    0.000    0.000 
#    0.000    0.000    0.000    0.000    0.000    0.000 
#
# Total GULP energy -178850.448050 kJ/mol
# GULP energy per Si atom -5589.076502 kJ/mol
# Density = 2.287008 g / cm^3
# Si number density = 22.922255 Si / 1000 Ang^3
#
#
#
# Elastic Constant Matrix: (Units=GPa)
#
#
# Indices 1 2 3 4 5 6 
#
# 1 112.1769 -10.6744 28.5009 0.0000 24.0914 0.0000
# 2 -10.6744 47.0893 -14.0446 0.0000 -3.5765 0.0000
# 3 28.5009 -14.0446 119.9325 0.0000 27.9722 0.0000
# 4 0.0000 0.0000 0.0000 39.8575 0.0000 16.3996
# 5 24.0914 -3.5765 27.9722 0.0000 25.7529 0.0000
# 6 0.0000 0.0000 0.0000 16.3996 0.0000 26.6363
#
#
#
# Elastic Compliance Matrix: (Units=1/GPa)
#
#
# Indices 1 2 3 4 5 6 
#
# 1 0.011302 0.001757 -0.000095 0.000000 -0.010225 0.000000
# 2 0.001757 0.022280 0.002482 0.000000 -0.001245 0.000000
# 3 -0.000095 0.002482 0.011451 0.000000 -0.012004 0.000000
# 4 0.000000 0.000000 0.000000 0.033602 0.000000 -0.020688
# 5 -0.010225 -0.001245 -0.012004 0.000000 0.061262 0.000000
# 6 0.000000 0.000000 0.000000 -0.020688 0.000000 0.050280
#
#
# Mechanical properties :
#
#
# Convention : Reuss Voigt Hill
#
# Bulk Modulus (GPa) = 18.75444 31.86250 25.30847
# Shear Modulus (GPa) = 25.04225 36.81048 30.92636
#
# Velocity S-wave (km/s) = 3.30886 4.01170 3.67711
# Velocity P-wave (km/s) = 4.77469 5.94884 5.39381
#
# Compressibility (1/GPa) = 0.05332071
#
# Stress axis : x y z
#
# Youngs Moduli (GPa) = 88.48092 44.88293 87.32818
#
# Poissons Ratio (x) = -0.07886 0.00831
# Poissons Ratio (y) = -0.15546 -0.21675
# Poissons Ratio (z) = 0.00842 -0.11140
#
# Static dielectric constant tensor:
#      x y z
#    x 1.806590 0.000000 0.015210 
#    y 0.000000 1.893870 0.000000 
#    z 0.015210 0.000000 1.857250 
# 
# From -- ./inp_files/306197.got.cif
#   From: 2010.05.17/outbox.cif.g08.bks.cpg/sg12_154_cif.got.tgz:306197.got - 2010.06.03 13:09:07.
