data_PCOD9207129
_publ_section_title
;
Structure prediction by ZEFSAII (Michael W. Deem and Ramdas Pophale) SiO2 
 PCOD9207129
Probable space group: C 2/M
;
_chemical_formula_sum "Si O2"
_cell_formula_units_Z 40
_cell_length_a 14.976500
_cell_length_b 15.358122
_cell_length_c 11.171609
_cell_angle_alpha 90.000000
_cell_angle_beta 141.442484
_cell_angle_gamma 90.000000
_cell_volume 1601.626536
_symmetry_space_group_name_H-M "C 2/M"
_symmetry_group_IT_number 12
_symmetry_cell_setting 'monoclinic'
loop_
_space_group_symop_operation_xyz
x,y,z
-x,y,-z
-x,-y,-z
x,-y,z
1/2+x,1/2+y,z
1/2-x,1/2+y,-z
1/2-x,1/2-y,-z
1/2+x,1/2-y,z
loop_
_atom_site_type_symbol
_atom_site_label
_atom_site_fract_x
_atom_site_fract_y
_atom_site_fract_z
Si Si1 0.298460 0.151702 0.564170
Si Si2 0.075563 0.291037 0.948076
Si Si3 0.076304 0.905223 0.949400
Si Si4 0.830927 0.101104 0.320206
Si Si5 0.354430 0.096170 0.376078
O O1 0.250000 0.250000 0.500000
O O2 0.470114 0.147991 0.761609
O O3 0.225165 0.109436 0.601737
O O4 0.263422 0.120541 0.395915
O O5 0.060255 0.192452 0.881153
O O6 0.231091 0.332885 0.137731
O O7 0.000000 0.287281 0.000000
O O8 0.246737 0.905498 0.153791
O O9 0.039613 0.000000 0.852889
O O10 0.000000 0.906967 0.000000
O O11 0.000000 0.121249 0.500000
O O12 0.811433 0.000000 0.261415
O O13 0.500000 0.147352 0.500000
O O14 0.398799 0.000000 0.460176
#
# Coordination Sequence:
#
# PCOD9207129 Si02
#       5
#     8   8   8   8   8
#     4  11  22  37  60  89 121 158 201 247 302 366
#     4   9  19  35  58  87 118 157 201 248 305 365
#     4   9  17  33  56  80 113 155 196 243 298 353
#     4  10  22  41  64  90 123 162 204 255 311 367
#     4  10  21  37  57  81 112 151 195 244 292 344
#
# _framework density 24.974612
#
# number of rings (size 3 to 8) (size 9 to 14) (size 15 to 20)
#    0.000    2.200    0.000    4.200    0.000    7.600 
#    0.000    7.000    0.000    9.600    0.000    0.000 
#    0.000    0.000    0.000    0.000    0.000    0.200 
#
# Total GULP energy -111546.563736 kJ/mol
# GULP energy per Si atom -5577.328187 kJ/mol
# Density = 2.491777 g / cm^3
# Si number density = 24.974612 Si / 1000 Ang^3
#
#
#
# Elastic Constant Matrix: (Units=GPa)
#
#
# Indices 1 2 3 4 5 6 
#
# 1 77.0609 14.0350 23.2997 0.0000 14.5592 0.0000
# 2 14.0350 126.2145 38.6243 0.0000 16.2456 0.0000
# 3 23.2997 38.6243 145.6592 0.0000 32.2651 0.0000
# 4 0.0000 0.0000 0.0000 31.4587 0.0000 -5.8853
# 5 14.5592 16.2456 32.2651 0.0000 37.1179 0.0000
# 6 0.0000 0.0000 0.0000 -5.8853 0.0000 24.1716
#
#
#
# Elastic Compliance Matrix: (Units=1/GPa)
#
#
# Indices 1 2 3 4 5 6 
#
# 1 0.014260 -0.000681 -0.001149 0.000000 -0.004297 0.000000
# 2 -0.000681 0.008805 -0.001773 0.000000 -0.002045 0.000000
# 3 -0.001149 -0.001773 0.008976 0.000000 -0.006576 0.000000
# 4 0.000000 0.000000 0.000000 0.033305 0.000000 0.008109
# 5 -0.004297 -0.002045 -0.006576 0.000000 0.035238 0.000000
# 6 0.000000 0.000000 0.000000 0.008109 0.000000 0.043345
#
#
# Mechanical properties :
#
#
# Convention : Reuss Voigt Hill
#
# Bulk Modulus (GPa) = 40.26519 55.65029 47.95774
# Shear Modulus (GPa) = 31.36541 36.74801 34.05671
#
# Velocity S-wave (km/s) = 3.54770 3.84006 3.69677
# Velocity P-wave (km/s) = 5.73925 6.48017 6.12093
#
# Compressibility (1/GPa) = 0.02483535
#
# Stress axis : x y z
#
# Youngs Moduli (GPa) = 70.12678 113.57820 111.41131
#
# Poissons Ratio (x) = 0.07736 0.12797
# Poissons Ratio (y) = 0.04777 0.19749
# Poissons Ratio (z) = 0.08055 0.20133
#
# Static dielectric constant tensor:
#      x y z
#    x 1.795640 0.000000 -0.079040 
#    y 0.000000 1.995200 0.000000 
#    z -0.079040 0.000000 2.079950 
# 
# From -- ./inp_files/72850.got.cif
#   From: 2010.05.17/outbox.cif.g08.bks.cpg/sg12_37_cif.got.tgz:72850.got - 2010.06.03 13:09:07.
