data_PCOD9207241
_publ_section_title
;
Structure prediction by ZEFSAII (Michael W. Deem and Ramdas Pophale) SiO2 
 PCOD9207241
Probable space group: C 2/M
;
_chemical_formula_sum "Si O2"
_cell_formula_units_Z 56
_cell_length_a 17.563323
_cell_length_b 13.858448
_cell_length_c 17.604546
_cell_angle_alpha 90.000000
_cell_angle_beta 147.634106
_cell_angle_gamma 90.000000
_cell_volume 2293.838898
_symmetry_space_group_name_H-M "C 2/M"
_symmetry_group_IT_number 12
_symmetry_cell_setting 'monoclinic'
loop_
_space_group_symop_operation_xyz
x,y,z
-x,y,-z
-x,-y,-z
x,-y,z
1/2+x,1/2+y,z
1/2-x,1/2+y,-z
1/2-x,1/2-y,-z
1/2+x,1/2-y,z
loop_
_atom_site_type_symbol
_atom_site_label
_atom_site_fract_x
_atom_site_fract_y
_atom_site_fract_z
Si Si1 0.126139 0.884563 0.552381
Si Si2 0.713040 0.618241 0.461478
Si Si3 0.836368 0.698145 0.840314
Si Si4 0.990578 0.885051 0.161003
Si Si5 0.214327 0.113197 0.144867
Si Si6 0.232300 0.614740 0.060219
Si Si7 0.531927 0.884390 0.760627
O O1 0.129399 0.853984 0.467683
O O2 0.275663 0.859547 0.718203
O O3 0.000000 0.845336 0.500000
O O4 0.111139 0.000000 0.538455
O O5 0.712276 0.500000 0.458311
O O6 0.634204 0.653012 0.319262
O O7 0.875711 0.649345 0.607724
O O8 0.795094 0.810511 0.796084
O O9 0.755715 0.663121 0.848519
O O10 0.000000 0.680104 0.000000
O O11 0.871043 0.872636 0.125475
O O12 0.007974 0.000000 0.165409
O O13 0.916275 0.855846 0.020247
O O14 0.354822 0.126769 0.211973
O O15 0.202912 0.000000 0.155294
O O16 0.213920 0.500000 0.056930
O O17 0.102783 0.653305 0.898352
O O18 0.522083 0.000000 0.763993
#
# Coordination Sequence:
#
# PCOD9207241 Si02
#       7
#     8   8   8   8   8   8   8
#     4  10  21  37  57  84 122 158 177 204 264 340
#     4   9  15  27  52  84 111 136 173 220 273 336
#     4  12  24  35  54  81 110 148 194 230 264 322
#     4   8  15  30  55  82 106 137 176 220 276 333
#     4   9  20  39  57  76 106 144 189 239 285 320
#     4   9  17  31  50  75 108 139 167 210 272 336
#     4   8  15  29  51  77 104 135 175 228 284 328
#
# _framework density 24.413222999999999
#
# number of rings (size 3 to 8) (size 9 to 14) (size 15 to 20)
#    0.000    2.714    0.000    3.857    0.000    7.143 
#    0.000    1.429    0.000    3.857    0.000    0.000 
#    0.000    2.286    0.000    0.000    0.000    0.000 
#
# Total GULP energy -156648.931182 kJ/mol
# GULP energy per Si atom -5594.604685 kJ/mol
# Density = 2.435766 g / cm^3
# Si number density = 24.413223 Si / 1000 Ang^3
#
#
#
# Elastic Constant Matrix: (Units=GPa)
#
#
# Indices 1 2 3 4 5 6 
#
# 1 66.3926 12.9636 20.2775 0.0001 -3.3667 0.0000
# 2 12.9636 71.1497 -4.0985 0.0001 1.5754 0.0000
# 3 20.2775 -4.0985 127.0334 0.0004 3.1653 0.0001
# 4 0.0001 0.0001 0.0004 8.0415 0.0002 0.0221
# 5 -3.3667 1.5754 3.1653 0.0002 26.1782 0.0000
# 6 0.0000 0.0000 0.0001 0.0221 0.0000 17.8605
#
#
#
# Elastic Compliance Matrix: (Units=1/GPa)
#
#
# Indices 1 2 3 4 5 6 
#
# 1 0.016703 -0.003266 -0.002839 0.000000 0.002688 0.000000
# 2 -0.003266 0.014741 0.001033 0.000000 -0.001432 0.000000
# 3 -0.002839 0.001033 0.008394 0.000000 -0.001442 0.000000
# 4 0.000000 0.000000 0.000000 0.124355 -0.000001 -0.000154
# 5 0.002688 -0.001432 -0.001442 -0.000001 0.038806 0.000000
# 6 0.000000 0.000000 0.000000 -0.000154 0.000000 0.055990
#
#
# Mechanical properties :
#
#
# Convention : Reuss Voigt Hill
#
# Bulk Modulus (GPa) = 33.67680 35.87342 34.77511
# Shear Modulus (GPa) = 17.91911 26.11159 22.01535
#
# Velocity S-wave (km/s) = 2.71217 3.27397 3.00622
# Velocity P-wave (km/s) = 4.86130 5.38684 5.13080
#
# Compressibility (1/GPa) = 0.02969403
#
# Stress axis : x y z
#
# Youngs Moduli (GPa) = 59.86983 67.83715 119.12856
#
# Poissons Ratio (x) = 0.22158 0.33815
# Poissons Ratio (y) = 0.19555 -0.12302
# Poissons Ratio (z) = 0.16994 -0.07005
#
# Static dielectric constant tensor:
#      x y z
#    x 1.928580 0.000000 0.036890 
#    y 0.000000 1.965410 0.000000 
#    z 0.036890 0.000000 1.935040 
# 
# From -- ./inp_files/96269.got.cif
#   From: 2010.05.17/outbox.cif.g08.bks.cpg/sg12_49_cif.got.tgz:96269.got - 2010.06.03 13:09:07.
