data_PCOD9207300
_publ_section_title
;
Structure prediction by ZEFSAII (Michael W. Deem and Ramdas Pophale) SiO2 
 PCOD9207300
Probable space group: C 2/M
;
_chemical_formula_sum "Si O2"
_cell_formula_units_Z 58
_cell_length_a 20.953260
_cell_length_b 7.789433
_cell_length_c 21.503631
_cell_angle_alpha 90.000000
_cell_angle_beta 134.882106
_cell_angle_gamma 90.000000
_cell_volume 2486.829635
_symmetry_space_group_name_H-M "C 2/M"
_symmetry_group_IT_number 12
_symmetry_cell_setting 'monoclinic'
loop_
_space_group_symop_operation_xyz
x,y,z
-x,y,-z
-x,-y,-z
x,-y,z
1/2+x,1/2+y,z
1/2-x,1/2+y,-z
1/2-x,1/2-y,-z
1/2+x,1/2-y,z
loop_
_atom_site_type_symbol
_atom_site_label
_atom_site_fract_x
_atom_site_fract_y
_atom_site_fract_z
Si Si1 0.037661 0.699691 0.159619
Si Si2 0.832844 0.704953 0.221334
Si Si3 0.000000 0.500000 0.000000
Si Si4 0.621278 0.688473 0.091930
Si Si5 0.366491 0.702073 0.528793
Si Si6 0.678200 0.296065 0.358618
Si Si7 0.540321 0.806093 0.588973
Si Si8 0.149465 0.706768 0.906157
O O1 0.036089 0.500000 0.133829
O O2 0.086738 0.805111 0.139257
O O3 0.106080 0.706671 0.264788
O O4 0.938972 0.759205 0.115051
O O5 0.854520 0.500000 0.235542
O O6 0.726911 0.718885 0.158969
O O7 0.884050 0.778233 0.316320
O O8 0.858175 0.771923 0.170372
O O9 0.070894 0.346566 0.027170
O O10 0.601961 0.500000 0.051912
O O11 0.386714 0.500000 0.538886
O O12 0.343053 0.741824 0.584028
O O13 0.282622 0.741775 0.425684
O O14 0.452971 0.810956 0.571945
O O15 0.671465 0.500000 0.343743
O O16 0.500000 0.718547 0.500000
O O17 0.570559 0.000000 0.591793
O O18 0.144473 0.500000 0.901308
O O19 0.250000 0.750000 0.000000
#
# Coordination Sequence:
#
# PCOD9207300 Si02
#       8
#     8   8   2   8   8   8   8   8
#     4  11  23  41  64  98 133 170 215 276 333 401
#     4   9  21  43  65  94 131 178 222 272 338 403
#     4  12  26  48  68 102 134 172 234 278 342 414
#     4  11  25  44  72  99 137 178 223 281 340 406
#     4  10  21  37  57  90 124 164 212 269 326 388
#     4  10  21  37  61  87 123 166 213 262 327 392
#     4  10  21  38  63  90 124 167 218 265 321 397
#     4  10  23  41  65  91 127 168 217 272 332 400
#
# _framework density 23.322866999999999
#
# number of rings (size 3 to 8) (size 9 to 14) (size 15 to 20)
#    0.000    1.793    0.690    2.276    3.862    4.138 
#    1.241    0.000    0.000    0.000    0.000    0.000 
#    0.000    0.000    0.000    0.000    0.000    0.000 
#
# Total GULP energy -161846.795543 kJ/mol
# GULP energy per Si atom -5580.923984 kJ/mol
# Density = 2.326978 g / cm^3
# Si number density = 23.322867 Si / 1000 Ang^3
#
#
#
# Elastic Constant Matrix: (Units=GPa)
#
#
# Indices 1 2 3 4 5 6 
#
# 1 85.4563 22.1187 16.8597 0.0000 1.2567 0.0000
# 2 22.1187 70.9772 27.1533 -0.0002 1.5908 0.0000
# 3 16.8597 27.1533 109.7398 0.0000 -8.1180 0.0000
# 4 0.0000 -0.0002 0.0000 205.5095 0.0000 -6.7997
# 5 1.2567 1.5908 -8.1180 0.0000 38.0690 0.0000
# 6 0.0000 0.0000 0.0000 -6.7997 0.0000 2.6980
#
#
#
# Elastic Compliance Matrix: (Units=1/GPa)
#
#
# Indices 1 2 3 4 5 6 
#
# 1 0.012855 -0.003561 -0.001132 0.000000 -0.000517 0.000000
# 2 -0.003561 0.016633 -0.003669 0.000000 -0.001360 0.000000
# 3 -0.001132 -0.003669 0.010372 0.000000 0.002402 0.000000
# 4 0.000000 0.000000 0.000000 0.005309 0.000000 0.013379
# 5 -0.000517 -0.001360 0.002402 0.000000 0.026854 0.000000
# 6 0.000000 0.000000 0.000000 0.013379 0.000000 0.404356
#
#
# Mechanical properties :
#
#
# Convention : Reuss Voigt Hill
#
# Bulk Modulus (GPa) = 43.22456 44.27073 43.74764
# Shear Modulus (GPa) = 9.98373 62.59141 36.28757
#
# Velocity S-wave (km/s) = 2.07122 5.18606 3.94874
# Velocity P-wave (km/s) = 4.92882 7.40832 6.29192
#
# Compressibility (1/GPa) = 0.02313500
#
# Stress axis : x y z
#
# Youngs Moduli (GPa) = 77.79326 60.12166 96.41411
#
# Poissons Ratio (x) = 0.21411 0.10914
# Poissons Ratio (y) = 0.27704 0.35374
# Poissons Ratio (z) = 0.08806 0.22059
#
# Static dielectric constant tensor:
#      x y z
#    x 1.875280 0.000000 0.001600 
#    y 0.000000 1.877290 0.000000 
#    z 0.001600 0.000000 1.830180 
# 
# From -- ./inp_files/346561.got.cif
#   From: 2010.05.17/outbox.cif.g08.bks.cpg/sg12_174_cif.got.tgz:346561.got - 2010.06.03 13:09:07.
