data_PCOD9207961
_publ_section_title
;
Structure prediction by ZEFSAII (Michael W. Deem and Ramdas Pophale) SiO2 
 PCOD9207961
Probable space group: C 2/M
;
_chemical_formula_sum "Si O2"
_cell_formula_units_Z 56
_cell_length_a 8.953106
_cell_length_b 24.774320
_cell_length_c 13.856451
_cell_angle_alpha 90.000000
_cell_angle_beta 62.178356
_cell_angle_gamma 90.000000
_cell_volume 2718.182026
_symmetry_space_group_name_H-M "C 2/M"
_symmetry_group_IT_number 12
_symmetry_cell_setting 'monoclinic'
loop_
_space_group_symop_operation_xyz
x,y,z
-x,y,-z
-x,-y,-z
x,-y,z
1/2+x,1/2+y,z
1/2-x,1/2+y,-z
1/2-x,1/2-y,-z
1/2+x,1/2-y,z
loop_
_atom_site_type_symbol
_atom_site_label
_atom_site_fract_x
_atom_site_fract_y
_atom_site_fract_z
Si Si1 0.244789 0.267077 0.302501
Si Si2 0.534465 0.936594 0.779542
Si Si3 0.318060 0.647163 0.758274
Si Si4 0.489355 0.661516 0.118138
Si Si5 0.886354 0.818298 0.447777
Si Si6 0.469437 0.861506 0.397906
Si Si7 0.166490 0.941471 0.882115
O O1 0.220268 0.206519 0.273425
O O2 0.394364 0.288048 0.189811
O O3 0.313229 0.277157 0.390332
O O4 0.087901 0.309275 0.338471
O O5 0.677513 0.897853 0.780806
O O6 0.503936 0.910774 0.682931
O O7 0.345039 0.932790 0.882329
O O8 0.581370 0.000000 0.764823
O O9 0.348477 0.652418 0.863918
O O10 0.497732 0.639253 0.647780
O O11 0.372592 0.609151 0.172318
O O12 0.500000 0.667144 0.000000
O O13 0.727450 0.845951 0.545802
O O14 0.000000 0.793856 0.500000
O O15 0.500000 0.875726 0.500000
O O16 0.180399 0.000000 0.829657
O O17 0.000000 0.943546 0.000000
#
# Coordination Sequence:
#
# PCOD9207961 Si02
#       7
#     8   8   8   8   8   8   8
#     4  10  23  39  62  94 133 168 217 272 322 390
#     4  11  23  42  66  94 134 173 214 268 329 388
#     4  11  25  40  61  96 133 172 218 270 325 386
#     4  10  22  41  65  92 126 168 212 269 335 392
#     4  10  21  37  60  93 129 169 214 267 321 374
#     4  10  21  40  62  95 128 168 219 270 323 382
#     4   9  19  39  68  94 119 160 216 269 316 382
#
# _framework density 20.602004000000001
#
# number of rings (size 3 to 8) (size 9 to 14) (size 15 to 20)
#    0.000    1.857    2.857    0.000    4.000    4.286 
#    0.000    5.714    0.000    7.714    0.000    0.000 
#    0.000    0.000    0.000    0.000    0.000    0.000 
#
# Total GULP energy -156066.852083 kJ/mol
# GULP energy per Si atom -5573.816146 kJ/mol
# Density = 2.055511 g / cm^3
# Si number density = 20.602004 Si / 1000 Ang^3
#
#
#
# Elastic Constant Matrix: (Units=GPa)
#
#
# Indices 1 2 3 4 5 6 
#
# 1 142.1968 61.2255 58.8949 0.0000 1.3193 0.0000
# 2 61.2255 120.1728 41.2874 0.0000 -1.4644 0.0000
# 3 58.8949 41.2874 89.2023 0.0000 8.2995 0.0000
# 4 0.0000 0.0000 0.0000 16.3076 0.0000 -6.6129
# 5 1.3193 -1.4644 8.2995 0.0000 40.3588 0.0000
# 6 0.0000 0.0000 0.0000 -6.6129 0.0000 30.6527
#
#
#
# Elastic Compliance Matrix: (Units=1/GPa)
#
#
# Indices 1 2 3 4 5 6 
#
# 1 0.010899 -0.003628 -0.005578 0.000000 0.000659 0.000000
# 2 -0.003628 0.011173 -0.002880 0.000000 0.001116 0.000000
# 3 -0.005578 -0.002880 0.016535 0.000000 -0.003322 0.000000
# 4 0.000000 0.000000 0.000000 0.067200 0.000000 0.014498
# 5 0.000659 0.001116 -0.003322 0.000000 0.025480 0.000000
# 6 0.000000 0.000000 0.000000 0.014498 0.000000 0.035751
#
#
# Mechanical properties :
#
#
# Convention : Reuss Voigt Hill
#
# Bulk Modulus (GPa) = 69.27476 74.93194 72.10335
# Shear Modulus (GPa) = 25.50742 30.14143 27.82442
#
# Velocity S-wave (km/s) = 3.52249 3.82911 3.67900
# Velocity P-wave (km/s) = 7.08817 7.48329 7.28841
#
# Compressibility (1/GPa) = 0.01443527
#
# Stress axis : x y z
#
# Youngs Moduli (GPa) = 91.75284 89.50251 60.47732
#
# Poissons Ratio (x) = 0.32475 0.33733
# Poissons Ratio (y) = 0.33291 0.17415
# Poissons Ratio (z) = 0.51178 0.25774
#
# Static dielectric constant tensor:
#      x y z
#    x 1.840960 0.000000 -0.033910 
#    y 0.000000 1.747940 0.000000 
#    z -0.033910 0.000000 1.796220 
# 
# From -- ./inp_files/198785.got.cif
#   From: 2010.05.17/outbox.cif.g08.bks.cpg/sg12_100_cif.got.tgz:198785.got - 2010.06.03 13:09:07.
