data_PCOD9207184
_publ_section_title
;
Structure prediction by ZEFSAII (Michael W. Deem and Ramdas Pophale) SiO2 
 PCOD9207184
Probable space group: C 2/M
;
_chemical_formula_sum "Si O2"
_cell_formula_units_Z 56
_cell_length_a 20.970227
_cell_length_b 9.082222
_cell_length_c 19.440619
_cell_angle_alpha 90.000000
_cell_angle_beta 56.628079
_cell_angle_gamma 90.000000
_cell_volume 3092.095780
_symmetry_space_group_name_H-M "C 2/M"
_symmetry_group_IT_number 12
_symmetry_cell_setting 'monoclinic'
loop_
_space_group_symop_operation_xyz
x,y,z
-x,y,-z
-x,-y,-z
x,-y,z
1/2+x,1/2+y,z
1/2-x,1/2+y,-z
1/2-x,1/2-y,-z
1/2+x,1/2-y,z
loop_
_atom_site_type_symbol
_atom_site_label
_atom_site_fract_x
_atom_site_fract_y
_atom_site_fract_z
Si Si1 0.402966 0.332601 0.633902
Si Si2 0.586881 0.670720 0.523167
Si Si3 0.581603 0.168043 0.240220
Si Si4 0.978657 0.176747 0.933073
Si Si5 0.331444 0.828966 0.954183
Si Si6 0.678668 0.173041 0.578828
Si Si7 0.435217 0.179532 0.242128
O O1 0.376435 0.500000 0.656458
O O2 0.380524 0.282420 0.570752
O O3 0.495382 0.332488 0.576336
O O4 0.384253 0.246212 0.713649
O O5 0.611042 0.500000 0.522148
O O6 0.612489 0.784335 0.564855
O O7 0.637659 0.171893 0.142262
O O8 0.502543 0.228706 0.255079
O O9 0.565931 0.000000 0.269401
O O10 0.896880 0.247518 0.960264
O O11 0.041315 0.247371 0.843875
O O12 0.975751 0.000000 0.924856
O O13 0.000000 0.206009 0.000000
O O14 0.325106 0.000000 0.979803
O O15 0.250000 0.750000 0.000000
O O16 0.750000 0.250000 0.500000
O O17 0.645128 0.218391 0.673588
O O18 0.692265 0.000000 0.574019
O O19 0.439678 0.000000 0.233372
#
# Coordination Sequence:
#
# PCOD9207184 Si02
#       7
#     8   8   8   8   8   8   8
#     4   9  17  29  49  75 102 131 167 210 254 303
#     4   9  18  32  48  72 103 133 168 211 256 303
#     4   9  17  31  51  77 106 134 173 222 266 315
#     4  10  21  37  60  89 116 145 186 234 284 341
#     4  10  21  37  57  83 115 148 184 228 280 336
#     4  11  22  36  53  75 104 141 184 227 271 319
#     4   9  19  35  54  78 107 140 183 229 273 326
#
# _framework density 18.110693999999999
#
# number of rings (size 3 to 8) (size 9 to 14) (size 15 to 20)
#    0.000    2.429    1.429    3.000    0.000    5.714 
#    0.000    2.857    0.000    0.000    0.000    0.000 
#    0.000    0.000    0.000    0.000    0.000    0.000 
#
# Total GULP energy -155888.277390 kJ/mol
# GULP energy per Si atom -5567.438478 kJ/mol
# Density = 1.806947 g / cm^3
# Si number density = 18.110694 Si / 1000 Ang^3
#
#
#
# Elastic Constant Matrix: (Units=GPa)
#
#
# Indices 1 2 3 4 5 6 
#
# 1 41.4804 30.4975 50.2843 0.0000 -2.4346 0.0000
# 2 30.4975 61.0776 55.0823 -0.0001 0.2132 0.0000
# 3 50.2843 55.0823 121.3080 0.0000 4.3898 0.0000
# 4 0.0000 -0.0001 0.0000 31.6444 0.0000 2.4329
# 5 -2.4346 0.2132 4.3898 0.0000 33.3528 0.0000
# 6 0.0000 0.0000 0.0000 2.4329 0.0000 22.1534
#
#
#
# Elastic Compliance Matrix: (Units=1/GPa)
#
#
# Indices 1 2 3 4 5 6 
#
# 1 0.053897 -0.011143 -0.017510 0.000000 0.006310 0.000000
# 2 -0.011143 0.030104 -0.009057 0.000000 0.000186 0.000000
# 3 -0.017510 -0.009057 0.019752 0.000000 -0.003820 0.000000
# 4 0.000000 0.000000 0.000000 0.031870 0.000000 -0.003500
# 5 0.006310 0.000186 -0.003820 0.000000 0.030945 0.000000
# 6 0.000000 0.000000 0.000000 -0.003500 0.000000 0.045524
#
#
# Mechanical properties :
#
#
# Convention : Reuss Voigt Hill
#
# Bulk Modulus (GPa) = 35.29394 55.06603 45.17999
# Shear Modulus (GPa) = 16.83746 23.29691 20.06718
#
# Velocity S-wave (km/s) = 3.05240 3.59048 3.33232
# Velocity P-wave (km/s) = 5.65271 6.90362 6.30924
#
# Compressibility (1/GPa) = 0.02833347
#
# Stress axis : x y z
#
# Youngs Moduli (GPa) = 18.55394 33.21819 50.62670
#
# Poissons Ratio (x) = 0.37015 0.88647
# Poissons Ratio (y) = 0.20675 0.45853
# Poissons Ratio (z) = 0.32488 0.30086
#
# Static dielectric constant tensor:
#      x y z
#    x 1.671840 0.000000 -0.019390 
#    y 0.000000 1.626760 0.000000 
#    z -0.019390 0.000000 1.661080 
# 
# From -- ./inp_files/280902.got.cif
#   From: 2010.05.17/outbox.cif.g08.bks.cpg/sg12_141_cif.got.tgz:280902.got - 2010.06.03 13:09:07.
