data_PCOD9207700
_publ_section_title
;
Structure prediction by ZEFSAII (Michael W. Deem and Ramdas Pophale) SiO2 
 PCOD9207700
Probable space group: C 2/M
;
_chemical_formula_sum "Si O2"
_cell_formula_units_Z 56
_cell_length_a 14.679581
_cell_length_b 7.637421
_cell_length_c 23.750071
_cell_angle_alpha 90.000000
_cell_angle_beta 59.209477
_cell_angle_gamma 90.000000
_cell_volume 2287.394143
_symmetry_space_group_name_H-M "C 2/M"
_symmetry_group_IT_number 12
_symmetry_cell_setting 'monoclinic'
loop_
_space_group_symop_operation_xyz
x,y,z
-x,y,-z
-x,-y,-z
x,-y,z
1/2+x,1/2+y,z
1/2-x,1/2+y,-z
1/2-x,1/2-y,-z
1/2+x,1/2-y,z
loop_
_atom_site_type_symbol
_atom_site_label
_atom_site_fract_x
_atom_site_fract_y
_atom_site_fract_z
Si Si1 0.076245 0.800240 0.023521
Si Si2 0.918641 0.710284 0.445293
Si Si3 0.667532 0.284678 0.727498
Si Si4 0.345692 0.787525 0.583836
Si Si5 0.806112 0.795523 0.910756
Si Si6 0.001544 0.203322 0.694879
Si Si7 0.713903 0.802978 0.207607
O O1 0.098662 0.727363 0.079369
O O2 0.036864 0.000000 0.043611
O O3 0.195084 0.795648 0.960735
O O4 0.000000 0.718092 0.000000
O O5 0.911211 0.500000 0.444468
O O6 0.842225 0.773344 0.519760
O O7 0.916805 0.780617 0.382725
O O8 0.037699 0.755254 0.429248
O O9 0.669577 0.500000 0.728111
O O10 0.757319 0.224861 0.654940
O O11 0.557947 0.233195 0.733765
O O12 0.695826 0.224220 0.781115
O O13 0.339349 0.000000 0.584296
O O14 0.817754 0.784940 0.840417
O O15 0.793986 0.000000 0.929378
O O16 0.892286 0.303961 0.720757
O O17 0.974180 0.000000 0.708855
O O18 0.745153 0.000000 0.183195
#
# Coordination Sequence:
#
# PCOD9207700 Si02
#       7
#     8   8   8   8   8   8   8
#     4   9  19  38  63  89 119 156 191 217 255 323
#     4   9  16  30  55  78  99 135 182 225 271 337
#     4   9  19  35  55  76 102 143 187 223 271 336
#     4   8  14  29  54  77  97 134 185 224 264 334
#     4  10  21  37  59  89 121 147 181 232 277 307
#     4  11  22  35  53  79 109 138 177 234 287 326
#     4  11  22  40  61  77 106 152 195 223 260 332
#
# _framework density 24.482006999999999
#
# number of rings (size 3 to 8) (size 9 to 14) (size 15 to 20)
#    0.000    2.429    1.429    2.143    0.000    2.571 
#    0.000   10.000    0.000    0.000    0.000    0.000 
#    0.000    0.000    0.000    0.000    0.000    0.000 
#
# Total GULP energy -156334.594065 kJ/mol
# GULP energy per Si atom -5583.378359 kJ/mol
# Density = 2.442628 g / cm^3
# Si number density = 24.482007 Si / 1000 Ang^3
#
#
#
# Elastic Constant Matrix: (Units=GPa)
#
#
# Indices 1 2 3 4 5 6 
#
# 1 121.1567 5.3604 27.6605 0.0000 49.6992 0.0000
# 2 5.3604 56.9350 0.3889 0.0000 5.9573 0.0001
# 3 27.6605 0.3889 92.6312 0.0000 41.4564 0.0000
# 4 0.0000 0.0000 0.0000 24.6979 0.0000 2.9003
# 5 49.6992 5.9573 41.4564 0.0000 47.8666 0.0000
# 6 0.0000 0.0001 0.0000 2.9003 0.0000 7.5205
#
#
#
# Elastic Compliance Matrix: (Units=1/GPa)
#
#
# Indices 1 2 3 4 5 6 
#
# 1 0.015313 0.000582 0.004202 0.000000 -0.019611 0.000000
# 2 0.000582 0.017946 0.001667 0.000000 -0.004281 0.000000
# 3 0.004202 0.001667 0.018908 0.000000 -0.020946 0.000000
# 4 0.000000 0.000000 0.000000 0.042410 0.000000 -0.016356
# 5 -0.019611 -0.004281 -0.020946 0.000000 0.059926 0.000000
# 6 0.000000 0.000000 0.000000 -0.016356 0.000000 0.139277
#
#
# Mechanical properties :
#
#
# Convention : Reuss Voigt Hill
#
# Bulk Modulus (GPa) = 15.36882 37.50471 26.43676
# Shear Modulus (GPa) = 16.52514 31.83789 24.18152
#
# Velocity S-wave (km/s) = 2.60088 3.61010 3.14622
# Velocity P-wave (km/s) = 3.91288 5.72099 4.90104
#
# Compressibility (1/GPa) = 0.06506681
#
# Stress axis : x y z
#
# Youngs Moduli (GPa) = 65.30273 55.72377 52.88776
#
# Poissons Ratio (x) = -0.03240 -0.22221
# Poissons Ratio (y) = -0.03797 -0.08816
# Poissons Ratio (z) = -0.27437 -0.09289
#
# Static dielectric constant tensor:
#      x y z
#    x 1.959800 0.000000 0.040300 
#    y 0.000000 1.944440 0.000000 
#    z 0.040300 0.000000 2.002720 
# 
# From -- ./inp_files/337904.got.cif
#   From: 2010.05.17/outbox.cif.g08.bks.cpg/sg12_169_cif.got.tgz:337904.got - 2010.06.03 13:09:07.
