data_PCOD9207400
_publ_section_title
;
Structure prediction by ZEFSAII (Michael W. Deem and Ramdas Pophale) SiO2 
 PCOD9207400
Probable space group: C 2/M
;
_chemical_formula_sum "Si O2"
_cell_formula_units_Z 64
_cell_length_a 29.448935
_cell_length_b 19.078537
_cell_length_c 13.066528
_cell_angle_alpha 90.000000
_cell_angle_beta 26.489471
_cell_angle_gamma 90.000000
_cell_volume 3274.478891
_symmetry_space_group_name_H-M "C 2/M"
_symmetry_group_IT_number 12
_symmetry_cell_setting 'monoclinic'
loop_
_space_group_symop_operation_xyz
x,y,z
-x,y,-z
-x,-y,-z
x,-y,z
1/2+x,1/2+y,z
1/2-x,1/2+y,-z
1/2-x,1/2-y,-z
1/2+x,1/2-y,z
loop_
_atom_site_type_symbol
_atom_site_label
_atom_site_fract_x
_atom_site_fract_y
_atom_site_fract_z
Si Si1 0.853753 0.919297 0.548705
Si Si2 0.957623 0.677259 0.195087
Si Si3 0.145478 0.643561 0.938949
Si Si4 0.618771 0.578115 0.269210
Si Si5 0.249279 0.182853 0.926678
Si Si6 0.765659 0.797981 0.279381
Si Si7 0.888593 0.417771 0.772910
Si Si8 0.018406 0.159836 0.080986
O O1 0.741809 0.907333 0.726859
O O2 0.850257 0.901249 0.677029
O O3 0.940752 0.878116 0.313566
O O4 0.881309 0.000000 0.489664
O O5 0.835334 0.678312 0.454967
O O6 0.986106 0.758891 0.149878
O O7 0.000000 0.654920 0.000000
O O8 0.032906 0.635474 0.118914
O O9 0.192687 0.717479 0.802970
O O10 0.123501 0.631706 0.103572
O O11 0.500000 0.570062 0.500000
O O12 0.661524 0.500000 0.158815
O O13 0.642217 0.643313 0.149019
O O14 0.269139 0.197411 0.768826
O O15 0.318908 0.120374 0.829796
O O16 0.250000 0.250000 0.000000
O O17 0.864022 0.842474 0.118386
O O18 0.864805 0.500000 0.845269
O O19 0.000000 0.416998 0.500000
O O20 0.000000 0.136528 0.000000
#
# Coordination Sequence:
#
# PCOD9207400 Si02
#       8
#     8   8   8   8   8   8   8   8
#     4  11  21  38  63  89 123 165 212 254 302 376
#     4  10  23  39  65  93 122 159 201 263 322 371
#     4  11  21  39  63  91 125 160 211 255 310 377
#     4  10  21  37  58  84 118 161 203 244 300 367
#     4  12  22  36  57  91 125 162 194 250 303 360
#     4  11  22  40  61  94 132 157 201 263 320 373
#     4  11  23  40  61  87 124 170 212 247 296 372
#     4  10  23  38  63  93 124 161 204 260 319 374
#
# _framework density 19.545095
#
# number of rings (size 3 to 8) (size 9 to 14) (size 15 to 20)
#    0.000    1.250    3.750    2.250    1.750    2.250 
#    0.000    0.625    0.000    3.000    0.000    0.000 
#    0.000    0.000    0.000    0.000    0.000    0.000 
#
# Total GULP energy -178155.509504 kJ/mol
# GULP energy per Si atom -5567.359672 kJ/mol
# Density = 1.950061 g / cm^3
# Si number density = 19.545095 Si / 1000 Ang^3
#
#
#
# Elastic Constant Matrix: (Units=GPa)
#
#
# Indices 1 2 3 4 5 6 
#
# 1 60.4962 3.0662 25.2341 0.0000 -5.9099 0.0000
# 2 3.0662 27.7976 10.6049 0.0000 1.9279 0.0000
# 3 25.2341 10.6049 107.5424 0.0000 -16.4998 0.0000
# 4 0.0000 0.0000 0.0000 24.1895 0.0000 -4.1115
# 5 -5.9099 1.9279 -16.4998 0.0000 31.4745 0.0000
# 6 0.0000 0.0000 0.0000 -4.1115 0.0000 23.1618
#
#
#
# Elastic Compliance Matrix: (Units=1/GPa)
#
#
# Indices 1 2 3 4 5 6 
#
# 1 0.018380 -0.000578 -0.004046 0.000000 0.001366 0.000000
# 2 -0.000578 0.038019 -0.004336 0.000000 -0.004711 0.000000
# 3 -0.004046 -0.004336 0.011527 0.000000 0.005549 0.000000
# 4 0.000000 0.000000 0.000000 0.042626 0.000000 0.007567
# 5 0.001366 -0.004711 0.005549 0.000000 0.035225 0.000000
# 6 0.000000 0.000000 0.000000 0.007567 0.000000 0.044518
#
#
# Mechanical properties :
#
#
# Convention : Reuss Voigt Hill
#
# Bulk Modulus (GPa) = 19.99805 30.40514 25.20159
# Shear Modulus (GPa) = 22.23347 26.22720 24.23033
#
# Velocity S-wave (km/s) = 3.37641 3.66714 3.52478
# Velocity P-wave (km/s) = 5.04521 5.78971 5.43024
#
# Compressibility (1/GPa) = 0.05000488
#
# Stress axis : x y z
#
# Youngs Moduli (GPa) = 54.40552 26.30255 86.75297
#
# Poissons Ratio (x) = 0.01521 0.35103
# Poissons Ratio (y) = 0.03147 0.37617
# Poissons Ratio (z) = 0.22014 0.11405
#
# Static dielectric constant tensor:
#      x y z
#    x 1.767090 0.000000 -0.051210 
#    y 0.000000 1.673350 0.000000 
#    z -0.051210 0.000000 1.587490 
# 
# From -- ./inp_files/184664.got.cif
#   From: 2010.05.17/outbox.cif.g08.bks.cpg/sg12_93_cif.got.tgz:184664.got - 2010.06.03 13:09:07.
