data_PCOD9207795
_publ_section_title
;
Structure prediction by ZEFSAII (Michael W. Deem and Ramdas Pophale) SiO2 
 PCOD9207795
Probable space group: C 2/M
;
_chemical_formula_sum "Si O2"
_cell_formula_units_Z 64
_cell_length_a 22.061339
_cell_length_b 17.296371
_cell_length_c 25.764866
_cell_angle_alpha 90.000000
_cell_angle_beta 21.242215
_cell_angle_gamma 90.000000
_cell_volume 3562.023225
_symmetry_space_group_name_H-M "C 2/M"
_symmetry_group_IT_number 12
_symmetry_cell_setting 'monoclinic'
loop_
_space_group_symop_operation_xyz
x,y,z
-x,y,-z
-x,-y,-z
x,-y,z
1/2+x,1/2+y,z
1/2-x,1/2+y,-z
1/2-x,1/2-y,-z
1/2+x,1/2-y,z
loop_
_atom_site_type_symbol
_atom_site_label
_atom_site_fract_x
_atom_site_fract_y
_atom_site_fract_z
Si Si1 0.479033 0.280470 0.073884
Si Si2 0.466080 0.166465 0.178355
Si Si3 0.692497 0.585670 0.328896
Si Si4 0.577135 0.710277 0.695764
Si Si5 0.381183 0.746777 0.645181
Si Si6 0.201298 0.911469 0.046597
Si Si7 0.261626 0.411676 0.107379
Si Si8 0.958156 0.690513 0.378496
O O1 0.519695 0.221984 0.087915
O O2 0.282002 0.298444 0.236053
O O3 0.500000 0.245278 0.000000
O O4 0.600134 0.353680 0.980223
O O5 0.312304 0.114966 0.279906
O O6 0.415804 0.222319 0.266137
O O7 0.622191 0.114962 0.070552
O O8 0.500000 0.579475 0.500000
O O9 0.745269 0.500000 0.268757
O O10 0.687924 0.658864 0.294027
O O11 0.441252 0.647655 0.821451
O O12 0.761505 0.674211 0.542012
O O13 0.527115 0.750033 0.681355
O O14 0.500000 0.748828 0.500000
O O15 0.474992 0.772587 0.621644
O O16 0.162874 0.000000 0.091501
O O17 0.219617 0.907105 0.969792
O O18 0.286306 0.500000 0.104039
O O19 0.078820 0.380821 0.269079
#
# Coordination Sequence:
#
# PCOD9207795 Si02
#       8
#     8   8   8   8   8   8   8   8
#     4  11  21  36  61  88 112 153 197 245 286 348
#     4  11  20  37  63  88 115 154 198 242 288 356
#     4   9  18  33  55  84 116 148 184 228 283 344
#     4  11  22  37  64  87 116 156 203 243 301 346
#     4  10  21  37  60  84 120 152 198 241 291 347
#     4  11  23  39  62  89 121 156 195 245 301 356
#     4  11  23  40  61  87 120 154 196 251 302 350
#     4  11  22  39  60  89 118 155 200 251 290 355
#
# _framework density 17.967316
#
# number of rings (size 3 to 8) (size 9 to 14) (size 15 to 20)
#    0.000    1.375    3.750    3.750    0.000    0.750 
#    0.000    0.625    0.000    2.625    0.000    0.000 
#    0.000    0.000    0.000    0.000    0.000    0.000 
#
# Total GULP energy -178531.727235 kJ/mol
# GULP energy per Si atom -5579.116476 kJ/mol
# Density = 1.792642 g / cm^3
# Si number density = 17.967316 Si / 1000 Ang^3
#
#
#
# Elastic Constant Matrix: (Units=GPa)
#
#
# Indices 1 2 3 4 5 6 
#
# 1 73.1701 20.7854 14.7237 -0.0367 7.4843 0.0167
# 2 20.7854 79.0185 45.0789 -0.0305 -5.5075 0.0155
# 3 14.7237 45.0789 92.0341 -0.0581 -6.7954 0.0227
# 4 -0.0367 -0.0305 -0.0581 -2.7792 0.0244 7.1633
# 5 7.4843 -5.5075 -6.7954 0.0244 33.3229 -0.0103
# 6 0.0167 0.0155 0.0227 7.1633 -0.0103 9.8592
#
#
#
# Elastic Compliance Matrix: (Units=1/GPa)
#
#
# Indices 1 2 3 4 5 6 
#
# 1 0.015372 -0.003828 -0.000900 -0.000083 -0.004268 0.000038
# 2 -0.003828 0.018561 -0.008314 0.000013 0.002232 -0.000011
# 3 -0.000900 -0.008314 0.015224 -0.000086 0.001933 0.000044
# 4 -0.000083 0.000013 -0.000086 -0.125252 0.000123 0.091004
# 5 -0.004268 0.002232 0.001933 0.000123 0.031731 -0.000057
# 6 0.000038 -0.000011 0.000044 0.091004 -0.000057 0.035308
#
#
# Mechanical properties :
#
#
# Convention : Reuss Voigt Hill
#
# Bulk Modulus (GPa) = 43.33860 45.04430 44.19145
# Shear Modulus (GPa) = 202.27908 18.98955 110.63431
#
# Velocity S-wave (km/s) = 10.62196 3.25452 7.85551
# Velocity P-wave (km/s) = 13.21393 6.26475 10.34058
#
# Compressibility (1/GPa) = 0.02307412
#
# Stress axis : x y z
#
# Youngs Moduli (GPa) = 65.05451 53.87719 65.68441
#
# Poissons Ratio (x) = 0.20623 0.05908
# Poissons Ratio (y) = 0.24902 0.54610
# Poissons Ratio (z) = 0.05852 0.44793
#
# Static dielectric constant tensor:
#      x y z
#    x 1.612240 0.000000 -0.005260 
#    y 0.000000 1.616760 0.000010 
#    z -0.005260 0.000010 1.630530 
# 
# From -- ./inp_files/347879.got.cif
#   From: 2010.05.17/outbox.cif.g08.bks.cpg/sg12_174_cif.got.tgz:347879.got - 2010.06.03 13:09:07.
