data_PCOD9207583
_publ_section_title
;
Structure prediction by ZEFSAII (Michael W. Deem and Ramdas Pophale) SiO2 
 PCOD9207583
Probable space group: C 2/M
;
_chemical_formula_sum "Si O2"
_cell_formula_units_Z 56
_cell_length_a 16.475199
_cell_length_b 23.606070
_cell_length_c 9.442407
_cell_angle_alpha 90.000000
_cell_angle_beta 57.254216
_cell_angle_gamma 90.000000
_cell_volume 3088.686082
_symmetry_space_group_name_H-M "C 2/M"
_symmetry_group_IT_number 12
_symmetry_cell_setting 'monoclinic'
loop_
_space_group_symop_operation_xyz
x,y,z
-x,y,-z
-x,-y,-z
x,-y,z
1/2+x,1/2+y,z
1/2-x,1/2+y,-z
1/2-x,1/2-y,-z
1/2+x,1/2-y,z
loop_
_atom_site_type_symbol
_atom_site_label
_atom_site_fract_x
_atom_site_fract_y
_atom_site_fract_z
Si Si1 0.889003 0.843352 0.937891
Si Si2 0.394046 0.640626 0.372220
Si Si3 0.786732 0.834273 0.741658
Si Si4 0.695152 0.433984 0.767153
Si Si5 0.153905 0.241074 0.777166
Si Si6 0.087379 0.637703 0.813134
Si Si7 0.587314 0.067518 0.523843
O O1 0.817198 0.836163 0.874537
O O2 0.995370 0.852658 0.775924
O O3 0.855194 0.895714 0.066582
O O4 0.887562 0.789709 0.044589
O O5 0.370869 0.644654 0.558775
O O6 0.351148 0.585036 0.338448
O O7 0.338326 0.693037 0.348488
O O8 0.753761 0.770884 0.728307
O O9 0.690558 0.870333 0.794470
O O10 0.680679 0.500000 0.807682
O O11 0.809353 0.421980 0.647718
O O12 0.089480 0.294066 0.786219
O O13 0.082510 0.603412 0.672455
O O14 0.000000 0.623520 0.000000
O O15 0.500000 0.081378 0.500000
O O16 0.582424 0.000000 0.560278
#
# Coordination Sequence:
#
# PCOD9207583 Si02
#       7
#     8   8   8   8   8   8   8
#     4  11  22  36  59  87 119 153 193 238 287 340
#     4  11  20  39  59  83 117 156 195 236 287 341
#     4  10  22  36  56  87 115 154 186 236 292 342
#     4  10  21  40  61  84 112 151 198 239 287 344
#     4   9  20  37  55  82 117 150 192 233 283 338
#     4  10  21  37  59  85 116 150 189 238 288 345
#     4  10  22  40  62  87 116 150 194 245 290 343
#
# _framework density 18.130687000000002
#
# number of rings (size 3 to 8) (size 9 to 14) (size 15 to 20)
#    0.857    1.000    1.429    3.857    2.000    1.429 
#    0.000    4.286    0.000    1.714    0.000    0.000 
#    0.000    0.000    0.000    0.000    0.000    0.000 
#
# Total GULP energy -156123.922403 kJ/mol
# GULP energy per Si atom -5575.854372 kJ/mol
# Density = 1.808942 g / cm^3
# Si number density = 18.130687 Si / 1000 Ang^3
#
#
#
# Elastic Constant Matrix: (Units=GPa)
#
#
# Indices 1 2 3 4 5 6 
#
# 1 72.4449 33.3629 16.0705 0.0000 5.7883 0.0000
# 2 33.3629 76.7482 41.8737 0.0000 -1.6158 0.0000
# 3 16.0705 41.8737 89.8679 0.0000 -2.9676 0.0000
# 4 0.0000 0.0000 0.0000 10.6546 0.0000 -1.3967
# 5 5.7883 -1.6158 -2.9676 0.0000 34.4370 0.0000
# 6 0.0000 0.0000 0.0000 -1.3967 0.0000 21.1116
#
#
#
# Elastic Compliance Matrix: (Units=1/GPa)
#
#
# Indices 1 2 3 4 5 6 
#
# 1 0.017645 -0.007990 0.000459 0.000000 -0.003301 0.000000
# 2 -0.007990 0.021090 -0.008345 0.000000 0.001613 0.000000
# 3 0.000459 -0.008345 0.014961 0.000000 0.000821 0.000000
# 4 0.000000 0.000000 0.000000 0.094677 0.000000 0.006264
# 5 -0.003301 0.001613 0.000821 0.000000 0.029740 0.000000
# 6 0.000000 0.000000 0.000000 0.006264 0.000000 0.047782
#
#
# Mechanical properties :
#
#
# Convention : Reuss Voigt Hill
#
# Bulk Modulus (GPa) = 45.57191 46.85280 46.21235
# Shear Modulus (GPa) = 18.87067 23.09092 20.98079
#
# Velocity S-wave (km/s) = 3.22966 3.57260 3.40545
# Velocity P-wave (km/s) = 6.25280 6.55101 6.40364
#
# Compressibility (1/GPa) = 0.02194334
#
# Stress axis : x y z
#
# Youngs Moduli (GPa) = 56.67207 47.41621 66.84187
#
# Poissons Ratio (x) = 0.37887 -0.03066
# Poissons Ratio (y) = 0.45283 0.55777
# Poissons Ratio (z) = -0.02599 0.39567
#
# Static dielectric constant tensor:
#      x y z
#    x 1.625280 0.000000 -0.023830 
#    y 0.000000 1.621020 0.000000 
#    z -0.023830 0.000000 1.605180 
# 
# From -- ./inp_files/78703.got.cif
#   From: 2010.05.17/outbox.cif.g08.bks.cpg/sg12_40_cif.got.tgz:78703.got - 2010.06.03 13:09:07.
