data_PCOD9207423
_publ_section_title
;
Structure prediction by ZEFSAII (Michael W. Deem and Ramdas Pophale) SiO2 
 PCOD9207423
Probable space group: C 2/M
;
_chemical_formula_sum "Si O2"
_cell_formula_units_Z 56
_cell_length_a 19.268319
_cell_length_b 13.921021
_cell_length_c 23.542021
_cell_angle_alpha 90.000000
_cell_angle_beta 26.890442
_cell_angle_gamma 90.000000
_cell_volume 2856.089030
_symmetry_space_group_name_H-M "C 2/M"
_symmetry_group_IT_number 12
_symmetry_cell_setting 'monoclinic'
loop_
_space_group_symop_operation_xyz
x,y,z
-x,y,-z
-x,-y,-z
x,-y,z
1/2+x,1/2+y,z
1/2-x,1/2+y,-z
1/2-x,1/2-y,-z
1/2+x,1/2-y,z
loop_
_atom_site_type_symbol
_atom_site_label
_atom_site_fract_x
_atom_site_fract_y
_atom_site_fract_z
Si Si1 0.846554 0.615085 0.577233
Si Si2 0.604049 0.762013 0.798040
Si Si3 0.981923 0.385972 0.249986
Si Si4 0.737297 0.733611 0.941215
Si Si5 0.282148 0.115473 0.501465
Si Si6 0.120872 0.113960 0.361341
Si Si7 0.565182 0.386767 0.270333
O O1 0.823406 0.500000 0.595146
O O2 0.700616 0.669569 0.708634
O O3 0.861494 0.648830 0.501188
O O4 0.000000 0.636265 0.500000
O O5 0.560323 0.828191 0.775823
O O6 0.723067 0.825849 0.746982
O O7 0.442068 0.729875 0.942688
O O8 0.969121 0.500000 0.249758
O O9 0.863771 0.352827 0.384715
O O10 0.151829 0.357851 0.147853
O O11 0.813579 0.820235 0.850263
O O12 0.750000 0.750000 0.000000
O O13 0.102033 0.135010 0.632893
O O14 0.296980 0.000000 0.489709
O O15 0.058027 0.128439 0.343525
O O16 0.000000 0.139261 0.500000
O O17 0.152232 0.000000 0.345295
O O18 0.598914 0.500000 0.236626
#
# Coordination Sequence:
#
# PCOD9207423 Si02
#       7
#     8   8   8   8   8   8   8
#     4  10  22  39  59  85 115 150 196 247 298 352
#     4  11  22  37  57  84 117 158 199 238 291 355
#     4  10  21  37  58  85 116 149 191 247 305 356
#     4  10  23  37  53  82 114 155 205 239 280 348
#     4   9  18  35  59  83 108 143 191 245 300 354
#     4  10  21  37  60  92 125 155 194 248 308 364
#     4  10  21  38  61  89 121 156 196 247 303 358
#
# _framework density 19.607232
#
# number of rings (size 3 to 8) (size 9 to 14) (size 15 to 20)
#    0.000    2.000    0.000    3.429    0.000   10.857 
#    0.000    1.429    0.000    0.000    0.000    6.000 
#    0.000    0.000    0.000    0.000    0.000    0.000 
#
# Total GULP energy -156333.596306 kJ/mol
# GULP energy per Si atom -5583.342725 kJ/mol
# Density = 1.956260 g / cm^3
# Si number density = 19.607232 Si / 1000 Ang^3
#
#
#
# Elastic Constant Matrix: (Units=GPa)
#
#
# Indices 1 2 3 4 5 6 
#
# 1 92.4813 22.9084 16.2084 0.0014 -7.3208 0.0002
# 2 22.9084 84.4763 14.9049 0.0074 1.9314 -0.0006
# 3 16.2084 14.9049 79.1279 0.0056 -5.4702 -0.0015
# 4 0.0014 0.0074 0.0056 48.1068 -0.0024 -12.4714
# 5 -7.3208 1.9314 -5.4702 -0.0024 28.9881 -0.0003
# 6 0.0002 -0.0006 -0.0015 -12.4714 -0.0003 30.2772
#
#
#
# Elastic Compliance Matrix: (Units=1/GPa)
#
#
# Indices 1 2 3 4 5 6 
#
# 1 0.012099 -0.003048 -0.001701 0.000000 0.002938 0.000000
# 2 -0.003048 0.013059 -0.001975 -0.000002 -0.002012 -0.000001
# 3 -0.001701 -0.001975 0.013514 -0.000001 0.002252 0.000000
# 4 0.000000 -0.000002 -0.000001 0.023272 0.000002 0.009586
# 5 0.002938 -0.002012 0.002252 0.000002 0.035798 0.000001
# 6 0.000000 -0.000001 0.000000 0.009586 0.000001 0.036977
#
#
# Mechanical properties :
#
#
# Convention : Reuss Voigt Hill
#
# Bulk Modulus (GPa) = 39.64489 40.45876 40.05183
# Shear Modulus (GPa) = 31.93401 34.94535 33.43968
#
# Velocity S-wave (km/s) = 4.04008 4.22627 4.13422
# Velocity P-wave (km/s) = 6.48277 6.67043 6.57727
#
# Compressibility (1/GPa) = 0.02522393
#
# Stress axis : x y z
#
# Youngs Moduli (GPa) = 82.65376 76.57802 73.99827
#
# Poissons Ratio (x) = 0.23341 0.12588
# Poissons Ratio (y) = 0.25192 0.14611
# Poissons Ratio (z) = 0.14060 0.15121
#
# Static dielectric constant tensor:
#      x y z
#    x 1.705080 0.000000 0.013520 
#    y 0.000000 1.702540 0.000000 
#    z 0.013520 0.000000 1.689900 
# 
# From -- ./inp_files/316677.got.cif
#   From: 2010.05.17/outbox.cif.g08.bks.cpg/sg12_159_cif.got.tgz:316677.got - 2010.06.03 13:09:07.
