data_PCOD9207587
_publ_section_title
;
Structure prediction by ZEFSAII (Michael W. Deem and Ramdas Pophale) SiO2 
 PCOD9207587
Probable space group: C 2/M
;
_chemical_formula_sum "Si O2"
_cell_formula_units_Z 52
_cell_length_a 15.204978
_cell_length_b 9.796283
_cell_length_c 15.510013
_cell_angle_alpha 90.000000
_cell_angle_beta 83.529773
_cell_angle_gamma 90.000000
_cell_volume 2295.536564
_symmetry_space_group_name_H-M "C 2/M"
_symmetry_group_IT_number 12
_symmetry_cell_setting 'monoclinic'
loop_
_space_group_symop_operation_xyz
x,y,z
-x,y,-z
-x,-y,-z
x,-y,z
1/2+x,1/2+y,z
1/2-x,1/2+y,-z
1/2-x,1/2-y,-z
1/2+x,1/2-y,z
loop_
_atom_site_type_symbol
_atom_site_label
_atom_site_fract_x
_atom_site_fract_y
_atom_site_fract_z
Si Si1 0.240662 0.500000 0.992794
Si Si2 0.181290 0.340329 0.198249
Si Si3 0.077570 0.350780 0.385035
Si Si4 0.523155 0.656850 0.143156
Si Si5 0.435139 0.346370 0.339594
Si Si6 0.654425 0.736792 0.922930
Si Si7 0.179171 0.347451 0.550390
O O1 0.174695 0.380745 0.962303
O O2 0.309740 0.619057 0.018926
O O3 0.180622 0.500000 0.167188
O O4 0.153014 0.339576 0.302091
O O5 0.278062 0.282235 0.166523
O O6 0.107180 0.253402 0.154938
O O7 0.033337 0.500000 0.370177
O O8 0.110541 0.358393 0.478574
O O9 0.017581 0.218313 0.381752
O O10 0.549121 0.500000 0.120915
O O11 0.469082 0.650690 0.239083
O O12 0.447828 0.713255 0.088370
O O13 0.410206 0.500000 0.369233
O O14 0.360147 0.235483 0.365656
O O15 0.209390 0.500000 0.569031
O O16 0.250000 0.250000 0.500000
#
# Coordination Sequence:
#
# PCOD9207587 Si02
#       7
#     4   8   8   8   8   8   8
#     4  10  24  42  68  94 124 162 202 242 310 376
#     4  10  21  39  65  93 121 162 210 250 302 366
#     4   9  20  38  59  82 115 157 201 247 299 353
#     4  10  22  40  64  93 125 164 207 251 307 363
#     4  10  21  37  59  85 117 156 201 249 299 352
#     4  11  22  45  66  90 128 163 200 250 305 368
#     4  11  23  37  54  83 120 158 204 248 299 354
#
# _framework density 22.652656
#
# number of rings (size 3 to 8) (size 9 to 14) (size 15 to 20)
#    0.000    1.846    1.538    1.385    4.308    3.692 
#    0.000    4.615    0.000    0.000    0.000    0.000 
#    0.000    0.000    0.000    0.000    0.000    0.000 
#
# Total GULP energy -144764.691027 kJ/mol
# GULP energy per Si atom -5567.872732 kJ/mol
# Density = 2.260110 g / cm^3
# Si number density = 22.652656 Si / 1000 Ang^3
#
#
#
# Elastic Constant Matrix: (Units=GPa)
#
#
# Indices 1 2 3 4 5 6 
#
# 1 58.9065 22.6403 30.8407 0.0000 -10.9506 0.0000
# 2 22.6403 195.7844 34.2856 0.0000 -5.7417 0.0000
# 3 30.8407 34.2856 66.3811 0.0000 -8.1361 0.0000
# 4 0.0000 0.0000 0.0000 34.7905 0.0000 -11.2590
# 5 -10.9506 -5.7417 -8.1361 0.0000 42.1328 0.0000
# 6 0.0000 0.0000 0.0000 -11.2590 0.0000 31.5374
#
#
#
# Elastic Compliance Matrix: (Units=1/GPa)
#
#
# Indices 1 2 3 4 5 6 
#
# 1 0.023205 -0.000840 -0.009855 0.000000 0.004014 0.000000
# 2 -0.000840 0.005648 -0.002519 0.000000 0.000065 0.000000
# 3 -0.009855 -0.002519 0.021087 0.000000 0.001167 0.000000
# 4 0.000000 0.000000 0.000000 0.032498 0.000000 0.011602
# 5 0.004014 0.000065 0.001167 0.000000 0.025012 0.000000
# 6 0.000000 0.000000 0.000000 0.011602 0.000000 0.035850
#
#
# Mechanical properties :
#
#
# Convention : Reuss Voigt Hill
#
# Bulk Modulus (GPa) = 42.53160 55.17834 48.85497
# Shear Modulus (GPa) = 28.15864 37.24583 32.70223
#
# Velocity S-wave (km/s) = 3.52953 4.05929 3.80365
# Velocity P-wave (km/s) = 5.95201 6.81042 6.39563
#
# Compressibility (1/GPa) = 0.02351193
#
# Stress axis : x y z
#
# Youngs Moduli (GPa) = 43.09476 177.06031 47.42176
#
# Poissons Ratio (x) = 0.14870 0.46735
# Poissons Ratio (y) = 0.03619 0.11945
# Poissons Ratio (z) = 0.42471 0.44600
#
# Static dielectric constant tensor:
#      x y z
#    x 1.928220 0.000000 -0.072840 
#    y 0.000000 1.853300 0.000000 
#    z -0.072840 0.000000 1.944370 
# 
# From -- ./inp_files/274379.got.cif
#   From: 2010.05.17/outbox.cif.g08.bks.cpg/sg12_138_cif.got.tgz:274379.got - 2010.06.03 13:09:07.
