data_PCOD9207632
_publ_section_title
;
Structure prediction by ZEFSAII (Michael W. Deem and Ramdas Pophale) SiO2 
 PCOD9207632
Probable space group: C 2/M
;
_chemical_formula_sum "Si O2"
_cell_formula_units_Z 48
_cell_length_a 31.836028
_cell_length_b 8.489085
_cell_length_c 9.178252
_cell_angle_alpha 90.000000
_cell_angle_beta 89.936403
_cell_angle_gamma 90.000000
_cell_volume 2480.501364
_symmetry_space_group_name_H-M "C 2/M"
_symmetry_group_IT_number 12
_symmetry_cell_setting 'monoclinic'
loop_
_space_group_symop_operation_xyz
x,y,z
-x,y,-z
-x,-y,-z
x,-y,z
1/2+x,1/2+y,z
1/2-x,1/2+y,-z
1/2-x,1/2-y,-z
1/2+x,1/2-y,z
loop_
_atom_site_type_symbol
_atom_site_label
_atom_site_fract_x
_atom_site_fract_y
_atom_site_fract_z
Si Si1 0.625128 0.190685 0.912364
Si Si2 0.708873 0.190331 0.082590
Si Si3 0.874029 0.811025 0.417292
Si Si4 0.208571 0.310895 0.419285
Si Si5 0.458161 0.309665 0.584937
Si Si6 0.041732 0.309574 0.085518
O O1 0.625264 0.253479 0.748695
O O2 0.625168 0.000000 0.907319
O O3 0.666840 0.241871 0.998614
O O4 0.583432 0.241452 0.998992
O O5 0.708442 0.242399 0.250788
O O6 0.709394 0.000000 0.081916
O O7 0.750000 0.250000 0.000000
O O8 0.832920 0.747990 0.498892
O O9 0.916187 0.757470 0.500718
O O10 0.873045 0.000000 0.418974
O O11 0.208857 0.500000 0.421253
O O12 0.250000 0.250000 0.500000
O O13 0.500000 0.256226 0.500000
O O14 0.458367 0.500000 0.586009
O O15 0.458142 0.250916 0.750027
O O16 0.041691 0.500000 0.089076
O O17 0.000000 0.257512 0.000000
#
# Coordination Sequence:
#
# PCOD9207632 Si02
#       6
#     8   8   8   8   8   8
#     4  10  21  38  58  82 113 148 186 232 287 341
#     4  10  22  38  57  81 110 145 184 227 276 331
#     4  11  23  38  58  86 116 150 194 238 284 341
#     4  11  23  40  61  86 117 152 190 235 287 341
#     4  10  22  39  58  83 117 155 194 237 287 344
#     4  10  21  37  59  87 115 146 190 240 289 343
#
# _framework density 19.350926000000001
#
# number of rings (size 3 to 8) (size 9 to 14) (size 15 to 20)
#    0.000    1.667    0.000    4.000    0.000    8.667 
#    0.000    0.000    0.000    0.000    0.000    0.000 
#    0.000    0.000    0.000    0.000    0.000    0.000 
#
# Total GULP energy -134196.569064 kJ/mol
# GULP energy per Si atom -5591.523711 kJ/mol
# Density = 1.930688 g / cm^3
# Si number density = 19.350926 Si / 1000 Ang^3
#
#
#
# Elastic Constant Matrix: (Units=GPa)
#
#
# Indices 1 2 3 4 5 6 
#
# 1 246.8084 36.8369 150.9163 0.0000 0.7954 0.0000
# 2 36.8369 17.3057 33.7919 0.0000 1.2959 0.0000
# 3 150.9163 33.7919 243.4076 0.0000 0.5569 0.0000
# 4 0.0000 0.0000 0.0000 35.6075 0.0000 -1.6066
# 5 0.7954 1.2959 0.5569 0.0000 47.2181 0.0000
# 6 0.0000 0.0000 0.0000 -1.6066 0.0000 25.5972
#
#
#
# Elastic Compliance Matrix: (Units=1/GPa)
#
#
# Indices 1 2 3 4 5 6 
#
# 1 0.007507 -0.009470 -0.003340 0.000000 0.000173 0.000000
# 2 -0.009470 0.091419 -0.006815 0.000000 -0.002269 0.000000
# 3 -0.003340 -0.006815 0.007125 0.000000 0.000159 0.000000
# 4 0.000000 0.000000 0.000000 0.028164 0.000000 0.001768
# 5 0.000173 -0.002269 0.000159 0.000000 0.021236 0.000000
# 6 0.000000 0.000000 0.000000 0.001768 0.000000 0.039178
#
#
# Mechanical properties :
#
#
# Convention : Reuss Voigt Hill
#
# Bulk Modulus (GPa) = 14.96981 105.62352 60.29666
# Shear Modulus (GPa) = 19.52013 40.74966 30.13490
#
# Velocity S-wave (km/s) = 3.17952 4.59391 3.95053
# Velocity P-wave (km/s) = 4.60781 9.10166 7.21360
#
# Compressibility (1/GPa) = 0.06680113
#
# Stress axis : x y z
#
# Youngs Moduli (GPa) = 133.20863 10.93861 140.35165
#
# Poissons Ratio (x) = 0.10359 0.46879
# Poissons Ratio (y) = 1.26153 0.95645
# Poissons Ratio (z) = 0.44493 0.07454
#
# Static dielectric constant tensor:
#      x y z
#    x 1.652500 0.000000 0.010100 
#    y 0.000000 1.670980 0.000000 
#    z 0.010100 0.000000 1.627650 
# 
# From -- ./inp_files/108652.got.cif
#   From: 2010.05.17/outbox.cif.g08.bks.cpg/sg12_55_cif.got.tgz:108652.got - 2010.06.03 13:09:07.
