data_PCOD9207584
_publ_section_title
;
Structure prediction by ZEFSAII (Michael W. Deem and Ramdas Pophale) SiO2 
 PCOD9207584
Probable space group: C 2/M
;
_chemical_formula_sum "Si O2"
_cell_formula_units_Z 64
_cell_length_a 20.846849
_cell_length_b 8.036695
_cell_length_c 23.779461
_cell_angle_alpha 90.000000
_cell_angle_beta 44.020131
_cell_angle_gamma 90.000000
_cell_volume 2768.529423
_symmetry_space_group_name_H-M "C 2/M"
_symmetry_group_IT_number 12
_symmetry_cell_setting 'monoclinic'
loop_
_space_group_symop_operation_xyz
x,y,z
-x,y,-z
-x,-y,-z
x,-y,z
1/2+x,1/2+y,z
1/2-x,1/2+y,-z
1/2-x,1/2-y,-z
1/2+x,1/2-y,z
loop_
_atom_site_type_symbol
_atom_site_label
_atom_site_fract_x
_atom_site_fract_y
_atom_site_fract_z
Si Si1 0.867654 0.196325 0.091357
Si Si2 0.522173 0.806031 0.646825
Si Si3 0.197046 0.809534 0.478229
Si Si4 0.245156 0.807071 0.677178
Si Si5 0.453221 0.700065 0.149382
Si Si6 0.445511 0.800215 0.806865
Si Si7 0.757713 0.201003 0.059782
Si Si8 0.175044 0.807097 0.266333
O O1 0.939791 0.261613 0.093158
O O2 0.842566 0.263830 0.044881
O O3 0.767574 0.220246 0.184069
O O4 0.888023 0.000000 0.072233
O O5 0.590478 0.712142 0.562355
O O6 0.518479 0.741006 0.713822
O O7 0.417515 0.786259 0.692414
O O8 0.549431 0.000000 0.629843
O O9 0.250000 0.750000 0.500000
O O10 0.228723 0.710201 0.403822
O O11 0.219307 0.000000 0.452689
O O12 0.141126 0.752695 0.758254
O O13 0.312974 0.704147 0.674055
O O14 0.252008 0.000000 0.689558
O O15 0.458944 0.500000 0.142060
O O16 0.531473 0.754132 0.143676
O O17 0.342873 0.741948 0.854664
O O18 0.445323 0.000000 0.803367
O O19 0.761596 0.000000 0.060258
O O20 0.750000 0.250000 0.000000
O O21 0.172727 0.000000 0.250510
#
# Coordination Sequence:
#
# PCOD9207584 Si02
#       8
#     8   8   8   8   8   8   8   8
#     4   9  18  38  60  81 117 159 195 232 284 352
#     4  11  22  39  60  81 111 155 196 239 295 350
#     4  12  25  40  56  81 114 151 196 246 299 353
#     4  10  21  39  59  81 114 157 198 240 293 349
#     4   9  19  34  59  87 112 149 196 241 282 335
#     4  10  21  37  59  85 116 150 189 238 291 346
#     4  10  21  39  61  87 116 152 192 236 288 347
#     4  11  21  34  57  89 116 145 190 245 293 345
#
# _framework density 23.116966000000001
#
# number of rings (size 3 to 8) (size 9 to 14) (size 15 to 20)
#    0.000    1.750    1.250    4.500    0.000    7.000 
#    0.000    3.125    0.000    3.750    0.000    0.000 
#    0.000    0.000    0.000    0.000    0.000    0.000 
#
# Total GULP energy -178767.074310 kJ/mol
# GULP energy per Si atom -5586.471072 kJ/mol
# Density = 2.306435 g / cm^3
# Si number density = 23.116966 Si / 1000 Ang^3
#
#
#
# Elastic Constant Matrix: (Units=GPa)
#
#
# Indices 1 2 3 4 5 6 
#
# 1 151.9745 0.2408 28.7298 -0.0004 20.2546 0.0003
# 2 0.2408 41.2582 2.6348 -0.0007 1.0201 0.0015
# 3 28.7298 2.6348 83.3332 -0.0003 21.5363 0.0003
# 4 -0.0004 -0.0007 -0.0003 17.5620 0.0000 8.5074
# 5 20.2546 1.0201 21.5363 0.0000 42.3082 -0.0001
# 6 0.0003 0.0015 0.0003 8.5074 -0.0001 29.9234
#
#
#
# Elastic Compliance Matrix: (Units=1/GPa)
#
#
# Indices 1 2 3 4 5 6 
#
# 1 0.007269 0.000139 -0.001854 0.000000 -0.002539 0.000000
# 2 0.000139 0.024291 -0.000745 0.000002 -0.000273 -0.000002
# 3 -0.001854 -0.000745 0.014311 0.000000 -0.006379 0.000000
# 4 0.000000 0.000002 0.000000 0.066036 0.000000 -0.018774
# 5 -0.002539 -0.000273 -0.006379 0.000000 0.028106 0.000000
# 6 0.000000 -0.000002 0.000000 -0.018774 0.000000 0.038756
#
#
# Mechanical properties :
#
#
# Convention : Reuss Voigt Hill
#
# Bulk Modulus (GPa) = 24.42008 37.75298 31.08653
# Shear Modulus (GPa) = 25.33687 34.28941 29.81314
#
# Velocity S-wave (km/s) = 3.31422 3.85554 3.59509
# Velocity P-wave (km/s) = 5.02316 6.01556 5.54162
#
# Compressibility (1/GPa) = 0.04094991
#
# Stress axis : x y z
#
# Youngs Moduli (GPa) = 137.57470 41.16730 69.87394
#
# Poissons Ratio (x) = -0.00571 0.12955
# Poissons Ratio (y) = -0.01909 0.05209
# Poissons Ratio (z) = 0.25508 0.03069
#
# Static dielectric constant tensor:
#      x y z
#    x 1.894040 0.000000 -0.003300 
#    y 0.000000 1.831240 0.000000 
#    z -0.003300 0.000000 1.733190 
# 
# From -- ./inp_files/345968.got.cif
#   From: 2010.05.17/outbox.cif.g08.bks.cpg/sg12_173_cif.got.tgz:345968.got - 2010.06.03 13:09:07.
