data_PCOD9207383
_publ_section_title
;
Structure prediction by ZEFSAII (Michael W. Deem and Ramdas Pophale) SiO2 
 PCOD9207383
Probable space group: C 2/M
;
_chemical_formula_sum "Si O2"
_cell_formula_units_Z 48
_cell_length_a 18.797167
_cell_length_b 8.792035
_cell_length_c 18.313157
_cell_angle_alpha 90.000000
_cell_angle_beta 59.296976
_cell_angle_gamma 90.000000
_cell_volume 2602.287401
_symmetry_space_group_name_H-M "C 2/M"
_symmetry_group_IT_number 12
_symmetry_cell_setting 'monoclinic'
loop_
_space_group_symop_operation_xyz
x,y,z
-x,y,-z
-x,-y,-z
x,-y,z
1/2+x,1/2+y,z
1/2-x,1/2+y,-z
1/2-x,1/2-y,-z
1/2+x,1/2-y,z
loop_
_atom_site_type_symbol
_atom_site_label
_atom_site_fract_x
_atom_site_fract_y
_atom_site_fract_z
Si Si1 0.745674 0.681623 0.421111
Si Si2 0.424974 0.681693 0.732589
Si Si3 0.091338 0.182166 0.736767
Si Si4 0.910749 0.681391 0.580785
Si Si5 0.504555 0.818011 0.082961
Si Si6 0.334475 0.682277 0.925734
O O1 0.746520 0.500000 0.424444
O O2 0.750000 0.750000 0.500000
O O3 0.825721 0.741353 0.335674
O O4 0.662835 0.737718 0.424265
O O5 0.424017 0.500000 0.719520
O O6 0.513580 0.718293 0.723836
O O7 0.411365 0.768662 0.664755
O O8 0.355378 0.716284 0.829992
O O9 0.065641 0.242501 0.829928
O O10 0.100069 0.000000 0.733486
O O11 0.900006 0.500000 0.580386
O O12 0.000000 0.721873 0.500000
O O13 0.590490 0.754485 0.068611
O O14 0.500713 0.000000 0.093572
O O15 0.500000 0.781277 0.000000
O O16 0.335691 0.500000 0.932791
O O17 0.250000 0.750000 0.000000
#
# Coordination Sequence:
#
# PCOD9207383 Si02
#       6
#     8   8   8   8   8   8
#     4  12  25  41  62  87 118 153 191 236 286 341
#     4   9  20  38  59  84 114 149 188 234 288 341
#     4  10  21  39  62  87 117 152 193 239 288 343
#     4  11  24  40  60  87 116 149 191 235 282 340
#     4  10  21  37  58  85 118 155 194 238 290 345
#     4  10  21  37  58  84 115 152 195 241 290 345
#
# _framework density 18.445309999999999
#
# number of rings (size 3 to 8) (size 9 to 14) (size 15 to 20)
#    0.000    1.667    0.000    5.500    0.000   10.667 
#    0.000    1.667    0.000    0.000    0.000    0.000 
#    0.000    0.000    0.000    0.000    0.000    0.000 
#
# Total GULP energy -134141.041530 kJ/mol
# GULP energy per Si atom -5589.210064 kJ/mol
# Density = 1.840333 g / cm^3
# Si number density = 18.445310 Si / 1000 Ang^3
#
#
#
# Elastic Constant Matrix: (Units=GPa)
#
#
# Indices 1 2 3 4 5 6 
#
# 1 108.4194 73.9005 107.5223 0.0000 -4.4471 0.0000
# 2 73.9005 101.9567 89.8504 0.0000 1.5580 -0.0001
# 3 107.5223 89.8504 182.1003 0.0000 -5.4301 0.0000
# 4 0.0000 0.0000 0.0000 37.3241 0.0000 2.6509
# 5 -4.4471 1.5580 -5.4301 0.0000 39.7403 0.0000
# 6 0.0000 -0.0001 0.0000 2.6509 0.0000 33.5328
#
#
#
# Elastic Compliance Matrix: (Units=1/GPa)
#
#
# Indices 1 2 3 4 5 6 
#
# 1 0.026886 -0.009867 -0.010950 0.000000 0.001899 0.000000
# 2 -0.009867 0.021113 -0.004668 0.000000 -0.002570 0.000000
# 3 -0.010950 -0.004668 0.014287 0.000000 0.000910 0.000000
# 4 0.000000 0.000000 0.000000 0.026944 0.000000 -0.002130
# 5 0.001899 -0.002570 0.000910 0.000000 0.025601 0.000000
# 6 0.000000 0.000000 0.000000 -0.002130 0.000000 0.029990
#
#
# Mechanical properties :
#
#
# Convention : Reuss Voigt Hill
#
# Bulk Modulus (GPa) = 88.36616 103.89143 96.12879
# Shear Modulus (GPa) = 25.05474 30.19967 27.62720
#
# Velocity S-wave (km/s) = 3.68955 4.05069 3.87433
# Velocity P-wave (km/s) = 8.13397 8.85007 8.49956
#
# Compressibility (1/GPa) = 0.01131655
#
# Stress axis : x y z
#
# Youngs Moduli (GPa) = 37.19364 47.36463 69.99194
#
# Poissons Ratio (x) = 0.46735 0.76642
# Poissons Ratio (y) = 0.36699 0.32672
# Poissons Ratio (z) = 0.40727 0.22109
#
# Static dielectric constant tensor:
#      x y z
#    x 1.588150 0.000000 0.003050 
#    y 0.000000 1.615500 0.000000 
#    z 0.003050 0.000000 1.620520 
# 
# From -- ./inp_files/274021.got.cif
#   From: 2010.05.17/outbox.cif.g08.bks.cpg/sg12_138_cif.got.tgz:274021.got - 2010.06.03 13:09:07.
