data_PCOD9207631
_publ_section_title
;
Structure prediction by ZEFSAII (Michael W. Deem and Ramdas Pophale) SiO2 
 PCOD9207631
Probable space group: C 2/M
;
_chemical_formula_sum "Si O2"
_cell_formula_units_Z 32
_cell_length_a 15.179682
_cell_length_b 12.833643
_cell_length_c 9.806891
_cell_angle_alpha 90.000000
_cell_angle_beta 142.692878
_cell_angle_gamma 90.000000
_cell_volume 1157.921564
_symmetry_space_group_name_H-M "C 2/M"
_symmetry_group_IT_number 12
_symmetry_cell_setting 'monoclinic'
loop_
_space_group_symop_operation_xyz
x,y,z
-x,y,-z
-x,-y,-z
x,-y,z
1/2+x,1/2+y,z
1/2-x,1/2+y,-z
1/2-x,1/2-y,-z
1/2+x,1/2-y,z
loop_
_atom_site_type_symbol
_atom_site_label
_atom_site_fract_x
_atom_site_fract_y
_atom_site_fract_z
Si Si1 0.347033 0.341783 0.889781
Si Si2 0.016695 0.840258 0.674361
Si Si3 0.698268 0.883697 0.270966
Si Si4 0.549550 0.888598 0.373616
O O1 0.322264 0.216080 0.849694
O O2 0.205673 0.385875 0.641752
O O3 0.500000 0.363101 0.000000
O O4 0.369809 0.376449 0.073823
O O5 0.856057 0.864709 0.533250
O O6 0.033296 0.715364 0.686754
O O7 0.000000 0.880818 0.500000
O O8 0.586702 0.881013 0.258751
O O9 0.694786 0.000000 0.206269
O O10 0.479071 0.000000 0.314307
#
# Coordination Sequence:
#
# PCOD9207631 Si02
#       4
#     8   8   8   8
#     4  11  19  37  61  84 109 151 191 224 277 335
#     4  11  23  39  57  83 119 149 181 233 286 328
#     4  10  21  37  59  87 113 143 191 236 271 330
#     4  10  21  37  59  87 113 143 191 236 271 330
#
# _framework density 27.635722999999999
#
# number of rings (size 3 to 8) (size 9 to 14) (size 15 to 20)
#    0.000    1.500    5.000    1.500    0.000    8.000 
#    0.000    2.500    0.000    0.000    0.000    0.000 
#    0.000    0.000    0.000    0.000    0.000    0.000 
#
# Total GULP energy -89660.635532 kJ/mol
# GULP energy per Si atom -5603.789721 kJ/mol
# Density = 2.757282 g / cm^3
# Si number density = 27.635723 Si / 1000 Ang^3
#
#
#
# Elastic Constant Matrix: (Units=GPa)
#
#
# Indices 1 2 3 4 5 6 
#
# 1 53.7513 12.5600 9.8191 0.0000 -10.5339 0.0000
# 2 12.5600 189.6565 29.6570 0.0000 -10.9496 0.0000
# 3 9.8191 29.6570 173.3644 0.0000 -7.7979 0.0000
# 4 0.0000 0.0000 0.0000 -3.7150 0.0000 1.6398
# 5 -10.5339 -10.9496 -7.7979 0.0000 55.3604 0.0000
# 6 0.0000 0.0000 0.0000 1.6398 0.0000 10.2371
#
#
#
# Elastic Compliance Matrix: (Units=1/GPa)
#
#
# Indices 1 2 3 4 5 6 
#
# 1 0.019651 -0.000979 -0.000791 0.000000 0.003434 0.000000
# 2 -0.000979 0.005516 -0.000853 0.000000 0.000785 0.000000
# 3 -0.000791 -0.000853 0.005982 0.000000 0.000523 0.000000
# 4 0.000000 0.000000 0.000000 -0.251403 0.000000 0.040270
# 5 0.003434 0.000785 0.000523 0.000000 0.018946 0.000000
# 6 0.000000 0.000000 0.000000 0.040270 0.000000 0.091233
#
#
# Mechanical properties :
#
#
# Convention : Reuss Voigt Hill
#
# Bulk Modulus (GPa) = 38.60610 57.87162 48.23886
# Shear Modulus (GPa) = -51.97808 36.69225 -7.64292
#
# Velocity S-wave (km/s) = -4.34156 3.64773 -1.66481
# Velocity P-wave (km/s) = 3.33650 6.22315 3.71452
#
# Compressibility (1/GPa) = 0.02590265
#
# Stress axis : x y z
#
# Youngs Moduli (GPa) = 50.88921 181.28378 167.15584
#
# Poissons Ratio (x) = 0.17755 0.13221
# Poissons Ratio (y) = 0.04984 0.14256
# Poissons Ratio (z) = 0.04025 0.15461
#
# Static dielectric constant tensor:
#      x y z
#    x 2.216000 0.000000 -0.021700 
#    y 0.000000 2.111870 0.000000 
#    z -0.021700 0.000000 2.099480 
# 
# From -- ./inp_files/58230.got.cif
#   From: 2010.05.17/outbox.cif.g08.bks.cpg/sg12_30_cif.got.tgz:58230.got - 2010.06.03 13:09:07.
