data_PCOD9207938
_publ_section_title
;
Structure prediction by ZEFSAII (Michael W. Deem and Ramdas Pophale) SiO2 
 PCOD9207938
Probable space group: C 2/M
;
_chemical_formula_sum "Si O2"
_cell_formula_units_Z 58
_cell_length_a 12.795066
_cell_length_b 16.910592
_cell_length_c 22.539216
_cell_angle_alpha 90.000000
_cell_angle_beta 34.463596
_cell_angle_gamma 90.000000
_cell_volume 2759.728822
_symmetry_space_group_name_H-M "C 2/M"
_symmetry_group_IT_number 12
_symmetry_cell_setting 'monoclinic'
loop_
_space_group_symop_operation_xyz
x,y,z
-x,y,-z
-x,-y,-z
x,-y,z
1/2+x,1/2+y,z
1/2-x,1/2+y,-z
1/2-x,1/2-y,-z
1/2+x,1/2-y,z
loop_
_atom_site_type_symbol
_atom_site_label
_atom_site_fract_x
_atom_site_fract_y
_atom_site_fract_z
Si Si1 0.951701 0.911005 0.892795
Si Si2 0.249347 0.408021 0.151609
Si Si3 0.253855 0.686125 0.683378
Si Si4 0.913410 0.842292 0.392249
Si Si5 0.228597 0.863543 0.666782
Si Si6 0.000000 0.500000 0.500000
Si Si7 0.352044 0.177650 0.919323
Si Si8 0.396859 0.154100 0.372585
O O1 0.055057 0.899872 0.907466
O O2 0.070497 0.863170 0.790569
O O3 0.980350 0.000000 0.861046
O O4 0.736668 0.893156 0.001092
O O5 0.230399 0.500000 0.140341
O O6 0.211964 0.343964 0.117807
O O7 0.091585 0.389491 0.274592
O O8 0.411416 0.644723 0.647915
O O9 0.311777 0.775098 0.635983
O O10 0.201313 0.645211 0.645656
O O11 0.069965 0.687080 0.810365
O O12 0.885776 0.877292 0.340464
O O13 0.737727 0.871301 0.512141
O O14 0.919983 0.747756 0.375069
O O15 0.384772 0.929951 0.590964
O O16 0.250000 0.250000 0.000000
#
# Coordination Sequence:
#
# PCOD9207938 Si02
#       8
#     8   8   8   8   8   2   8   8
#     4  11  22  41  64  91 130 167 211 271 327 385
#     4  10  22  39  64  96 127 164 213 269 333 388
#     4  10  21  40  63  91 125 164 213 267 317 370
#     4  10  21  37  60  91 127 168 210 262 313 379
#     4  11  24  39  62  95 131 164 211 255 324 384
#     4  12  28  40  64  96 138 172 202 260 320 402
#     4  11  22  39  62  93 125 164 214 269 320 375
#     4   9  20  34  61  93 123 162 210 261 319 377
#
# _framework density 21.016558
#
# number of rings (size 3 to 8) (size 9 to 14) (size 15 to 20)
#    0.000    1.655    2.069    2.069    7.724    1.103 
#    2.483    0.690    7.586    4.138    0.000    0.000 
#    0.000    0.000    0.000    0.000    0.000    0.000 
#
# Total GULP energy -161444.070679 kJ/mol
# GULP energy per Si atom -5567.036920 kJ/mol
# Density = 2.096872 g / cm^3
# Si number density = 21.016558 Si / 1000 Ang^3
#
#
#
# Elastic Constant Matrix: (Units=GPa)
#
#
# Indices 1 2 3 4 5 6 
#
# 1 73.8652 7.5888 18.9839 0.0008 1.2444 0.0001
# 2 7.5888 33.5495 19.1596 0.0011 -7.3490 0.0002
# 3 18.9839 19.1596 99.8653 0.0020 -1.4063 0.0002
# 4 0.0008 0.0011 0.0020 36.8705 0.0002 3.2811
# 5 1.2444 -7.3490 -1.4063 0.0002 32.8265 -0.0001
# 6 0.0001 0.0002 0.0002 3.2811 -0.0001 7.6649
#
#
#
# Elastic Compliance Matrix: (Units=1/GPa)
#
#
# Indices 1 2 3 4 5 6 
#
# 1 0.014380 -0.002168 -0.002334 0.000000 -0.001130 0.000000
# 2 -0.002168 0.035605 -0.006309 -0.000001 0.007783 0.000000
# 3 -0.002334 -0.006309 0.011656 0.000000 -0.000825 0.000000
# 4 0.000000 -0.000001 0.000000 0.028196 0.000000 -0.012070
# 5 -0.001130 0.007783 -0.000825 0.000000 0.032213 0.000000
# 6 0.000000 0.000000 0.000000 -0.012070 0.000000 0.135632
#
#
# Mechanical properties :
#
#
# Convention : Reuss Voigt Hill
#
# Bulk Modulus (GPa) = 24.98768 33.19384 29.09076
# Shear Modulus (GPa) = 17.08569 26.24221 21.66395
#
# Velocity S-wave (km/s) = 2.85434 3.53745 3.21410
# Velocity P-wave (km/s) = 4.77267 5.70203 5.25792
#
# Compressibility (1/GPa) = 0.04001972
#
# Stress axis : x y z
#
# Youngs Moduli (GPa) = 69.54268 28.08588 85.79306
#
# Poissons Ratio (x) = 0.06088 0.20020
# Poissons Ratio (y) = 0.15074 0.54130
# Poissons Ratio (z) = 0.16228 0.17720
#
# Static dielectric constant tensor:
#      x y z
#    x 1.772920 0.000000 0.006770 
#    y 0.000000 1.802720 0.000000 
#    z 0.006770 0.000000 1.789240 
# 
# From -- ./inp_files/306370.got.cif
#   From: 2010.05.17/outbox.cif.g08.bks.cpg/sg12_154_cif.got.tgz:306370.got - 2010.06.03 13:09:07.
