data_PCOD9207933
_publ_section_title
;
Structure prediction by ZEFSAII (Michael W. Deem and Ramdas Pophale) SiO2 
 PCOD9207933
Probable space group: C 2/M
;
_chemical_formula_sum "Si O2"
_cell_formula_units_Z 64
_cell_length_a 15.206541
_cell_length_b 8.708807
_cell_length_c 27.392858
_cell_angle_alpha 90.000000
_cell_angle_beta 60.551805
_cell_angle_gamma 90.000000
_cell_volume 3158.967486
_symmetry_space_group_name_H-M "C 2/M"
_symmetry_group_IT_number 12
_symmetry_cell_setting 'monoclinic'
loop_
_space_group_symop_operation_xyz
x,y,z
-x,y,-z
-x,-y,-z
x,-y,z
1/2+x,1/2+y,z
1/2-x,1/2+y,-z
1/2-x,1/2-y,-z
1/2+x,1/2-y,z
loop_
_atom_site_type_symbol
_atom_site_label
_atom_site_fract_x
_atom_site_fract_y
_atom_site_fract_z
Si Si1 0.488540 0.684100 0.296441
Si Si2 0.416570 0.682875 0.209878
Si Si3 0.115732 0.827012 0.984111
Si Si4 0.108299 0.314898 0.493955
Si Si5 0.932482 0.678711 0.901123
Si Si6 0.325217 0.183825 0.413756
Si Si7 0.298975 0.182661 0.760648
Si Si8 0.725955 0.679849 0.126541
O O1 0.493825 0.500000 0.296301
O O2 0.471850 0.731430 0.244447
O O3 0.395296 0.742374 0.353565
O O4 0.593674 0.754876 0.286059
O O5 0.431265 0.500000 0.200001
O O6 0.461746 0.760350 0.149106
O O7 0.297287 0.711614 0.247357
O O8 0.173223 0.717097 0.931100
O O9 0.159281 0.000000 0.970313
O O10 0.112546 0.765783 0.039950
O O11 0.000000 0.834600 0.000000
O O12 0.113113 0.500000 0.487893
O O13 0.210018 0.244341 0.442762
O O14 0.124155 0.277365 0.547209
O O15 0.000000 0.266419 0.500000
O O16 0.939140 0.500000 0.910275
O O17 0.857138 0.718221 0.877946
O O18 0.324683 0.000000 0.409631
O O19 0.272344 0.267072 0.818403
O O20 0.305819 0.000000 0.766949
O O21 0.700693 0.500000 0.130251
#
# Coordination Sequence:
#
# PCOD9207933 Si02
#       8
#     8   8   8   8   8   8   8   8
#     4  11  23  41  63  88 124 168 208 251 302 364
#     4  10  23  42  63  87 120 160 202 251 309 369
#     4  11  24  41  60  84 116 152 193 245 305 371
#     4   9  19  38  63  90 124 167 209 249 303 365
#     4  12  24  39  62  88 116 152 197 250 305 366
#     4  10  21  37  60  91 126 162 205 259 304 352
#     4  11  23  41  64  90 119 157 204 255 309 365
#     4  12  24  40  61  86 118 153 195 246 306 372
#
# _framework density 20.259785000000001
#
# number of rings (size 3 to 8) (size 9 to 14) (size 15 to 20)
#    0.000    1.250    1.250    4.875    0.000    7.250 
#    0.000    5.000    0.000    0.000    0.000    0.000 
#    0.000    0.000    0.000    0.000    0.000    0.000 
#
# Total GULP energy -178841.202677 kJ/mol
# GULP energy per Si atom -5588.787584 kJ/mol
# Density = 2.021367 g / cm^3
# Si number density = 20.259785 Si / 1000 Ang^3
#
#
#
# Elastic Constant Matrix: (Units=GPa)
#
#
# Indices 1 2 3 4 5 6 
#
# 1 91.0567 14.1222 13.4478 0.0000 -24.3333 0.0000
# 2 14.1222 39.0808 15.4456 0.0000 -6.3446 0.0000
# 3 13.4478 15.4456 86.6536 0.0000 -24.7618 0.0000
# 4 0.0000 0.0000 0.0000 32.9861 0.0000 -7.3616
# 5 -24.3333 -6.3446 -24.7618 0.0000 27.4570 0.0000
# 6 0.0000 0.0000 0.0000 -7.3616 0.0000 27.6287
#
#
#
# Elastic Compliance Matrix: (Units=1/GPa)
#
#
# Indices 1 2 3 4 5 6 
#
# 1 0.015216 -0.004119 0.002633 0.000000 0.014907 0.000000
# 2 -0.004119 0.028781 -0.004895 0.000000 -0.001414 0.000000
# 3 0.002633 -0.004895 0.016634 0.000000 0.016204 0.000000
# 4 0.000000 0.000000 0.000000 0.032233 0.000000 0.008588
# 5 0.014907 -0.001414 0.016204 0.000000 0.063918 0.000000
# 6 0.000000 0.000000 0.000000 0.008588 0.000000 0.038483
#
#
# Mechanical properties :
#
#
# Convention : Reuss Voigt Hill
#
# Bulk Modulus (GPa) = 20.89014 33.64690 27.26852
# Shear Modulus (GPa) = 22.32307 29.19940 25.76123
#
# Velocity S-wave (km/s) = 3.32300 3.80050 3.56974
# Velocity P-wave (km/s) = 5.00566 5.99184 5.52081
#
# Compressibility (1/GPa) = 0.04786946
#
# Stress axis : x y z
#
# Youngs Moduli (GPa) = 65.72106 34.74463 60.11623
#
# Poissons Ratio (x) = 0.14310 -0.15826
# Poissons Ratio (y) = 0.27069 0.29427
# Poissons Ratio (z) = -0.17302 0.17008
#
# Static dielectric constant tensor:
#      x y z
#    x 1.773140 0.000000 0.003170 
#    y 0.000000 1.689560 0.000000 
#    z 0.003170 0.000000 1.741590 
# 
# From -- ./inp_files/374989.got.cif
#   From: 2010.05.17/outbox.cif.g08.bks.cpg/sg12_188_cif.got.tgz:374989.got - 2010.06.03 13:09:07.
