data_PCOD9207071
_publ_section_title
;
Structure prediction by ZEFSAII (Michael W. Deem and Ramdas Pophale) SiO2 
 PCOD9207071
Probable space group: C 2/M
;
_chemical_formula_sum "Si O2"
_cell_formula_units_Z 56
_cell_length_a 7.707631
_cell_length_b 18.890227
_cell_length_c 17.602392
_cell_angle_alpha 90.000000
_cell_angle_beta 109.287095
_cell_angle_gamma 90.000000
_cell_volume 2419.047710
_symmetry_space_group_name_H-M "C 2/M"
_symmetry_group_IT_number 12
_symmetry_cell_setting 'monoclinic'
loop_
_space_group_symop_operation_xyz
x,y,z
-x,y,-z
-x,-y,-z
x,-y,z
1/2+x,1/2+y,z
1/2-x,1/2+y,-z
1/2-x,1/2-y,-z
1/2+x,1/2-y,z
loop_
_atom_site_type_symbol
_atom_site_label
_atom_site_fract_x
_atom_site_fract_y
_atom_site_fract_z
Si Si1 0.963791 0.288001 0.644355
Si Si2 0.523126 0.340395 0.144804
Si Si3 0.948605 0.316224 0.169752
Si Si4 0.984693 0.922094 0.295665
Si Si5 0.899148 0.147067 0.412786
Si Si6 0.879601 0.422471 0.406383
Si Si7 0.156093 0.584075 0.085154
O O1 0.971942 0.293696 0.736264
O O2 0.004975 0.210657 0.619704
O O3 0.093498 0.351179 0.636226
O O4 0.774439 0.311731 0.579887
O O5 0.736411 0.343027 0.147951
O O6 0.459292 0.258954 0.127923
O O7 0.515603 0.368567 0.231261
O O8 0.356191 0.387679 0.086988
O O9 0.082353 0.372078 0.147627
O O10 0.831486 0.904604 0.336110
O O11 0.159336 0.924152 0.378350
O O12 0.964389 0.000000 0.259448
O O13 0.000000 0.116443 0.500000
O O14 0.929115 0.500000 0.378552
O O15 0.000000 0.417966 0.500000
O O16 0.162004 0.500000 0.099944
O O17 0.000000 0.597477 0.000000
#
# Coordination Sequence:
#
# PCOD9207071 Si02
#       7
#     8   8   8   8   8   8   8
#     4  12  22  39  61  87 128 164 225 284 335 409
#     4  12  23  46  74 106 144 187 239 302 349 425
#     4  12  24  44  77 106 143 189 241 291 358 422
#     4  11  23  40  62  91 129 175 229 288 352 414
#     4  12  24  37  60  89 126 178 229 288 356 411
#     4  10  21  37  56  83 123 166 214 277 337 395
#     4  11  28  51  75 112 153 184 227 290 359 436
#
# _framework density 23.149605999999999
#
# number of rings (size 3 to 8) (size 9 to 14) (size 15 to 20)
#    0.000    0.571    4.286    4.714    0.000    3.714 
#    0.000    1.429    0.000    0.000    0.000    0.000 
#    0.000    0.000    0.000    0.000    0.000    0.000 
#
# Total GULP energy -156173.360286 kJ/mol
# GULP energy per Si atom -5577.620010 kJ/mol
# Density = 2.309692 g / cm^3
# Si number density = 23.149606 Si / 1000 Ang^3
#
#
#
# Elastic Constant Matrix: (Units=GPa)
#
#
# Indices 1 2 3 4 5 6 
#
# 1 59.2444 -0.7356 -6.0859 0.0000 10.6431 0.0000
# 2 -0.7356 106.9143 -14.9153 0.0000 -14.7722 0.0000
# 3 -6.0859 -14.9153 70.8593 0.0000 22.3225 0.0000
# 4 0.0000 0.0000 0.0000 31.5001 0.0000 2.1209
# 5 10.6431 -14.7722 22.3225 0.0000 33.6990 0.0000
# 6 0.0000 0.0000 0.0000 2.1209 0.0000 22.7291
#
#
#
# Elastic Compliance Matrix: (Units=1/GPa)
#
#
# Indices 1 2 3 4 5 6 
#
# 1 0.018964 -0.000518 0.004395 0.000000 -0.009128 0.000000
# 2 -0.000518 0.010017 0.000795 0.000000 0.004028 0.000000
# 3 0.004395 0.000795 0.018936 0.000000 -0.013583 0.000000
# 4 0.000000 0.000000 0.000000 0.031947 0.000000 -0.002981
# 5 -0.009128 0.004028 -0.013583 0.000000 0.043321 0.000000
# 6 0.000000 0.000000 0.000000 -0.002981 0.000000 0.044275
#
#
# Mechanical properties :
#
#
# Convention : Reuss Voigt Hill
#
# Bulk Modulus (GPa) = 17.46305 21.50493 19.48399
# Shear Modulus (GPa) = 28.21646 34.83594 31.52620
#
# Velocity S-wave (km/s) = 3.49503 3.88341 3.69432
# Velocity P-wave (km/s) = 4.88333 5.42379 5.16064
#
# Compressibility (1/GPa) = 0.05726377
#
# Stress axis : x y z
#
# Youngs Moduli (GPa) = 52.73122 99.82846 52.80823
#
# Poissons Ratio (x) = 0.05166 -0.23211
# Poissons Ratio (y) = 0.02729 -0.04199
# Poissons Ratio (z) = -0.23177 -0.07939
#
# Static dielectric constant tensor:
#      x y z
#    x 2.006710 0.000000 0.008340 
#    y 0.000000 1.869880 0.000000 
#    z 0.008340 0.000000 1.885830 
# 
# From -- ./inp_files/300875.got.cif
#   From: 2010.05.17/outbox.cif.g08.bks.cpg/sg12_151_cif.got.tgz:300875.got - 2010.06.03 13:09:07.
