data_PCOD9207225
_publ_section_title
;
Structure prediction by ZEFSAII (Michael W. Deem and Ramdas Pophale) SiO2 
 PCOD9207225
Probable space group: C 2/M
;
_chemical_formula_sum "Si O2"
_cell_formula_units_Z 36
_cell_length_a 16.538485
_cell_length_b 7.632990
_cell_length_c 12.366372
_cell_angle_alpha 90.000000
_cell_angle_beta 72.292410
_cell_angle_gamma 90.000000
_cell_volume 1487.143800
_symmetry_space_group_name_H-M "C 2/M"
_symmetry_group_IT_number 12
_symmetry_cell_setting 'monoclinic'
loop_
_space_group_symop_operation_xyz
x,y,z
-x,y,-z
-x,-y,-z
x,-y,z
1/2+x,1/2+y,z
1/2-x,1/2+y,-z
1/2-x,1/2-y,-z
1/2+x,1/2-y,z
loop_
_atom_site_type_symbol
_atom_site_label
_atom_site_fract_x
_atom_site_fract_y
_atom_site_fract_z
Si Si1 0.153964 0.213769 0.575965
Si Si2 0.377812 0.698941 0.747373
Si Si3 0.500000 0.243212 0.500000
Si Si4 0.191640 0.798213 0.794378
Si Si5 0.583347 0.286464 0.031070
O O1 0.250000 0.250000 0.500000
O O2 0.085582 0.310905 0.529580
O O3 0.149603 0.273651 0.702533
O O4 0.139018 0.000000 0.572093
O O5 0.349047 0.500000 0.778056
O O6 0.450128 0.690584 0.627521
O O7 0.292661 0.792022 0.743068
O O8 0.409408 0.774538 0.848610
O O9 0.161053 0.728936 0.922572
O O10 0.164056 0.000000 0.805471
O O11 0.579963 0.500000 0.039657
O O12 0.500000 0.230591 0.000000
#
# Coordination Sequence:
#
# PCOD9207225 Si02
#       5
#     8   8   4   8   8
#     4  11  22  38  59  84 117 153 192 242 292 344
#     4  11  21  35  59  85 113 153 196 239 285 343
#     4  12  23  38  61  88 117 156 205 242 283 352
#     4  10  21  37  57  84 117 149 188 242 296 343
#     4   9  18  34  57  84 111 146 195 241 284 340
#
# _framework density 24.207478999999999
#
# number of rings (size 3 to 8) (size 9 to 14) (size 15 to 20)
#    0.000    1.556    2.222    4.000    0.000    3.556 
#    0.000    2.222    0.000    5.333    0.000    0.000 
#    0.000    0.000    0.000    0.000    0.000    0.000 
#
# Total GULP energy -100294.867325 kJ/mol
# GULP energy per Si atom -5571.937074 kJ/mol
# Density = 2.415238 g / cm^3
# Si number density = 24.207479 Si / 1000 Ang^3
#
#
#
# Elastic Constant Matrix: (Units=GPa)
#
#
# Indices 1 2 3 4 5 6 
#
# 1 160.4471 10.8030 68.2794 0.0000 22.4439 0.0000
# 2 10.8030 62.3982 16.4418 0.0000 6.3857 0.0000
# 3 68.2794 16.4418 195.6918 0.0000 24.7827 0.0000
# 4 0.0000 0.0000 0.0000 23.6996 0.0000 21.7447
# 5 22.4439 6.3857 24.7827 0.0000 59.5380 0.0000
# 6 0.0000 0.0000 0.0000 21.7447 0.0000 9.8286
#
#
#
# Elastic Compliance Matrix: (Units=1/GPa)
#
#
# Indices 1 2 3 4 5 6 
#
# 1 0.007520 -0.000497 -0.002354 0.000000 -0.001802 0.000000
# 2 -0.000497 0.016510 -0.001070 0.000000 -0.001138 0.000000
# 3 -0.002354 -0.001070 0.006222 0.000000 -0.001588 0.000000
# 4 0.000000 0.000000 0.000000 -0.040970 0.000000 0.090641
# 5 -0.001802 -0.001138 -0.001588 0.000000 0.018258 0.000000
# 6 0.000000 0.000000 0.000000 0.090641 0.000000 -0.098790
#
#
# Mechanical properties :
#
#
# Convention : Reuss Voigt Hill
#
# Bulk Modulus (GPa) = 44.62038 67.73175 56.17607
# Shear Modulus (GPa) = -65.84378 40.14744 -12.84817
#
# Velocity S-wave (km/s) = -5.22100 4.07685 -2.30631
# Velocity P-wave (km/s) = 4.22760 7.08529 4.02050
#
# Compressibility (1/GPa) = 0.02241128
#
# Stress axis : x y z
#
# Youngs Moduli (GPa) = 132.98299 60.56755 160.71182
#
# Poissons Ratio (x) = 0.03012 0.37828
# Poissons Ratio (y) = 0.06613 0.17189
# Poissons Ratio (z) = 0.31302 0.06478
#
# Static dielectric constant tensor:
#      x y z
#    x 1.879680 0.000000 0.007550 
#    y 0.000000 1.983960 0.000000 
#    z 0.007550 0.000000 1.944520 
# 
# From -- ./inp_files/140155.got.cif
#   From: 2010.05.17/outbox.cif.g08.bks.cpg/sg12_71_cif.got.tgz:140155.got - 2010.06.03 13:09:07.
