data_PCOD9207751
_publ_section_title
;
Structure prediction by ZEFSAII (Michael W. Deem and Ramdas Pophale) SiO2 
 PCOD9207751
Probable space group: C 2/M
;
_chemical_formula_sum "Si O2"
_cell_formula_units_Z 64
_cell_length_a 14.336309
_cell_length_b 17.404793
_cell_length_c 15.464244
_cell_angle_alpha 90.000000
_cell_angle_beta 130.694625
_cell_angle_gamma 90.000000
_cell_volume 2925.607870
_symmetry_space_group_name_H-M "C 2/M"
_symmetry_group_IT_number 12
_symmetry_cell_setting 'monoclinic'
loop_
_space_group_symop_operation_xyz
x,y,z
-x,y,-z
-x,-y,-z
x,-y,z
1/2+x,1/2+y,z
1/2-x,1/2+y,-z
1/2-x,1/2-y,-z
1/2+x,1/2-y,z
loop_
_atom_site_type_symbol
_atom_site_label
_atom_site_fract_x
_atom_site_fract_y
_atom_site_fract_z
Si Si1 0.222943 0.085528 0.495040
Si Si2 0.657639 0.588447 0.653647
Si Si3 0.818037 0.349993 0.053217
Si Si4 0.468214 0.853740 0.708155
Si Si5 0.863658 0.589276 0.907591
Si Si6 0.346795 0.699055 0.700182
Si Si7 0.593704 0.757766 0.635108
Si Si8 0.933198 0.192490 0.051253
O O1 0.160203 0.094562 0.551527
O O2 0.368790 0.092494 0.602528
O O3 0.185058 0.150274 0.404101
O O4 0.194027 0.000000 0.445230
O O5 0.617514 0.500000 0.651324
O O6 0.795708 0.596291 0.775818
O O7 0.594501 0.665447 0.651989
O O8 0.878072 0.266708 0.068692
O O9 0.934857 0.392063 0.167288
O O10 0.783044 0.377502 0.936274
O O11 0.694641 0.353668 0.035085
O O12 0.387629 0.784939 0.699847
O O13 0.551378 0.807553 0.690063
O O14 0.874087 0.500000 0.932164
O O15 0.000000 0.623256 0.000000
O O16 0.226850 0.712738 0.685889
O O17 0.459301 0.661932 0.821393
O O18 0.500000 0.770919 0.500000
O O19 0.000000 0.206834 0.000000
#
# Coordination Sequence:
#
# PCOD9207751 Si02
#       8
#     8   8   8   8   8   8   8   8
#     4  11  22  42  66  92 126 165 211 259 318 381
#     4  10  23  39  60  93 127 165 204 254 320 382
#     4  10  22  36  61  93 123 165 212 250 311 372
#     4  11  22  39  63  97 126 165 213 261 312 371
#     4  10  21  37  59  90 131 165 199 252 316 376
#     4  11  23  41  62  93 128 167 208 259 321 369
#     4  12  23  38  65  89 129 164 208 262 316 379
#     4  10  22  38  61  91 124 159 208 265 305 366
#
# _framework density 21.875796000000001
#
# number of rings (size 3 to 8) (size 9 to 14) (size 15 to 20)
#    0.000    1.375    2.500    3.000    8.750    1.750 
#    0.000    2.500    0.000    3.000    0.000    0.000 
#    0.000    0.000    0.000    0.000    0.000    0.000 
#
# Total GULP energy -178637.221643 kJ/mol
# GULP energy per Si atom -5582.413176 kJ/mol
# Density = 2.182601 g / cm^3
# Si number density = 21.875796 Si / 1000 Ang^3
#
#
#
# Elastic Constant Matrix: (Units=GPa)
#
#
# Indices 1 2 3 4 5 6 
#
# 1 95.5289 -4.3873 8.2912 0.0000 10.3549 0.0000
# 2 -4.3873 52.9522 9.9742 0.0000 -3.0200 0.0000
# 3 8.2912 9.9742 110.3424 0.0000 16.8777 0.0000
# 4 0.0000 0.0000 0.0000 16.1230 0.0000 2.4773
# 5 10.3549 -3.0200 16.8777 0.0000 34.5409 0.0000
# 6 0.0000 0.0000 0.0000 2.4773 0.0000 10.7600
#
#
#
# Elastic Compliance Matrix: (Units=1/GPa)
#
#
# Indices 1 2 3 4 5 6 
#
# 1 0.010865 0.000813 -0.000435 0.000000 -0.002974 0.000000
# 2 0.000813 0.019514 -0.002214 0.000000 0.002545 0.000000
# 3 -0.000435 -0.002214 0.010057 0.000000 -0.004977 0.000000
# 4 0.000000 0.000000 0.000000 0.064298 0.000000 -0.014804
# 5 -0.002974 0.002545 -0.004977 0.000000 0.032497 0.000000
# 6 0.000000 0.000000 0.000000 -0.014804 0.000000 0.096345
#
#
# Mechanical properties :
#
#
# Convention : Reuss Voigt Hill
#
# Bulk Modulus (GPa) = 27.20097 31.84220 29.52158
# Shear Modulus (GPa) = 20.03971 28.61447 24.32709
#
# Velocity S-wave (km/s) = 3.02994 3.62061 3.33837
# Velocity P-wave (km/s) = 4.97011 5.66268 5.32766
#
# Compressibility (1/GPa) = 0.03676340
#
# Stress axis : x y z
#
# Youngs Moduli (GPa) = 92.03481 51.24398 99.43473
#
# Poissons Ratio (x) = -0.04164 0.04326
# Poissons Ratio (y) = -0.07479 0.22017
# Poissons Ratio (z) = 0.04004 0.11347
#
# Static dielectric constant tensor:
#      x y z
#    x 1.859830 0.000000 0.037820 
#    y 0.000000 1.787500 0.000000 
#    z 0.037820 0.000000 1.843930 
# 
# From -- ./inp_files/216823.got.cif
#   From: 2010.05.17/outbox.cif.g08.bks.cpg/sg12_109_cif.got.tgz:216823.got - 2010.06.03 13:09:07.
