data_PCOD9207499
_publ_section_title
;
Structure prediction by ZEFSAII (Michael W. Deem and Ramdas Pophale) SiO2 
 PCOD9207499
Probable space group: C 2/M
;
_chemical_formula_sum "Si O2"
_cell_formula_units_Z 40
_cell_length_a 13.887968
_cell_length_b 19.152324
_cell_length_c 7.891421
_cell_angle_alpha 90.000000
_cell_angle_beta 56.345375
_cell_angle_gamma 90.000000
_cell_volume 1747.205382
_symmetry_space_group_name_H-M "C 2/M"
_symmetry_group_IT_number 12
_symmetry_cell_setting 'monoclinic'
loop_
_space_group_symop_operation_xyz
x,y,z
-x,y,-z
-x,-y,-z
x,-y,z
1/2+x,1/2+y,z
1/2-x,1/2+y,-z
1/2-x,1/2-y,-z
1/2+x,1/2-y,z
loop_
_atom_site_type_symbol
_atom_site_label
_atom_site_fract_x
_atom_site_fract_y
_atom_site_fract_z
Si Si1 0.837520 0.202564 0.696116
Si Si2 0.065962 0.917505 0.201118
Si Si3 0.915350 0.279759 0.964101
Si Si4 0.086040 0.334860 0.566070
Si Si5 0.180166 0.083040 0.728870
O O1 0.889123 0.127181 0.685080
O O2 0.872592 0.243243 0.834883
O O3 0.884136 0.252951 0.503470
O O4 0.699663 0.199407 0.825814
O O5 0.935342 0.902181 0.266918
O O6 0.072712 0.000000 0.228293
O O7 0.148463 0.902281 0.957040
O O8 0.004780 0.338192 0.809659
O O9 0.000000 0.234626 0.000000
O O10 0.207245 0.374749 0.439260
O O11 0.000000 0.359268 0.500000
O O12 0.201482 0.000000 0.695296
#
# Coordination Sequence:
#
# PCOD9207499 Si02
#       5
#     8   8   8   8   8
#     4  10  21  37  58  87 123 149 196 251 289 350
#     4   9  18  34  58  86 119 159 198 242 295 344
#     4  10  22  38  58  87 117 156 195 245 296 349
#     4  10  21  38  56  90 121 150 199 241 298 354
#     4   9  18  33  57  88 120 156 200 243 289 349
#
# _framework density 22.893702000000001
#
# number of rings (size 3 to 8) (size 9 to 14) (size 15 to 20)
#    0.000    2.400    0.000    4.800    5.600    1.200 
#   10.800    1.000    0.000    7.800    0.000    0.000 
#    0.000    0.000    0.000    0.000    0.000    0.000 
#
# Total GULP energy -111787.454705 kJ/mol
# GULP energy per Si atom -5589.372735 kJ/mol
# Density = 2.284160 g / cm^3
# Si number density = 22.893702 Si / 1000 Ang^3
#
#
#
# Elastic Constant Matrix: (Units=GPa)
#
#
# Indices 1 2 3 4 5 6 
#
# 1 111.9000 32.2534 55.1706 0.0000 -38.7140 0.0000
# 2 32.2534 93.7000 42.8735 0.0000 -19.1141 0.0000
# 3 55.1706 42.8735 153.0220 0.0000 -36.2629 0.0000
# 4 0.0000 0.0000 0.0000 27.5284 0.0000 -7.8732
# 5 -38.7140 -19.1141 -36.2629 0.0000 53.2397 0.0000
# 6 0.0000 0.0000 0.0000 -7.8732 0.0000 29.2100
#
#
#
# Elastic Compliance Matrix: (Units=1/GPa)
#
#
# Indices 1 2 3 4 5 6 
#
# 1 0.013230 -0.001930 -0.002521 0.000000 0.007211 0.000000
# 2 -0.001930 0.012798 -0.002544 0.000000 0.001459 0.000000
# 3 -0.002521 -0.002544 0.008951 0.000000 0.003350 0.000000
# 4 0.000000 0.000000 0.000000 0.039360 0.000000 0.010609
# 5 0.007211 0.001459 0.003350 0.000000 0.026832 0.000000
# 6 0.000000 0.000000 0.000000 0.010609 0.000000 0.037094
#
#
# Mechanical properties :
#
#
# Convention : Reuss Voigt Hill
#
# Bulk Modulus (GPa) = 47.64247 68.80187 58.22217
# Shear Modulus (GPa) = 31.39676 37.21725 34.30701
#
# Velocity S-wave (km/s) = 3.70728 4.03631 3.87529
# Velocity P-wave (km/s) = 6.25945 7.20003 6.74615
#
# Compressibility (1/GPa) = 0.02098967
#
# Stress axis : x y z
#
# Youngs Moduli (GPa) = 75.58430 78.13480 111.72499
#
# Poissons Ratio (x) = 0.15079 0.28160
# Poissons Ratio (y) = 0.14587 0.28427
# Poissons Ratio (z) = 0.19051 0.19881
#
# Static dielectric constant tensor:
#      x y z
#    x 1.908340 0.000000 0.059640 
#    y 0.000000 1.858870 0.000000 
#    z 0.059640 0.000000 1.923670 
# 
# From -- ./inp_files/63167.got.cif
#   From: 2010.05.17/outbox.cif.g08.bks.cpg/sg12_32_cif.got.tgz:63167.got - 2010.06.03 13:09:07.
