data_PCOD9207122
_publ_section_title
;
Structure prediction by ZEFSAII (Michael W. Deem and Ramdas Pophale) SiO2 
 PCOD9207122
Probable space group: C 2/M
;
_chemical_formula_sum "Si O2"
_cell_formula_units_Z 48
_cell_length_a 10.581486
_cell_length_b 8.485969
_cell_length_c 28.021923
_cell_angle_alpha 90.000000
_cell_angle_beta 79.064668
_cell_angle_gamma 90.000000
_cell_volume 2470.515641
_symmetry_space_group_name_H-M "C 2/M"
_symmetry_group_IT_number 12
_symmetry_cell_setting 'monoclinic'
loop_
_space_group_symop_operation_xyz
x,y,z
-x,y,-z
-x,-y,-z
x,-y,z
1/2+x,1/2+y,z
1/2-x,1/2+y,-z
1/2-x,1/2-y,-z
1/2+x,1/2-y,z
loop_
_atom_site_type_symbol
_atom_site_label
_atom_site_fract_x
_atom_site_fract_y
_atom_site_fract_z
Si Si1 0.387155 0.190536 0.472182
Si Si2 0.386976 0.310859 0.971836
Si Si3 0.541143 0.810917 0.137885
Si Si4 0.736549 0.190583 0.304942
Si Si5 0.233020 0.809516 0.806849
Si Si6 0.544823 0.190460 0.639775
O O1 0.500000 0.242187 0.500000
O O2 0.250000 0.250000 0.500000
O O3 0.417440 0.243702 0.416134
O O4 0.385551 0.000000 0.472375
O O5 0.384753 0.500000 0.971008
O O6 0.417560 0.248626 0.917002
O O7 0.500000 0.260419 0.000000
O O8 0.250000 0.250000 0.000000
O O9 0.646664 0.757922 0.169367
O O10 0.400570 0.749719 0.161906
O O11 0.539367 0.000000 0.137757
O O12 0.751953 0.242844 0.249022
O O13 0.598620 0.242419 0.335554
O O14 0.851612 0.251376 0.329485
O O15 0.738635 0.000000 0.305353
O O16 0.231611 0.000000 0.807305
O O17 0.545262 0.000000 0.639951
#
# Coordination Sequence:
#
# PCOD9207122 Si02
#       6
#     8   8   8   8   8   8
#     4  10  21  37  57  81 111 147 186 230 281 335
#     4  11  24  41  61  87 119 153 191 235 282 335
#     4  11  23  39  61  87 115 150 191 234 281 333
#     4  10  21  38  59  82 112 149 186 228 280 335
#     4  10  22  39  58  84 116 148 186 232 280 333
#     4  10  21  37  57  83 113 145 186 234 280 332
#
# _framework density 19.429141999999999
#
# number of rings (size 3 to 8) (size 9 to 14) (size 15 to 20)
#    0.000    1.667    0.000    4.000    0.000   11.667 
#    0.000    0.000    0.000    0.000    0.000    0.000 
#    0.000    0.000    0.000    0.000    0.000    0.000 
#
# Total GULP energy -134194.962744 kJ/mol
# GULP energy per Si atom -5591.456781 kJ/mol
# Density = 1.938492 g / cm^3
# Si number density = 19.429142 Si / 1000 Ang^3
#
#
#
# Elastic Constant Matrix: (Units=GPa)
#
#
# Indices 1 2 3 4 5 6 
#
# 1 70.3381 0.1754 -28.1336 0.0000 1.3121 0.0000
# 2 0.1754 6.4630 0.2434 0.0000 2.2463 0.0000
# 3 -28.1336 0.2434 61.1587 0.0000 1.0496 0.0000
# 4 0.0000 0.0000 0.0000 29.1054 0.0000 -0.4465
# 5 1.3121 2.2463 1.0496 0.0000 46.8084 0.0000
# 6 0.0000 0.0000 0.0000 -0.4465 0.0000 36.4820
#
#
#
# Elastic Compliance Matrix: (Units=1/GPa)
#
#
# Indices 1 2 3 4 5 6 
#
# 1 0.017446 -0.000553 0.008038 0.000000 -0.000643 0.000000
# 2 -0.000553 0.157384 -0.000752 0.000000 -0.007520 0.000000
# 3 0.008038 -0.000752 0.020063 0.000000 -0.000639 0.000000
# 4 0.000000 0.000000 0.000000 0.034364 0.000000 0.000421
# 5 -0.000643 -0.007520 -0.000639 0.000000 0.021757 0.000000
# 6 0.000000 0.000000 0.000000 0.000421 0.000000 0.027416
#
#
# Mechanical properties :
#
#
# Convention : Reuss Voigt Hill
#
# Bulk Modulus (GPa) = 4.79938 9.17003 6.98471
# Shear Modulus (GPa) = 14.95148 33.52411 24.23779
#
# Velocity S-wave (km/s) = 2.77707 4.15837 3.53582
# Velocity P-wave (km/s) = 3.57188 5.27124 4.50246
#
# Compressibility (1/GPa) = 0.20836014
#
# Stress axis : x y z
#
# Youngs Moduli (GPa) = 57.32114 6.35388 49.84406
#
# Poissons Ratio (x) = 0.00351 -0.40066
# Poissons Ratio (y) = 0.03168 0.03747
# Poissons Ratio (z) = -0.46077 0.00478
#
# Static dielectric constant tensor:
#      x y z
#    x 1.634840 0.000000 0.008990 
#    y 0.000000 1.652230 0.000000 
#    z 0.008990 0.000000 1.651420 
# 
# From -- ./inp_files/334659.got.cif
#   From: 2010.05.17/outbox.cif.g08.bks.cpg/sg12_168_cif.got.tgz:334659.got - 2010.06.03 13:09:07.
