data_PCOD9207988
_publ_section_title
;
Structure prediction by ZEFSAII (Michael W. Deem and Ramdas Pophale) SiO2 
 PCOD9207988
Probable space group: C 2/M
;
_chemical_formula_sum "Si O2"
_cell_formula_units_Z 50
_cell_length_a 18.449229
_cell_length_b 7.489390
_cell_length_c 17.267451
_cell_angle_alpha 90.000000
_cell_angle_beta 116.265203
_cell_angle_gamma 90.000000
_cell_volume 2139.571861
_symmetry_space_group_name_H-M "C 2/M"
_symmetry_group_IT_number 12
_symmetry_cell_setting 'monoclinic'
loop_
_space_group_symop_operation_xyz
x,y,z
-x,y,-z
-x,-y,-z
x,-y,z
1/2+x,1/2+y,z
1/2-x,1/2+y,-z
1/2-x,1/2-y,-z
1/2+x,1/2-y,z
loop_
_atom_site_type_symbol
_atom_site_label
_atom_site_fract_x
_atom_site_fract_y
_atom_site_fract_z
Si Si1 0.315246 0.287222 0.965277
Si Si2 0.776819 0.709322 0.226852
Si Si3 0.500000 0.000000 0.000000
Si Si4 0.750117 0.706802 0.610376
Si Si5 0.962793 0.215618 0.275895
Si Si6 0.887719 0.796250 0.563307
Si Si7 0.511114 0.715523 0.889336
O O1 0.325123 0.500000 0.961259
O O2 0.277954 0.215536 0.868237
O O3 0.250000 0.250000 0.000000
O O4 0.399196 0.223282 0.040623
O O5 0.759156 0.500000 0.224708
O O6 0.758100 0.785471 0.302054
O O7 0.871007 0.729057 0.248522
O O8 0.462121 0.841167 0.923526
O O9 0.756458 0.500000 0.589166
O O10 0.828816 0.796620 0.610578
O O11 0.668900 0.781651 0.530963
O O12 0.992441 0.260204 0.203085
O O13 0.027537 0.284128 0.369217
O O14 0.963234 0.000000 0.278926
O O15 0.905542 0.000000 0.547862
O O16 0.499126 0.500000 0.893639
#
# Coordination Sequence:
#
# PCOD9207988 Si02
#       7
#     8   8   2   8   8   8   8
#     4  10  21  37  61  86 117 160 203 251 303 365
#     4  11  23  37  60  90 124 156 205 254 302 364
#     4  12  26  40  64  90 128 166 210 264 304 382
#     4  10  21  39  61  89 118 156 202 250 302 373
#     4  10  21  39  63  89 119 161 200 253 311 368
#     4   9  20  40  64  85 119 159 198 248 314 367
#     4  10  23  43  63  90 127 168 209 254 318 371
#
# _framework density 23.369160000000001
#
# number of rings (size 3 to 8) (size 9 to 14) (size 15 to 20)
#    0.000    1.920    1.600    1.200    2.240    3.840 
#    2.880    8.000    0.000    0.000    0.000    0.000 
#    0.000    0.000    0.000    0.000    0.000    0.000 
#
# Total GULP energy -139389.429015 kJ/mol
# GULP energy per Si atom -5575.577161 kJ/mol
# Density = 2.331597 g / cm^3
# Si number density = 23.369160 Si / 1000 Ang^3
#
#
#
# Elastic Constant Matrix: (Units=GPa)
#
#
# Indices 1 2 3 4 5 6 
#
# 1 32.4382 -15.5004 24.8094 0.0000 9.9574 0.0000
# 2 -15.5004 76.8716 -3.6288 0.0000 -0.8403 0.0000
# 3 24.8094 -3.6288 136.9227 0.0000 7.0482 0.0000
# 4 0.0000 0.0000 0.0000 8.4246 0.0000 -12.1591
# 5 9.9574 -0.8403 7.0482 0.0000 49.8068 0.0000
# 6 0.0000 0.0000 0.0000 -12.1591 0.0000 14.7143
#
#
#
# Elastic Compliance Matrix: (Units=1/GPa)
#
#
# Indices 1 2 3 4 5 6 
#
# 1 0.042385 0.008132 -0.007087 0.000000 -0.007333 0.000000
# 2 0.008132 0.014587 -0.001023 0.000000 -0.001235 0.000000
# 3 -0.007087 -0.001023 0.008551 0.000000 0.000190 0.000000
# 4 0.000000 0.000000 0.000000 -0.616170 0.000000 -0.509167
# 5 -0.007333 -0.001235 0.000190 0.000000 0.021496 0.000000
# 6 0.000000 0.000000 0.000000 -0.509167 0.000000 -0.352784
#
#
# Mechanical properties :
#
#
# Convention : Reuss Voigt Hill
#
# Bulk Modulus (GPa) = 15.25197 28.62143 21.93670
# Shear Modulus (GPa) = -5.81311 30.62598 12.40643
#
# Velocity S-wave (km/s) = -1.57890 3.62405 2.30660
# Velocity P-wave (km/s) = 1.79355 5.45763 4.06218
#
# Compressibility (1/GPa) = 0.06556530
#
# Stress axis : x y z
#
# Youngs Moduli (GPa) = 23.59340 68.55612 116.95101
#
# Poissons Ratio (x) = -0.55748 0.82881
# Poissons Ratio (y) = -0.19186 0.11967
# Poissons Ratio (z) = 0.16720 0.07015
#
# Static dielectric constant tensor:
#      x y z
#    x 1.958650 0.000000 0.018450 
#    y 0.000000 1.949530 0.000000 
#    z 0.018450 0.000000 1.880770 
# 
# From -- ./inp_files/275788.got.cif
#   From: 2010.05.17/outbox.cif.g08.bks.cpg/sg12_138_cif.got.tgz:275788.got - 2010.06.03 13:09:07.
