data_PCOD9207299
_publ_section_title
;
Structure prediction by ZEFSAII (Michael W. Deem and Ramdas Pophale) SiO2 
 PCOD9207299
Probable space group: C 2/M
;
_chemical_formula_sum "Si O2"
_cell_formula_units_Z 64
_cell_length_a 14.262924
_cell_length_b 21.314255
_cell_length_c 18.481965
_cell_angle_alpha 90.000000
_cell_angle_beta 145.463788
_cell_angle_gamma 90.000000
_cell_volume 3185.326830
_symmetry_space_group_name_H-M "C 2/M"
_symmetry_group_IT_number 12
_symmetry_cell_setting 'monoclinic'
loop_
_space_group_symop_operation_xyz
x,y,z
-x,y,-z
-x,-y,-z
x,-y,z
1/2+x,1/2+y,z
1/2-x,1/2+y,-z
1/2-x,1/2-y,-z
1/2+x,1/2-y,z
loop_
_atom_site_type_symbol
_atom_site_label
_atom_site_fract_x
_atom_site_fract_y
_atom_site_fract_z
Si Si1 0.601808 0.716572 0.366340
Si Si2 0.355009 0.431630 0.123206
Si Si3 0.335302 0.739683 0.294219
Si Si4 0.152110 0.681925 0.054228
Si Si5 0.883425 0.427095 0.159396
Si Si6 0.550836 0.807482 0.211608
Si Si7 0.920409 0.614437 0.345022
Si Si8 0.231332 0.902557 0.368668
O O1 0.750000 0.750000 0.500000
O O2 0.483496 0.696783 0.357311
O O3 0.514760 0.767685 0.259976
O O4 0.674507 0.666341 0.357784
O O5 0.288618 0.500000 0.105140
O O6 0.285802 0.371440 0.121850
O O7 0.552442 0.434589 0.256508
O O8 0.281872 0.422250 0.995379
O O9 0.210383 0.735156 0.146677
O O10 0.230990 0.711770 0.294626
O O11 0.406900 0.809736 0.348648
O O12 0.000000 0.649597 0.000000
O O13 0.080922 0.708388 0.934520
O O14 0.933359 0.500000 0.190653
O O15 0.862999 0.404479 0.228846
O O16 0.018456 0.380251 0.209498
O O17 0.803234 0.589556 0.334202
O O18 0.106335 0.587895 0.477437
#
# Coordination Sequence:
#
# PCOD9207299 Si02
#       8
#     8   8   8   8   8   8   8   8
#     4  12  21  34  58  87 120 161 196 250 307 374
#     4  10  22  40  62  85 118 161 208 259 304 356
#     4  11  20  35  59  90 122 157 198 243 312 373
#     4   9  20  36  57  89 124 153 201 247 313 367
#     4  10  22  43  65  88 120 167 213 254 304 363
#     4  10  21  37  57  90 122 155 198 257 301 368
#     4  11  23  39  61  90 125 163 205 248 312 374
#     4  11  23  39  58  91 125 159 203 255 311 367
#
# _framework density 20.092129
#
# number of rings (size 3 to 8) (size 9 to 14) (size 15 to 20)
#    0.000    1.500    5.000    0.000    0.000    3.750 
#    2.250    4.375    0.000    0.000    0.000    1.750 
#    0.000    0.000    0.000    0.000    0.000    0.000 
#
# Total GULP energy -178182.310847 kJ/mol
# GULP energy per Si atom -5568.197214 kJ/mol
# Density = 2.004640 g / cm^3
# Si number density = 20.092129 Si / 1000 Ang^3
#
#
#
# Elastic Constant Matrix: (Units=GPa)
#
#
# Indices 1 2 3 4 5 6 
#
# 1 89.9797 21.2246 32.1435 -0.0005 12.1854 -0.0004
# 2 21.2246 64.5742 25.7317 0.0010 -3.5492 0.0006
# 3 32.1435 25.7317 66.6624 0.0005 3.8657 0.0007
# 4 -0.0005 0.0010 0.0005 18.4407 0.0001 1.1356
# 5 12.1854 -3.5492 3.8657 0.0001 35.7904 0.0003
# 6 -0.0004 0.0006 0.0007 1.1356 0.0003 -11.5149
#
#
#
# Elastic Compliance Matrix: (Units=1/GPa)
#
#
# Indices 1 2 3 4 5 6 
#
# 1 0.014383 -0.002742 -0.005612 0.000001 -0.004563 -0.000001
# 2 -0.002742 0.019066 -0.006240 -0.000001 0.003498 0.000001
# 3 -0.005612 -0.006240 0.020167 0.000000 -0.000886 0.000001
# 4 0.000001 -0.000001 0.000000 0.053901 -0.000001 0.005315
# 5 -0.004563 0.003498 -0.000886 -0.000001 0.029937 0.000001
# 6 -0.000001 0.000001 0.000001 0.005315 0.000001 -0.086320
#
#
# Mechanical properties :
#
#
# Convention : Reuss Voigt Hill
#
# Bulk Modulus (GPa) = 40.93742 42.15731 41.54737
# Shear Modulus (GPa) = 56.51906 18.01767 37.26836
#
# Velocity S-wave (km/s) = 5.30952 2.99783 4.31150
# Velocity P-wave (km/s) = 7.61624 5.74545 6.74601
#
# Compressibility (1/GPa) = 0.02442753
#
# Stress axis : x y z
#
# Youngs Moduli (GPa) = 69.52563 52.44877 49.58517
#
# Poissons Ratio (x) = 0.14381 0.27829
# Poissons Ratio (y) = 0.19063 0.30943
# Poissons Ratio (z) = 0.39020 0.32730
#
# Static dielectric constant tensor:
#      x y z
#    x 1.724690 0.000000 0.034780 
#    y 0.000000 1.725410 0.000000 
#    z 0.034780 0.000000 1.759380 
# 
# From -- ./inp_files/272891.got.cif
#   From: 2010.05.17/outbox.cif.g08.bks.cpg/sg12_137_cif.got.tgz:272891.got - 2010.06.03 13:09:07.
