data_PCOD9207490
_publ_section_title
;
Structure prediction by ZEFSAII (Michael W. Deem and Ramdas Pophale) SiO2 
 PCOD9207490
Probable space group: C 2/M
;
_chemical_formula_sum "Si O2"
_cell_formula_units_Z 64
_cell_length_a 15.004550
_cell_length_b 8.230041
_cell_length_c 30.038723
_cell_angle_alpha 90.000000
_cell_angle_beta 120.098614
_cell_angle_gamma 90.000000
_cell_volume 3209.258166
_symmetry_space_group_name_H-M "C 2/M"
_symmetry_group_IT_number 12
_symmetry_cell_setting 'monoclinic'
loop_
_space_group_symop_operation_xyz
x,y,z
-x,y,-z
-x,-y,-z
x,-y,z
1/2+x,1/2+y,z
1/2-x,1/2+y,-z
1/2-x,1/2-y,-z
1/2+x,1/2-y,z
loop_
_atom_site_type_symbol
_atom_site_label
_atom_site_fract_x
_atom_site_fract_y
_atom_site_fract_z
Si Si1 0.397510 0.194290 0.498940
Si Si2 0.903789 0.307474 0.112140
Si Si3 0.306296 0.809884 0.249361
Si Si4 0.580058 0.302656 0.223029
Si Si5 0.242130 0.309110 0.139052
Si Si6 0.971702 0.809310 0.689382
Si Si7 0.177623 0.691861 0.423813
Si Si8 0.015414 0.301579 0.054222
O O1 0.500000 0.258620 0.500000
O O2 0.290468 0.230150 0.446898
O O3 0.375939 0.255505 0.543935
O O4 0.410173 0.000000 0.505338
O O5 0.883246 0.500000 0.106831
O O6 0.810439 0.217124 0.112510
O O7 0.004386 0.273966 0.167709
O O8 0.929994 0.252175 0.068718
O O9 0.198150 0.755955 0.243470
O O10 0.292479 0.782696 0.193068
O O11 0.408387 0.719960 0.290831
O O12 0.319702 0.000000 0.262090
O O13 0.571565 0.500000 0.217135
O O14 0.547344 0.254475 0.264542
O O15 0.240292 0.500000 0.150016
O O16 0.126705 0.251306 0.100654
O O17 0.897054 0.723265 0.636028
O O18 0.948683 0.000000 0.681905
O O19 0.193935 0.500000 0.433409
O O20 0.015859 0.500000 0.053662
O O21 0.000000 0.245042 0.000000
#
# Coordination Sequence:
#
# PCOD9207490 Si02
#       8
#     8   8   8   8   8   8   8   8
#     4   9  19  38  63  86 114 156 199 237 289 348
#     4  11  21  35  59  85 110 146 190 234 280 339
#     4  11  22  37  58  84 112 147 191 239 285 340
#     4  10  22  38  57  81 113 150 189 234 287 344
#     4  11  21  36  58  83 112 148 186 230 287 345
#     4  11  23  39  58  83 119 159 192 233 289 349
#     4  10  21  37  58  87 120 152 192 246 289 334
#     4   9  20  38  58  82 114 150 188 234 289 346
#
# _framework density 19.942304
#
# number of rings (size 3 to 8) (size 9 to 14) (size 15 to 20)
#    0.000    1.750    2.500    1.875    0.000    3.250 
#    0.000    5.000    0.000    5.250    0.000    0.000 
#    0.000    0.000    0.000    0.000    0.000    0.000 
#
# Total GULP energy -178745.588884 kJ/mol
# GULP energy per Si atom -5585.799653 kJ/mol
# Density = 1.989691 g / cm^3
# Si number density = 19.942304 Si / 1000 Ang^3
#
#
#
# Elastic Constant Matrix: (Units=GPa)
#
#
# Indices 1 2 3 4 5 6 
#
# 1 84.4712 4.3652 -18.3529 0.0000 -1.1331 0.0000
# 2 4.3652 7.9765 -3.4992 0.0000 -4.4464 0.0000
# 3 -18.3529 -3.4992 30.6772 0.0000 -2.3800 0.0000
# 4 0.0000 0.0000 0.0000 15.3056 0.0000 -1.0296
# 5 -1.1331 -4.4464 -2.3800 0.0000 16.5014 0.0000
# 6 0.0000 0.0000 0.0000 -1.0296 0.0000 21.9372
#
#
#
# Elastic Compliance Matrix: (Units=1/GPa)
#
#
# Indices 1 2 3 4 5 6 
#
# 1 0.013753 -0.003392 0.007932 0.000000 0.001174 0.000000
# 2 -0.003392 0.161785 0.020012 0.000000 0.046247 0.000000
# 3 0.007932 0.020012 0.040540 0.000000 0.011784 0.000000
# 4 0.000000 0.000000 0.000000 0.065543 0.000000 0.003076
# 5 0.001174 0.046247 0.011784 0.000000 0.074843 0.000000
# 6 0.000000 0.000000 0.000000 0.003076 0.000000 0.045729
#
#
# Mechanical properties :
#
#
# Convention : Reuss Voigt Hill
#
# Bulk Modulus (GPa) = 3.77100 9.79458 6.78279
# Shear Modulus (GPa) = 11.32551 20.12294 15.72423
#
# Velocity S-wave (km/s) = 2.38568 3.18001 2.81105
# Velocity P-wave (km/s) = 3.07956 4.29016 3.73424
#
# Compressibility (1/GPa) = 0.26518138
#
# Stress axis : x y z
#
# Youngs Moduli (GPa) = 72.71277 6.18106 24.66718
#
# Poissons Ratio (x) = 0.02097 -0.19566
# Poissons Ratio (y) = 0.24665 -0.49365
# Poissons Ratio (z) = -0.57675 -0.12370
#
# Static dielectric constant tensor:
#      x y z
#    x 1.714450 0.000000 -0.019640 
#    y 0.000000 1.696160 0.000000 
#    z -0.019640 0.000000 1.672130 
# 
# From -- ./inp_files/375087.got.cif
#   From: 2010.05.17/outbox.cif.g08.bks.cpg/sg12_188_cif.got.tgz:375087.got - 2010.06.03 13:09:07.
