data_PCOD9207216
_publ_section_title
;
Structure prediction by ZEFSAII (Michael W. Deem and Ramdas Pophale) SiO2 
 PCOD9207216
Probable space group: C 2/M
;
_chemical_formula_sum "Si O2"
_cell_formula_units_Z 64
_cell_length_a 25.549369
_cell_length_b 13.158478
_cell_length_c 11.820864
_cell_angle_alpha 90.000000
_cell_angle_beta 142.570213
_cell_angle_gamma 90.000000
_cell_volume 2415.392546
_symmetry_space_group_name_H-M "C 2/M"
_symmetry_group_IT_number 12
_symmetry_cell_setting 'monoclinic'
loop_
_space_group_symop_operation_xyz
x,y,z
-x,y,-z
-x,-y,-z
x,-y,z
1/2+x,1/2+y,z
1/2-x,1/2+y,-z
1/2-x,1/2-y,-z
1/2+x,1/2-y,z
loop_
_atom_site_type_symbol
_atom_site_label
_atom_site_fract_x
_atom_site_fract_y
_atom_site_fract_z
Si Si1 0.874023 0.878684 0.604220
Si Si2 0.122856 0.668983 0.081723
Si Si3 0.670097 0.114789 0.644519
Si Si4 0.066467 0.112480 0.955573
Si Si5 0.033043 0.386178 0.716284
Si Si6 0.207868 0.380431 0.449963
Si Si7 0.420339 0.337259 0.279709
Si Si8 0.291944 0.675798 0.237857
O O1 0.796143 0.837565 0.546717
O O2 0.863335 0.837387 0.459280
O O3 0.967741 0.860801 0.815741
O O4 0.866724 0.000000 0.580422
O O5 0.134917 0.632996 0.229430
O O6 0.205419 0.635141 0.146979
O O7 0.122055 0.791206 0.084888
O O8 0.044149 0.629160 0.871080
O O9 0.567435 0.116650 0.487824
O O10 0.683922 0.143540 0.536575
O O11 0.716549 0.203068 0.793179
O O12 0.701358 0.000000 0.718010
O O13 0.069553 0.111920 0.824421
O O14 0.089348 0.000000 0.038702
O O15 0.065382 0.500000 0.741756
O O16 0.077055 0.285326 0.740589
O O17 0.224638 0.500000 0.484521
O O18 0.500000 0.359501 0.500000
O O19 0.334037 0.367735 0.198083
#
# Coordination Sequence:
#
# PCOD9207216 Si02
#       8
#     8   8   8   8   8   8   8   8
#     4   9  18  34  57  80 106 141 186 234 273 318
#     4  10  22  37  56  81 117 150 181 229 279 338
#     4  10  21  37  59  85 112 145 189 235 277 330
#     4  10  21  37  57  85 117 149 187 229 275 332
#     4  10  21  37  57  84 116 148 183 229 282 337
#     4   9  19  37  61  86 109 142 188 235 282 328
#     4  11  20  36  59  85 112 144 190 233 278 330
#     4  11  21  37  57  84 113 145 189 233 280 325
#
# _framework density 26.496728999999998
#
# number of rings (size 3 to 8) (size 9 to 14) (size 15 to 20)
#    0.000    2.000    2.500    1.125    0.000    7.000 
#    0.000    4.375    0.000    0.750    0.000   10.500 
#    0.000    0.000    0.000    0.000    0.000    0.000 
#
# Total GULP energy -179286.728078 kJ/mol
# GULP energy per Si atom -5602.710252 kJ/mol
# Density = 2.643642 g / cm^3
# Si number density = 26.496729 Si / 1000 Ang^3
#
#
#
# Elastic Constant Matrix: (Units=GPa)
#
#
# Indices 1 2 3 4 5 6 
#
# 1 94.9854 21.9678 -0.5732 0.0000 -7.6503 0.0000
# 2 21.9678 88.6924 -2.7726 0.0000 9.0595 0.0000
# 3 -0.5732 -2.7726 71.9966 0.0000 -15.9402 0.0000
# 4 0.0000 0.0000 0.0000 24.5305 0.0000 -1.2481
# 5 -7.6503 9.0595 -15.9402 0.0000 30.1814 0.0000
# 6 0.0000 0.0000 0.0000 -1.2481 0.0000 16.7386
#
#
#
# Elastic Compliance Matrix: (Units=1/GPa)
#
#
# Indices 1 2 3 4 5 6 
#
# 1 0.011658 -0.003313 0.000951 0.000000 0.004452 0.000000
# 2 -0.003313 0.012581 -0.000639 0.000000 -0.004953 0.000000
# 3 0.000951 -0.000639 0.015818 0.000000 0.008787 0.000000
# 4 0.000000 0.000000 0.000000 0.040921 0.000000 0.003051
# 5 0.004452 -0.004953 0.008787 0.000000 0.040389 0.000000
# 6 0.000000 0.000000 0.000000 0.003051 0.000000 0.059970
#
#
# Mechanical properties :
#
#
# Convention : Reuss Voigt Hill
#
# Bulk Modulus (GPa) = 29.36243 32.54648 30.95446
# Shear Modulus (GPa) = 25.16477 30.09358 27.62918
#
# Velocity S-wave (km/s) = 3.08511 3.37374 3.23265
# Velocity P-wave (km/s) = 4.87813 5.24271 5.06370
#
# Compressibility (1/GPa) = 0.03405712
#
# Stress axis : x y z
#
# Youngs Moduli (GPa) = 85.77549 79.48229 63.21923
#
# Poissons Ratio (x) = 0.26329 -0.06011
# Poissons Ratio (y) = 0.28414 0.04037
# Poissons Ratio (z) = -0.08156 0.05076
#
# Static dielectric constant tensor:
#      x y z
#    x 2.074610 0.000000 0.047870 
#    y 0.000000 2.071100 0.000000 
#    z 0.047870 0.000000 2.077750 
# 
# From -- ./inp_files/183845.got.cif
#   From: 2010.05.17/outbox.cif.g08.bks.cpg/sg12_92_cif.got.tgz:183845.got - 2010.06.03 13:09:07.
