data_PCOD9207649
_publ_section_title
;
Structure prediction by ZEFSAII (Michael W. Deem and Ramdas Pophale) SiO2 
 PCOD9207649
Probable space group: C 2/M
;
_chemical_formula_sum "Si O2"
_cell_formula_units_Z 56
_cell_length_a 8.783921
_cell_length_b 18.422586
_cell_length_c 18.876143
_cell_angle_alpha 90.000000
_cell_angle_beta 103.454473
_cell_angle_gamma 90.000000
_cell_volume 2970.752640
_symmetry_space_group_name_H-M "C 2/M"
_symmetry_group_IT_number 12
_symmetry_cell_setting 'monoclinic'
loop_
_space_group_symop_operation_xyz
x,y,z
-x,y,-z
-x,-y,-z
x,-y,z
1/2+x,1/2+y,z
1/2-x,1/2+y,-z
1/2-x,1/2-y,-z
1/2+x,1/2-y,z
loop_
_atom_site_type_symbol
_atom_site_label
_atom_site_fract_x
_atom_site_fract_y
_atom_site_fract_z
Si Si1 0.028979 0.914059 0.420988
Si Si2 0.607991 0.914059 0.579012
Si Si3 0.889874 0.914787 0.146952
Si Si4 0.757078 0.414787 0.146953
Si Si5 0.816489 0.169489 1.000000
Si Si6 0.823640 0.830350 0.284066
Si Si7 0.460426 0.169650 0.284066
O O1 0.210575 0.902823 0.421150
O O2 0.000000 0.895928 0.500000
O O3 0.921273 0.867716 0.357544
O O4 0.994019 0.000000 0.408065
O O5 0.500000 0.895929 0.500000
O O6 0.563729 0.867715 0.642456
O O7 0.585955 0.000000 0.591936
O O8 0.807777 0.874001 0.072667
O O9 0.846056 0.877629 0.215774
O O10 0.077469 0.908381 0.154938
O O11 0.851359 0.000000 0.142716
O O12 0.791357 0.500000 0.142716
O O13 0.869718 0.377629 0.215774
O O14 0.764890 0.374001 0.072667
O O15 0.750000 0.250000 0.000000
O O16 0.000000 0.173799 0.000000
O O17 0.642562 0.826776 0.285123
O O18 0.888763 0.750000 0.277526
#
# Coordination Sequence:
#
# PCOD9207649 Si02
#       7
#     8   8   8   8   8   8   8
#     4  10  21  39  63  90 120 154 193 238 289 346
#     4  10  21  39  63  90 120 154 193 238 289 346
#     4  10  21  39  62  87 117 154 196 241 291 348
#     4  10  21  39  62  87 117 154 196 241 291 348
#     4  10  21  37  59  87 119 156 195 238 290 346
#     4  12  25  40  59  85 118 155 197 243 293 348
#     4  12  25  40  59  85 118 155 197 243 293 348
#
# _framework density 18.850439999999999
#
# number of rings (size 3 to 8) (size 9 to 14) (size 15 to 20)
#    0.000    1.429    0.000    5.571    0.000   11.429 
#    0.000    2.857    0.000    2.571    0.000    0.000 
#    0.000    0.000    0.000    0.000    0.000    0.000 
#
# Total GULP energy -156622.400451 kJ/mol
# GULP energy per Si atom -5593.657159 kJ/mol
# Density = 1.880754 g / cm^3
# Si number density = 18.850440 Si / 1000 Ang^3
#
#
#
# Elastic Constant Matrix: (Units=GPa)
#
#
# Indices 1 2 3 4 5 6 
#
# 1 86.8707 85.9976 80.0320 0.0000 -2.5564 0.0000
# 2 85.9976 173.7885 126.7114 0.0000 -1.8921 0.0000
# 3 80.0320 126.7114 185.1496 0.0000 -2.0112 0.0000
# 4 0.0000 0.0000 0.0000 106.4138 0.0000 -3.3819
# 5 -2.5564 -1.8921 -2.0112 0.0000 30.9009 0.0000
# 6 0.0000 0.0000 0.0000 -3.3819 0.0000 33.6165
#
#
#
# Elastic Compliance Matrix: (Units=1/GPa)
#
#
# Indices 1 2 3 4 5 6 
#
# 1 0.024387 -0.008739 -0.004548 0.000000 0.001186 0.000000
# 2 -0.008739 0.014618 -0.006229 0.000000 -0.000233 0.000000
# 3 -0.004548 -0.006229 0.011630 0.000000 -0.000001 0.000000
# 4 0.000000 0.000000 0.000000 0.009427 0.000000 0.000948
# 5 0.001186 -0.000233 -0.000001 0.000000 0.032445 0.000000
# 6 0.000000 0.000000 0.000000 0.000948 0.000000 0.029843
#
#
# Mechanical properties :
#
#
# Convention : Reuss Voigt Hill
#
# Bulk Modulus (GPa) = 86.18455 114.58787 100.38621
# Shear Modulus (GPa) = 30.25727 44.39077 37.32402
#
# Velocity S-wave (km/s) = 4.01074 4.85799 4.45456
# Velocity P-wave (km/s) = 8.20168 9.61179 8.93460
#
# Compressibility (1/GPa) = 0.01160301
#
# Stress axis : x y z
#
# Youngs Moduli (GPa) = 41.00491 68.41091 85.98575
#
# Poissons Ratio (x) = 0.59784 0.39106
# Poissons Ratio (y) = 0.35834 0.53560
# Poissons Ratio (z) = 0.18649 0.42613
#
# Static dielectric constant tensor:
#      x y z
#    x 1.631830 0.000000 0.000630 
#    y 0.000000 1.622020 0.000000 
#    z 0.000630 0.000000 1.618180 
# 
# From -- ./inp_files/257131.got.cif
#   From: 2010.05.17/outbox.cif.g08.bks.cpg/sg12_129_cif.got.tgz:257131.got - 2010.06.03 13:09:07.
