data_PCOD9207426
_publ_section_title
;
Structure prediction by ZEFSAII (Michael W. Deem and Ramdas Pophale) SiO2 
 PCOD9207426
Probable space group: C 2/M
;
_chemical_formula_sum "Si O2"
_cell_formula_units_Z 40
_cell_length_a 10.545986
_cell_length_b 8.745573
_cell_length_c 24.188013
_cell_angle_alpha 90.000000
_cell_angle_beta 70.936233
_cell_angle_gamma 90.000000
_cell_volume 2108.526134
_symmetry_space_group_name_H-M "C 2/M"
_symmetry_group_IT_number 12
_symmetry_cell_setting 'monoclinic'
loop_
_space_group_symop_operation_xyz
x,y,z
-x,y,-z
-x,-y,-z
x,-y,z
1/2+x,1/2+y,z
1/2-x,1/2+y,-z
1/2-x,1/2-y,-z
1/2+x,1/2-y,z
loop_
_atom_site_type_symbol
_atom_site_label
_atom_site_fract_x
_atom_site_fract_y
_atom_site_fract_z
Si Si1 0.550562 0.184503 0.432014
Si Si2 0.157299 0.683334 0.634827
Si Si3 0.153102 0.684484 0.967127
Si Si4 0.235482 0.684681 0.831539
Si Si5 0.456435 0.316621 0.235102
O O1 0.500000 0.230832 0.500000
O O2 0.694043 0.255686 0.397873
O O3 0.441655 0.227932 0.401207
O O4 0.563148 0.000000 0.429664
O O5 0.160119 0.500000 0.637783
O O6 0.100695 0.749662 0.699924
O O7 0.158181 0.500000 0.968867
O O8 0.199393 0.731080 0.899206
O O9 0.250000 0.750000 0.000000
O O10 0.000000 0.732529 0.000000
O O11 0.225544 0.500000 0.829587
O O12 0.388221 0.728212 0.795477
O O13 0.132960 0.756436 0.802700
O O14 0.449694 0.500000 0.237821
#
# Coordination Sequence:
#
# PCOD9207426 Si02
#       5
#     8   8   8   8   8
#     4  10  22  40  61  87 118 151 190 234 280 335
#     4  11  23  38  59  86 115 150 190 233 284 338
#     4  10  21  37  58  85 116 150 189 234 284 339
#     4  10  22  39  58  84 116 149 190 237 284 338
#     4  11  23  38  58  83 112 149 191 235 284 338
#
# _framework density 18.970597000000001
#
# number of rings (size 3 to 8) (size 9 to 14) (size 15 to 20)
#    0.000    1.600    0.000    4.200    0.000    8.000 
#    0.000    0.000    0.000    0.000    0.000    0.000 
#    0.000    0.000    0.000    0.000    0.000    0.000 
#
# Total GULP energy -111845.679079 kJ/mol
# GULP energy per Si atom -5592.283954 kJ/mol
# Density = 1.892742 g / cm^3
# Si number density = 18.970597 Si / 1000 Ang^3
#
#
#
# Elastic Constant Matrix: (Units=GPa)
#
#
# Indices 1 2 3 4 5 6 
#
# 1 -593.8902 -248.2843 -708.0431 0.0000 -4.6426 0.0000
# 2 -248.2843 -90.7227 -262.9043 0.0000 -1.3488 0.0000
# 3 -708.0431 -262.9043 -642.0069 0.0000 -5.0402 0.0000
# 4 0.0000 0.0000 0.0000 13.4264 0.0000 15.4927
# 5 -4.6426 -1.3488 -5.0402 0.0000 45.1079 0.0000
# 6 0.0000 0.0000 0.0000 15.4927 0.0000 17.8767
#
#
#
# Elastic Compliance Matrix: (Units=1/GPa)
#
#
# Indices 1 2 3 4 5 6 
#
# 1 0.011836 -0.029123 -0.001129 0.000000 0.000221 0.000000
# 2 -0.029123 0.130737 -0.021407 0.000000 -0.001480 0.000000
# 3 -0.001129 -0.021407 0.008453 0.000000 0.000188 0.000000
# 4 0.000000 0.000000 0.000000********** 0.000000**********
# 5 0.000221 -0.001480 0.000188 0.000000 0.022169 0.000000
# 6 0.000000 0.000000 0.000000********** 0.000000**********
#
#
# Mechanical properties :
#
#
# Convention : Reuss Voigt Hill
#
# Bulk Modulus (GPa) = 20.96140 -418.34258 -198.69059
# Shear Modulus (GPa) = -0.00061 8.12299 4.06119
#
# Velocity S-wave (km/s) = -0.01790 2.07152 1.46473
# Velocity P-wave (km/s) = 3.32761 14.67238 10.10460
#
# Compressibility (1/GPa) = 0.04770674
#
# Stress axis : x y z
#
# Youngs Moduli (GPa) = 84.48838 7.64897 118.30455
#
# Poissons Ratio (x) = 0.22276 0.13360
# Poissons Ratio (y) = 2.46052 2.53259
# Poissons Ratio (z) = 0.09541 0.16374
#
# Static dielectric constant tensor:
#      x y z
#    x 1.614510 0.000000 -0.005800 
#    y 0.000000 1.640870 0.000000 
#    z -0.005800 0.000000 1.628110 
# 
# From -- ./inp_files/261024.got.cif
#   From: 2010.05.17/outbox.cif.g08.bks.cpg/sg12_131_cif.got.tgz:261024.got - 2010.06.03 13:09:07.
