data_PCOD9207651
_publ_section_title
;
Structure prediction by ZEFSAII (Michael W. Deem and Ramdas Pophale) SiO2 
 PCOD9207651
Probable space group: C 2/M
;
_chemical_formula_sum "Si O2"
_cell_formula_units_Z 48
_cell_length_a 15.310709
_cell_length_b 8.788912
_cell_length_c 19.184200
_cell_angle_alpha 90.000000
_cell_angle_beta 89.976967
_cell_angle_gamma 90.000000
_cell_volume 2581.511575
_symmetry_space_group_name_H-M "C 2/M"
_symmetry_group_IT_number 12
_symmetry_cell_setting 'monoclinic'
loop_
_space_group_symop_operation_xyz
x,y,z
-x,y,-z
-x,-y,-z
x,-y,z
1/2+x,1/2+y,z
1/2-x,1/2+y,-z
1/2-x,1/2-y,-z
1/2+x,1/2-y,z
loop_
_atom_site_type_symbol
_atom_site_label
_atom_site_fract_x
_atom_site_fract_y
_atom_site_fract_z
Si Si1 0.565370 0.317575 0.335077
Si Si2 0.378207 0.817537 0.315463
Si Si3 0.271822 0.683129 0.574901
Si Si4 0.376007 0.816946 0.811872
Si Si5 0.026608 0.683361 0.922377
Si Si6 0.176076 0.181762 0.833240
O O1 0.557159 0.500000 0.335539
O O2 0.470985 0.242287 0.342100
O O3 0.633954 0.271045 0.394727
O O4 0.604560 0.265109 0.260889
O O5 0.301343 0.772039 0.368394
O O6 0.359436 0.749402 0.239390
O O7 0.379993 0.000000 0.309878
O O8 0.270732 0.500000 0.570640
O O9 0.250000 0.750000 0.500000
O O10 0.449985 0.775777 0.867892
O O11 0.278669 0.779661 0.838023
O O12 0.380381 0.000000 0.800829
O O13 0.034521 0.500000 0.922035
O O14 0.116538 0.753206 0.894786
O O15 0.000000 0.731507 0.000000
O O16 0.167939 0.000000 0.831259
#
# Coordination Sequence:
#
# PCOD9207651 Si02
#       6
#     8   8   8   8   8   8
#     4  11  22  38  61  91 119 153 200 247 292 348
#     4  11  22  39  61  88 119 156 198 243 298 357
#     4  10  24  42  61  87 123 158 196 242 298 353
#     4  10  21  37  59  87 119 157 198 242 295 353
#     4  10  22  40  60  85 121 162 200 244 300 355
#     4  11  22  36  59  90 118 153 202 249 293 349
#
# _framework density 18.593757
#
# number of rings (size 3 to 8) (size 9 to 14) (size 15 to 20)
#    0.000    1.500    3.333    1.500    0.000    5.000 
#    0.000    3.333    0.000    0.000    0.000    0.000 
#    0.000    0.000    0.000    0.000    0.000    0.000 
#
# Total GULP energy -134129.037616 kJ/mol
# GULP energy per Si atom -5588.709901 kJ/mol
# Density = 1.855144 g / cm^3
# Si number density = 18.593757 Si / 1000 Ang^3
#
#
#
# Elastic Constant Matrix: (Units=GPa)
#
#
# Indices 1 2 3 4 5 6 
#
# 1 77.9037 13.7665 -23.1595 0.0000 -1.0580 0.0000
# 2 13.7665 17.9898 3.5284 0.0000 -0.0997 0.0000
# 3 -23.1595 3.5284 39.0659 0.0000 0.2255 0.0000
# 4 0.0000 0.0000 0.0000 29.5779 0.0000 -6.3524
# 5 -1.0580 -0.0997 0.2255 0.0000 27.8514 0.0000
# 6 0.0000 0.0000 0.0000 -6.3524 0.0000 29.8447
#
#
#
# Elastic Compliance Matrix: (Units=1/GPa)
#
#
# Indices 1 2 3 4 5 6 
#
# 1 0.020033 -0.017974 0.013496 0.000000 0.000587 0.000000
# 2 -0.017974 0.072717 -0.017221 0.000000 -0.000283 0.000000
# 3 0.013496 -0.017221 0.035153 0.000000 0.000166 0.000000
# 4 0.000000 0.000000 0.000000 0.035429 0.000000 0.007541
# 5 0.000587 -0.000283 0.000166 0.000000 0.035925 0.000000
# 6 0.000000 0.000000 0.000000 0.007541 0.000000 0.035112
#
#
# Mechanical properties :
#
#
# Convention : Reuss Voigt Hill
#
# Bulk Modulus (GPa) = 11.83363 13.69225 12.76294
# Shear Modulus (GPa) = 16.34336 26.84305 21.59321
#
# Velocity S-wave (km/s) = 2.96796 3.80367 3.41150
# Velocity P-wave (km/s) = 4.25713 5.16435 4.73253
#
# Compressibility (1/GPa) = 0.08450495
#
# Stress axis : x y z
#
# Youngs Moduli (GPa) = 49.91865 13.75186 28.44708
#
# Poissons Ratio (x) = 0.24717 -0.38392
# Poissons Ratio (y) = 0.89721 0.48990
# Poissons Ratio (z) = -0.67370 0.23683
#
# Static dielectric constant tensor:
#      x y z
#    x 1.639820 0.000000 -0.000660 
#    y 0.000000 1.626110 0.000000 
#    z -0.000660 0.000000 1.606540 
# 
# From -- ./inp_files/267603.got.cif
#   From: 2010.05.17/outbox.cif.g08.bks.cpg/sg12_134_cif.got.tgz:267603.got - 2010.06.03 13:09:07.
