data_PCOD9207094
_publ_section_title
;
Structure prediction by ZEFSAII (Michael W. Deem and Ramdas Pophale) SiO2 
 PCOD9207094
Probable space group: C 2/M
;
_chemical_formula_sum "Si O2"
_cell_formula_units_Z 64
_cell_length_a 17.970501
_cell_length_b 13.813222
_cell_length_c 24.046031
_cell_angle_alpha 90.000000
_cell_angle_beta 30.936083
_cell_angle_gamma 90.000000
_cell_volume 3068.531466
_symmetry_space_group_name_H-M "C 2/M"
_symmetry_group_IT_number 12
_symmetry_cell_setting 'monoclinic'
loop_
_space_group_symop_operation_xyz
x,y,z
-x,y,-z
-x,-y,-z
x,-y,z
1/2+x,1/2+y,z
1/2-x,1/2+y,-z
1/2-x,1/2-y,-z
1/2+x,1/2-y,z
loop_
_atom_site_type_symbol
_atom_site_label
_atom_site_fract_x
_atom_site_fract_y
_atom_site_fract_z
Si Si1 0.353526 0.610295 0.322315
Si Si2 0.311589 0.890324 0.273269
Si Si3 0.932126 0.393811 0.982469
Si Si4 0.425276 0.887330 0.425488
Si Si5 0.517995 0.189002 0.732369
Si Si6 0.186609 0.695668 0.323439
Si Si7 0.212650 0.790775 0.963868
Si Si8 0.437725 0.611551 0.101560
O O1 0.409308 0.500000 0.282717
O O2 0.464742 0.697520 0.262294
O O3 0.261305 0.636337 0.325953
O O4 0.236573 0.615487 0.447029
O O5 0.379020 0.866885 0.290300
O O6 0.195212 0.807987 0.334002
O O7 0.258081 0.000000 0.304598
O O8 0.442970 0.880402 0.144314
O O9 0.865537 0.500000 0.014954
O O10 0.826239 0.303930 0.046660
O O11 0.000000 0.394349 0.000000
O O12 0.440588 0.832534 0.357358
O O13 0.531892 0.841288 0.403148
O O14 0.466625 0.000000 0.391280
O O15 0.352937 0.157716 0.849227
O O16 0.298038 0.676321 0.201502
O O17 0.250000 0.750000 0.000000
O O18 0.069393 0.856084 0.056595
O O19 0.398891 0.500000 0.135151
O O20 0.500000 0.623165 0.000000
#
# Coordination Sequence:
#
# PCOD9207094 Si02
#       8
#     8   8   8   8   8   8   8   8
#     4  10  22  42  63  87 119 154 198 251 306 358
#     4  10  21  39  59  82 117 159 196 238 288 351
#     4  10  21  37  57  78 111 159 201 234 279 342
#     4  11  23  39  64  92 116 151 199 254 310 357
#     4  11  23  38  62  86 122 158 200 241 298 361
#     4  11  21  38  63  90 116 155 200 249 300 357
#     4  12  22  36  54  85 119 156 191 237 288 344
#     4  11  23  37  55  83 121 157 193 238 290 348
#
# _framework density 20.856881999999999
#
# number of rings (size 3 to 8) (size 9 to 14) (size 15 to 20)
#    0.000    1.250    2.500    4.125    1.750    4.000 
#    0.000    0.625    0.000    6.750    0.000    0.000 
#    0.000    0.000    0.000    0.000    0.000    0.000 
#
# Total GULP energy -178919.621217 kJ/mol
# GULP energy per Si atom -5591.238163 kJ/mol
# Density = 2.080941 g / cm^3
# Si number density = 20.856882 Si / 1000 Ang^3
#
#
#
# Elastic Constant Matrix: (Units=GPa)
#
#
# Indices 1 2 3 4 5 6 
#
# 1 64.5595 13.7099 -6.3036 -0.0012 8.8248 0.0004
# 2 13.7099 118.0091 -8.5026 -0.0020 -6.8216 0.0003
# 3 -6.3036 -8.5026 33.2845 -0.0050 3.4445 0.0007
# 4 -0.0012 -0.0020 -0.0050 23.1015 0.0007 9.3616
# 5 8.8248 -6.8216 3.4445 0.0007 31.8817 0.0002
# 6 0.0004 0.0003 0.0007 9.3616 0.0002 6.7897
#
#
#
# Elastic Compliance Matrix: (Units=1/GPa)
#
#
# Indices 1 2 3 4 5 6 
#
# 1 0.016996 -0.002057 0.003262 0.000005 -0.005497 -0.000007
# 2 -0.002057 0.008966 0.001662 0.000003 0.002308 -0.000004
# 3 0.003262 0.001662 0.031495 0.000019 -0.003950 -0.000030
# 4 0.000005 0.000003 0.000019 0.098099 -0.000004 -0.135257
# 5 -0.005497 0.002308 -0.003950 -0.000004 0.033808 0.000005
# 6 -0.000007 -0.000004 -0.000030 -0.135257 0.000005 0.333773
#
#
# Mechanical properties :
#
#
# Convention : Reuss Voigt Hill
#
# Bulk Modulus (GPa) = 15.82495 23.74005 19.78250
# Shear Modulus (GPa) = 9.28560 26.81787 18.05174
#
# Velocity S-wave (km/s) = 2.11228 3.58970 2.94514
# Velocity P-wave (km/s) = 3.68142 5.34681 4.59027
#
# Compressibility (1/GPa) = 0.06319135
#
# Stress axis : x y z
#
# Youngs Moduli (GPa) = 58.83587 111.53114 31.75091
#
# Poissons Ratio (x) = 0.22945 -0.10358
# Poissons Ratio (y) = 0.12104 -0.05277
# Poissons Ratio (z) = -0.19194 -0.18535
#
# Static dielectric constant tensor:
#      x y z
#    x 1.816870 0.000000 -0.026880 
#    y 0.000000 1.755830 0.000000 
#    z -0.026880 0.000000 1.773890 
# 
# From -- ./inp_files/344002.got.cif
#   From: 2010.05.17/outbox.cif.g08.bks.cpg/sg12_173_cif.got.tgz:344002.got - 2010.06.03 13:09:07.
