data_PCOD9207781
_publ_section_title
;
Structure prediction by ZEFSAII (Michael W. Deem and Ramdas Pophale) SiO2 
 PCOD9207781
Probable space group: C 2/M
;
_chemical_formula_sum "Si O2"
_cell_formula_units_Z 40
_cell_length_a 11.281108
_cell_length_b 13.954447
_cell_length_c 11.689621
_cell_angle_alpha 90.000000
_cell_angle_beta 111.219661
_cell_angle_gamma 90.000000
_cell_volume 1715.432983
_symmetry_space_group_name_H-M "C 2/M"
_symmetry_group_IT_number 12
_symmetry_cell_setting 'monoclinic'
loop_
_space_group_symop_operation_xyz
x,y,z
-x,y,-z
-x,-y,-z
x,-y,z
1/2+x,1/2+y,z
1/2-x,1/2+y,-z
1/2-x,1/2-y,-z
1/2+x,1/2-y,z
loop_
_atom_site_type_symbol
_atom_site_label
_atom_site_fract_x
_atom_site_fract_y
_atom_site_fract_z
Si Si1 0.115356 0.111319 0.249538
Si Si2 0.715506 0.612283 0.524913
Si Si3 0.851742 0.735979 0.931073
Si Si4 0.492453 0.892537 0.359655
Si Si5 0.128297 0.808271 0.719150
O O1 0.199359 0.146324 0.388130
O O2 0.134340 0.167466 0.139172
O O3 0.974134 0.131208 0.246634
O O4 0.139610 0.000000 0.241452
O O5 0.680313 0.500000 0.511093
O O6 0.859712 0.619910 0.616971
O O7 0.630412 0.665682 0.586984
O O8 0.766918 0.670410 0.818476
O O9 0.750000 0.750000 0.000000
O O10 0.000000 0.705131 0.000000
O O11 0.500000 0.891086 0.500000
O O12 0.413296 0.803339 0.284439
O O13 0.448518 0.000000 0.310550
#
# Coordination Sequence:
#
# PCOD9207781 Si02
#       5
#     8   8   8   8   8
#     4  11  24  44  73 108 144 186 236 294 360 431
#     4  10  22  40  66 107 148 181 227 289 361 436
#     4  12  27  50  71 100 138 191 251 303 345 415
#     4  10  21  37  59  96 142 185 228 279 345 423
#     4  12  23  41  73 101 144 186 238 293 362 417
#
# _framework density 23.317727000000001
#
# number of rings (size 3 to 8) (size 9 to 14) (size 15 to 20)
#    0.000    1.000    2.000    4.800    0.000    6.800 
#    0.000    0.000    0.000    4.200    0.000    0.000 
#    0.000    0.000    0.000    0.000    0.000    0.000 
#
# Total GULP energy -111789.420752 kJ/mol
# GULP energy per Si atom -5589.471038 kJ/mol
# Density = 2.326466 g / cm^3
# Si number density = 23.317727 Si / 1000 Ang^3
#
#
#
# Elastic Constant Matrix: (Units=GPa)
#
#
# Indices 1 2 3 4 5 6 
#
# 1 171.1480 37.1325 68.0768 0.0000 6.8643 0.0000
# 2 37.1325 46.3094 17.5984 0.0000 -6.1369 0.0000
# 3 68.0768 17.5984 93.2862 0.0000 -0.2897 0.0000
# 4 0.0000 0.0000 0.0000 17.7609 0.0000 0.3579
# 5 6.8643 -6.1369 -0.2897 0.0000 66.7688 0.0000
# 6 0.0000 0.0000 0.0000 0.3579 0.0000 22.7738
#
#
#
# Elastic Compliance Matrix: (Units=1/GPa)
#
#
# Indices 1 2 3 4 5 6 
#
# 1 0.009428 -0.005540 -0.005840 0.000000 -0.001504 0.000000
# 2 -0.005540 0.026820 -0.001008 0.000000 0.003030 0.000000
# 3 -0.005840 -0.001008 0.015173 0.000000 0.000574 0.000000
# 4 0.000000 0.000000 0.000000 0.056321 0.000000 -0.000885
# 5 -0.001504 0.003030 0.000574 0.000000 0.015413 0.000000
# 6 0.000000 0.000000 0.000000 -0.000885 0.000000 0.043924
#
#
# Mechanical properties :
#
#
# Convention : Reuss Voigt Hill
#
# Bulk Modulus (GPa) = 37.52714 61.81766 49.67240
# Shear Modulus (GPa) = 24.90831 33.98975 29.44903
#
# Velocity S-wave (km/s) = 3.27190 3.82210 3.55765
# Velocity P-wave (km/s) = 5.51385 6.78576 6.18260
#
# Compressibility (1/GPa) = 0.02664738
#
# Stress axis : x y z
#
# Youngs Moduli (GPa) = 106.06720 37.28515 65.90568
#
# Poissons Ratio (x) = 0.20655 0.38487
# Poissons Ratio (y) = 0.58759 0.06640
# Poissons Ratio (z) = 0.61941 0.03757
#
# Static dielectric constant tensor:
#      x y z
#    x 1.973770 0.000000 0.015280 
#    y 0.000000 1.875210 0.000000 
#    z 0.015280 0.000000 1.900820 
# 
# From -- ./inp_files/129821.got.cif
#   From: 2010.05.17/outbox.cif.g08.bks.cpg/sg12_65_cif.got.tgz:129821.got - 2010.06.03 13:09:07.
