data_PCOD9207190
_publ_section_title
;
Structure prediction by ZEFSAII (Michael W. Deem and Ramdas Pophale) SiO2 
 PCOD9207190
Probable space group: C 2/M
;
_chemical_formula_sum "Si O2"
_cell_formula_units_Z 48
_cell_length_a 18.222181
_cell_length_b 8.755959
_cell_length_c 31.554739
_cell_angle_alpha 90.000000
_cell_angle_beta 149.974883
_cell_angle_gamma 90.000000
_cell_volume 2519.232552
_symmetry_space_group_name_H-M "C 2/M"
_symmetry_group_IT_number 12
_symmetry_cell_setting 'monoclinic'
loop_
_space_group_symop_operation_xyz
x,y,z
-x,y,-z
-x,-y,-z
x,-y,z
1/2+x,1/2+y,z
1/2-x,1/2+y,-z
1/2-x,1/2-y,-z
1/2+x,1/2-y,z
loop_
_atom_site_type_symbol
_atom_site_label
_atom_site_fract_x
_atom_site_fract_y
_atom_site_fract_z
Si Si1 0.667286 0.816006 0.918119
Si Si2 0.671617 0.684319 0.088296
Si Si3 0.668903 0.817814 0.418495
Si Si4 0.172496 0.317633 0.584225
Si Si5 0.673482 0.815916 0.256043
Si Si6 0.657176 0.682823 0.746038
O O1 0.747112 0.770069 0.914473
O O2 0.496846 0.770181 0.832188
O O3 0.672515 0.000000 0.923097
O O4 0.750000 0.750000 0.000000
O O5 0.682341 0.500000 0.097704
O O6 0.749879 0.759507 0.167508
O O7 0.500000 0.724605 0.000000
O O8 0.750000 0.750000 0.500000
O O9 0.752518 0.762278 0.418321
O O10 0.502516 0.758282 0.333744
O O11 0.670211 0.000000 0.421343
O O12 0.187405 0.500000 0.587236
O O13 0.250041 0.262203 0.665828
O O14 0.000000 0.280171 0.500000
O O15 0.757790 0.778072 0.254832
O O16 0.679047 0.000000 0.264427
O O17 0.641446 0.500000 0.740078
#
# Coordination Sequence:
#
# PCOD9207190 Si02
#       6
#     8   8   8   8   8   8
#     4  10  21  37  57  83 115 152 195 243 297 355
#     4  10  21  37  58  86 120 159 203 250 303 361
#     4  12  25  42  64  89 121 158 198 246 300 358
#     4  11  24  41  63  92 122 155 198 243 291 352
#     4  10  22  39  59  86 120 158 199 245 297 352
#     4  11  23  39  61  89 120 157 204 252 301 357
#
# _framework density 19.053419999999999
#
# number of rings (size 3 to 8) (size 9 to 14) (size 15 to 20)
#    0.000    1.333    0.000    5.500    0.000    8.333 
#    0.000    0.000    0.000    0.000    0.000    0.000 
#    0.000    0.000    0.000    0.000    0.000    0.000 
#
# Total GULP energy -134279.736878 kJ/mol
# GULP energy per Si atom -5594.989037 kJ/mol
# Density = 1.901005 g / cm^3
# Si number density = 19.053420 Si / 1000 Ang^3
#
#
#
# Elastic Constant Matrix: (Units=GPa)
#
#
# Indices 1 2 3 4 5 6 
#
# 1 216.7803 89.7825 136.0763 0.0000 0.6533 0.0000
# 2 89.7825 70.2901 85.2687 0.0000 2.0220 0.0000
# 3 136.0763 85.2687 225.8746 -0.0001 -2.0570 0.0000
# 4 0.0000 0.0000 -0.0001 33.5597 0.0000 -18.1591
# 5 0.6533 2.0220 -2.0570 0.0000 44.4897 0.0000
# 6 0.0000 0.0000 0.0000 -18.1591 0.0000 12.5975
#
#
#
# Elastic Compliance Matrix: (Units=1/GPa)
#
#
# Indices 1 2 3 4 5 6 
#
# 1 0.010411 -0.010512 -0.002301 0.000000 0.000218 0.000000
# 2 -0.010512 0.036983 -0.007645 0.000000 -0.001880 0.000000
# 3 -0.002301 -0.007645 0.008707 0.000000 0.000784 0.000000
# 4 0.000000 0.000000 0.000000 0.135432 0.000000 0.195223
# 5 0.000218 -0.001880 0.000784 0.000000 0.022596 0.000000
# 6 0.000000 0.000000 0.000000 0.195223 0.000000 0.360790
#
#
# Mechanical properties :
#
#
# Convention : Reuss Voigt Hill
#
# Bulk Modulus (GPa) = 65.86509 126.13332 95.99921
# Shear Modulus (GPa) = 8.05287 31.58387 19.81837
#
# Velocity S-wave (km/s) = 2.05807 4.07584 3.22863
# Velocity P-wave (km/s) = 6.34754 9.40710 8.02449
#
# Compressibility (1/GPa) = 0.01518255
#
# Stress axis : x y z
#
# Youngs Moduli (GPa) = 96.05473 27.03976 114.84994
#
# Poissons Ratio (x) = 0.28425 0.26433
# Poissons Ratio (y) = 1.00974 0.87806
# Poissons Ratio (z) = 0.22107 0.20673
#
# Static dielectric constant tensor:
#      x y z
#    x 1.633610 0.000000 0.015070 
#    y 0.000000 1.639700 0.000000 
#    z 0.015070 0.000000 1.613420 
# 
# From -- ./inp_files/378544.got.cif
#   From: 2010.05.17/outbox.cif.g08.bks.cpg/sg12_190_cif.got.tgz:378544.got - 2010.06.03 13:09:07.
