data_PCOD9207197
_publ_section_title
;
Structure prediction by ZEFSAII (Michael W. Deem and Ramdas Pophale) SiO2 
 PCOD9207197
Probable space group: C 2/M
;
_chemical_formula_sum "Si O2"
_cell_formula_units_Z 64
_cell_length_a 23.587135
_cell_length_b 11.920843
_cell_length_c 10.397259
_cell_angle_alpha 90.000000
_cell_angle_beta 88.467499
_cell_angle_gamma 90.000000
_cell_volume 2922.440348
_symmetry_space_group_name_H-M "C 2/M"
_symmetry_group_IT_number 12
_symmetry_cell_setting 'monoclinic'
loop_
_space_group_symop_operation_xyz
x,y,z
-x,y,-z
-x,-y,-z
x,-y,z
1/2+x,1/2+y,z
1/2-x,1/2+y,-z
1/2-x,1/2-y,-z
1/2+x,1/2-y,z
loop_
_atom_site_type_symbol
_atom_site_label
_atom_site_fract_x
_atom_site_fract_y
_atom_site_fract_z
Si Si1 0.030263 0.333624 0.369099
Si Si2 0.371434 0.201078 0.803998
Si Si3 0.180181 0.374124 0.687687
Si Si4 0.302437 0.629275 0.632833
Si Si5 0.416804 0.381892 0.500621
Si Si6 0.574237 0.268942 0.742698
Si Si7 0.217380 0.371737 0.984446
Si Si8 0.567876 0.370739 0.013347
O O1 0.086496 0.372210 0.288783
O O2 0.054593 0.217291 0.424145
O O3 0.000000 0.383370 0.500000
O O4 0.980412 0.310672 0.269267
O O5 0.326841 0.276097 0.725800
O O6 0.335459 0.136374 0.913846
O O7 0.410867 0.293585 0.872500
O O8 0.163088 0.500000 0.654002
O O9 0.237182 0.345843 0.606898
O O10 0.126558 0.296323 0.677318
O O11 0.197945 0.371190 0.837072
O O12 0.302079 0.500000 0.687182
O O13 0.348819 0.625394 0.517974
O O14 0.433773 0.500000 0.558174
O O15 0.435470 0.371793 0.352819
O O16 0.589213 0.312681 0.881420
O O17 0.243438 0.500000 0.003108
O O18 0.250000 0.250000 0.000000
O O19 0.586391 0.500000 0.026176
O O20 0.500000 0.370235 0.000000
#
# Coordination Sequence:
#
# PCOD9207197 Si02
#       8
#     8   8   8   8   8   8   8   8
#     4   9  20  35  57  82 114 158 204 256 302 367
#     4  11  19  36  59  84 120 158 207 252 306 371
#     4  10  21  37  57  83 116 156 200 248 308 375
#     4   9  18  34  57  83 111 155 207 251 302 368
#     4   9  19  34  56  84 114 154 202 254 311 368
#     4  11  20  35  53  80 118 154 198 252 304 367
#     4  11  23  40  64  93 128 165 207 259 313 377
#     4  11  22  32  49  82 123 161 193 245 312 365
#
# _framework density 21.899505000000001
#
# number of rings (size 3 to 8) (size 9 to 14) (size 15 to 20)
#    0.000    1.875    3.750    0.750    0.000    4.250 
#    0.000    0.625    0.000   12.750    0.000    0.000 
#    0.000    0.000    0.000    0.000    0.000    0.000 
#
# Total GULP energy -178303.262930 kJ/mol
# GULP energy per Si atom -5571.976967 kJ/mol
# Density = 2.184966 g / cm^3
# Si number density = 21.899505 Si / 1000 Ang^3
#
#
#
# Elastic Constant Matrix: (Units=GPa)
#
#
# Indices 1 2 3 4 5 6 
#
# 1 107.1046 41.1136 -3.0186 0.0000 -27.3382 0.0000
# 2 41.1136 124.8234 12.9182 0.0000 -2.2405 0.0000
# 3 -3.0186 12.9182 50.6164 0.0000 -23.0746 0.0000
# 4 0.0000 0.0000 0.0000 -50.9498 0.0000 -88.1480
# 5 -27.3382 -2.2405 -23.0746 0.0000 37.9227 0.0000
# 6 0.0000 0.0000 0.0000 -88.1480 0.0000 -113.3691
#
#
#
# Elastic Compliance Matrix: (Units=1/GPa)
#
#
# Indices 1 2 3 4 5 6 
#
# 1 0.016785 -0.006338 0.011021 0.000000 0.018432 0.000000
# 2 -0.006338 0.010655 -0.006772 0.000000 -0.008060 0.000000
# 3 0.011021 -0.006772 0.035401 0.000000 0.029085 0.000000
# 4 0.000000 0.000000 0.000000 0.056857 0.000000 -0.044208
# 5 0.018432 -0.008060 0.029085 0.000000 0.056878 0.000000
# 6 0.000000 0.000000 0.000000 -0.044208 0.000000 0.025552
#
#
# Mechanical properties :
#
#
# Convention : Reuss Voigt Hill
#
# Bulk Modulus (GPa) = 17.04645 42.73009 29.88827
# Shear Modulus (GPa) = 22.13757 -9.84382 6.14688
#
# Velocity S-wave (km/s) = 3.18287 -2.12244 1.67718
# Velocity P-wave (km/s) = 4.61610 3.68075 4.17470
#
# Compressibility (1/GPa) = 0.05866323
#
# Stress axis : x y z
#
# Youngs Moduli (GPa) = 59.57721 93.85141 28.24774
#
# Poissons Ratio (x) = 0.59486 -0.31132
# Poissons Ratio (y) = 0.37762 0.19129
# Poissons Ratio (z) = -0.65660 0.63554
#
# Static dielectric constant tensor:
#      x y z
#    x 1.833490 0.000000 -0.049970 
#    y 0.000000 1.834330 0.000000 
#    z -0.049970 0.000000 1.807450 
# 
# From -- ./inp_files/174662.got.cif
#   From: 2010.05.17/outbox.cif.g08.bks.cpg/sg12_88_cif.got.tgz:174662.got - 2010.06.03 13:09:07.
