data_PCOD9207027
_publ_section_title
;
Structure prediction by ZEFSAII (Michael W. Deem and Ramdas Pophale) SiO2 
 PCOD9207027
Probable space group: C 2/M
;
_chemical_formula_sum "Si O2"
_cell_formula_units_Z 56
_cell_length_a 19.842606
_cell_length_b 25.199757
_cell_length_c 9.268501
_cell_angle_alpha 90.000000
_cell_angle_beta 43.630098
_cell_angle_gamma 90.000000
_cell_volume 3197.816709
_symmetry_space_group_name_H-M "C 2/M"
_symmetry_group_IT_number 12
_symmetry_cell_setting 'monoclinic'
loop_
_space_group_symop_operation_xyz
x,y,z
-x,y,-z
-x,-y,-z
x,-y,z
1/2+x,1/2+y,z
1/2-x,1/2+y,-z
1/2-x,1/2-y,-z
1/2+x,1/2-y,z
loop_
_atom_site_type_symbol
_atom_site_label
_atom_site_fract_x
_atom_site_fract_y
_atom_site_fract_z
Si Si1 0.603575 0.179843 0.258199
Si Si2 0.903545 0.667036 0.072204
Si Si3 0.211589 0.859978 0.877056
Si Si4 0.183258 0.142810 0.469861
Si Si5 0.336758 0.276108 0.278103
Si Si6 0.612897 0.304305 0.286628
Si Si7 0.115356 0.062886 0.796422
O O1 0.500000 0.176350 0.500000
O O2 0.683334 0.141365 0.208596
O O3 0.638522 0.242037 0.217921
O O4 0.593320 0.164516 0.105928
O O5 0.801849 0.644592 0.294967
O O6 0.899878 0.729723 0.115294
O O7 0.000000 0.644567 0.000000
O O8 0.212309 0.810393 0.768638
O O9 0.176201 0.908308 0.831274
O O10 0.134731 0.841993 0.117485
O O11 0.121873 0.182602 0.670609
O O12 0.165433 0.167177 0.339856
O O13 0.148446 0.087104 0.590178
O O14 0.250000 0.250000 0.500000
O O15 0.500000 0.303757 0.500000
O O16 0.130564 0.000000 0.776941
O O17 0.000000 0.073548 0.000000
#
# Coordination Sequence:
#
# PCOD9207027 Si02
#       7
#     8   8   8   8   8   8   8
#     4  11  23  33  53  86 124 161 192 226 267 334
#     4  11  22  33  52  83 120 159 198 227 270 339
#     4  11  20  38  57  79 117 152 188 239 284 336
#     4  10  21  37  56  81 113 153 190 237 288 337
#     4   9  19  30  50  74 113 155 193 223 265 323
#     4  11  21  33  54  84 121 157 189 227 276 338
#     4  10  23  43  66  87 107 140 191 246 299 348
#
# _framework density 17.511948
#
# number of rings (size 3 to 8) (size 9 to 14) (size 15 to 20)
#    0.000    1.571    2.857    3.000   10.000    2.286 
#    0.000    0.714    0.000    3.429    0.000    0.000 
#    0.000    0.000    0.000    0.000    0.000    0.000 
#
# Total GULP energy -155925.783091 kJ/mol
# GULP energy per Si atom -5568.777968 kJ/mol
# Density = 1.747209 g / cm^3
# Si number density = 17.511948 Si / 1000 Ang^3
#
#
#
# Elastic Constant Matrix: (Units=GPa)
#
#
# Indices 1 2 3 4 5 6 
#
# 1 104.2310 33.9632 40.8227 0.0000 0.5752 0.0000
# 2 33.9632 64.0739 23.9328 0.0000 -8.2379 0.0000
# 3 40.8227 23.9328 82.0701 0.0000 2.0081 0.0000
# 4 0.0000 0.0000 0.0000 18.8669 0.0000 0.5509
# 5 0.5752 -8.2379 2.0081 0.0000 37.6506 0.0000
# 6 0.0000 0.0000 0.0000 0.5509 0.0000 8.9073
#
#
#
# Elastic Compliance Matrix: (Units=1/GPa)
#
#
# Indices 1 2 3 4 5 6 
#
# 1 0.013305 -0.005310 -0.005043 0.000000 -0.001096 0.000000
# 2 -0.005310 0.020293 -0.003391 0.000000 0.004702 0.000000
# 3 -0.005043 -0.003391 0.015719 0.000000 -0.001503 0.000000
# 4 0.000000 0.000000 0.000000 0.053099 0.000000 -0.003284
# 5 -0.001096 0.004702 -0.001503 0.000000 0.027686 0.000000
# 6 0.000000 0.000000 0.000000 -0.003284 0.000000 0.112470
#
#
# Mechanical properties :
#
#
# Convention : Reuss Voigt Hill
#
# Bulk Modulus (GPa) = 45.81202 49.75694 47.78448
# Shear Modulus (GPa) = 18.02857 23.19537 20.61197
#
# Velocity S-wave (km/s) = 3.21206 3.64338 3.43450
# Velocity P-wave (km/s) = 6.32248 6.79513 6.56306
#
# Compressibility (1/GPa) = 0.02182833
#
# Stress axis : x y z
#
# Youngs Moduli (GPa) = 75.15690 49.27816 63.61748
#
# Poissons Ratio (x) = 0.26167 0.32082
# Poissons Ratio (y) = 0.39909 0.21576
# Poissons Ratio (z) = 0.37902 0.16713
#
# Static dielectric constant tensor:
#      x y z
#    x 1.669750 0.000000 0.012200 
#    y 0.000000 1.604720 0.000000 
#    z 0.012200 0.000000 1.621650 
# 
# From -- ./inp_files/79055.got.cif
#   From: 2010.05.17/outbox.cif.g08.bks.cpg/sg12_40_cif.got.tgz:79055.got - 2010.06.03 13:09:07.
