data_PCOD9207991
_publ_section_title
;
Structure prediction by ZEFSAII (Michael W. Deem and Ramdas Pophale) SiO2 
 PCOD9207991
Probable space group: C 2/M
;
_chemical_formula_sum "Si O2"
_cell_formula_units_Z 24
_cell_length_a 5.106199
_cell_length_b 17.343605
_cell_length_c 14.338753
_cell_angle_alpha 90.000000
_cell_angle_beta 112.657274
_cell_angle_gamma 90.000000
_cell_volume 1171.839494
_symmetry_space_group_name_H-M "C 2/M"
_symmetry_group_IT_number 12
_symmetry_cell_setting 'monoclinic'
loop_
_space_group_symop_operation_xyz
x,y,z
-x,y,-z
-x,-y,-z
x,-y,z
1/2+x,1/2+y,z
1/2-x,1/2+y,-z
1/2-x,1/2-y,-z
1/2+x,1/2-y,z
loop_
_atom_site_type_symbol
_atom_site_label
_atom_site_fract_x
_atom_site_fract_y
_atom_site_fract_z
Si Si1 0.500000 0.694537 0.000000
Si Si2 0.231709 0.694709 0.779036
Si Si3 0.231510 0.088765 0.392183
Si Si4 0.500000 0.693603 0.500000
O O1 0.624617 0.655354 0.109805
O O2 0.750000 0.750000 0.000000
O O3 0.448976 0.760532 0.771553
O O4 0.195263 0.634292 0.691368
O O5 0.500000 0.090598 0.500000
O O6 0.981144 0.135243 0.410335
O O7 0.157131 0.000000 0.365730
O O8 0.250000 0.750000 0.500000
#
# Coordination Sequence:
#
# PCOD9207991 Si02
#       4
#     4   8   8   4
#     4   8  16  34  57  84 113 140 190 248 290 328
#     4  10  21  37  61  87 112 152 198 243 286 344
#     4  11  25  41  57  87 127 160 192 240 297 351
#     4  12  23  40  61  82 110 152 204 242 279 342
#
# _framework density 20.480618
#
# number of rings (size 3 to 8) (size 9 to 14) (size 15 to 20)
#    0.000    1.667    1.667    2.500    4.667    0.000 
#    0.000    0.833    0.000    0.000    0.000   14.000 
#    0.000    0.000    0.000    0.000    0.000    0.000 
#
# Total GULP energy -66978.111946 kJ/mol
# GULP energy per Si atom -5581.509329 kJ/mol
# Density = 2.043400 g / cm^3
# Si number density = 20.480618 Si / 1000 Ang^3
#
#
#
# Elastic Constant Matrix: (Units=GPa)
#
#
# Indices 1 2 3 4 5 6 
#
# 1 127.1982 21.4087 12.7954 0.0000 -10.0802 0.0000
# 2 21.4087 109.6305 47.4030 0.0000 -4.3243 0.0000
# 3 12.7954 47.4030 165.5568 0.0000 -11.9299 0.0000
# 4 0.0000 0.0000 0.0000 12.2891 0.0000 8.7391
# 5 -10.0802 -4.3243 -11.9299 0.0000 27.8156 0.0000
# 6 0.0000 0.0000 0.0000 8.7391 0.0000 9.7229
#
#
#
# Elastic Compliance Matrix: (Units=1/GPa)
#
#
# Indices 1 2 3 4 5 6 
#
# 1 0.008338 -0.001514 -0.000010 0.000000 0.002782 0.000000
# 2 -0.001514 0.010689 -0.002955 0.000000 -0.000154 0.000000
# 3 -0.000010 -0.002955 0.007072 0.000000 0.002570 0.000000
# 4 0.000000 0.000000 0.000000 0.225513 0.000000 -0.202694
# 5 0.002782 -0.000154 0.002570 0.000000 0.038037 0.000000
# 6 0.000000 0.000000 0.000000 -0.202694 0.000000 0.285034
#
#
# Mechanical properties :
#
#
# Convention : Reuss Voigt Hill
#
# Bulk Modulus (GPa) = 58.34003 62.84441 60.59222
# Shear Modulus (GPa) = 8.48385 31.35076 19.91730
#
# Velocity S-wave (km/s) = 2.03749 3.91673 3.12187
# Velocity P-wave (km/s) = 5.83802 7.15582 6.53025
#
# Compressibility (1/GPa) = 0.01714089
#
# Stress axis : x y z
#
# Youngs Moduli (GPa) = 119.93173 93.55748 141.39915
#
# Poissons Ratio (x) = 0.14165 0.00148
# Poissons Ratio (y) = 0.18158 0.41776
# Poissons Ratio (z) = 0.00126 0.27642
#
# Static dielectric constant tensor:
#      x y z
#    x 1.786180 0.000000 0.053970 
#    y 0.000000 1.689100 0.000000 
#    z 0.053970 0.000000 1.843270 
# 
# From -- ./inp_files/190841.got.cif
#   From: 2010.05.17/outbox.cif.g08.bks.cpg/sg12_96_cif.got.tgz:190841.got - 2010.06.03 13:09:07.
