data_PCOD9207558
_publ_section_title
;
Structure prediction by ZEFSAII (Michael W. Deem and Ramdas Pophale) SiO2 
 PCOD9207558
Probable space group: C 2/M
;
_chemical_formula_sum "Si O2"
_cell_formula_units_Z 56
_cell_length_a 19.271855
_cell_length_b 8.951137
_cell_length_c 19.021095
_cell_angle_alpha 90.000000
_cell_angle_beta 118.286935
_cell_angle_gamma 90.000000
_cell_volume 2889.407106
_symmetry_space_group_name_H-M "C 2/M"
_symmetry_group_IT_number 12
_symmetry_cell_setting 'monoclinic'
loop_
_space_group_symop_operation_xyz
x,y,z
-x,y,-z
-x,-y,-z
x,-y,z
1/2+x,1/2+y,z
1/2-x,1/2+y,-z
1/2-x,1/2-y,-z
1/2+x,1/2-y,z
loop_
_atom_site_type_symbol
_atom_site_label
_atom_site_fract_x
_atom_site_fract_y
_atom_site_fract_z
Si Si1 0.169963 0.821632 0.726745
Si Si2 0.155967 0.678647 0.244158
Si Si3 0.594150 0.672637 0.835194
Si Si4 0.083636 0.821674 0.076781
Si Si5 0.985657 0.678416 0.411908
Si Si6 0.172286 0.323739 0.994936
Si Si7 0.071291 0.174394 0.327014
O O1 0.255817 0.781793 0.739195
O O2 0.157629 0.794974 0.804160
O O3 0.099750 0.737172 0.653529
O O4 0.158288 0.000000 0.711782
O O5 0.148359 0.500000 0.239587
O O6 0.096460 0.750597 0.159087
O O7 0.135840 0.742059 0.311188
O O8 0.603756 0.500000 0.863957
O O9 0.605735 0.782155 0.905536
O O10 0.510196 0.684563 0.756795
O O11 0.091267 0.000000 0.085507
O O12 0.148517 0.751992 0.056339
O O13 0.000000 0.788186 0.000000
O O14 0.988760 0.500000 0.405287
O O15 0.049942 0.752283 0.391166
O O16 0.000000 0.716805 0.500000
O O17 0.181269 0.500000 0.007919
O O18 0.250000 0.250000 0.000000
O O19 0.090370 0.000000 0.344268
#
# Coordination Sequence:
#
# PCOD9207558 Si02
#       7
#     8   8   8   8   8   8   8
#     4   9  20  37  58  84 114 150 186 226 280 337
#     4  11  22  37  58  85 117 149 188 236 281 331
#     4   9  18  35  55  76 105 141 186 234 278 331
#     4  11  24  40  57  79 111 151 193 238 288 339
#     4  10  21  38  62  91 118 144 181 229 276 328
#     4  12  24  36  53  77 106 143 188 237 288 336
#     4  10  21  37  59  84 112 149 186 221 270 332
#
# _framework density 19.381139000000001
#
# number of rings (size 3 to 8) (size 9 to 14) (size 15 to 20)
#    0.000    1.714    0.000    5.571    0.000   10.857 
#    0.000    0.714    0.000    0.000    0.000    0.000 
#    0.000    0.000    0.000    0.000    0.000    0.000 
#
# Total GULP energy -156536.300563 kJ/mol
# GULP energy per Si atom -5590.582163 kJ/mol
# Density = 1.933703 g / cm^3
# Si number density = 19.381139 Si / 1000 Ang^3
#
#
#
# Elastic Constant Matrix: (Units=GPa)
#
#
# Indices 1 2 3 4 5 6 
#
# 1 105.4488 41.1569 21.0328 0.0000 -28.4544 0.0000
# 2 41.1569 59.6734 36.3420 0.0000 -12.4648 0.0000
# 3 21.0328 36.3420 75.5716 0.0000 -23.7260 0.0000
# 4 0.0000 0.0000 0.0000 31.4263 0.0000 -2.5208
# 5 -28.4544 -12.4648 -23.7260 0.0000 29.5780 0.0000
# 6 0.0000 0.0000 0.0000 -2.5208 0.0000 27.1592
#
#
#
# Elastic Compliance Matrix: (Units=1/GPa)
#
#
# Indices 1 2 3 4 5 6 
#
# 1 0.017648 -0.012562 0.006412 0.000000 0.016827 0.000000
# 2 -0.012562 0.032669 -0.015619 0.000000 -0.010847 0.000000
# 3 0.006412 -0.015619 0.025167 0.000000 0.019774 0.000000
# 4 0.000000 0.000000 0.000000 0.032059 0.000000 0.002976
# 5 0.016827 -0.010847 0.019774 0.000000 0.061288 0.000000
# 6 0.000000 0.000000 0.000000 0.002976 0.000000 0.037096
#
#
# Mechanical properties :
#
#
# Convention : Reuss Voigt Hill
#
# Bulk Modulus (GPa) = 31.30300 48.63967 39.97133
# Shear Modulus (GPa) = 19.22232 27.11016 23.16624
#
# Velocity S-wave (km/s) = 3.15271 3.74410 3.46106
# Velocity P-wave (km/s) = 5.42578 6.62132 6.05314
#
# Compressibility (1/GPa) = 0.03194582
#
# Stress axis : x y z
#
# Youngs Moduli (GPa) = 56.66370 30.61032 39.73404
#
# Poissons Ratio (x) = 0.38453 -0.25479
# Poissons Ratio (y) = 0.71182 0.62062
# Poissons Ratio (z) = -0.36335 0.47811
#
# Static dielectric constant tensor:
#      x y z
#    x 1.713650 0.000000 0.006380 
#    y 0.000000 1.644730 0.000000 
#    z 0.006380 0.000000 1.671190 
# 
# From -- ./inp_files/275501.got.cif
#   From: 2010.05.17/outbox.cif.g08.bks.cpg/sg12_138_cif.got.tgz:275501.got - 2010.06.03 13:09:07.
