data_PCOD9207398
_publ_section_title
;
Structure prediction by ZEFSAII (Michael W. Deem and Ramdas Pophale) SiO2 
 PCOD9207398
Probable space group: C 2/M
;
_chemical_formula_sum "Si O2"
_cell_formula_units_Z 40
_cell_length_a 8.946824
_cell_length_b 13.266852
_cell_length_c 27.941367
_cell_angle_alpha 90.000000
_cell_angle_beta 147.956440
_cell_angle_gamma 90.000000
_cell_volume 1759.632952
_symmetry_space_group_name_H-M "C 2/M"
_symmetry_group_IT_number 12
_symmetry_cell_setting 'monoclinic'
loop_
_space_group_symop_operation_xyz
x,y,z
-x,y,-z
-x,-y,-z
x,-y,z
1/2+x,1/2+y,z
1/2-x,1/2+y,-z
1/2-x,1/2-y,-z
1/2+x,1/2-y,z
loop_
_atom_site_type_symbol
_atom_site_label
_atom_site_fract_x
_atom_site_fract_y
_atom_site_fract_z
Si Si1 0.358411 0.695416 0.680429
Si Si2 0.982615 0.620401 0.861739
Si Si3 0.292868 0.789865 0.565382
Si Si4 0.247386 0.376877 0.032054
Si Si5 0.377528 0.880196 0.207656
O O1 0.652095 0.645901 0.775100
O O2 0.320385 0.700245 0.612606
O O3 0.400682 0.814196 0.703468
O O4 0.095976 0.656799 0.640759
O O5 0.006851 0.500000 0.868624
O O6 0.092281 0.651227 0.839552
O O7 0.168457 0.655651 0.956854
O O8 0.250000 0.750000 0.500000
O O9 0.000000 0.844126 0.500000
O O10 0.247240 0.500000 0.030990
O O11 0.558666 0.352039 0.135101
O O12 0.000000 0.344850 0.000000
O O13 0.419248 0.000000 0.223623
#
# Coordination Sequence:
#
# PCOD9207398 Si02
#       5
#     8   8   8   8   8
#     4  11  20  37  62  89 111 148 192 235 283 341
#     4  10  21  37  58  84 118 157 194 230 275 335
#     4   9  20  38  62  84 113 149 182 228 301 356
#     4   9  19  34  53  82 120 158 191 233 280 317
#     4  10  21  37  58  84 119 156 193 232 275 334
#
# _framework density 22.732012999999998
#
# number of rings (size 3 to 8) (size 9 to 14) (size 15 to 20)
#    0.000    2.200    2.000    0.600    2.800    3.200 
#    0.000    0.000    0.000   24.000    0.000    0.000 
#    0.000    0.000    0.000    0.000    0.000    0.000 
#
# Total GULP energy -111648.251091 kJ/mol
# GULP energy per Si atom -5582.412555 kJ/mol
# Density = 2.268027 g / cm^3
# Si number density = 22.732013 Si / 1000 Ang^3
#
#
#
# Elastic Constant Matrix: (Units=GPa)
#
#
# Indices 1 2 3 4 5 6 
#
# 1 118.9340 12.0916 41.0508 0.0001 24.2091 0.0000
# 2 12.0916 37.9579 6.0554 0.0000 -9.6890 0.0000
# 3 41.0508 6.0554 99.9124 0.0002 13.5186 -0.0001
# 4 0.0001 0.0000 0.0002 11.5711 -0.0001 3.2824
# 5 24.2091 -9.6890 13.5186 -0.0001 52.2849 0.0000
# 6 0.0000 0.0000 -0.0001 3.2824 0.0000 18.6737
#
#
#
# Elastic Compliance Matrix: (Units=1/GPa)
#
#
# Indices 1 2 3 4 5 6 
#
# 1 0.011107 -0.004232 -0.003632 0.000000 -0.004988 0.000000
# 2 -0.004232 0.029859 -0.001124 0.000000 0.007783 0.000000
# 3 -0.003632 -0.001124 0.011782 0.000000 -0.001573 0.000000
# 4 0.000000 0.000000 0.000000 0.090958 0.000000 -0.015988
# 5 -0.004988 0.007783 -0.001573 0.000000 0.023285 0.000000
# 6 0.000000 0.000000 0.000000 -0.015988 0.000000 0.056361
#
#
# Mechanical properties :
#
#
# Convention : Reuss Voigt Hill
#
# Bulk Modulus (GPa) = 28.75878 41.68889 35.22384
# Shear Modulus (GPa) = 19.76915 29.67970 24.72443
#
# Velocity S-wave (km/s) = 2.95220 3.61728 3.30153
# Velocity P-wave (km/s) = 4.92944 5.98543 5.48291
#
# Compressibility (1/GPa) = 0.03477199
#
# Stress axis : x y z
#
# Youngs Moduli (GPa) = 90.03096 33.49050 84.87480
#
# Poissons Ratio (x) = 0.14173 0.30828
# Poissons Ratio (y) = 0.38102 0.09540
# Poissons Ratio (z) = 0.32701 0.03764
#
# Static dielectric constant tensor:
#      x y z
#    x 1.869840 0.000000 -0.001860 
#    y 0.000000 1.866430 0.000000 
#    z -0.001860 0.000000 1.894340 
# 
# From -- ./inp_files/194417.got.cif
#   From: 2010.05.17/outbox.cif.g08.bks.cpg/sg12_98_cif.got.tgz:194417.got - 2010.06.03 13:09:07.
