data_PCOD9207994
_publ_section_title
;
Structure prediction by ZEFSAII (Michael W. Deem and Ramdas Pophale) SiO2 
 PCOD9207994
Probable space group: C 2/M
;
_chemical_formula_sum "Si O2"
_cell_formula_units_Z 40
_cell_length_a 29.498070
_cell_length_b 10.456763
_cell_length_c 15.485959
_cell_angle_alpha 90.000000
_cell_angle_beta 22.433618
_cell_angle_gamma 90.000000
_cell_volume 1822.854003
_symmetry_space_group_name_H-M "C 2/M"
_symmetry_group_IT_number 12
_symmetry_cell_setting 'monoclinic'
loop_
_space_group_symop_operation_xyz
x,y,z
-x,y,-z
-x,-y,-z
x,-y,z
1/2+x,1/2+y,z
1/2-x,1/2+y,-z
1/2-x,1/2-y,-z
1/2+x,1/2-y,z
loop_
_atom_site_type_symbol
_atom_site_label
_atom_site_fract_x
_atom_site_fract_y
_atom_site_fract_z
Si Si1 0.136266 0.000000 0.298642
Si Si2 0.450628 0.856657 0.849309
Si Si3 0.370641 0.861222 0.185319
Si Si4 0.266661 0.764522 0.816298
Si Si5 0.210489 0.351093 0.417605
Si Si6 0.645702 0.000000 0.227884
O O1 0.158633 0.131979 0.312641
O O2 0.000000 0.000000 0.500000
O O3 0.252692 0.000000 0.029024
O O4 0.576025 0.801004 0.655739
O O5 0.470886 0.000000 0.778007
O O6 0.384241 0.869693 0.057480
O O7 0.370135 0.776873 0.926500
O O8 0.291795 0.736309 0.333976
O O9 0.322632 0.000000 0.298780
O O10 0.500000 0.847978 0.000000
O O11 0.260537 0.833963 0.734357
O O12 0.318093 0.867475 0.790019
O O13 0.214106 0.500000 0.434503
O O14 0.500000 0.000000 0.500000
#
# Coordination Sequence:
#
# PCOD9207994 Si02
#       6
#     4   8   8   8   8   4
#     4  12  28  44  66  96 123 162 211 262 320 372
#     4   9  19  37  62  84 117 165 201 244 308 367
#     4   9  19  37  58  88 123 156 200 253 306 362
#     4  11  23  42  62  88 124 160 205 258 304 381
#     4  10  21  37  61  87 117 165 205 245 309 370
#     4  12  28  44  66  92 127 166 203 258 326 378
#
# _framework density 21.943611000000001
#
# number of rings (size 3 to 8) (size 9 to 14) (size 15 to 20)
#    0.000    1.800    2.000    1.200    7.000    1.200 
#    1.800    0.000    0.000    0.000    0.000    0.000 
#    0.000    0.000    0.000    0.000    0.000    0.000 
#
# Total GULP energy -111377.599091 kJ/mol
# GULP energy per Si atom -5568.879955 kJ/mol
# Density = 2.189367 g / cm^3
# Si number density = 21.943611 Si / 1000 Ang^3
#
#
#
# Elastic Constant Matrix: (Units=GPa)
#
#
# Indices 1 2 3 4 5 6 
#
# 1 53.9075 34.6843 27.5373 0.0000 -12.7207 0.0000
# 2 34.6843 139.7862 55.2278 0.0000 -44.4371 0.0000
# 3 27.5373 55.2278 99.4314 0.0000 -33.9446 0.0000
# 4 0.0000 0.0000 0.0000 -299.6463 0.0000 641.8319
# 5 -12.7207 -44.4371 -33.9446 0.0000 44.3117 0.0000
# 6 0.0000 0.0000 0.0000 641.8319 0.0000-1328.7528
#
#
#
# Elastic Compliance Matrix: (Units=1/GPa)
#
#
# Indices 1 2 3 4 5 6 
#
# 1 0.023376 -0.004405 -0.004393 0.000000 -0.001073 0.000000
# 2 -0.004405 0.012052 -0.002410 0.000000 0.008976 0.000000
# 3 -0.004393 -0.002410 0.015379 0.000000 0.008103 0.000000
# 4 0.000000 0.000000 0.000000 0.096340 0.000000 0.046535
# 5 -0.001073 0.008976 0.008103 0.000000 0.037467 0.000000
# 6 0.000000 0.000000 0.000000 0.046535 0.000000 0.021726
#
#
# Mechanical properties :
#
#
# Convention : Reuss Voigt Hill
#
# Bulk Modulus (GPa) = 35.22431 58.66930 46.94680
# Shear Modulus (GPa) = 20.98902 -305.10576 -142.05837
#
# Velocity S-wave (km/s) = 3.09609 -11.80435 -8.05472
# Velocity P-wave (km/s) = 5.37290 12.60935 8.06622
#
# Compressibility (1/GPa) = 0.02838948
#
# Stress axis : x y z
#
# Youngs Moduli (GPa) = 42.77942 82.97147 65.02533
#
# Poissons Ratio (x) = 0.36552 0.28566
# Poissons Ratio (y) = 0.18846 0.15672
# Poissons Ratio (z) = 0.18793 0.19997
#
# Static dielectric constant tensor:
#      x y z
#    x 1.891150 0.000000 0.065730 
#    y 0.000000 1.832330 0.000000 
#    z 0.065730 0.000000 1.885700 
# 
# From -- ./inp_files/202913.got.cif
#   From: 2010.05.17/outbox.cif.g08.bks.cpg/sg12_102_cif.got.tgz:202913.got - 2010.06.03 13:09:07.
