data_PCOD9207270
_publ_section_title
;
Structure prediction by ZEFSAII (Michael W. Deem and Ramdas Pophale) SiO2 
 PCOD9207270
Probable space group: C 2/M
;
_chemical_formula_sum "Si O2"
_cell_formula_units_Z 64
_cell_length_a 14.575858
_cell_length_b 17.969597
_cell_length_c 16.836103
_cell_angle_alpha 90.000000
_cell_angle_beta 134.202565
_cell_angle_gamma 90.000000
_cell_volume 3161.259437
_symmetry_space_group_name_H-M "C 2/M"
_symmetry_group_IT_number 12
_symmetry_cell_setting 'monoclinic'
loop_
_space_group_symop_operation_xyz
x,y,z
-x,y,-z
-x,-y,-z
x,-y,z
1/2+x,1/2+y,z
1/2-x,1/2+y,-z
1/2-x,1/2-y,-z
1/2+x,1/2-y,z
loop_
_atom_site_type_symbol
_atom_site_label
_atom_site_fract_x
_atom_site_fract_y
_atom_site_fract_z
Si Si1 0.751315 0.844990 0.163584
Si Si2 0.196654 0.680786 0.813584
Si Si3 0.772892 0.585642 0.016557
Si Si4 0.514314 0.587907 0.601774
Si Si5 0.580311 0.084218 0.182417
Si Si6 0.866048 0.414951 0.378521
Si Si7 0.400919 0.200511 0.671489
Si Si8 0.784378 0.142350 0.572096
O O1 0.726470 0.757119 0.150093
O O2 0.634419 0.891386 0.130232
O O3 0.871405 0.864965 0.291400
O O4 0.780803 0.871993 0.092415
O O5 0.252012 0.628827 0.916625
O O6 0.176831 0.635827 0.720418
O O7 0.053352 0.704172 0.754302
O O8 0.729836 0.500000 0.993354
O O9 0.927058 0.585162 0.096900
O O10 0.500000 0.605265 0.500000
O O11 0.542523 0.500000 0.626415
O O12 0.387230 0.607299 0.574478
O O13 0.630213 0.144566 0.275664
O O14 0.623780 0.000000 0.227123
O O15 0.883587 0.500000 0.361400
O O16 0.761770 0.409937 0.385238
O O17 0.000000 0.390686 0.500000
O O18 0.337388 0.166347 0.554211
O O19 0.342657 0.282311 0.644668
#
# Coordination Sequence:
#
# PCOD9207270 Si02
#       8
#     8   8   8   8   8   8   8   8
#     4  12  22  38  61  90 122 157 201 247 304 370
#     4  11  22  40  60  89 121 158 200 251 305 360
#     4  10  22  40  64  89 119 155 200 254 307 359
#     4  11  24  39  59  90 127 165 201 244 304 368
#     4  10  21  37  61  90 119 152 197 252 309 361
#     4  11  23  38  61  88 119 159 205 252 299 353
#     4  10  21  37  57  86 120 158 199 247 300 358
#     4  11  21  39  58  86 121 163 206 248 295 361
#
# _framework density 20.245096
#
# number of rings (size 3 to 8) (size 9 to 14) (size 15 to 20)
#    0.000    1.250    2.500    4.125    0.000    5.000 
#    0.000    0.000    0.000    0.000    0.000    2.625 
#    0.000    0.000    0.000    0.000    0.000    0.000 
#
# Total GULP energy -178895.859074 kJ/mol
# GULP energy per Si atom -5590.495596 kJ/mol
# Density = 2.019902 g / cm^3
# Si number density = 20.245096 Si / 1000 Ang^3
#
#
#
# Elastic Constant Matrix: (Units=GPa)
#
#
# Indices 1 2 3 4 5 6 
#
# 1 67.5739 16.0005 13.1435 0.0000 -20.4071 0.0000
# 2 16.0005 109.0465 48.8944 0.0000 -30.5565 0.0000
# 3 13.1435 48.8944 76.2515 0.0000 -31.9392 0.0000
# 4 0.0000 0.0000 0.0000 19.9037 0.0000 -16.5305
# 5 -20.4071 -30.5565 -31.9392 0.0000 28.1274 0.0000
# 6 0.0000 0.0000 0.0000 -16.5305 0.0000 17.0966
#
#
#
# Elastic Compliance Matrix: (Units=1/GPa)
#
#
# Indices 1 2 3 4 5 6 
#
# 1 0.019938 0.000734 0.004740 0.000000 0.020646 0.000000
# 2 0.000734 0.014149 -0.004840 0.000000 0.010408 0.000000
# 3 0.004740 -0.004840 0.027918 0.000000 0.029882 0.000000
# 4 0.000000 0.000000 0.000000 0.255062 0.000000 0.246615
# 5 0.020646 0.010408 0.029882 0.000000 0.095771 0.000000
# 6 0.000000 0.000000 0.000000 0.246615 0.000000 0.296939
#
#
# Mechanical properties :
#
#
# Convention : Reuss Voigt Hill
#
# Bulk Modulus (GPa) = 15.80422 45.43876 30.62149
# Shear Modulus (GPa) = 6.85309 24.68111 15.76710
#
# Velocity S-wave (km/s) = 1.84185 3.49537 2.79375
# Velocity P-wave (km/s) = 3.51377 6.22762 5.05618
#
# Compressibility (1/GPa) = 0.06327425
#
# Stress axis : x y z
#
# Youngs Moduli (GPa) = 50.15630 70.67490 35.81978
#
# Poissons Ratio (x) = -0.05190 -0.16980
# Poissons Ratio (y) = -0.03683 0.17336
# Poissons Ratio (z) = -0.23775 0.34205
#
# Static dielectric constant tensor:
#      x y z
#    x 1.717630 0.000000 0.011060 
#    y 0.000000 1.705530 0.000000 
#    z 0.011060 0.000000 1.702510 
# 
# From -- ./inp_files/216809.got.cif
#   From: 2010.05.17/outbox.cif.g08.bks.cpg/sg12_109_cif.got.tgz:216809.got - 2010.06.03 13:09:07.
