data_PCOD9207419
_publ_section_title
;
Structure prediction by ZEFSAII (Michael W. Deem and Ramdas Pophale) SiO2 
 PCOD9207419
Probable space group: C 2/M
;
_chemical_formula_sum "Si O2"
_cell_formula_units_Z 48
_cell_length_a 14.879198
_cell_length_b 18.292781
_cell_length_c 14.423450
_cell_angle_alpha 90.000000
_cell_angle_beta 137.414720
_cell_angle_gamma 90.000000
_cell_volume 2656.538649
_symmetry_space_group_name_H-M "C 2/M"
_symmetry_group_IT_number 12
_symmetry_cell_setting 'monoclinic'
loop_
_space_group_symop_operation_xyz
x,y,z
-x,y,-z
-x,-y,-z
x,-y,z
1/2+x,1/2+y,z
1/2-x,1/2+y,-z
1/2-x,1/2-y,-z
1/2+x,1/2-y,z
loop_
_atom_site_type_symbol
_atom_site_label
_atom_site_fract_x
_atom_site_fract_y
_atom_site_fract_z
Si Si1 0.849180 0.914611 0.910780
Si Si2 0.052603 0.781936 0.329679
Si Si3 0.604151 0.180458 0.653201
Si Si4 0.353505 0.914366 0.863621
Si Si5 0.752725 0.298628 0.645804
Si Si6 0.863146 0.916625 0.141034
O O1 0.728185 0.870282 0.773500
O O2 0.841994 0.000000 0.877073
O O3 0.830279 0.910657 0.007392
O O4 0.000000 0.889370 0.000000
O O5 0.122423 0.749451 0.292027
O O6 0.165490 0.809277 0.487258
O O7 0.974120 0.714868 0.318982
O O8 0.962298 0.851230 0.239736
O O9 0.500000 0.146444 0.500000
O O10 0.663602 0.250804 0.646485
O O11 0.295061 0.870065 0.733139
O O12 0.260791 0.907718 0.883742
O O13 0.362745 0.000000 0.847085
O O14 0.500000 0.886791 0.000000
O O15 0.915296 0.000000 0.195215
#
# Coordination Sequence:
#
# PCOD9207419 Si02
#       6
#     8   8   8   8   8   8
#     4  10  22  39  59  84 116 152 193 242 291 341
#     4  10  21  37  58  85 115 148 191 235 287 345
#     4  10  21  38  58  84 115 149 193 239 288 345
#     4  10  22  38  57  84 118 152 191 237 288 347
#     4  10  21  38  57  82 117 151 185 239 290 339
#     4  10  21  38  60  85 114 149 191 238 285 343
#
# _framework density 18.068625000000001
#
# number of rings (size 3 to 8) (size 9 to 14) (size 15 to 20)
#    0.000    2.000    1.667    1.000    2.333    3.667 
#    0.000    1.667    0.000    6.000    0.000    0.000 
#    0.000    0.000    0.000    0.000    0.000    0.000 
#
# Total GULP energy -133860.736444 kJ/mol
# GULP energy per Si atom -5577.530685 kJ/mol
# Density = 1.802750 g / cm^3
# Si number density = 18.068625 Si / 1000 Ang^3
#
#
#
# Elastic Constant Matrix: (Units=GPa)
#
#
# Indices 1 2 3 4 5 6 
#
# 1 71.0011 15.1805 20.0995 0.0000 6.3538 0.0000
# 2 15.1805 61.3899 60.6532 0.0000 8.2132 0.0000
# 3 20.0995 60.6532 104.4690 0.0000 14.0859 0.0000
# 4 0.0000 0.0000 0.0000 36.0460 0.0000 12.5075
# 5 6.3538 8.2132 14.0859 0.0000 25.7087 0.0000
# 6 0.0000 0.0000 0.0000 12.5075 0.0000 33.0135
#
#
#
# Elastic Compliance Matrix: (Units=1/GPa)
#
#
# Indices 1 2 3 4 5 6 
#
# 1 0.015127 -0.002026 -0.001422 0.000000 -0.002312 0.000000
# 2 -0.002026 0.038475 -0.021982 0.000000 0.000253 0.000000
# 3 -0.001422 -0.021982 0.023338 0.000000 -0.005413 0.000000
# 4 0.000000 0.000000 0.000000 0.031941 0.000000 -0.012101
# 5 -0.002312 0.000253 -0.005413 0.000000 0.042354 0.000000
# 6 0.000000 0.000000 0.000000 -0.012101 0.000000 0.034875
#
#
# Mechanical properties :
#
#
# Convention : Reuss Voigt Hill
#
# Bulk Modulus (GPa) = 38.34520 47.63628 42.99074
# Shear Modulus (GPa) = 20.35289 28.34875 24.35082
#
# Velocity S-wave (km/s) = 3.35986 3.96529 3.67507
# Velocity P-wave (km/s) = 6.02658 6.88375 6.46938
#
# Compressibility (1/GPa) = 0.02607888
#
# Stress axis : x y z
#
# Youngs Moduli (GPa) = 66.10685 25.99086 42.84780
#
# Poissons Ratio (x) = 0.05266 0.06095
# Poissons Ratio (y) = 0.13393 0.94190
# Poissons Ratio (z) = 0.09403 0.57134
#
# Static dielectric constant tensor:
#      x y z
#    x 1.622310 0.000000 0.011190 
#    y 0.000000 1.597930 0.000000 
#    z 0.011190 0.000000 1.623250 
# 
# From -- ./inp_files/106593.got.cif
#   From: 2010.05.17/outbox.cif.g08.bks.cpg/sg12_54_cif.got.tgz:106593.got - 2010.06.03 13:09:07.
