data_PCOD9207324
_publ_section_title
;
Structure prediction by ZEFSAII (Michael W. Deem and Ramdas Pophale) SiO2 
 PCOD9207324
Probable space group: C 2/M
;
_chemical_formula_sum "Si O2"
_cell_formula_units_Z 56
_cell_length_a 18.728116
_cell_length_b 14.410703
_cell_length_c 12.167551
_cell_angle_alpha 90.000000
_cell_angle_beta 59.771329
_cell_angle_gamma 90.000000
_cell_volume 2837.316132
_symmetry_space_group_name_H-M "C 2/M"
_symmetry_group_IT_number 12
_symmetry_cell_setting 'monoclinic'
loop_
_space_group_symop_operation_xyz
x,y,z
-x,y,-z
-x,-y,-z
x,-y,z
1/2+x,1/2+y,z
1/2-x,1/2+y,-z
1/2-x,1/2-y,-z
1/2+x,1/2-y,z
loop_
_atom_site_type_symbol
_atom_site_label
_atom_site_fract_x
_atom_site_fract_y
_atom_site_fract_z
Si Si1 0.638217 0.889967 0.438815
Si Si2 0.704982 0.390656 0.530093
Si Si3 0.743168 0.392233 0.251612
Si Si4 0.030299 0.599687 0.852431
Si Si5 0.870321 0.737526 0.765336
Si Si6 0.342765 0.102162 0.961989
Si Si7 0.558371 0.755389 0.669593
O O1 0.728311 0.873765 0.425284
O O2 0.629130 0.841870 0.328535
O O3 0.576570 0.835826 0.566885
O O4 0.623515 0.000000 0.446920
O O5 0.683600 0.500000 0.549623
O O6 0.747625 0.371532 0.378214
O O7 0.624299 0.326420 0.603005
O O8 0.718074 0.500000 0.264257
O O9 0.676504 0.324294 0.250481
O O10 0.821061 0.383511 0.107737
O O11 0.074263 0.500000 0.798511
O O12 0.070923 0.692031 0.775653
O O13 0.940750 0.595824 0.863524
O O14 0.000000 0.603925 0.000000
O O15 0.821139 0.689303 0.903809
O O16 0.962351 0.770171 0.728459
O O17 0.307215 0.000000 0.960555
#
# Coordination Sequence:
#
# PCOD9207324 Si02
#       7
#     8   8   8   8   8   8   8
#     4  11  23  37  57  84 116 152 189 234 287 343
#     4  10  23  40  59  85 114 153 199 238 277 331
#     4  10  21  37  58  82 112 151 196 237 277 330
#     4   9  19  33  54  84 114 147 186 234 290 342
#     4  11  22  36  57  86 117 150 188 234 291 346
#     4   9  19  35  54  80 114 147 186 237 287 339
#     4  11  22  37  57  85 118 151 187 236 292 342
#
# _framework density 19.736961999999998
#
# number of rings (size 3 to 8) (size 9 to 14) (size 15 to 20)
#    0.000    1.857    1.429    2.143    2.000    2.857 
#    0.000    1.429    0.000    0.429    0.000    0.000 
#    0.000    0.000    0.000    0.000    0.000    0.000 
#
# Total GULP energy -156152.083831 kJ/mol
# GULP energy per Si atom -5576.860137 kJ/mol
# Density = 1.969204 g / cm^3
# Si number density = 19.736962 Si / 1000 Ang^3
#
#
#
# Elastic Constant Matrix: (Units=GPa)
#
#
# Indices 1 2 3 4 5 6 
#
# 1 73.2478 42.9427 20.4371 0.0000 -6.3115 0.0000
# 2 42.9427 86.7955 34.5223 0.0000 -8.9279 0.0000
# 3 20.4371 34.5223 73.8761 0.0000 2.4614 0.0000
# 4 0.0000 0.0000 0.0000 37.0787 0.0000 1.9052
# 5 -6.3115 -8.9279 2.4614 0.0000 30.6343 0.0000
# 6 0.0000 0.0000 0.0000 1.9052 0.0000 18.9758
#
#
#
# Elastic Compliance Matrix: (Units=1/GPa)
#
#
# Indices 1 2 3 4 5 6 
#
# 1 0.019364 -0.008939 -0.001229 0.000000 0.001483 0.000000
# 2 -0.008939 0.018977 -0.006535 0.000000 0.004214 0.000000
# 3 -0.001229 -0.006535 0.017048 0.000000 -0.003528 0.000000
# 4 0.000000 0.000000 0.000000 0.027110 0.000000 -0.002722
# 5 0.001483 0.004214 -0.003528 0.000000 0.034460 0.000000
# 6 0.000000 0.000000 0.000000 -0.002722 0.000000 0.052972
#
#
# Mechanical properties :
#
#
# Convention : Reuss Voigt Hill
#
# Bulk Modulus (GPa) = 45.49289 47.74706 46.61998
# Shear Modulus (GPa) = 23.73453 26.40557 25.07005
#
# Velocity S-wave (km/s) = 3.47153 3.66166 3.56786
# Velocity P-wave (km/s) = 6.25846 6.49009 6.37533
#
# Compressibility (1/GPa) = 0.02198146
#
# Stress axis : x y z
#
# Youngs Moduli (GPa) = 51.64340 52.69591 58.65894
#
# Poissons Ratio (x) = 0.47104 0.07209
# Poissons Ratio (y) = 0.46164 0.38336
# Poissons Ratio (z) = 0.06347 0.34439
#
# Static dielectric constant tensor:
#      x y z
#    x 1.750120 0.000000 0.012500 
#    y 0.000000 1.708340 0.000000 
#    z 0.012500 0.000000 1.728660 
# 
# From -- ./inp_files/156529.got.cif
#   From: 2010.05.17/outbox.cif.g08.bks.cpg/sg12_79_cif.got.tgz:156529.got - 2010.06.03 13:09:07.
