data_PCOD9207966
_publ_section_title
;
Structure prediction by ZEFSAII (Michael W. Deem and Ramdas Pophale) SiO2 
 PCOD9207966
Probable space group: C 2/M
;
_chemical_formula_sum "Si O2"
_cell_formula_units_Z 36
_cell_length_a 11.300559
_cell_length_b 19.458349
_cell_length_c 10.499165
_cell_angle_alpha 90.000000
_cell_angle_beta 44.758578
_cell_angle_gamma 90.000000
_cell_volume 1625.578697
_symmetry_space_group_name_H-M "C 2/M"
_symmetry_group_IT_number 12
_symmetry_cell_setting 'monoclinic'
loop_
_space_group_symop_operation_xyz
x,y,z
-x,y,-z
-x,-y,-z
x,-y,z
1/2+x,1/2+y,z
1/2-x,1/2+y,-z
1/2-x,1/2-y,-z
1/2+x,1/2-y,z
loop_
_atom_site_type_symbol
_atom_site_label
_atom_site_fract_x
_atom_site_fract_y
_atom_site_fract_z
Si Si1 0.156810 0.500000 0.123092
Si Si2 0.294526 0.614886 0.833671
Si Si3 0.176940 0.857398 0.613637
Si Si4 0.293912 0.728160 0.656487
Si Si5 0.196832 0.500000 0.374297
Si Si6 0.343868 0.000000 0.220830
O O1 0.252933 0.500000 0.182804
O O2 0.952651 0.500000 0.265782
O O3 0.209659 0.570189 0.009325
O O4 0.484000 0.628139 0.728963
O O5 0.232328 0.688259 0.829627
O O6 0.269606 0.564919 0.729516
O O7 0.212730 0.802093 0.697035
O O8 0.251437 0.819199 0.431589
O O9 0.247634 0.930351 0.600926
O O10 0.500000 0.733959 0.500000
O O11 0.000000 0.500000 0.500000
O O12 0.500000 0.000000 0.000000
#
# Coordination Sequence:
#
# PCOD9207966 Si02
#       6
#     4   8   8   8   4   4
#     4  10  23  41  60  86 124 154 203 262 296 356
#     4   9  18  37  66  83 112 164 196 245 304 339
#     4  10  21  37  60  94 122 157 199 250 295 363
#     4   9  19  37  61  90 127 158 200 247 296 354
#     4  12  26  38  60  89 120 161 197 246 322 368
#     4   8  17  35  59  81 113 151 196 248 291 344
#
# _framework density 22.145959999999999
#
# number of rings (size 3 to 8) (size 9 to 14) (size 15 to 20)
#    0.000    2.667    0.000    2.000    3.111    2.667 
#    0.000    9.444    9.778    0.000    0.000    0.000 
#    0.000    0.000    0.000    0.000    0.000    0.000 
#
# Total GULP energy -100321.193563 kJ/mol
# GULP energy per Si atom -5573.399642 kJ/mol
# Density = 2.209555 g / cm^3
# Si number density = 22.145960 Si / 1000 Ang^3
#
#
#
# Elastic Constant Matrix: (Units=GPa)
#
#
# Indices 1 2 3 4 5 6 
#
# 1 129.8289 89.7124 24.2106 -0.0001 -10.5643 0.0000
# 2 89.7124 212.6365 44.6556 0.0000 -2.9249 0.0000
# 3 24.2106 44.6556 34.9449 0.0000 8.8002 0.0000
# 4 -0.0001 0.0000 0.0000 104.5592 0.0000 68.5142
# 5 -10.5643 -2.9249 8.8002 0.0000 12.8273 0.0000
# 6 0.0000 0.0000 0.0000 68.5142 0.0000 116.0489
#
#
#
# Elastic Compliance Matrix: (Units=1/GPa)
#
#
# Indices 1 2 3 4 5 6 
#
# 1 0.012965 -0.003465 -0.008515 0.000000 0.015729 0.000000
# 2 -0.003465 0.008244 -0.009537 0.000000 0.005569 0.000000
# 3 -0.008515 -0.009537 0.059253 0.000000 -0.049838 0.000000
# 4 0.000000 0.000000 0.000000 0.015598 0.000000 -0.009209
# 5 0.015729 0.005569 -0.049838 0.000000 0.126374 0.000000
# 6 0.000000 0.000000 0.000000 -0.009209 0.000000 0.014054
#
#
# Mechanical properties :
#
#
# Convention : Reuss Voigt Hill
#
# Bulk Modulus (GPa) = 26.71777 77.17417 51.94597
# Shear Modulus (GPa) = 17.12334 61.27586 39.19960
#
# Velocity S-wave (km/s) = 2.78367 5.26585 4.21177
# Velocity P-wave (km/s) = 4.73522 8.47914 6.86725
#
# Compressibility (1/GPa) = 0.03742827
#
# Stress axis : x y z
#
# Youngs Moduli (GPa) = 77.13193 121.29615 16.87665
#
# Poissons Ratio (x) = 0.42033 0.14371
# Poissons Ratio (y) = 0.26729 0.16095
# Poissons Ratio (z) = 0.65679 1.15677
#
# Static dielectric constant tensor:
#      x y z
#    x 1.864070 0.000000 0.116240 
#    y 0.000000 1.729790 0.000000 
#    z 0.116240 0.000000 1.971380 
# 
# From -- ./inp_files/130833.got.cif
#   From: 2010.05.17/outbox.cif.g08.bks.cpg/sg12_66_cif.got.tgz:130833.got - 2010.06.03 13:09:07.
