data_PCOD9207641
_publ_section_title
;
Structure prediction by ZEFSAII (Michael W. Deem and Ramdas Pophale) SiO2 
 PCOD9207641
Probable space group: C 2/M
;
_chemical_formula_sum "Si O2"
_cell_formula_units_Z 56
_cell_length_a 19.053547
_cell_length_b 9.245501
_cell_length_c 25.438478
_cell_angle_alpha 90.000000
_cell_angle_beta 40.068933
_cell_angle_gamma 90.000000
_cell_volume 2884.608247
_symmetry_space_group_name_H-M "C 2/M"
_symmetry_group_IT_number 12
_symmetry_cell_setting 'monoclinic'
loop_
_space_group_symop_operation_xyz
x,y,z
-x,y,-z
-x,-y,-z
x,-y,z
1/2+x,1/2+y,z
1/2-x,1/2+y,-z
1/2-x,1/2-y,-z
1/2+x,1/2-y,z
loop_
_atom_site_type_symbol
_atom_site_label
_atom_site_fract_x
_atom_site_fract_y
_atom_site_fract_z
Si Si1 0.713362 0.827037 0.686679
Si Si2 0.908174 0.826641 0.009128
Si Si3 0.288275 0.164595 0.427668
Si Si4 0.323567 0.673582 0.845260
Si Si5 0.010288 0.172911 0.155511
Si Si6 0.031842 0.665387 0.320569
Si Si7 0.951314 0.828979 0.585264
O O1 0.744673 0.775585 0.609981
O O2 0.604167 0.750523 0.768022
O O3 0.820867 0.804835 0.659483
O O4 0.694227 0.000000 0.694141
O O5 0.950079 0.794554 0.926209
O O6 0.888842 0.000000 0.023767
O O7 0.795719 0.742618 0.082244
O O8 0.000000 0.789882 0.000000
O O9 0.250000 0.250000 0.500000
O O10 0.419346 0.163614 0.352818
O O11 0.248021 0.000000 0.455076
O O12 0.317340 0.500000 0.846057
O O13 0.398548 0.712724 0.853111
O O14 0.383141 0.737725 0.759940
O O15 0.994423 0.000000 0.168655
O O16 0.070398 0.500000 0.303862
O O17 0.004537 0.733750 0.392657
O O18 0.000000 0.794365 0.500000
O O19 0.971926 0.000000 0.582238
#
# Coordination Sequence:
#
# PCOD9207641 Si02
#       7
#     8   8   8   8   8   8   8
#     4  10  21  38  60  87 119 159 202 246 298 355
#     4  10  23  42  64  92 125 158 195 243 302 360
#     4  10  21  37  59  87 117 155 201 247 298 350
#     4  11  23  40  63  91 122 159 204 248 297 356
#     4  10  22  40  62  90 122 160 200 243 298 356
#     4  11  23  39  61  88 121 160 203 251 304 360
#     4  10  22  40  61  86 122 164 204 252 307 360
#
# _framework density 19.413381000000001
#
# number of rings (size 3 to 8) (size 9 to 14) (size 15 to 20)
#    0.000    1.714    1.429    2.143    2.000    5.143 
#    0.000    0.000    0.000    0.000    0.000    0.000 
#    0.000    0.000    0.000    0.000    0.000    0.000 
#
# Total GULP energy -156423.635236 kJ/mol
# GULP energy per Si atom -5586.558401 kJ/mol
# Density = 1.936920 g / cm^3
# Si number density = 19.413381 Si / 1000 Ang^3
#
#
#
# Elastic Constant Matrix: (Units=GPa)
#
#
# Indices 1 2 3 4 5 6 
#
# 1 90.9366 30.2034 26.1733 0.0000 -1.2365 0.0000
# 2 30.2034 41.5168 37.0562 0.0000 -0.6803 -0.0001
# 3 26.1733 37.0562 99.0518 0.0000 -5.7934 0.0000
# 4 0.0000 0.0000 0.0000 35.2359 0.0000 -2.5963
# 5 -1.2365 -0.6803 -5.7934 0.0000 36.2363 0.0000
# 6 0.0000 -0.0001 0.0000 -2.5963 0.0000 24.1621
#
#
#
# Elastic Compliance Matrix: (Units=1/GPa)
#
#
# Indices 1 2 3 4 5 6 
#
# 1 0.014506 -0.010725 0.000198 0.000000 0.000325 0.000000
# 2 -0.010725 0.044171 -0.013793 0.000000 -0.001742 0.000000
# 3 0.000198 -0.013793 0.015332 0.000000 0.002199 0.000000
# 4 0.000000 0.000000 0.000000 0.028607 0.000000 0.003074
# 5 0.000325 -0.001742 0.002199 0.000000 0.027927 0.000000
# 6 0.000000 0.000000 0.000000 0.003074 0.000000 0.041717
#
#
# Mechanical properties :
#
#
# Convention : Reuss Voigt Hill
#
# Bulk Modulus (GPa) = 39.41576 46.48568 42.95072
# Shear Modulus (GPa) = 21.80017 28.33168 25.06593
#
# Velocity S-wave (km/s) = 3.35467 3.82434 3.59718
# Velocity P-wave (km/s) = 5.94580 6.59530 6.27895
#
# Compressibility (1/GPa) = 0.02537056
#
# Stress axis : x y z
#
# Youngs Moduli (GPa) = 68.93624 22.63911 65.22295
#
# Poissons Ratio (x) = 0.24280 -0.01293
# Poissons Ratio (y) = 0.73933 0.89961
# Poissons Ratio (z) = -0.01366 0.31226
#
# Static dielectric constant tensor:
#      x y z
#    x 1.684650 0.000000 -0.003640 
#    y 0.000000 1.614190 0.000000 
#    z -0.003640 0.000000 1.654920 
# 
# From -- ./inp_files/230921.got.cif
#   From: 2010.05.17/outbox.cif.g08.bks.cpg/sg12_116_cif.got.tgz:230921.got - 2010.06.03 13:09:07.
