data_PCOD9207986
_publ_section_title
;
Structure prediction by ZEFSAII (Michael W. Deem and Ramdas Pophale) SiO2 
 PCOD9207986
Probable space group: C 2/M
;
_chemical_formula_sum "Si O2"
_cell_formula_units_Z 58
_cell_length_a 25.708579
_cell_length_b 9.465964
_cell_length_c 21.023144
_cell_angle_alpha 90.000000
_cell_angle_beta 146.045226
_cell_angle_gamma 90.000000
_cell_volume 2857.548246
_symmetry_space_group_name_H-M "C 2/M"
_symmetry_group_IT_number 12
_symmetry_cell_setting 'monoclinic'
loop_
_space_group_symop_operation_xyz
x,y,z
-x,y,-z
-x,-y,-z
x,-y,z
1/2+x,1/2+y,z
1/2-x,1/2+y,-z
1/2-x,1/2-y,-z
1/2+x,1/2-y,z
loop_
_atom_site_type_symbol
_atom_site_label
_atom_site_fract_x
_atom_site_fract_y
_atom_site_fract_z
Si Si1 0.976738 0.661484 0.837322
Si Si2 0.649215 0.668788 0.041583
Si Si3 0.663450 0.170129 0.189372
Si Si4 0.341924 0.161929 0.579254
Si Si5 0.671996 0.659960 0.795312
Si Si6 0.034685 0.842361 0.386790
Si Si7 0.131070 0.770239 0.609384
Si Si8 0.500000 0.000000 0.500000
O O1 0.013485 0.500000 0.880595
O O2 0.915527 0.691918 0.838011
O O3 0.907389 0.665588 0.707667
O O4 0.059986 0.771700 0.914203
O O5 0.650959 0.500000 0.048134
O O6 0.641714 0.744635 0.103083
O O7 0.745255 0.729978 0.110282
O O8 0.764654 0.226359 0.314219
O O9 0.669586 0.000000 0.184376
O O10 0.250000 0.250000 0.500000
O O11 0.400697 0.230950 0.582391
O O12 0.318443 0.000000 0.541143
O O13 0.699417 0.500000 0.840634
O O14 0.573954 0.696152 0.728435
O O15 0.648859 0.661669 0.696352
O O16 0.064883 0.844348 0.491197
O O17 0.048461 0.000000 0.374436
O O18 0.080630 0.622672 0.571596
#
# Coordination Sequence:
#
# PCOD9207986 Si02
#       8
#     8   8   8   8   8   8   8   2
#     4  10  22  44  63  82 114 157 200 238 287 352
#     4  11  23  36  59  92 124 149 188 243 298 348
#     4  10  21  37  61  86 116 159 200 237 288 356
#     4  11  25  43  65  89 118 155 198 247 297 348
#     4  10  21  38  60  86 118 162 199 235 289 357
#     4  11  22  38  61  87 118 157 205 248 292 354
#     4  11  21  35  56  85 127 159 196 238 296 356
#     4  12  24  32  50  92 130 164 190 248 306 344
#
# _framework density 20.29712
#
# number of rings (size 3 to 8) (size 9 to 14) (size 15 to 20)
#    0.000    1.379    1.379    4.966    4.828    6.069 
#    0.000    0.690    0.000    0.000    0.000    0.000 
#    0.000    0.000    0.000    0.000    0.000    0.000 
#
# Total GULP energy -161728.500137 kJ/mol
# GULP energy per Si atom -5576.844832 kJ/mol
# Density = 2.025092 g / cm^3
# Si number density = 20.297120 Si / 1000 Ang^3
#
#
#
# Elastic Constant Matrix: (Units=GPa)
#
#
# Indices 1 2 3 4 5 6 
#
# 1 44.7667 51.1436 19.9292 0.0000 25.1694 0.0000
# 2 51.1436 172.7815 66.9369 0.0000 34.8653 0.0000
# 3 19.9292 66.9369 90.8839 0.0000 31.9340 0.0000
# 4 0.0000 0.0000 0.0000 29.9468 0.0000 21.0466
# 5 25.1694 34.8653 31.9340 0.0000 27.7636 0.0000
# 6 0.0000 0.0000 0.0000 21.0466 0.0000 5.2593
#
#
#
# Elastic Compliance Matrix: (Units=1/GPa)
#
#
# Indices 1 2 3 4 5 6 
#
# 1 0.064661 -0.013416 0.017419 0.000000 -0.061807 0.000000
# 2 -0.013416 0.011427 -0.007897 0.000000 0.006896 0.000000
# 3 0.017419 -0.007897 0.025281 0.000000 -0.034953 0.000000
# 4 0.000000 0.000000 0.000000 -0.018424 0.000000 0.073729
# 5 -0.061807 0.006896 -0.034953 0.000000 0.123594 0.000000
# 6 0.000000 0.000000 0.000000 0.073729 0.000000 -0.104908
#
#
# Mechanical properties :
#
#
# Convention : Reuss Voigt Hill
#
# Bulk Modulus (GPa) = 10.68596 64.93907 37.81251
# Shear Modulus (GPa) = 35.55904 23.95544 29.75724
#
# Velocity S-wave (km/s) = 4.19014 3.43919 3.83310
# Velocity P-wave (km/s) = 5.35592 6.91624 6.18548
#
# Compressibility (1/GPa) = 0.09358075
#
# Stress axis : x y z
#
# Youngs Moduli (GPa) = 15.46538 87.51470 39.55500
#
# Poissons Ratio (x) = 1.17411 -0.68903
# Poissons Ratio (y) = 0.20749 0.31237
# Poissons Ratio (z) = -0.26940 0.69112
#
# Static dielectric constant tensor:
#      x y z
#    x 1.731730 0.000000 0.001130 
#    y 0.000000 1.697690 0.000000 
#    z 0.001130 0.000000 1.741600 
# 
# From -- ./inp_files/351466.got.cif
#   From: 2010.05.17/outbox.cif.g08.bks.cpg/sg12_176_cif.got.tgz:351466.got - 2010.06.03 13:09:07.
