data_PCOD9207288
_publ_section_title
;
Structure prediction by ZEFSAII (Michael W. Deem and Ramdas Pophale) SiO2 
 PCOD9207288
Probable space group: C 2/M
;
_chemical_formula_sum "Si O2"
_cell_formula_units_Z 48
_cell_length_a 20.785536
_cell_length_b 21.254634
_cell_length_c 5.148329
_cell_angle_alpha 90.000000
_cell_angle_beta 97.931397
_cell_angle_gamma 90.000000
_cell_volume 2252.717283
_symmetry_space_group_name_H-M "C 2/M"
_symmetry_group_IT_number 12
_symmetry_cell_setting 'monoclinic'
loop_
_space_group_symop_operation_xyz
x,y,z
-x,y,-z
-x,-y,-z
x,-y,z
1/2+x,1/2+y,z
1/2-x,1/2+y,-z
1/2-x,1/2-y,-z
1/2+x,1/2-y,z
loop_
_atom_site_type_symbol
_atom_site_label
_atom_site_fract_x
_atom_site_fract_y
_atom_site_fract_z
Si Si1 0.095534 0.428469 0.994378
Si Si2 0.314503 0.763995 0.701009
Si Si3 0.929804 0.654023 0.530456
Si Si4 0.764134 0.611985 0.831554
Si Si5 0.680296 0.378252 0.263668
Si Si6 0.962608 0.924437 0.728486
O O1 0.072922 0.500000 0.949584
O O2 0.090066 0.389307 0.724772
O O3 0.062235 0.390930 0.212954
O O4 0.171468 0.428998 0.118865
O O5 0.250000 0.750000 0.500000
O O6 0.372896 0.796824 0.572425
O O7 0.291650 0.816720 0.893580
O O8 0.334304 0.695222 0.805888
O O9 0.000000 0.682982 0.500000
O O10 0.729925 0.613299 0.532076
O O11 0.713445 0.594380 0.025059
O O12 0.612670 0.408606 0.303171
O O13 0.000000 0.899218 0.500000
O O14 0.968232 0.000000 0.730058
O O15 0.000000 0.899854 0.000000
#
# Coordination Sequence:
#
# PCOD9207288 Si02
#       6
#     8   8   8   8   8   8
#     4  11  23  40  61  85 118 157 196 242 295 349
#     4   9  20  39  61  85 120 156 192 242 300 351
#     4  11  24  40  59  87 120 155 199 247 292 346
#     4  10  21  37  57  88 118 146 192 248 295 343
#     4  11  21  36  62  87 114 155 197 237 295 362
#     4  10  22  40  58  82 119 156 194 243 295 349
#
# _framework density 21.307599
#
# number of rings (size 3 to 8) (size 9 to 14) (size 15 to 20)
#    0.000    1.667    0.000    5.500    0.000    8.000 
#    0.000    3.333    0.000    0.000    0.000    0.000 
#    0.000    0.000    0.000    0.000    0.000    0.000 
#
# Total GULP energy -134080.043809 kJ/mol
# GULP energy per Si atom -5586.668492 kJ/mol
# Density = 2.125910 g / cm^3
# Si number density = 21.307599 Si / 1000 Ang^3
#
#
#
# Elastic Constant Matrix: (Units=GPa)
#
#
# Indices 1 2 3 4 5 6 
#
# 1 140.4419 11.8970 22.0434 0.0000 -21.6359 0.0000
# 2 11.8970 28.3268 9.3810 0.0000 1.9793 0.0000
# 3 22.0434 9.3810 89.0658 0.0000 -10.7342 0.0000
# 4 0.0000 0.0000 0.0000 -71.6335 0.0000 -5.6324
# 5 -21.6359 1.9793 -10.7342 0.0000 41.7221 0.0000
# 6 0.0000 0.0000 0.0000 -5.6324 0.0000 13.2079
#
#
#
# Elastic Compliance Matrix: (Units=1/GPa)
#
#
# Indices 1 2 3 4 5 6 
#
# 1 0.008225 -0.003349 -0.001186 0.000000 0.004119 0.000000
# 2 -0.003349 0.038265 -0.003746 0.000000 -0.004516 0.000000
# 3 -0.001186 -0.003746 0.012243 0.000000 0.002712 0.000000
# 4 0.000000 0.000000 0.000000 -0.013507 0.000000 -0.005760
# 5 0.004119 -0.004516 0.002712 0.000000 0.027016 0.000000
# 6 0.000000 0.000000 0.000000 -0.005760 0.000000 0.073256
#
#
# Mechanical properties :
#
#
# Convention : Reuss Voigt Hill
#
# Bulk Modulus (GPa) = 23.71366 38.27526 30.99446
# Shear Modulus (GPa) = 28.39029 10.96018 19.67523
#
# Velocity S-wave (km/s) = 3.65417 2.27045 3.04203
# Velocity P-wave (km/s) = 5.38120 4.98753 5.18810
#
# Compressibility (1/GPa) = 0.04216978
#
# Stress axis : x y z
#
# Youngs Moduli (GPa) = 121.58273 26.13359 81.68142
#
# Poissons Ratio (x) = 0.08753 0.09691
# Poissons Ratio (y) = 0.40721 0.30595
# Poissons Ratio (z) = 0.14425 0.09789
#
# Static dielectric constant tensor:
#      x y z
#    x 1.770820 0.000000 0.001840 
#    y 0.000000 1.807530 0.000000 
#    z 0.001840 0.000000 1.754000 
# 
# From -- ./inp_files/20964.got.cif
#   From: 2010.05.17/outbox.cif.g08.bks.cpg/sg12_11_cif.got.tgz:20964.got - 2010.06.03 13:09:07.
