data_PCOD9207118
_publ_section_title
;
Structure prediction by ZEFSAII (Michael W. Deem and Ramdas Pophale) SiO2 
 PCOD9207118
Probable space group: C 2/M
;
_chemical_formula_sum "Si O2"
_cell_formula_units_Z 48
_cell_length_a 20.964716
_cell_length_b 8.777599
_cell_length_c 15.187680
_cell_angle_alpha 90.000000
_cell_angle_beta 99.896581
_cell_angle_gamma 90.000000
_cell_volume 2753.246596
_symmetry_space_group_name_H-M "C 2/M"
_symmetry_group_IT_number 12
_symmetry_cell_setting 'monoclinic'
loop_
_space_group_symop_operation_xyz
x,y,z
-x,y,-z
-x,-y,-z
x,-y,z
1/2+x,1/2+y,z
1/2-x,1/2+y,-z
1/2-x,1/2-y,-z
1/2+x,1/2-y,z
loop_
_atom_site_type_symbol
_atom_site_label
_atom_site_fract_x
_atom_site_fract_y
_atom_site_fract_z
Si Si1 0.734263 0.819066 0.270630
Si Si2 0.795710 0.683041 0.935533
Si Si3 0.935515 0.817554 0.931535
Si Si4 0.916541 0.682495 0.737762
Si Si5 0.442729 0.185945 0.549794
Si Si6 0.197073 0.681752 0.553266
O O1 0.733204 0.776465 0.167654
O O2 0.660887 0.790638 0.286867
O O3 0.784086 0.732443 0.344236
O O4 0.745771 0.000000 0.280554
O O5 0.798013 0.500000 0.941602
O O6 0.869216 0.745661 0.953912
O O7 0.750000 0.750000 0.000000
O O8 0.940604 0.763903 0.831438
O O9 0.929627 0.000000 0.933669
O O10 0.000000 0.772143 0.000000
O O11 0.924919 0.500000 0.750670
O O12 0.947780 0.732461 0.653104
O O13 0.500000 0.237935 0.500000
O O14 0.373819 0.233674 0.493847
O O15 0.443246 0.000000 0.550793
O O16 0.199147 0.500000 0.547072
O O17 0.250000 0.750000 0.500000
#
# Coordination Sequence:
#
# PCOD9207118 Si02
#       6
#     8   8   8   8   8   8
#     4   9  18  34  54  80 108 138 175 221 270 316
#     4  10  21  38  60  83 113 146 181 227 279 332
#     4  10  21  37  57  81 111 145 184 230 278 327
#     4   9  17  33  56  78 104 140 182 224 269 323
#     4   9  18  34  53  75 107 140 174 221 269 311
#     4  11  20  32  54  80 106 138 180 222 263 318
#
# _framework density 17.433962000000001
#
# number of rings (size 3 to 8) (size 9 to 14) (size 15 to 20)
#    0.000    2.333    1.667    2.500    0.000    4.667 
#    3.000    0.000    0.000    3.500    0.000    0.000 
#    0.000    0.000    0.000    0.000    0.000    0.000 
#
# Total GULP energy -133884.509215 kJ/mol
# GULP energy per Si atom -5578.521217 kJ/mol
# Density = 1.739428 g / cm^3
# Si number density = 17.433962 Si / 1000 Ang^3
#
#
#
# Elastic Constant Matrix: (Units=GPa)
#
#
# Indices 1 2 3 4 5 6 
#
# 1 129.6317 38.8703 99.0345 0.0000 -3.4982 0.0000
# 2 38.8703 34.2503 44.6571 0.0000 3.0334 0.0000
# 3 99.0345 44.6571 146.9288 0.0000 -9.4690 0.0000
# 4 0.0000 0.0000 0.0000 33.3396 0.0000 2.4951
# 5 -3.4982 3.0334 -9.4690 0.0000 37.0272 0.0000
# 6 0.0000 0.0000 0.0000 2.4951 0.0000 22.7620
#
#
#
# Elastic Compliance Matrix: (Units=1/GPa)
#
#
# Indices 1 2 3 4 5 6 
#
# 1 0.016905 -0.007117 -0.009243 0.000000 -0.000184 0.000000
# 2 -0.007117 0.053712 -0.012053 0.000000 -0.008155 0.000000
# 3 -0.009243 -0.012053 0.016987 0.000000 0.004458 0.000000
# 4 0.000000 0.000000 0.000000 0.030242 0.000000 -0.003315
# 5 -0.000184 -0.008155 0.004458 0.000000 0.028798 0.000000
# 6 0.000000 0.000000 0.000000 -0.003315 0.000000 0.044296
#
#
# Mechanical properties :
#
#
# Convention : Reuss Voigt Hill
#
# Bulk Modulus (GPa) = 32.49233 75.10382 53.79808
# Shear Modulus (GPa) = 19.37786 27.17566 23.27676
#
# Velocity S-wave (km/s) = 3.33753 3.95242 3.65792
# Velocity P-wave (km/s) = 5.79051 8.00009 6.98324
#
# Compressibility (1/GPa) = 0.03077649
#
# Stress axis : x y z
#
# Youngs Moduli (GPa) = 59.15561 18.61771 58.86954
#
# Poissons Ratio (x) = 0.13251 0.54412
# Poissons Ratio (y) = 0.42103 0.70958
# Poissons Ratio (z) = 0.54676 0.22441
#
# Static dielectric constant tensor:
#      x y z
#    x 1.571040 0.000000 -0.001190 
#    y 0.000000 1.586420 0.000000 
#    z -0.001190 0.000000 1.597370 
# 
# From -- ./inp_files/229282.got.cif
#   From: 2010.05.17/outbox.cif.g08.bks.cpg/sg12_115_cif.got.tgz:229282.got - 2010.06.03 13:09:07.
