data_PCOD9207596
_publ_section_title
;
Structure prediction by ZEFSAII (Michael W. Deem and Ramdas Pophale) SiO2 
 PCOD9207596
Probable space group: C 2/M
;
_chemical_formula_sum "Si O2"
_cell_formula_units_Z 40
_cell_length_a 27.983144
_cell_length_b 8.604990
_cell_length_c 9.173097
_cell_angle_alpha 90.000000
_cell_angle_beta 109.084922
_cell_angle_gamma 90.000000
_cell_volume 2087.424382
_symmetry_space_group_name_H-M "C 2/M"
_symmetry_group_IT_number 12
_symmetry_cell_setting 'monoclinic'
loop_
_space_group_symop_operation_xyz
x,y,z
-x,y,-z
-x,-y,-z
x,-y,z
1/2+x,1/2+y,z
1/2-x,1/2+y,-z
1/2-x,1/2-y,-z
1/2+x,1/2-y,z
loop_
_atom_site_type_symbol
_atom_site_label
_atom_site_fract_x
_atom_site_fract_y
_atom_site_fract_z
Si Si1 0.849085 0.686466 0.269219
Si Si2 0.251109 0.686607 0.337288
Si Si3 0.051107 0.187765 0.132390
Si Si4 0.149543 0.312416 0.067112
Si Si5 0.551902 0.687966 0.471673
O O1 0.846719 0.500000 0.271083
O O2 0.800496 0.753547 0.303174
O O3 0.899828 0.742802 0.398907
O O4 0.849410 0.737284 0.100542
O O5 0.252070 0.500000 0.342169
O O6 0.250000 0.750000 0.500000
O O7 0.200548 0.736891 0.200997
O O8 0.100387 0.248984 0.099499
O O9 0.050926 0.235865 0.301389
O O10 0.052005 0.000000 0.129764
O O11 0.000000 0.239491 0.000000
O O12 0.147762 0.500000 0.068184
O O13 0.500000 0.733616 0.500000
O O14 0.555324 0.500000 0.480307
#
# Coordination Sequence:
#
# PCOD9207596 Si02
#       5
#     8   8   8   8   8
#     4  11  23  39  59  85 116 151 192 235 284 339
#     4  11  23  40  61  86 116 150 190 235 285 339
#     4  10  21  37  59  86 114 148 190 234 282 338
#     4  10  23  40  58  83 115 151 190 234 283 337
#     4  10  21  38  60  86 116 151 192 237 286 339
#
# _framework density 19.162369000000002
#
# number of rings (size 3 to 8) (size 9 to 14) (size 15 to 20)
#    0.000    1.600    0.000    4.200    0.000    9.600 
#    0.000    0.000    0.000    0.000    0.000    0.000 
#    0.000    0.000    0.000    0.000    0.000    0.000 
#
# Total GULP energy -111843.182966 kJ/mol
# GULP energy per Si atom -5592.159148 kJ/mol
# Density = 1.911875 g / cm^3
# Si number density = 19.162369 Si / 1000 Ang^3
#
#
#
# Elastic Constant Matrix: (Units=GPa)
#
#
# Indices 1 2 3 4 5 6 
#
# 1 237.9901 45.4095 147.7193 0.0000 -0.6270 0.0000
# 2 45.4095 24.6099 48.2372 0.0000 0.7991 0.0000
# 3 147.7193 48.2372 242.2655 0.0000 -0.3611 0.0000
# 4 0.0000 0.0000 0.0000 -753.2922 0.0000-1452.2793
# 5 -0.6270 0.7991 -0.3611 0.0000 46.6900 0.0000
# 6 0.0000 0.0000 0.0000-1452.2793 0.0000-2648.6008
#
#
#
# Elastic Compliance Matrix: (Units=1/GPa)
#
#
# Indices 1 2 3 4 5 6 
#
# 1 0.007644 -0.008162 -0.003035 0.000000 0.000219 0.000000
# 2 -0.008162 0.075429 -0.010044 0.000000 -0.001478 0.000000
# 3 -0.003035 -0.010044 0.007979 0.000000 0.000193 0.000000
# 4 0.000000 0.000000 0.000000 0.023245 0.000000 -0.012745
# 5 0.000219 -0.001478 0.000193 0.000000 0.021448 0.000000
# 6 0.000000 0.000000 0.000000 -0.012745 0.000000 0.006611
#
#
# Mechanical properties :
#
#
# Convention : Reuss Voigt Hill
#
# Bulk Modulus (GPa) = 20.58924 109.73306 65.16115
# Shear Modulus (GPa) = 24.87227 -653.47397 -314.30085
#
# Velocity S-wave (km/s) = 3.60665 -18.48674 -12.82092
# Velocity P-wave (km/s) = 5.30206 19.95722 13.60475
#
# Compressibility (1/GPa) = 0.04856905
#
# Stress axis : x y z
#
# Youngs Moduli (GPa) = 130.82673 13.25745 125.33429
#
# Poissons Ratio (x) = 0.10820 0.38043
# Poissons Ratio (y) = 1.06776 1.25890
# Poissons Ratio (z) = 0.39710 0.13316
#
# Static dielectric constant tensor:
#      x y z
#    x 1.613340 0.000000 0.004080 
#    y 0.000000 1.656880 0.000000 
#    z 0.004080 0.000000 1.648630 
# 
# From -- ./inp_files/92766.got.cif
#   From: 2010.05.17/outbox.cif.g08.bks.cpg/sg12_47_cif.got.tgz:92766.got - 2010.06.03 13:09:07.
