data_PCOD9207194
_publ_section_title
;
Structure prediction by ZEFSAII (Michael W. Deem and Ramdas Pophale) SiO2 
 PCOD9207194
Probable space group: C 2/M
;
_chemical_formula_sum "Si O2"
_cell_formula_units_Z 48
_cell_length_a 27.830859
_cell_length_b 8.697830
_cell_length_c 10.553844
_cell_angle_alpha 90.000000
_cell_angle_beta 100.920852
_cell_angle_gamma 90.000000
_cell_volume 2508.481820
_symmetry_space_group_name_H-M "C 2/M"
_symmetry_group_IT_number 12
_symmetry_cell_setting 'monoclinic'
loop_
_space_group_symop_operation_xyz
x,y,z
-x,y,-z
-x,-y,-z
x,-y,z
1/2+x,1/2+y,z
1/2-x,1/2+y,-z
1/2-x,1/2-y,-z
1/2+x,1/2-y,z
loop_
_atom_site_type_symbol
_atom_site_label
_atom_site_fract_x
_atom_site_fract_y
_atom_site_fract_z
Si Si1 0.804714 0.316496 0.526355
Si Si2 0.640027 0.684282 0.689920
Si Si3 0.468715 0.814933 0.360036
Si Si4 0.969721 0.685217 0.859253
Si Si5 0.360746 0.315501 0.797510
Si Si6 0.304589 0.685318 0.025376
O O1 0.802837 0.500000 0.526655
O O2 0.750000 0.250000 0.500000
O O3 0.832580 0.259224 0.415084
O O4 0.833800 0.257166 0.663626
O O5 0.643173 0.500000 0.680732
O O6 0.583804 0.735661 0.664107
O O7 0.666191 0.732375 0.833898
O O8 0.500000 0.774712 0.500000
O O9 0.499133 0.773798 0.249671
O O10 0.461654 0.000000 0.356646
O O11 0.963165 0.500000 0.856026
O O12 0.916841 0.762542 0.830384
O O13 0.000000 0.727433 0.000000
O O14 0.358330 0.500000 0.786705
O O15 0.333274 0.266940 0.912900
O O16 0.302200 0.500000 0.023772
O O17 0.250000 0.750000 0.000000
#
# Coordination Sequence:
#
# PCOD9207194 Si02
#       6
#     8   8   8   8   8   8
#     4  12  25  42  63  89 121 157 199 247 299 356
#     4  11  23  40  62  90 121 156 199 244 295 354
#     4  10  21  37  57  83 116 154 197 243 291 346
#     4  10  21  37  58  86 120 159 201 244 295 353
#     4  11  23  40  62  90 122 158 201 248 300 355
#     4  10  23  40  60  88 120 154 195 242 292 351
#
# _framework density 19.135079999999999
#
# number of rings (size 3 to 8) (size 9 to 14) (size 15 to 20)
#    0.000    1.333    0.000    5.500    0.000    8.000 
#    0.000    0.000    0.000    0.000    0.000    0.000 
#    0.000    0.000    0.000    0.000    0.000    0.000 
#
# Total GULP energy -134277.910023 kJ/mol
# GULP energy per Si atom -5594.912918 kJ/mol
# Density = 1.909153 g / cm^3
# Si number density = 19.135080 Si / 1000 Ang^3
#
#
#
# Elastic Constant Matrix: (Units=GPa)
#
#
# Indices 1 2 3 4 5 6 
#
# 1 223.8969 81.9711 144.3995 0.0000 -0.0622 0.0000
# 2 81.9711 72.7916 81.6687 0.0000 0.3673 0.0000
# 3 144.3995 81.6687 245.8517 0.0000 -2.4129 0.0000
# 4 0.0000 0.0000 0.0000 1.0195 0.0000 8.4752
# 5 -0.0622 0.3673 -2.4129 0.0000 43.2173 0.0000
# 6 0.0000 0.0000 0.0000 8.4752 0.0000 43.3770
#
#
#
# Elastic Compliance Matrix: (Units=1/GPa)
#
#
# Indices 1 2 3 4 5 6 
#
# 1 0.008791 -0.006544 -0.002990 0.000000 -0.000099 0.000000
# 2 -0.006544 0.026786 -0.005060 0.000000 -0.000520 0.000000
# 3 -0.002990 -0.005060 0.007509 0.000000 0.000458 0.000000
# 4 0.000000 0.000000 0.000000 -1.571247 0.000000 0.306996
# 5 -0.000099 -0.000520 0.000458 0.000000 0.023169 0.000000
# 6 0.000000 0.000000 0.000000 0.306996 0.000000 -0.036928
#
#
# Mechanical properties :
#
#
# Convention : Reuss Voigt Hill
#
# Bulk Modulus (GPa) = 71.95093 128.73540 100.34316
# Shear Modulus (GPa) = -3.31543 33.15616 14.92037
#
# Velocity S-wave (km/s) = -1.31773 4.16714 2.79541
# Velocity P-wave (km/s) = 5.94710 9.51717 7.93551
#
# Compressibility (1/GPa) = 0.01389836
#
# Stress axis : x y z
#
# Youngs Moduli (GPa) = 113.75793 37.33297 133.17106
#
# Poissons Ratio (x) = 0.24429 0.39823
# Poissons Ratio (y) = 0.74438 0.67381
# Poissons Ratio (z) = 0.34018 0.18889
#
# Static dielectric constant tensor:
#      x y z
#    x 1.610350 0.000000 -0.007770 
#    y 0.000000 1.645540 0.000000 
#    z -0.007770 0.000000 1.644710 
# 
# From -- ./inp_files/172448.got.cif
#   From: 2010.05.17/outbox.cif.g08.bks.cpg/sg12_87_cif.got.tgz:172448.got - 2010.06.03 13:09:07.
