data_PCOD9207263
_publ_section_title
;
Structure prediction by ZEFSAII (Michael W. Deem and Ramdas Pophale) SiO2 
 PCOD9207263
Probable space group: C 2/M
;
_chemical_formula_sum "Si O2"
_cell_formula_units_Z 56
_cell_length_a 5.061816
_cell_length_b 26.082264
_cell_length_c 21.693894
_cell_angle_alpha 90.000000
_cell_angle_beta 84.198539
_cell_angle_gamma 90.000000
_cell_volume 2849.436868
_symmetry_space_group_name_H-M "C 2/M"
_symmetry_group_IT_number 12
_symmetry_cell_setting 'monoclinic'
loop_
_space_group_symop_operation_xyz
x,y,z
-x,y,-z
-x,-y,-z
x,-y,z
1/2+x,1/2+y,z
1/2-x,1/2+y,-z
1/2-x,1/2-y,-z
1/2+x,1/2-y,z
loop_
_atom_site_type_symbol
_atom_site_label
_atom_site_fract_x
_atom_site_fract_y
_atom_site_fract_z
Si Si1 0.651550 0.283683 0.731914
Si Si2 0.147015 0.560883 0.871461
Si Si3 0.737303 0.440675 0.543262
Si Si4 0.621072 0.607347 0.930870
Si Si5 0.434466 0.390923 0.327476
Si Si6 0.534848 0.716355 0.877417
Si Si7 0.040282 0.560842 0.731121
O O1 0.449390 0.237526 0.721739
O O2 0.597592 0.331839 0.689971
O O3 0.592224 0.298305 0.804642
O O4 0.119468 0.500000 0.880264
O O5 0.438071 0.578370 0.885137
O O6 0.091207 0.573378 0.801419
O O7 0.923556 0.589796 0.916333
O O8 0.500000 0.439768 0.500000
O O9 0.770686 0.500000 0.564264
O O10 0.671976 0.405522 0.602789
O O11 0.000000 0.425786 0.500000
O O12 0.589828 0.667473 0.917842
O O13 0.500000 0.594657 0.000000
O O14 0.736428 0.409572 0.313053
O O15 0.249657 0.422079 0.283783
O O16 0.237703 0.737804 0.888339
O O17 0.072116 0.500000 0.721950
#
# Coordination Sequence:
#
# PCOD9207263 Si02
#       7
#     8   8   8   8   8   8   8
#     4  10  21  37  58  85 113 147 193 243 293 345
#     4  11  24  41  59  83 118 153 190 242 296 347
#     4  10  21  37  57  85 123 162 196 229 273 336
#     4  12  25  40  60  84 112 153 201 238 283 356
#     4  12  22  37  63  89 121 157 195 241 289 341
#     4  10  21  38  60  84 113 145 183 240 304 351
#     4  11  22  36  59  91 119 147 189 242 302 356
#
# _framework density 19.653006000000001
#
# number of rings (size 3 to 8) (size 9 to 14) (size 15 to 20)
#    0.000    1.143    0.000    7.286    0.000    8.000 
#    0.000    0.000    0.000    2.571    0.000    0.000 
#    0.000    0.000    0.000    0.000    0.000    0.000 
#
# Total GULP energy -156700.917773 kJ/mol
# GULP energy per Si atom -5596.461349 kJ/mol
# Density = 1.960827 g / cm^3
# Si number density = 19.653006 Si / 1000 Ang^3
#
#
#
# Elastic Constant Matrix: (Units=GPa)
#
#
# Indices 1 2 3 4 5 6 
#
# 1 53.8207 -14.8948 -9.3442 0.0000 -5.3539 0.0000
# 2 -14.8948 30.5503 12.0318 0.0000 -2.3546 0.0000
# 3 -9.3442 12.0318 39.3188 0.0000 -3.3833 0.0000
# 4 0.0000 0.0000 0.0000 78.2646 0.0000 62.4409
# 5 -5.3539 -2.3546 -3.3833 0.0000 26.1393 0.0000
# 6 0.0000 0.0000 0.0000 62.4409 0.0000 78.5838
#
#
#
# Elastic Compliance Matrix: (Units=1/GPa)
#
#
# Indices 1 2 3 4 5 6 
#
# 1 0.022501 0.010368 0.002681 0.000000 0.005890 0.000000
# 2 0.010368 0.042089 -0.010018 0.000000 0.004618 0.000000
# 3 0.002681 -0.010018 0.029433 0.000000 0.003456 0.000000
# 4 0.000000 0.000000 0.000000 0.034903 0.000000 -0.027734
# 5 0.005890 0.004618 0.003456 0.000000 0.040326 0.000000
# 6 0.000000 0.000000 0.000000 -0.027734 0.000000 0.034762
#
#
# Mechanical properties :
#
#
# Convention : Reuss Voigt Hill
#
# Bulk Modulus (GPa) = 9.99129 11.03060 10.51095
# Shear Modulus (GPa) = 21.61559 45.65734 33.63646
#
# Velocity S-wave (km/s) = 3.32001 4.82516 4.14154
# Velocity P-wave (km/s) = 4.44877 6.05539 5.31316
#
# Compressibility (1/GPa) = 0.10008713
#
# Stress axis : x y z
#
# Youngs Moduli (GPa) = 44.44228 23.75893 33.97501
#
# Poissons Ratio (x) = -0.24634 -0.09110
# Poissons Ratio (y) = -0.46079 0.34037
# Poissons Ratio (z) = -0.11917 0.23802
#
# Static dielectric constant tensor:
#      x y z
#    x 1.656370 0.000000 0.005880 
#    y 0.000000 1.663330 0.000000 
#    z 0.005880 0.000000 1.672110 
# 
# From -- ./inp_files/297992.got.cif
#   From: 2010.05.17/outbox.cif.g08.bks.cpg/sg12_149_cif.got.tgz:297992.got - 2010.06.03 13:09:07.
