data_PCOD9207008
_publ_section_title
;
Structure prediction by ZEFSAII (Michael W. Deem and Ramdas Pophale) SiO2 
 PCOD9207008
Probable space group: C 2/M
;
_chemical_formula_sum "Si O2"
_cell_formula_units_Z 56
_cell_length_a 15.411172
_cell_length_b 8.876537
_cell_length_c 25.089388
_cell_angle_alpha 90.000000
_cell_angle_beta 61.797085
_cell_angle_gamma 90.000000
_cell_volume 3024.704317
_symmetry_space_group_name_H-M "C 2/M"
_symmetry_group_IT_number 12
_symmetry_cell_setting 'monoclinic'
loop_
_space_group_symop_operation_xyz
x,y,z
-x,y,-z
-x,-y,-z
x,-y,z
1/2+x,1/2+y,z
1/2-x,1/2+y,-z
1/2-x,1/2-y,-z
1/2+x,1/2-y,z
loop_
_atom_site_type_symbol
_atom_site_label
_atom_site_fract_x
_atom_site_fract_y
_atom_site_fract_z
Si Si1 0.471536 0.825794 0.067227
Si Si2 0.681197 0.320184 0.809383
Si Si3 0.919408 0.816663 0.270950
Si Si4 0.323192 0.317987 0.409813
Si Si5 0.681306 0.173135 0.063768
Si Si6 0.099722 0.681873 0.503565
Si Si7 0.857282 0.820022 0.812536
O O1 0.390976 0.731723 0.122188
O O2 0.570876 0.825002 0.072780
O O3 0.437048 0.000000 0.071593
O O4 0.500000 0.770217 0.000000
O O5 0.688758 0.500000 0.807650
O O6 0.637796 0.269511 0.765456
O O7 0.785314 0.244971 0.789351
O O8 0.870065 0.767783 0.340314
O O9 0.031908 0.768330 0.231126
O O10 0.918865 0.000000 0.271585
O O11 0.329149 0.500000 0.411886
O O12 0.206180 0.279260 0.445895
O O13 0.383883 0.249638 0.441986
O O14 0.679682 0.259702 0.119847
O O15 0.711674 0.000000 0.063154
O O16 0.750000 0.250000 0.000000
O O17 0.094831 0.500000 0.508894
O O18 0.000000 0.729145 0.500000
O O19 0.854925 0.000000 0.814004
#
# Coordination Sequence:
#
# PCOD9207008 Si02
#       7
#     8   8   8   8   8   8   8
#     4  10  21  37  56  80 110 143 181 231 288 344
#     4  11  22  38  59  84 110 144 190 236 287 347
#     4   9  20  38  58  80 113 154 191 233 288 345
#     4   9  18  35  57  81 113 154 195 232 278 338
#     4  11  22  36  57  84 113 145 185 232 289 347
#     4   9  18  33  55  85 119 152 188 235 285 329
#     4  11  22  39  58  79 111 149 189 236 289 342
#
# _framework density 18.514206999999999
#
# number of rings (size 3 to 8) (size 9 to 14) (size 15 to 20)
#    0.000    2.000    1.429    2.143    0.000    3.429 
#    0.000    4.286    0.000    0.000    0.000    0.000 
#    0.000    0.000    0.000    0.000    0.000    0.000 
#
# Total GULP energy -156277.300399 kJ/mol
# GULP energy per Si atom -5581.332157 kJ/mol
# Density = 1.847207 g / cm^3
# Si number density = 18.514207 Si / 1000 Ang^3
#
#
#
# Elastic Constant Matrix: (Units=GPa)
#
#
# Indices 1 2 3 4 5 6 
#
# 1 168.9408 42.1310 87.2875 0.0000 11.5068 0.0000
# 2 42.1310 49.1227 37.7581 0.0000 0.1907 0.0000
# 3 87.2875 37.7581 158.4098 0.0000 5.5768 0.0000
# 4 0.0000 0.0000 0.0000 22.1301 0.0000 1.9526
# 5 11.5068 0.1907 5.5768 0.0000 18.8215 0.0000
# 6 0.0000 0.0000 0.0000 1.9526 0.0000 24.0709
#
#
#
# Elastic Compliance Matrix: (Units=1/GPa)
#
#
# Indices 1 2 3 4 5 6 
#
# 1 0.009513 -0.005188 -0.003843 0.000000 -0.004625 0.000000
# 2 -0.005188 0.027796 -0.003909 0.000000 0.004048 0.000000
# 3 -0.003843 -0.003909 0.009376 0.000000 -0.000389 0.000000
# 4 0.000000 0.000000 0.000000 0.045513 0.000000 -0.003692
# 5 -0.004625 0.004048 -0.000389 0.000000 0.056033 0.000000
# 6 0.000000 0.000000 0.000000 -0.003692 0.000000 0.041843
#
#
# Mechanical properties :
#
#
# Convention : Reuss Voigt Hill
#
# Bulk Modulus (GPa) = 48.06462 78.98072 63.52267
# Shear Modulus (GPa) = 22.43275 26.95760 24.69518
#
# Velocity S-wave (km/s) = 3.48465 3.81996 3.65615
# Velocity P-wave (km/s) = 6.49675 7.88722 7.22551
#
# Compressibility (1/GPa) = 0.02080532
#
# Stress axis : x y z
#
# Youngs Moduli (GPa) = 105.11446 35.97688 106.65858
#
# Poissons Ratio (x) = 0.18664 0.40987
# Poissons Ratio (y) = 0.54530 0.41696
# Poissons Ratio (z) = 0.40393 0.14064
#
# Static dielectric constant tensor:
#      x y z
#    x 1.649230 0.000000 -0.003450 
#    y 0.000000 1.667110 0.000000 
#    z -0.003450 0.000000 1.618620 
# 
# From -- ./inp_files/337886.got.cif
#   From: 2010.05.17/outbox.cif.g08.bks.cpg/sg12_169_cif.got.tgz:337886.got - 2010.06.03 13:09:07.
