data_PCOD9207894
_publ_section_title
;
Structure prediction by ZEFSAII (Michael W. Deem and Ramdas Pophale) SiO2 
 PCOD9207894
Probable space group: C 2/M
;
_chemical_formula_sum "Si O2"
_cell_formula_units_Z 48
_cell_length_a 14.259021
_cell_length_b 32.378082
_cell_length_c 14.613756
_cell_angle_alpha 90.000000
_cell_angle_beta 159.829218
_cell_angle_gamma 90.000000
_cell_volume 2326.454612
_symmetry_space_group_name_H-M "C 2/M"
_symmetry_group_IT_number 12
_symmetry_cell_setting 'monoclinic'
loop_
_space_group_symop_operation_xyz
x,y,z
-x,y,-z
-x,-y,-z
x,-y,z
1/2+x,1/2+y,z
1/2-x,1/2+y,-z
1/2-x,1/2-y,-z
1/2+x,1/2-y,z
loop_
_atom_site_type_symbol
_atom_site_label
_atom_site_fract_x
_atom_site_fract_y
_atom_site_fract_z
Si Si1 0.315282 0.369090 0.020960
Si Si2 0.794206 0.254988 0.727145
Si Si3 0.328768 0.573256 0.434355
Si Si4 0.760283 0.546492 0.978704
Si Si5 0.624296 0.168638 0.512487
Si Si6 0.031713 0.343574 0.138466
O O1 0.118305 0.341412 0.778376
O O2 0.237385 0.356028 0.052920
O O3 0.235180 0.417264 0.941946
O O4 0.624452 0.361238 0.278104
O O5 0.500000 0.265145 0.500000
O O6 0.747078 0.214938 0.621958
O O7 0.894799 0.296552 0.771347
O O8 0.000000 0.245158 0.000000
O O9 0.500000 0.564971 0.500000
O O10 0.505305 0.557427 0.680756
O O11 0.252643 0.621903 0.367516
O O12 0.034951 0.551587 0.170521
O O13 0.741603 0.500000 0.996167
O O14 0.500000 0.164106 0.500000
O O15 0.000000 0.345846 0.000000
#
# Coordination Sequence:
#
# PCOD9207894 Si02
#       6
#     8   8   8   8   8   8
#     4  11  23  40  65  90 117 162 203 244 312 365
#     4  10  21  37  60  89 125 166 203 247 297 344
#     4  11  21  36  58  85 123 168 207 240 284 347
#     4  11  24  40  59  86 119 154 199 255 308 363
#     4  11  23  42  64  89 120 155 204 260 307 356
#     4  10  22  39  61  91 133 170 203 241 284 353
#
# _framework density 20.632254
#
# number of rings (size 3 to 8) (size 9 to 14) (size 15 to 20)
#    0.000    1.333    0.000    8.000    0.000    8.667 
#    0.000    0.000    0.000    3.000    0.000    0.000 
#    0.000    0.000    0.000    0.000    0.000    0.000 
#
# Total GULP energy -134170.334571 kJ/mol
# GULP energy per Si atom -5590.430607 kJ/mol
# Density = 2.058529 g / cm^3
# Si number density = 20.632254 Si / 1000 Ang^3
#
#
#
# Elastic Constant Matrix: (Units=GPa)
#
#
# Indices 1 2 3 4 5 6 
#
# 1 72.0604 27.8594 21.7097 0.0010 12.9853 -0.0019
# 2 27.8594 107.8620 -6.3849 0.0047 4.5104 -0.0084
# 3 21.7097 -6.3849 94.9969 0.0012 9.7973 -0.0018
# 4 0.0010 0.0047 0.0012 2.3630 0.0007 31.1730
# 5 12.9853 4.5104 9.7973 0.0007 35.4325 -0.0021
# 6 -0.0019 -0.0084 -0.0018 31.1730 -0.0021 -62.4716
#
#
#
# Elastic Compliance Matrix: (Units=1/GPa)
#
#
# Indices 1 2 3 4 5 6 
#
# 1 0.017684 -0.004594 -0.003852 0.000000 -0.004831 0.000000
# 2 -0.004594 0.010569 0.001776 0.000000 -0.000153 -0.000001
# 3 -0.003852 0.001776 0.011739 0.000000 -0.002060 -0.000001
# 4 0.000000 0.000000 0.000000 0.055809 0.000001 0.027848
# 5 -0.004831 -0.000153 -0.002060 0.000001 0.030582 0.000000
# 6 0.000000 -0.000001 -0.000001 0.027848 0.000000 -0.002111
#
#
# Mechanical properties :
#
#
# Convention : Reuss Voigt Hill
#
# Bulk Modulus (GPa) = 37.51929 40.14308 38.83119
# Shear Modulus (GPa) = 34.13062 10.51379 22.32221
#
# Velocity S-wave (km/s) = 4.07164 2.25984 3.29281
# Velocity P-wave (km/s) = 6.35048 5.12912 5.77220
#
# Compressibility (1/GPa) = 0.02665296
#
# Stress axis : x y z
#
# Youngs Moduli (GPa) = 56.54762 94.61552 85.18771
#
# Poissons Ratio (x) = 0.43463 0.32813
# Poissons Ratio (y) = 0.25976 -0.15129
# Poissons Ratio (z) = 0.21782 -0.16803
#
# Static dielectric constant tensor:
#      x y z
#    x 1.724560 0.000000 -0.014660 
#    y 0.000000 1.778560 0.000000 
#    z -0.014660 0.000000 1.739970 
# 
# From -- ./inp_files/219599.got.cif
#   From: 2010.05.17/outbox.cif.g08.bks.cpg/sg12_110_cif.got.tgz:219599.got - 2010.06.03 13:09:07.
