data_PCOD9207675
_publ_section_title
;
Structure prediction by ZEFSAII (Michael W. Deem and Ramdas Pophale) SiO2 
 PCOD9207675
Probable space group: C 2/M
;
_chemical_formula_sum "Si O2"
_cell_formula_units_Z 52
_cell_length_a 21.568351
_cell_length_b 14.323365
_cell_length_c 12.308034
_cell_angle_alpha 90.000000
_cell_angle_beta 131.781415
_cell_angle_gamma 90.000000
_cell_volume 2835.373447
_symmetry_space_group_name_H-M "C 2/M"
_symmetry_group_IT_number 12
_symmetry_cell_setting 'monoclinic'
loop_
_space_group_symop_operation_xyz
x,y,z
-x,y,-z
-x,-y,-z
x,-y,z
1/2+x,1/2+y,z
1/2-x,1/2+y,-z
1/2-x,1/2-y,-z
1/2+x,1/2-y,z
loop_
_atom_site_type_symbol
_atom_site_label
_atom_site_fract_x
_atom_site_fract_y
_atom_site_fract_z
Si Si1 0.045591 0.893158 0.825127
Si Si2 0.000000 0.810970 0.000000
Si Si3 0.562007 0.337973 0.485479
Si Si4 0.325995 0.741401 0.728941
Si Si5 0.208777 0.894436 0.508957
Si Si6 0.196021 0.268141 0.763721
Si Si7 0.263711 0.391537 0.024002
O O1 0.144043 0.885146 0.921490
O O2 0.997267 0.823389 0.687825
O O3 0.021337 0.000000 0.768398
O O4 0.020933 0.872634 0.919224
O O5 0.081903 0.751491 0.118535
O O6 0.500000 0.384874 0.500000
O O7 0.640625 0.391096 0.525807
O O8 0.607443 0.254046 0.603898
O O9 0.289368 0.838298 0.642447
O O10 0.325579 0.666200 0.631368
O O11 0.261377 0.707870 0.745510
O O12 0.224825 0.000000 0.496005
O O13 0.228643 0.173278 0.860761
O O14 0.200612 0.345079 0.864027
O O15 0.246285 0.500000 0.026202
#
# Coordination Sequence:
#
# PCOD9207675 Si02
#       7
#     8   4   8   8   8   8   8
#     4  11  22  34  56  90 119 149 189 240 301 352
#     4  12  21  38  57  82 122 154 192 246 282 350
#     4  11  21  35  57  90 121 152 183 234 294 357
#     4  10  22  37  57  84 111 157 196 233 290 338
#     4  10  22  39  57  83 118 152 193 237 285 348
#     4  10  21  38  56  84 121 156 188 238 293 339
#     4  10  21  37  59  88 117 151 194 235 292 356
#
# _framework density 18.339735000000001
#
# number of rings (size 3 to 8) (size 9 to 14) (size 15 to 20)
#    0.000    1.538    4.615    0.692    0.000    5.538 
#    0.000    0.385    0.000    0.462    0.000    0.000 
#    0.000    0.000    0.000    0.000    0.000    0.000 
#
# Total GULP energy -144961.339807 kJ/mol
# GULP energy per Si atom -5575.436146 kJ/mol
# Density = 1.829799 g / cm^3
# Si number density = 18.339735 Si / 1000 Ang^3
#
#
#
# Elastic Constant Matrix: (Units=GPa)
#
#
# Indices 1 2 3 4 5 6 
#
# 1 88.0451 24.3032 29.6205 0.0000 -13.8494 0.0000
# 2 24.3032 85.6234 31.2569 0.0000 6.8042 0.0000
# 3 29.6205 31.2569 116.5039 0.0000 6.7135 0.0000
# 4 0.0000 0.0000 0.0000 6.0121 0.0000 -0.2283
# 5 -13.8494 6.8042 6.7135 0.0000 34.5426 0.0000
# 6 0.0000 0.0000 0.0000 -0.2283 0.0000 7.5985
#
#
#
# Elastic Compliance Matrix: (Units=1/GPa)
#
#
# Indices 1 2 3 4 5 6 
#
# 1 0.014516 -0.003536 -0.003153 0.000000 0.007129 0.000000
# 2 -0.003536 0.013932 -0.002629 0.000000 -0.003651 0.000000
# 3 -0.003153 -0.002629 0.010248 0.000000 -0.002738 0.000000
# 4 0.000000 0.000000 0.000000 0.166520 0.000000 0.005004
# 5 0.007129 -0.003651 -0.002738 0.000000 0.033059 0.000000
# 6 0.000000 0.000000 0.000000 0.005004 0.000000 0.131755
#
#
# Mechanical properties :
#
#
# Convention : Reuss Voigt Hill
#
# Bulk Modulus (GPa) = 49.84560 51.17040 50.50800
# Shear Modulus (GPa) = 12.64693 23.29677 17.97185
#
# Velocity S-wave (km/s) = 2.62886 3.56798 3.13380
# Velocity P-wave (km/s) = 6.03759 6.70343 6.37920
#
# Compressibility (1/GPa) = 0.02006195
#
# Stress axis : x y z
#
# Youngs Moduli (GPa) = 68.88999 71.77543 97.58024
#
# Poissons Ratio (x) = 0.25378 0.30765
# Poissons Ratio (y) = 0.24358 0.25650
# Poissons Ratio (z) = 0.21720 0.18867
#
# Static dielectric constant tensor:
#      x y z
#    x 1.640230 0.000000 -0.008460 
#    y 0.000000 1.613140 0.000000 
#    z -0.008460 0.000000 1.667410 
# 
# From -- ./inp_files/167363.got.cif
#   From: 2010.05.17/outbox.cif.g08.bks.cpg/sg12_84_cif.got.tgz:167363.got - 2010.06.03 13:09:07.
