data_PCOD9207202
_publ_section_title
;
Structure prediction by ZEFSAII (Michael W. Deem and Ramdas Pophale) SiO2 
 PCOD9207202
Probable space group: C 2/M
;
_chemical_formula_sum "Si O2"
_cell_formula_units_Z 50
_cell_length_a 16.163316
_cell_length_b 7.540711
_cell_length_c 26.696082
_cell_angle_alpha 90.000000
_cell_angle_beta 137.373003
_cell_angle_gamma 90.000000
_cell_volume 2203.544454
_symmetry_space_group_name_H-M "C 2/M"
_symmetry_group_IT_number 12
_symmetry_cell_setting 'monoclinic'
loop_
_space_group_symop_operation_xyz
x,y,z
-x,y,-z
-x,-y,-z
x,-y,z
1/2+x,1/2+y,z
1/2-x,1/2+y,-z
1/2-x,1/2-y,-z
1/2+x,1/2-y,z
loop_
_atom_site_type_symbol
_atom_site_label
_atom_site_fract_x
_atom_site_fract_y
_atom_site_fract_z
Si Si1 0.122484 0.203649 0.159490
Si Si2 0.055298 0.790091 0.427074
Si Si3 0.370083 0.710050 0.085659
Si Si4 0.219894 0.216668 0.675133
Si Si5 0.713075 0.786225 0.405993
Si Si6 0.500000 0.500000 0.000000
Si Si7 0.803850 0.298456 0.913499
O O1 0.204359 0.206559 0.245047
O O2 0.188716 0.295822 0.143008
O O3 0.993711 0.286960 0.118415
O O4 0.102033 0.000000 0.130195
O O5 0.166458 0.718683 0.510593
O O6 0.096736 0.763708 0.388018
O O7 0.921233 0.725009 0.381968
O O8 0.051591 0.000000 0.434856
O O9 0.393180 0.500000 0.096639
O O10 0.327000 0.757904 0.122392
O O11 0.250000 0.750000 0.000000
O O12 0.276678 0.270392 0.646991
O O13 0.224007 0.000000 0.680125
O O14 0.717270 0.000000 0.407732
O O15 0.403853 0.657549 0.975316
O O16 0.829857 0.500000 0.942231
#
# Coordination Sequence:
#
# PCOD9207202 Si02
#       7
#     8   8   8   8   8   2   8
#     4  11  24  43  62  89 125 162 208 260 310 379
#     4   9  18  34  57  84 118 157 203 254 308 362
#     4  10  24  41  64  91 118 155 200 250 312 371
#     4  10  21  37  57  83 117 164 204 245 309 375
#     4   9  18  34  57  86 117 154 205 257 301 363
#     4  12  22  40  68  98 120 154 204 252 306 374
#     4  11  24  43  65  93 128 164 199 254 316 375
#
# _framework density 22.690715000000001
#
# number of rings (size 3 to 8) (size 9 to 14) (size 15 to 20)
#    0.000    1.920    0.800    2.160    3.360    7.040 
#    0.000    4.800    0.000    4.800    0.000    0.000 
#    0.000    0.000    0.000    0.000    0.000    0.000 
#
# Total GULP energy -139469.440521 kJ/mol
# GULP energy per Si atom -5578.777621 kJ/mol
# Density = 2.263907 g / cm^3
# Si number density = 22.690715 Si / 1000 Ang^3
#
#
#
# Elastic Constant Matrix: (Units=GPa)
#
#
# Indices 1 2 3 4 5 6 
#
# 1 130.7612 -6.4806 17.8823 0.0000 -31.2130 0.0000
# 2 -6.4806 80.4354 -7.1200 0.0000 -4.8519 0.0000
# 3 17.8823 -7.1200 38.9086 0.0000 -17.8424 0.0000
# 4 0.0000 0.0000 0.0000 20.3714 0.0000 -2.5622
# 5 -31.2130 -4.8519 -17.8424 0.0000 23.4161 0.0000
# 6 0.0000 0.0000 0.0000 -2.5622 0.0000 15.8417
#
#
#
# Elastic Compliance Matrix: (Units=1/GPa)
#
#
# Indices 1 2 3 4 5 6 
#
# 1 0.011823 0.002445 0.003801 0.000000 0.019163 0.000000
# 2 0.002445 0.013873 0.006498 0.000000 0.011085 0.000000
# 3 0.003801 0.006498 0.043168 0.000000 0.039306 0.000000
# 4 0.000000 0.000000 0.000000 0.050108 0.000000 0.008104
# 5 0.019163 0.011085 0.039306 0.000000 0.100496 0.000000
# 6 0.000000 0.000000 0.000000 0.008104 0.000000 0.064435
#
#
# Mechanical properties :
#
#
# Convention : Reuss Voigt Hill
#
# Bulk Modulus (GPa) = 10.59849 28.74095 19.66972
# Shear Modulus (GPa) = 17.24936 28.31407 22.78171
#
# Velocity S-wave (km/s) = 2.76015 3.53629 3.17205
# Velocity P-wave (km/s) = 3.85213 5.41920 4.70142
#
# Compressibility (1/GPa) = 0.09435309
#
# Stress axis : x y z
#
# Youngs Moduli (GPa) = 84.58048 72.08136 23.16523
#
# Poissons Ratio (x) = -0.17623 -0.08805
# Poissons Ratio (y) = -0.20679 -0.15054
# Poissons Ratio (z) = -0.32149 -0.46841
#
# Static dielectric constant tensor:
#      x y z
#    x 1.874170 0.000000 0.062150 
#    y 0.000000 1.898240 0.000000 
#    z 0.062150 0.000000 1.821950 
# 
# From -- ./inp_files/360090.got.cif
#   From: 2010.05.17/outbox.cif.g08.bks.cpg/sg12_181_cif.got.tgz:360090.got - 2010.06.03 13:09:07.
