data_PCOD9207335
_publ_section_title
;
Structure prediction by ZEFSAII (Michael W. Deem and Ramdas Pophale) SiO2 
 PCOD9207335
Probable space group: C 2/M
;
_chemical_formula_sum "Si O2"
_cell_formula_units_Z 56
_cell_length_a 16.300917
_cell_length_b 8.973068
_cell_length_c 19.185082
_cell_angle_alpha 90.000000
_cell_angle_beta 60.127759
_cell_angle_gamma 90.000000
_cell_volume 2433.352085
_symmetry_space_group_name_H-M "C 2/M"
_symmetry_group_IT_number 12
_symmetry_cell_setting 'monoclinic'
loop_
_space_group_symop_operation_xyz
x,y,z
-x,y,-z
-x,-y,-z
x,-y,z
1/2+x,1/2+y,z
1/2-x,1/2+y,-z
1/2-x,1/2-y,-z
1/2+x,1/2-y,z
loop_
_atom_site_type_symbol
_atom_site_label
_atom_site_fract_x
_atom_site_fract_y
_atom_site_fract_z
Si Si1 0.031859 0.672463 0.593805
Si Si2 0.537135 0.173108 0.872224
Si Si3 0.151761 0.673129 0.968584
Si Si4 0.196888 0.824933 0.457657
Si Si5 0.023029 0.824655 0.741754
Si Si6 0.196376 0.670921 0.317992
Si Si7 0.680834 0.176658 0.167517
O O1 0.059801 0.500000 0.573486
O O2 0.089112 0.771190 0.515223
O O3 0.056473 0.732606 0.660445
O O4 0.918732 0.679993 0.634823
O O5 0.597495 0.183171 0.917071
O O6 0.568829 0.276070 0.795356
O O7 0.538537 0.000000 0.848788
O O8 0.429186 0.209653 0.941150
O O9 0.179678 0.500000 0.966354
O O10 0.242103 0.777938 0.922242
O O11 0.250000 0.750000 0.500000
O O12 0.229518 0.770073 0.368031
O O13 0.205194 0.000000 0.459130
O O14 0.913455 0.774453 0.796858
O O15 0.031620 0.000000 0.725459
O O16 0.222857 0.500000 0.321326
O O17 0.222594 0.707678 0.227389
O O18 0.658249 0.000000 0.174242
#
# Coordination Sequence:
#
# PCOD9207335 Si02
#       7
#     8   8   8   8   8   8   8
#     4  10  21  40  63  84 112 148 183 226 279 332
#     4   9  19  37  57  79 111 149 187 228 280 335
#     4   9  19  36  58  81 108 146 189 232 277 332
#     4  12  25  39  58  85 116 149 187 230 274 324
#     4  11  22  36  57  85 114 145 186 231 273 327
#     4   9  20  39  60  82 111 147 184 225 278 335
#     4  10  21  37  58  83 113 147 183 229 280 329
#
# _framework density 23.013518999999999
#
# number of rings (size 3 to 8) (size 9 to 14) (size 15 to 20)
#    0.000    2.000    0.000    5.571    0.000    8.000 
#    0.000    4.286    0.000    0.000    0.000    0.000 
#    0.000    0.000    0.000    0.000    0.000    0.000 
#
# Total GULP energy -156704.158804 kJ/mol
# GULP energy per Si atom -5596.577100 kJ/mol
# Density = 2.296114 g / cm^3
# Si number density = 23.013519 Si / 1000 Ang^3
#
#
#
# Elastic Constant Matrix: (Units=GPa)
#
#
# Indices 1 2 3 4 5 6 
#
# 1 59.6017 23.5940 7.9849 0.0000 9.5824 0.0000
# 2 23.5940 94.3105 37.9904 0.0000 22.0312 0.0000
# 3 7.9849 37.9904 91.4880 0.0000 15.3421 0.0000
# 4 0.0000 0.0000 0.0000 36.6838 0.0000 3.0076
# 5 9.5824 22.0312 15.3421 0.0000 46.1634 0.0000
# 6 0.0000 0.0000 0.0000 3.0076 0.0000 26.8585
#
#
#
# Elastic Compliance Matrix: (Units=1/GPa)
#
#
# Indices 1 2 3 4 5 6 
#
# 1 0.018785 -0.004462 0.000540 0.000000 -0.001950 0.000000
# 2 -0.004462 0.014775 -0.004997 0.000000 -0.004464 0.000000
# 3 0.000540 -0.004997 0.013320 0.000000 -0.002154 0.000000
# 4 0.000000 0.000000 0.000000 0.027513 0.000000 -0.003081
# 5 -0.001950 -0.004464 -0.002154 0.000000 0.024913 0.000000
# 6 0.000000 0.000000 0.000000 -0.003081 0.000000 0.037577
#
#
# Mechanical properties :
#
#
# Convention : Reuss Voigt Hill
#
# Bulk Modulus (GPa) = 34.43250 42.72654 38.57952
# Shear Modulus (GPa) = 30.41315 33.66318 32.03816
#
# Velocity S-wave (km/s) = 3.63923 3.82875 3.73519
# Velocity P-wave (km/s) = 5.71428 6.17672 5.95000
#
# Compressibility (1/GPa) = 0.02904233
#
# Stress axis : x y z
#
# Youngs Moduli (GPa) = 53.23292 67.67962 75.07720
#
# Poissons Ratio (x) = 0.30197 -0.04055
# Poissons Ratio (y) = 0.23751 0.37519
# Poissons Ratio (z) = -0.02875 0.33822
#
# Static dielectric constant tensor:
#      x y z
#    x 1.960930 0.000000 -0.017500 
#    y 0.000000 1.770500 0.000000 
#    z -0.017500 0.000000 1.876620 
# 
# From -- ./inp_files/313770.got.cif
#   From: 2010.05.17/outbox.cif.g08.bks.cpg/sg12_157_cif.got.tgz:313770.got - 2010.06.03 13:09:07.
