data_PCOD9207010
_publ_section_title
;
Structure prediction by ZEFSAII (Michael W. Deem and Ramdas Pophale) SiO2 
 PCOD9207010
Probable space group: C 2/M
;
_chemical_formula_sum "Si O2"
_cell_formula_units_Z 60
_cell_length_a 14.620161
_cell_length_b 13.180625
_cell_length_c 19.576813
_cell_angle_alpha 90.000000
_cell_angle_beta 135.431956
_cell_angle_gamma 90.000000
_cell_volume 2647.379338
_symmetry_space_group_name_H-M "C 2/M"
_symmetry_group_IT_number 12
_symmetry_cell_setting 'monoclinic'
loop_
_space_group_symop_operation_xyz
x,y,z
-x,y,-z
-x,-y,-z
x,-y,z
1/2+x,1/2+y,z
1/2-x,1/2+y,-z
1/2-x,1/2-y,-z
1/2+x,1/2-y,z
loop_
_atom_site_type_symbol
_atom_site_label
_atom_site_fract_x
_atom_site_fract_y
_atom_site_fract_z
Si Si1 0.367730 0.122208 0.141808
Si Si2 0.392787 0.115301 0.813249
Si Si3 0.224167 0.296509 0.378156
Si Si4 0.000000 0.298783 0.500000
Si Si5 0.923571 0.121448 0.022337
Si Si6 0.355619 0.380865 0.247501
Si Si7 0.545459 0.614019 0.231490
Si Si8 0.501040 0.813732 0.354986
O O1 0.469779 0.160080 0.138537
O O2 0.418315 0.147982 0.245291
O O3 0.371771 0.000000 0.139478
O O4 0.223239 0.160558 0.051045
O O5 0.310572 0.121843 0.698649
O O6 0.290706 0.156323 0.814440
O O7 0.418498 0.000000 0.848065
O O8 0.374206 0.267916 0.453802
O O9 0.145931 0.195700 0.312626
O O10 0.150759 0.325529 0.409378
O O11 0.026481 0.358787 0.584933
O O12 0.014561 0.126865 0.136330
O O13 0.905991 0.000000 0.000406
O O14 0.000000 0.168101 0.000000
O O15 0.364841 0.500000 0.273080
O O16 0.407416 0.376231 0.197723
O O17 0.454252 0.303759 0.336915
O O18 0.593347 0.500000 0.270412
#
# Coordination Sequence:
#
# PCOD9207010 Si02
#       8
#     8   8   8   4   8   8   8   8
#     4   9  19  36  58  83 113 145 181 226 273 325
#     4   9  17  34  58  80 106 145 184 224 275 323
#     4  10  21  37  56  80 113 147 183 226 278 327
#     4  12  22  36  58  80 110 144 190 232 274 328
#     4   9  18  32  54  83 112 148 189 220 258 323
#     4   9  17  34  58  80 106 145 184 224 275 323
#     4   9  19  36  58  83 113 145 181 226 273 325
#     4  10  21  37  56  80 113 147 183 226 278 327
#
# _framework density 22.663924000000002
#
# number of rings (size 3 to 8) (size 9 to 14) (size 15 to 20)
#    0.000    2.533    1.333    0.400    1.867    0.000 
#    0.000    9.333    0.000   10.400    0.000    0.000 
#    0.000    0.000    0.000    0.000    0.000    0.000 
#
# Total GULP energy -167244.172248 kJ/mol
# GULP energy per Si atom -5574.805742 kJ/mol
# Density = 2.261234 g / cm^3
# Si number density = 22.663924 Si / 1000 Ang^3
#
#
#
# Elastic Constant Matrix: (Units=GPa)
#
#
# Indices 1 2 3 4 5 6 
#
# 1 140.2311 13.5198 28.4721 0.0000 7.6409 0.0000
# 2 13.5198 52.5154 -3.8376 0.0000 10.4533 0.0000
# 3 28.4721 -3.8376 37.8918 0.0000 16.1819 0.0000
# 4 0.0000 0.0000 0.0000 13.3701 0.0000 -2.1350
# 5 7.6409 10.4533 16.1819 0.0000 39.5497 0.0000
# 6 0.0000 0.0000 0.0000 -2.1350 0.0000 13.8885
#
#
#
# Elastic Compliance Matrix: (Units=1/GPa)
#
#
# Indices 1 2 3 4 5 6 
#
# 1 0.008980 -0.003407 -0.008163 0.000000 0.002505 0.000000
# 2 -0.003407 0.022280 0.008543 0.000000 -0.008726 0.000000
# 3 -0.008163 0.008543 0.040812 0.000000 -0.017379 0.000000
# 4 0.000000 0.000000 0.000000 0.076676 0.000000 0.011787
# 5 0.002505 -0.008726 -0.017379 0.000000 0.034218 0.000000
# 6 0.000000 0.000000 0.000000 0.011787 0.000000 0.073814
#
#
# Mechanical properties :
#
#
# Convention : Reuss Voigt Hill
#
# Bulk Modulus (GPa) = 15.14719 34.10521 24.62620
# Shear Modulus (GPa) = 17.55367 26.19391 21.87379
#
# Velocity S-wave (km/s) = 2.78604 3.40333 3.11004
# Velocity P-wave (km/s) = 4.12883 5.52489 4.87707
#
# Compressibility (1/GPa) = 0.06601883
#
# Stress axis : x y z
#
# Youngs Moduli (GPa) = 111.35299 44.88235 24.50272
#
# Poissons Ratio (x) = 0.15292 0.20002
# Poissons Ratio (y) = 0.37940 -0.20933
# Poissons Ratio (z) = 0.90897 -0.38344
#
# Static dielectric constant tensor:
#      x y z
#    x 1.889710 0.000000 -0.002470 
#    y 0.000000 1.873290 0.000000 
#    z -0.002470 0.000000 1.846210 
# 
# From -- ./inp_files/311044.got.cif
#   From: 2010.05.17/outbox.cif.g08.bks.cpg/sg12_156_cif.got.tgz:311044.got - 2010.06.03 13:09:07.
