data_PCOD9207611
_publ_section_title
;
Structure prediction by ZEFSAII (Michael W. Deem and Ramdas Pophale) SiO2 
 PCOD9207611
Probable space group: C 2/M
;
_chemical_formula_sum "Si O2"
_cell_formula_units_Z 40
_cell_length_a 27.971339
_cell_length_b 15.292493
_cell_length_c 9.294894
_cell_angle_alpha 90.000000
_cell_angle_beta 148.557302
_cell_angle_gamma 90.000000
_cell_volume 2074.013184
_symmetry_space_group_name_H-M "C 2/M"
_symmetry_group_IT_number 12
_symmetry_cell_setting 'monoclinic'
loop_
_space_group_symop_operation_xyz
x,y,z
-x,y,-z
-x,-y,-z
x,-y,z
1/2+x,1/2+y,z
1/2-x,1/2+y,-z
1/2-x,1/2-y,-z
1/2+x,1/2-y,z
loop_
_atom_site_type_symbol
_atom_site_label
_atom_site_fract_x
_atom_site_fract_y
_atom_site_fract_z
Si Si1 0.087017 0.395691 0.636161
Si Si2 0.774193 0.832653 0.659589
Si Si3 0.912925 0.603923 0.691981
Si Si4 0.891638 0.102354 0.706858
Si Si5 0.754232 0.709457 0.852134
O O1 0.079292 0.500000 0.608524
O O2 0.092138 0.362315 0.484745
O O3 0.000000 0.360927 0.500000
O O4 0.176584 0.370942 0.954504
O O5 0.750000 0.750000 0.500000
O O6 0.680213 0.881052 0.459785
O O7 0.844519 0.886836 0.743677
O O8 0.801379 0.785467 0.877380
O O9 0.926161 0.500000 0.714573
O O10 0.000000 0.641724 0.000000
O O11 0.836767 0.169217 0.458860
O O12 0.882089 0.000000 0.637176
O O13 0.000000 0.122038 0.000000
O O14 0.750000 0.750000 0.000000
#
# Coordination Sequence:
#
# PCOD9207611 Si02
#       5
#     8   8   8   8   8
#     4  10  22  38  59  88 120 157 195 241 305 363
#     4  10  22  37  60  85 118 157 199 246 301 353
#     4  10  21  37  59  86 117 155 199 244 293 357
#     4  10  23  43  65  87 118 166 215 250 288 353
#     4  11  22  40  61  92 124 155 195 252 314 359
#
# _framework density 19.286280999999999
#
# number of rings (size 3 to 8) (size 9 to 14) (size 15 to 20)
#    0.000    1.800    2.000    1.200    5.600    4.800 
#    0.000    0.000    0.000    2.400    0.000    0.000 
#    0.000    0.000    0.000    0.000    0.000    0.000 
#
# Total GULP energy -111401.430451 kJ/mol
# GULP energy per Si atom -5570.071523 kJ/mol
# Density = 1.924238 g / cm^3
# Si number density = 19.286281 Si / 1000 Ang^3
#
#
#
# Elastic Constant Matrix: (Units=GPa)
#
#
# Indices 1 2 3 4 5 6 
#
# 1 129.0982 19.4579 71.4232 0.0000 9.8548 0.0000
# 2 19.4579 52.5053 27.9214 0.0000 -3.0054 0.0000
# 3 71.4232 27.9214 134.5842 0.0000 8.4586 0.0000
# 4 0.0000 0.0000 0.0000 -76.3873 0.0000 -97.4146
# 5 9.8548 -3.0054 8.4586 0.0000 32.0102 0.0000
# 6 0.0000 0.0000 0.0000 -97.4146 0.0000 -62.7715
#
#
#
# Elastic Compliance Matrix: (Units=1/GPa)
#
#
# Indices 1 2 3 4 5 6 
#
# 1 0.011157 -0.001322 -0.005514 0.000000 -0.002102 0.000000
# 2 -0.001322 0.021899 -0.004064 0.000000 0.003537 0.000000
# 3 -0.005514 -0.004064 0.011305 0.000000 -0.001671 0.000000
# 4 0.000000 0.000000 0.000000 0.013371 0.000000 -0.020750
# 5 -0.002102 0.003537 -0.001671 0.000000 0.032661 0.000000
# 6 0.000000 0.000000 0.000000 -0.020750 0.000000 0.016271
#
#
# Mechanical properties :
#
#
# Convention : Reuss Voigt Hill
#
# Bulk Modulus (GPa) = 44.32692 61.53251 52.92972
# Shear Modulus (GPa) = 36.76895 -8.27070 14.24912
#
# Velocity S-wave (km/s) = 4.37106 -2.07309 2.72108
# Velocity P-wave (km/s) = 6.96480 5.12287 6.11360
#
# Compressibility (1/GPa) = 0.02255965
#
# Stress axis : x y z
#
# Youngs Moduli (GPa) = 89.63337 45.66353 88.45774
#
# Poissons Ratio (x) = 0.06039 0.48778
# Poissons Ratio (y) = 0.11853 0.35948
# Poissons Ratio (z) = 0.49426 0.18557
#
# Static dielectric constant tensor:
#      x y z
#    x 1.706170 0.000000 -0.010600 
#    y 0.000000 1.694590 0.000000 
#    z -0.010600 0.000000 1.688630 
# 
# From -- ./inp_files/46970.got.cif
#   From: 2010.05.17/outbox.cif.g08.bks.cpg/sg12_24_cif.got.tgz:46970.got - 2010.06.03 13:09:07.
