data_PCOD9207731
_publ_section_title
;
Structure prediction by ZEFSAII (Michael W. Deem and Ramdas Pophale) SiO2 
 PCOD9207731
Probable space group: C 2/M
;
_chemical_formula_sum "Si O2"
_cell_formula_units_Z 64
_cell_length_a 14.844422
_cell_length_b 24.594849
_cell_length_c 16.541556
_cell_angle_alpha 90.000000
_cell_angle_beta 144.899796
_cell_angle_gamma 90.000000
_cell_volume 3472.624491
_symmetry_space_group_name_H-M "C 2/M"
_symmetry_group_IT_number 12
_symmetry_cell_setting 'monoclinic'
loop_
_space_group_symop_operation_xyz
x,y,z
-x,y,-z
-x,-y,-z
x,-y,z
1/2+x,1/2+y,z
1/2-x,1/2+y,-z
1/2-x,1/2-y,-z
1/2+x,1/2-y,z
loop_
_atom_site_type_symbol
_atom_site_label
_atom_site_fract_x
_atom_site_fract_y
_atom_site_fract_z
Si Si1 0.268744 0.273356 0.689834
Si Si2 0.379798 0.154309 0.736671
Si Si3 0.531049 0.058544 0.929298
Si Si4 0.971704 0.861533 0.071656
Si Si5 0.099050 0.935031 0.822990
Si Si6 0.171836 0.292362 0.881767
Si Si7 0.998205 0.752946 0.386316
Si Si8 0.453476 0.621972 0.556485
O O1 0.342346 0.212849 0.748820
O O2 0.392534 0.320271 0.797365
O O3 0.169134 0.270659 0.533168
O O4 0.131487 0.277213 0.655069
O O5 0.549361 0.162981 0.822215
O O6 0.233193 0.134066 0.576075
O O7 0.410209 0.105060 0.818153
O O8 0.713285 0.072408 0.048940
O O9 0.500396 0.000000 0.865407
O O10 0.500000 0.051957 0.000000
O O11 0.949779 0.904787 0.128994
O O12 0.815831 0.824615 0.949106
O O13 0.000000 0.882362 0.000000
O O14 0.017515 0.910199 0.681738
O O15 0.068182 0.000000 0.804338
O O16 0.057133 0.255751 0.743968
O O17 0.250000 0.250000 0.000000
O O18 0.982376 0.816297 0.395022
O O19 0.500000 0.600195 0.500000
#
# Coordination Sequence:
#
# PCOD9207731 Si02
#       8
#     8   8   8   8   8   8   8   8
#     4  10  21  37  59  89 128 165 203 254 314 390
#     4  11  22  35  57  91 126 164 199 257 311 380
#     4  10  22  39  60  85 121 166 208 262 330 385
#     4  12  24  42  65  94 124 173 224 266 320 385
#     4  11  26  45  64  91 126 166 221 280 322 378
#     4  12  23  34  56  92 129 165 211 257 314 381
#     4  10  21  38  56  91 132 168 200 247 318 392
#     4  11  22  39  64  94 128 167 207 250 323 398
#
# _framework density 18.429864999999999
#
# number of rings (size 3 to 8) (size 9 to 14) (size 15 to 20)
#    0.000    1.125    6.250    1.500    1.750    2.500 
#    0.000    0.000    0.000    0.000    0.000    2.625 
#    0.000    0.000    0.000    0.000    0.000    0.000 
#
# Total GULP energy -178194.590122 kJ/mol
# GULP energy per Si atom -5568.580941 kJ/mol
# Density = 1.838792 g / cm^3
# Si number density = 18.429865 Si / 1000 Ang^3
#
#
#
# Elastic Constant Matrix: (Units=GPa)
#
#
# Indices 1 2 3 4 5 6 
#
# 1 84.0464 38.1374 40.1540 0.0000 -8.2390 0.0000
# 2 38.1374 89.2450 57.9144 0.0000 -11.4409 0.0000
# 3 40.1540 57.9144 103.7184 0.0000 -8.7362 0.0000
# 4 0.0000 0.0000 0.0000 -200.3473 0.0000 -65.9416
# 5 -8.2390 -11.4409 -8.7362 0.0000 40.0214 0.0000
# 6 0.0000 0.0000 0.0000 -65.9416 0.0000 9.0803
#
#
#
# Elastic Compliance Matrix: (Units=1/GPa)
#
#
# Indices 1 2 3 4 5 6 
#
# 1 0.015645 -0.004178 -0.003620 0.000000 0.001236 0.000000
# 2 -0.004178 0.019034 -0.008786 0.000000 0.002663 0.000000
# 3 -0.003620 -0.008786 0.015968 0.000000 0.000229 0.000000
# 4 0.000000 0.000000 0.000000 -0.001472 0.000000 -0.010692
# 5 0.001236 0.002663 0.000229 0.000000 0.026052 0.000000
# 6 0.000000 0.000000 0.000000 -0.010692 0.000000 0.032484
#
#
# Mechanical properties :
#
#
# Convention : Reuss Voigt Hill
#
# Bulk Modulus (GPa) = 57.21302 61.04682 59.12992
# Shear Modulus (GPa) = 34.08209 -20.86218 6.60995
#
# Velocity S-wave (km/s) = 4.30500 -3.36814 1.89587
# Velocity P-wave (km/s) = 7.47139 4.25088 6.07831
#
# Compressibility (1/GPa) = 0.01747854
#
# Stress axis : x y z
#
# Youngs Moduli (GPa) = 63.92007 52.53860 62.62477
#
# Poissons Ratio (x) = 0.21951 0.22668
# Poissons Ratio (y) = 0.26706 0.55023
# Poissons Ratio (z) = 0.23137 0.46161
#
# Static dielectric constant tensor:
#      x y z
#    x 1.628000 0.000000 -0.031460 
#    y 0.000000 1.811120 0.000000 
#    z -0.031460 0.000000 1.663390 
# 
# From -- ./inp_files/272889.got.cif
#   From: 2010.05.17/outbox.cif.g08.bks.cpg/sg12_137_cif.got.tgz:272889.got - 2010.06.03 13:09:07.
