data_PCOD9207198
_publ_section_title
;
Structure prediction by ZEFSAII (Michael W. Deem and Ramdas Pophale) SiO2 
 PCOD9207198
Probable space group: C 2/M
;
_chemical_formula_sum "Si O2"
_cell_formula_units_Z 56
_cell_length_a 27.200903
_cell_length_b 13.840160
_cell_length_c 14.983533
_cell_angle_alpha 90.000000
_cell_angle_beta 151.626649
_cell_angle_gamma 90.000000
_cell_volume 2680.580301
_symmetry_space_group_name_H-M "C 2/M"
_symmetry_group_IT_number 12
_symmetry_cell_setting 'monoclinic'
loop_
_space_group_symop_operation_xyz
x,y,z
-x,y,-z
-x,-y,-z
x,-y,z
1/2+x,1/2+y,z
1/2-x,1/2+y,-z
1/2-x,1/2-y,-z
1/2+x,1/2-y,z
loop_
_atom_site_type_symbol
_atom_site_label
_atom_site_fract_x
_atom_site_fract_y
_atom_site_fract_z
Si Si1 0.225226 0.110301 0.952162
Si Si2 0.602792 0.192884 0.107004
Si Si3 0.410248 0.109186 0.108889
Si Si4 0.105923 0.728113 0.462843
Si Si5 0.695310 0.389414 0.273115
Si Si6 0.382000 0.228229 0.315120
Si Si7 0.189232 0.111454 0.476422
O O1 0.304170 0.114922 0.994238
O O2 0.294603 0.152543 0.143655
O O3 0.194410 0.000000 0.918566
O O4 0.133384 0.181482 0.776537
O O5 0.622052 0.306092 0.116682
O O6 0.698653 0.153821 0.318157
O O7 0.500000 0.180512 0.000000
O O8 0.601890 0.134808 0.013784
O O9 0.493610 0.181722 0.281922
O O10 0.449351 0.000000 0.180898
O O11 0.188852 0.647795 0.562672
O O12 0.136459 0.756993 0.611833
O O13 0.112577 0.817894 0.406337
O O14 0.679107 0.500000 0.217982
O O15 0.677765 0.384656 0.351739
O O16 0.500000 0.190721 0.500000
O O17 0.180724 0.000000 0.490947
#
# Coordination Sequence:
#
# PCOD9207198 Si02
#       7
#     8   8   8   8   8   8   8
#     4  10  23  42  65  92 123 162 210 258 309 371
#     4  11  21  34  54  84 118 153 196 252 305 355
#     4  11  22  37  59  87 118 156 204 254 306 364
#     4  11  21  38  63  87 120 158 202 249 309 366
#     4  10  21  37  57  83 116 157 202 246 303 370
#     4  11  23  42  65  93 128 164 205 259 314 368
#     4  10  21  38  59  85 117 156 200 246 304 371
#
# _framework density 20.890998
#
# number of rings (size 3 to 8) (size 9 to 14) (size 15 to 20)
#    0.000    1.429    1.429    6.000    0.000    6.000 
#    0.000    0.714    0.000    0.000    0.000    0.000 
#    0.000    0.000    0.000    0.000    0.000    0.000 
#
# Total GULP energy -156517.957570 kJ/mol
# GULP energy per Si atom -5589.927056 kJ/mol
# Density = 2.084345 g / cm^3
# Si number density = 20.890998 Si / 1000 Ang^3
#
#
#
# Elastic Constant Matrix: (Units=GPa)
#
#
# Indices 1 2 3 4 5 6 
#
# 1 40.0907 -0.4416 -4.4618 0.0000 1.3229 0.0000
# 2 -0.4416 117.1193 9.2542 0.0000 3.8288 0.0000
# 3 -4.4618 9.2542 44.2113 0.0000 -5.0875 0.0000
# 4 0.0000 0.0000 0.0000 16.1897 0.0000 0.2659
# 5 1.3229 3.8288 -5.0875 0.0000 12.8524 0.0000
# 6 0.0000 0.0000 0.0000 0.2659 0.0000 23.1665
#
#
#
# Elastic Compliance Matrix: (Units=1/GPa)
#
#
# Indices 1 2 3 4 5 6 
#
# 1 0.025261 -0.000038 0.002367 0.000000 -0.001652 0.000000
# 2 -0.000038 0.008832 -0.002258 0.000000 -0.003521 0.000000
# 3 0.002367 -0.002258 0.024495 0.000000 0.010125 0.000000
# 4 0.000000 0.000000 0.000000 0.061779 0.000000 -0.000709
# 5 -0.001652 -0.003521 0.010125 0.000000 0.083033 0.000000
# 6 0.000000 0.000000 0.000000 -0.000709 0.000000 0.043174
#
#
# Mechanical properties :
#
#
# Convention : Reuss Voigt Hill
#
# Bulk Modulus (GPa) = 17.02665 23.34700 20.18682
# Shear Modulus (GPa) = 18.79646 23.57976 21.18811
#
# Velocity S-wave (km/s) = 3.00282 3.36326 3.18814
# Velocity P-wave (km/s) = 4.49338 5.12659 4.82040
#
# Compressibility (1/GPa) = 0.05873145
#
# Stress axis : x y z
#
# Youngs Moduli (GPa) = 39.58670 113.22924 40.82430
#
# Poissons Ratio (x) = 0.00428 -0.09664
# Poissons Ratio (y) = 0.00150 0.09216
# Poissons Ratio (z) = -0.09371 0.25562
#
# Static dielectric constant tensor:
#      x y z
#    x 1.784340 0.000000 0.015050 
#    y 0.000000 1.765640 0.000000 
#    z 0.015050 0.000000 1.749570 
# 
# From -- ./inp_files/246609.got.cif
#   From: 2010.05.17/outbox.cif.g08.bks.cpg/sg12_124_cif.got.tgz:246609.got - 2010.06.03 13:09:07.
