data_PCOD9207858
_publ_section_title
;
Structure prediction by ZEFSAII (Michael W. Deem and Ramdas Pophale) SiO2 
 PCOD9207858
Probable space group: C 2/M
;
_chemical_formula_sum "Si O2"
_cell_formula_units_Z 48
_cell_length_a 22.280788
_cell_length_b 14.130280
_cell_length_c 12.252587
_cell_angle_alpha 90.000000
_cell_angle_beta 141.578116
_cell_angle_gamma 90.000000
_cell_volume 2397.249575
_symmetry_space_group_name_H-M "C 2/M"
_symmetry_group_IT_number 12
_symmetry_cell_setting 'monoclinic'
loop_
_space_group_symop_operation_xyz
x,y,z
-x,y,-z
-x,-y,-z
x,-y,z
1/2+x,1/2+y,z
1/2-x,1/2+y,-z
1/2-x,1/2-y,-z
1/2+x,1/2-y,z
loop_
_atom_site_type_symbol
_atom_site_label
_atom_site_fract_x
_atom_site_fract_y
_atom_site_fract_z
Si Si1 0.158220 0.389363 0.960687
Si Si2 0.885925 0.394795 0.353546
Si Si3 0.613278 0.390258 0.144547
Si Si4 0.473346 0.114135 0.838175
Si Si5 0.244516 0.756012 0.742792
Si Si6 0.243780 0.611147 0.448739
O O1 0.172334 0.500000 0.010359
O O2 0.157230 0.384059 0.829178
O O3 0.055013 0.359076 0.867181
O O4 0.237459 0.323670 0.128864
O O5 0.861721 0.500000 0.363109
O O6 0.846114 0.312003 0.370915
O O7 0.000000 0.391120 0.500000
O O8 0.623514 0.500000 0.122777
O O9 0.664770 0.315527 0.139560
O O10 0.673811 0.380521 0.343088
O O11 0.500000 0.372218 0.000000
O O12 0.362341 0.139852 0.657498
O O13 0.475524 0.000000 0.842217
O O14 0.500000 0.145017 0.000000
O O15 0.238217 0.823191 0.629135
O O16 0.237909 0.500000 0.408323
#
# Coordination Sequence:
#
# PCOD9207858 Si02
#       6
#     8   8   8   8   8   8
#     4  10  21  37  60  88 122 154 192 247 302 351
#     4  10  24  43  60  83 116 158 205 253 296 343
#     4  10  24  41  55  82 126 167 199 238 295 363
#     4   9  16  30  56  91 120 148 183 236 304 355
#     4  12  22  36  64  89 117 154 201 247 296 356
#     4  10  21  37  60  92 126 155 195 246 301 357
#
# _framework density 20.022946000000001
#
# number of rings (size 3 to 8) (size 9 to 14) (size 15 to 20)
#    0.000    1.833    1.667    2.000    4.667    1.333 
#    0.000    0.000    0.000    2.000    0.000    0.000 
#    0.000    0.000    0.000    0.000    0.000    0.000 
#
# Total GULP energy -134144.301534 kJ/mol
# GULP energy per Si atom -5589.345897 kJ/mol
# Density = 1.997737 g / cm^3
# Si number density = 20.022946 Si / 1000 Ang^3
#
#
#
# Elastic Constant Matrix: (Units=GPa)
#
#
# Indices 1 2 3 4 5 6 
#
# 1 36.1708 30.7143 -0.4953 0.0000 10.7175 0.0000
# 2 30.7143 120.6669 25.2669 0.0000 -1.3945 0.0000
# 3 -0.4953 25.2669 73.0725 0.0000 11.9440 0.0000
# 4 0.0000 0.0000 0.0000 6.7293 0.0000 1.0287
# 5 10.7175 -1.3945 11.9440 0.0000 26.6302 0.0000
# 6 0.0000 0.0000 0.0000 1.0287 0.0000 37.2680
#
#
#
# Elastic Compliance Matrix: (Units=1/GPa)
#
#
# Indices 1 2 3 4 5 6 
#
# 1 0.046679 -0.014044 0.009025 0.000000 -0.023570 0.000000
# 2 -0.014044 0.013259 -0.006170 0.000000 0.009113 0.000000
# 3 0.009025 -0.006170 0.017833 0.000000 -0.011954 0.000000
# 4 0.000000 0.000000 0.000000 0.149234 0.000000 -0.004119
# 5 -0.023570 0.009113 -0.011954 0.000000 0.052876 0.000000
# 6 0.000000 0.000000 0.000000 -0.004119 0.000000 0.026946
#
#
# Mechanical properties :
#
#
# Convention : Reuss Voigt Hill
#
# Bulk Modulus (GPa) = 18.05215 37.87577 27.96396
# Shear Modulus (GPa) = 14.38149 25.75380 20.06764
#
# Velocity S-wave (km/s) = 2.68293 3.59027 3.16924
# Velocity P-wave (km/s) = 4.31657 6.01199 5.23339
#
# Compressibility (1/GPa) = 0.05539507
#
# Stress axis : x y z
#
# Youngs Moduli (GPa) = 21.42281 75.41957 56.07452
#
# Poissons Ratio (x) = 1.05918 -0.50607
# Poissons Ratio (y) = 0.30086 0.34596
# Poissons Ratio (z) = -0.19334 0.46531
#
# Static dielectric constant tensor:
#      x y z
#    x 1.701980 0.000000 -0.001360 
#    y 0.000000 1.729430 0.000000 
#    z -0.001360 0.000000 1.711740 
# 
# From -- ./inp_files/167551.got.cif
#   From: 2010.05.17/outbox.cif.g08.bks.cpg/sg12_84_cif.got.tgz:167551.got - 2010.06.03 13:09:07.
