data_PCOD9207068
_publ_section_title
;
Structure prediction by ZEFSAII (Michael W. Deem and Ramdas Pophale) SiO2 
 PCOD9207068
Probable space group: C 2/M
;
_chemical_formula_sum "Si O2"
_cell_formula_units_Z 56
_cell_length_a 27.309158
_cell_length_b 17.933672
_cell_length_c 6.881087
_cell_angle_alpha 90.000000
_cell_angle_beta 58.991888
_cell_angle_gamma 90.000000
_cell_volume 2888.439164
_symmetry_space_group_name_H-M "C 2/M"
_symmetry_group_IT_number 12
_symmetry_cell_setting 'monoclinic'
loop_
_space_group_symop_operation_xyz
x,y,z
-x,y,-z
-x,-y,-z
x,-y,z
1/2+x,1/2+y,z
1/2-x,1/2+y,-z
1/2-x,1/2-y,-z
1/2+x,1/2-y,z
loop_
_atom_site_type_symbol
_atom_site_label
_atom_site_fract_x
_atom_site_fract_y
_atom_site_fract_z
Si Si1 0.873513 0.586218 0.412976
Si Si2 0.419236 0.790356 0.616538
Si Si3 0.237382 0.083936 0.684401
Si Si4 0.058262 0.325989 0.006052
Si Si5 0.305808 0.297954 0.933359
Si Si6 0.440046 0.316946 0.222632
Si Si7 0.163229 0.915952 0.458360
O O1 0.886099 0.500000 0.428310
O O2 0.902098 0.641233 0.511606
O O3 0.805297 0.596523 0.552363
O O4 0.899224 0.609902 0.151612
O O5 0.360617 0.755308 0.821800
O O6 0.445229 0.725390 0.422126
O O7 0.451212 0.818843 0.744940
O O8 0.212097 0.082816 0.520917
O O9 0.226715 0.000000 0.788965
O O10 0.206169 0.151264 0.856036
O O11 0.083117 0.247940 0.872633
O O12 0.000000 0.335948 0.000000
O O13 0.317631 0.357968 0.741776
O O14 0.250000 0.250000 0.000000
O O15 0.395777 0.383689 0.333605
O O16 0.500000 0.338620 0.000000
O O17 0.154761 0.000000 0.402941
#
# Coordination Sequence:
#
# PCOD9207068 Si02
#       7
#     8   8   8   8   8   8   8
#     4  10  22  37  55  83 115 153 197 238 293 355
#     4  10  21  39  59  85 117 148 193 245 293 342
#     4  10  21  37  56  83 122 157 192 239 289 346
#     4  10  22  39  59  83 112 150 195 247 292 346
#     4  11  21  35  59  89 115 156 194 235 288 347
#     4   9  20  38  60  87 116 151 195 242 288 346
#     4  10  22  38  58  87 123 159 194 239 290 344
#
# _framework density 19.387633999999998
#
# number of rings (size 3 to 8) (size 9 to 14) (size 15 to 20)
#    0.000    2.000    1.429    1.286    2.000    6.857 
#    0.000    0.714    0.000    0.000    0.000   14.000 
#    0.000    0.000    0.000    0.000    0.000    0.000 
#
# Total GULP energy -156201.128926 kJ/mol
# GULP energy per Si atom -5578.611747 kJ/mol
# Density = 1.934351 g / cm^3
# Si number density = 19.387634 Si / 1000 Ang^3
#
#
#
# Elastic Constant Matrix: (Units=GPa)
#
#
# Indices 1 2 3 4 5 6 
#
# 1 76.6713 28.0545 31.7160 0.0000 4.2735 0.0000
# 2 28.0545 90.6369 22.2885 0.0000 -6.7838 0.0000
# 3 31.7160 22.2885 86.2130 0.0000 4.1055 0.0000
# 4 0.0000 0.0000 0.0000 -17.0024 0.0000 65.2455
# 5 4.2735 -6.7838 4.1055 0.0000 33.0007 0.0000
# 6 0.0000 0.0000 0.0000 65.2455 0.0000 -85.9391
#
#
#
# Elastic Compliance Matrix: (Units=1/GPa)
#
#
# Indices 1 2 3 4 5 6 
#
# 1 0.016751 -0.004140 -0.004977 0.000000 -0.002401 0.000000
# 2 -0.004140 0.013072 -0.002022 0.000000 0.003475 0.000000
# 3 -0.004977 -0.002022 0.014025 0.000000 -0.001516 0.000000
# 4 0.000000 0.000000 0.000000 0.030739 0.000000 0.023337
# 5 -0.002401 0.003475 -0.001516 0.000000 0.031516 0.000000
# 6 0.000000 0.000000 0.000000 0.023337 0.000000 0.006081
#
#
# Mechanical properties :
#
#
# Convention : Reuss Voigt Hill
#
# Bulk Modulus (GPa) = 46.36431 46.40436 46.38434
# Shear Modulus (GPa) = 35.29768 -2.55737 16.37016
#
# Velocity S-wave (km/s) = 4.27151 -1.14975 2.90894
# Velocity P-wave (km/s) = 6.94939 4.71428 5.93795
#
# Compressibility (1/GPa) = 0.02156832
#
# Stress axis : x y z
#
# Youngs Moduli (GPa) = 59.69965 76.50023 71.30055
#
# Poissons Ratio (x) = 0.31674 0.35489
# Poissons Ratio (y) = 0.24718 0.14415
# Poissons Ratio (z) = 0.29715 0.15466
#
# Static dielectric constant tensor:
#      x y z
#    x 1.692670 0.000000 -0.011720 
#    y 0.000000 1.681850 0.000000 
#    z -0.011720 0.000000 1.722550 
# 
# From -- ./inp_files/31978.got.cif
#   From: 2010.05.17/outbox.cif.g08.bks.cpg/sg12_16_cif.got.tgz:31978.got - 2010.06.03 13:09:07.
