data_PCOD9207278
_publ_section_title
;
Structure prediction by ZEFSAII (Michael W. Deem and Ramdas Pophale) SiO2 
 PCOD9207278
Probable space group: C 2/M
;
_chemical_formula_sum "Si O2"
_cell_formula_units_Z 60
_cell_length_a 23.095011
_cell_length_b 21.204587
_cell_length_c 12.194248
_cell_angle_alpha 90.000000
_cell_angle_beta 29.825447
_cell_angle_gamma 90.000000
_cell_volume 2970.115047
_symmetry_space_group_name_H-M "C 2/M"
_symmetry_group_IT_number 12
_symmetry_cell_setting 'monoclinic'
loop_
_space_group_symop_operation_xyz
x,y,z
-x,y,-z
-x,-y,-z
x,-y,z
1/2+x,1/2+y,z
1/2-x,1/2+y,-z
1/2-x,1/2-y,-z
1/2+x,1/2-y,z
loop_
_atom_site_type_symbol
_atom_site_label
_atom_site_fract_x
_atom_site_fract_y
_atom_site_fract_z
Si Si1 0.885587 0.726232 0.618880
Si Si2 0.755703 0.145192 0.849412
Si Si3 0.360708 0.572710 0.224453
Si Si4 0.752770 0.574138 0.359832
Si Si5 0.594943 0.572889 0.248130
Si Si6 0.500000 0.868829 0.000000
Si Si7 0.153125 0.158265 0.958661
Si Si8 0.520264 0.212995 0.178837
O O1 0.839839 0.795031 0.729952
O O2 0.774773 0.680866 0.811818
O O3 0.000000 0.709904 0.500000
O O4 0.923457 0.725581 0.429393
O O5 0.781908 0.115075 0.687880
O O6 0.784533 0.092675 0.891636
O O7 0.624567 0.171257 0.060805
O O8 0.323394 0.500000 0.267084
O O9 0.313614 0.592488 0.420328
O O10 0.321913 0.617127 0.189566
O O11 0.500000 0.574147 0.000000
O O12 0.732315 0.500000 0.372300
O O13 0.888305 0.588657 0.158396
O O14 0.500000 0.582721 0.500000
O O15 0.591522 0.500000 0.221007
O O16 0.582789 0.616974 0.162660
O O17 0.477816 0.824276 0.141744
O O18 0.080884 0.220907 0.048294
#
# Coordination Sequence:
#
# PCOD9207278 Si02
#       8
#     8   8   8   8   8   4   8   8
#     4  11  22  38  61  85 116 156 192 237 295 347
#     4  10  21  37  57  87 116 147 194 240 285 345
#     4  10  23  39  59  86 118 157 196 238 292 351
#     4  10  21  38  60  84 116 155 196 241 293 346
#     4  11  23  37  59  85 113 148 187 235 288 340
#     4  10  21  38  58  86 117 150 198 244 288 348
#     4  11  23  39  60  86 118 153 193 241 290 348
#     4  10  22  36  58  86 115 152 191 237 290 342
#
# _framework density 20.201238
#
# number of rings (size 3 to 8) (size 9 to 14) (size 15 to 20)
#    0.000    1.600    0.000    4.600    4.667    2.133 
#    0.000    4.000    0.000    9.600    0.000    0.000 
#    0.000    0.000    0.000    0.000    0.000    0.000 
#
# Total GULP energy -167752.802507 kJ/mol
# GULP energy per Si atom -5591.760084 kJ/mol
# Density = 2.015526 g / cm^3
# Si number density = 20.201238 Si / 1000 Ang^3
#
#
#
# Elastic Constant Matrix: (Units=GPa)
#
#
# Indices 1 2 3 4 5 6 
#
# 1 40.4685 16.5959 -5.3647 0.0000 2.8305 -0.0006
# 2 16.5959 71.1852 10.3385 -0.0003 -0.5877 -0.0009
# 3 -5.3647 10.3385 63.9785 -0.0001 10.1151 -0.0014
# 4 0.0000 -0.0003 -0.0001 36.3891 0.0000 40.2065
# 5 2.8305 -0.5877 10.1151 0.0000 24.7561 0.0006
# 6 -0.0006 -0.0009 -0.0014 40.2065 0.0006 69.0166
#
#
#
# Elastic Compliance Matrix: (Units=1/GPa)
#
#
# Indices 1 2 3 4 5 6 
#
# 1 0.028691 -0.007376 0.004430 -0.000001 -0.005266 0.000001
# 2 -0.007376 0.016326 -0.003690 0.000000 0.002738 0.000000
# 3 0.004430 -0.003690 0.017845 -0.000001 -0.007885 0.000001
# 4 -0.000001 0.000000 -0.000001 0.077123 0.000002 -0.044929
# 5 -0.005266 0.002738 -0.007885 0.000002 0.044283 -0.000001
# 6 0.000001 0.000000 0.000001 -0.044929 -0.000001 0.040663
#
#
# Mechanical properties :
#
#
# Convention : Reuss Voigt Hill
#
# Bulk Modulus (GPa) = 20.16496 24.30795 22.23646
# Shear Modulus (GPa) = 19.62851 36.30320 27.96585
#
# Velocity S-wave (km/s) = 3.12051 4.24379 3.72474
# Velocity P-wave (km/s) = 4.79449 6.00600 5.43412
#
# Compressibility (1/GPa) = 0.04959097
#
# Stress axis : x y z
#
# Youngs Moduli (GPa) = 34.85425 61.25238 56.03937
#
# Poissons Ratio (x) = 0.45178 -0.24826
# Poissons Ratio (y) = 0.25708 0.20676
# Poissons Ratio (z) = -0.15441 0.22599
#
# Static dielectric constant tensor:
#      x y z
#    x 1.715920 0.000000 -0.004940 
#    y 0.000000 1.688180 0.000000 
#    z -0.004940 0.000000 1.716110 
# 
# From -- ./inp_files/178026.got.cif
#   From: 2010.05.17/outbox.cif.g08.bks.cpg/sg12_90_cif.got.tgz:178026.got - 2010.06.03 13:09:07.
