data_PCOD9207240
_publ_section_title
;
Structure prediction by ZEFSAII (Michael W. Deem and Ramdas Pophale) SiO2 
 PCOD9207240
Probable space group: C 2/M
;
_chemical_formula_sum "Si O2"
_cell_formula_units_Z 64
_cell_length_a 7.324363
_cell_length_b 11.694807
_cell_length_c 27.737879
_cell_angle_alpha 90.000000
_cell_angle_beta 85.927325
_cell_angle_gamma 90.000000
_cell_volume 2369.944015
_symmetry_space_group_name_H-M "C 2/M"
_symmetry_group_IT_number 12
_symmetry_cell_setting 'monoclinic'
loop_
_space_group_symop_operation_xyz
x,y,z
-x,y,-z
-x,-y,-z
x,-y,z
1/2+x,1/2+y,z
1/2-x,1/2+y,-z
1/2-x,1/2-y,-z
1/2+x,1/2-y,z
loop_
_atom_site_type_symbol
_atom_site_label
_atom_site_fract_x
_atom_site_fract_y
_atom_site_fract_z
Si Si1 0.099530 0.115710 0.897675
Si Si2 0.354949 0.374699 0.345337
Si Si3 0.739045 0.121655 0.781078
Si Si4 0.355476 0.873777 0.752596
Si Si5 0.278721 0.372757 0.973747
Si Si6 0.802795 0.375846 0.480532
Si Si7 0.972261 0.351183 0.117747
Si Si8 0.532217 0.871622 0.625082
O O1 0.021031 0.218416 0.870499
O O2 0.317786 0.117913 0.896593
O O3 0.040072 0.000000 0.875013
O O4 0.986862 0.123109 0.949684
O O5 0.450521 0.500000 0.348029
O O6 0.257254 0.373515 0.294626
O O7 0.453512 0.253347 0.349735
O O8 0.182631 0.375485 0.384980
O O9 0.574957 0.123901 0.745186
O O10 0.821452 0.249536 0.777677
O O11 0.633706 0.107926 0.833918
O O12 0.843865 0.000000 0.771230
O O13 0.311423 0.000000 0.777279
O O14 0.237730 0.500000 0.996198
O O15 0.146548 0.367634 0.928615
O O16 0.250000 0.250000 0.000000
O O17 0.707186 0.500000 0.492219
O O18 0.750000 0.250000 0.500000
O O19 0.832095 0.367898 0.422473
O O20 0.000000 0.388677 0.500000
O O21 0.561077 0.000000 0.647130
#
# Coordination Sequence:
#
# PCOD9207240 Si02
#       8
#     8   8   8   8   8   8   8   8
#     4  11  25  47  76 105 141 182 227 277 332 396
#     4  10  21  39  62  89 125 166 213 267 328 394
#     4  11  24  43  69 100 133 171 214 264 326 389
#     4  10  23  42  65  97 133 170 213 266 325 395
#     4  11  27  52  78 109 144 185 233 281 339 402
#     4  10  21  37  57  84 121 165 217 274 334 397
#     4  12  24  49  75 106 141 181 231 283 336 400
#     4  10  21  37  60  89 122 166 218 273 331 394
#
# _framework density 27.004859
#
# number of rings (size 3 to 8) (size 9 to 14) (size 15 to 20)
#    0.000    1.375    1.250    3.375    0.000    7.250 
#    0.000    2.500    0.000    0.000    0.000    0.000 
#    0.000    0.000    0.000    0.000    0.000    0.000 
#
# Total GULP energy -178502.711639 kJ/mol
# GULP energy per Si atom -5578.209739 kJ/mol
# Density = 2.694339 g / cm^3
# Si number density = 27.004859 Si / 1000 Ang^3
#
#
#
# Elastic Constant Matrix: (Units=GPa)
#
#
# Indices 1 2 3 4 5 6 
#
# 1 93.5854 50.8833 3.1563 0.0000 -3.9084 0.0000
# 2 50.8833 381.7432 49.7577 0.0000 -6.4926 0.0000
# 3 3.1563 49.7577 63.5161 0.0000 -0.6136 0.0000
# 4 0.0000 0.0000 0.0000 39.6822 0.0000 -14.4376
# 5 -3.9084 -6.4926 -0.6136 0.0000 35.1849 0.0000
# 6 0.0000 0.0000 0.0000 -14.4376 0.0000 35.8619
#
#
#
# Elastic Compliance Matrix: (Units=1/GPa)
#
#
# Indices 1 2 3 4 5 6 
#
# 1 0.011584 -0.001618 0.000702 0.000000 0.001000 0.000000
# 2 -0.001618 0.003152 -0.002386 0.000000 0.000360 0.000000
# 3 0.000702 -0.002386 0.017577 0.000000 -0.000056 0.000000
# 4 0.000000 0.000000 0.000000 0.029525 0.000000 0.011886
# 5 0.001000 0.000360 -0.000056 0.000000 0.028598 0.000000
# 6 0.000000 0.000000 0.000000 0.011886 0.000000 0.032670
#
#
# Mechanical properties :
#
#
# Convention : Reuss Voigt Hill
#
# Bulk Modulus (GPa) = 38.89678 82.93769 60.91724
# Shear Modulus (GPa) = 36.15846 51.14894 43.65370
#
# Velocity S-wave (km/s) = 3.66315 4.35681 4.02495
# Velocity P-wave (km/s) = 5.68564 7.48918 6.64885
#
# Compressibility (1/GPa) = 0.02570907
#
# Stress axis : x y z
#
# Youngs Moduli (GPa) = 86.32966 317.22173 56.89093
#
# Poissons Ratio (x) = 0.51341 -0.03993
# Poissons Ratio (y) = 0.13972 0.13572
# Poissons Ratio (z) = -0.06060 0.75677
#
# Static dielectric constant tensor:
#      x y z
#    x 2.082670 0.000000 -0.013570 
#    y 0.000000 2.225920 0.000000 
#    z -0.013570 0.000000 2.160460 
# 
# From -- ./inp_files/372177.got.cif
#   From: 2010.05.17/outbox.cif.g08.bks.cpg/sg12_187_cif.got.tgz:372177.got - 2010.06.03 13:09:07.
