data_PCOD9207348
_publ_section_title
;
Structure prediction by ZEFSAII (Michael W. Deem and Ramdas Pophale) SiO2 
 PCOD9207348
Probable space group: C 2/M
;
_chemical_formula_sum "Si O2"
_cell_formula_units_Z 48
_cell_length_a 32.676954
_cell_length_b 8.787477
_cell_length_c 16.345212
_cell_angle_alpha 90.000000
_cell_angle_beta 35.813832
_cell_angle_gamma 90.000000
_cell_volume 2746.414626
_symmetry_space_group_name_H-M "C 2/M"
_symmetry_group_IT_number 12
_symmetry_cell_setting 'monoclinic'
loop_
_space_group_symop_operation_xyz
x,y,z
-x,y,-z
-x,-y,-z
x,-y,z
1/2+x,1/2+y,z
1/2-x,1/2+y,-z
1/2-x,1/2-y,-z
1/2+x,1/2-y,z
loop_
_atom_site_type_symbol
_atom_site_label
_atom_site_fract_x
_atom_site_fract_y
_atom_site_fract_z
Si Si1 0.484802 0.818377 0.767061
Si Si2 0.528830 0.316449 0.864289
Si Si3 0.315891 0.317797 0.439275
Si Si4 0.148807 0.818083 0.106747
Si Si5 0.805632 0.681978 0.796739
Si Si6 0.130949 0.183190 0.471006
O O1 0.488672 0.761814 0.854604
O O2 0.415345 0.757433 0.836263
O O3 0.553376 0.748099 0.612270
O O4 0.487873 0.000000 0.758509
O O5 0.523306 0.500000 0.863147
O O6 0.610507 0.275073 0.722285
O O7 0.500000 0.275991 0.000000
O O8 0.310709 0.500000 0.444964
O O9 0.250000 0.250000 0.500000
O O10 0.324151 0.273168 0.521122
O O11 0.156129 0.753277 0.186504
O O12 0.139876 0.000000 0.123896
O O13 0.223040 0.784857 0.942419
O O14 0.814568 0.500000 0.782739
O O15 0.835467 0.751360 0.665295
O O16 0.127333 0.000000 0.473530
#
# Coordination Sequence:
#
# PCOD9207348 Si02
#       6
#     8   8   8   8   8   8
#     4  11  22  36  56  82 111 142 183 230 269 315
#     4   9  19  37  57  77 105 142 182 222 269 323
#     4   9  19  34  53  77 105 138 175 217 263 315
#     4  10  21  38  58  80 111 147 179 218 271 326
#     4  10  21  37  58  84 110 139 180 226 269 318
#     4  10  21  38  57  79 110 146 182 221 272 327
#
# _framework density 17.477331
#
# number of rings (size 3 to 8) (size 9 to 14) (size 15 to 20)
#    0.000    2.167    0.000    4.000    0.000    7.667 
#    0.000    8.333    0.000    0.000    0.000    0.000 
#    0.000    0.000    0.000    0.000    0.000    0.000 
#
# Total GULP energy -134000.147406 kJ/mol
# GULP energy per Si atom -5583.339475 kJ/mol
# Density = 1.743755 g / cm^3
# Si number density = 17.477331 Si / 1000 Ang^3
#
#
#
# Elastic Constant Matrix: (Units=GPa)
#
#
# Indices 1 2 3 4 5 6 
#
# 1 187.2502 73.7319 114.5967 0.0001 -3.3339 0.0000
# 2 73.7319 75.4167 63.2107 0.0004 6.2417 -0.0001
# 3 114.5967 63.2107 133.9874 0.0002 31.5649 0.0000
# 4 0.0001 0.0004 0.0002 26.8704 0.0000 -0.7938
# 5 -3.3339 6.2417 31.5649 0.0000 28.9154 0.0000
# 6 0.0000 -0.0001 0.0000 -0.7938 0.0000 37.8291
#
#
#
# Elastic Compliance Matrix: (Units=1/GPa)
#
#
# Indices 1 2 3 4 5 6 
#
# 1 0.022179 -0.003926 -0.024122 0.000000 0.029737 0.000000
# 2 -0.003926 0.024441 -0.009185 0.000000 0.004298 0.000000
# 3 -0.024122 -0.009185 0.043907 0.000000 -0.048729 0.000000
# 4 0.000000 0.000000 0.000000 0.037239 0.000000 0.000781
# 5 0.029737 0.004298 -0.048729 0.000000 0.090279 0.000000
# 6 0.000000 0.000000 0.000000 0.000781 0.000000 0.026451
#
#
# Mechanical properties :
#
#
# Convention : Reuss Voigt Hill
#
# Bulk Modulus (GPa) = 62.26523 99.97030 81.11777
# Shear Modulus (GPa) = 15.41709 28.39732 21.90720
#
# Velocity S-wave (km/s) = 2.97327 4.03526 3.54427
# Velocity P-wave (km/s) = 6.89135 8.89018 7.95381
#
# Compressibility (1/GPa) = 0.01606033
#
# Stress axis : x y z
#
# Youngs Moduli (GPa) = 45.08834 40.91532 22.77520
#
# Poissons Ratio (x) = 0.16064 0.54939
# Poissons Ratio (y) = 0.17703 0.20918
# Poissons Ratio (z) = 1.08763 0.37580
#
# Static dielectric constant tensor:
#      x y z
#    x 1.565610 0.000000 0.000870 
#    y 0.000000 1.585870 0.000000 
#    z 0.000870 0.000000 1.575710 
# 
# From -- ./inp_files/248817.got.cif
#   From: 2010.05.17/outbox.cif.g08.bks.cpg/sg12_125_cif.got.tgz:248817.got - 2010.06.03 13:09:07.
