data_PCOD9207177
_publ_section_title
;
Structure prediction by ZEFSAII (Michael W. Deem and Ramdas Pophale) SiO2 
 PCOD9207177
Probable space group: C 2/M
;
_chemical_formula_sum "Si O2"
_cell_formula_units_Z 48
_cell_length_a 18.250689
_cell_length_b 14.502334
_cell_length_c 7.480166
_cell_angle_alpha 90.000000
_cell_angle_beta 82.801194
_cell_angle_gamma 90.000000
_cell_volume 1964.225893
_symmetry_space_group_name_H-M "C 2/M"
_symmetry_group_IT_number 12
_symmetry_cell_setting 'monoclinic'
loop_
_space_group_symop_operation_xyz
x,y,z
-x,y,-z
-x,-y,-z
x,-y,z
1/2+x,1/2+y,z
1/2-x,1/2+y,-z
1/2-x,1/2-y,-z
1/2+x,1/2-y,z
loop_
_atom_site_type_symbol
_atom_site_label
_atom_site_fract_x
_atom_site_fract_y
_atom_site_fract_z
Si Si1 0.982181 0.697456 0.708140
Si Si2 0.187047 0.103439 0.821805
Si Si3 0.020577 0.898465 0.784102
Si Si4 0.171318 0.295140 0.348206
Si Si5 0.210718 0.896025 0.222457
Si Si6 0.627091 0.108783 0.732612
O O1 0.986669 0.807967 0.709729
O O2 0.049190 0.656814 0.805195
O O3 0.000000 0.665378 0.500000
O O4 0.896215 0.675078 0.761378
O O5 0.108868 0.112832 0.750737
O O6 0.249923 0.172249 0.744324
O O7 0.215497 0.000000 0.779993
O O8 0.174765 0.111862 0.038268
O O9 0.999172 0.000000 0.720887
O O10 0.000000 0.897527 0.000000
O O11 0.177901 0.184671 0.352741
O O12 0.154018 0.341545 0.542484
O O13 0.299383 0.883669 0.169570
O O14 0.199804 0.000000 0.296003
O O15 0.613246 0.000000 0.709356
#
# Coordination Sequence:
#
# PCOD9207177 Si02
#       6
#     8   8   8   8   8   8
#     4  10  23  38  56  83 114 151 188 229 280 331
#     4  10  21  37  59  86 113 145 187 232 278 330
#     4  10  21  39  61  84 115 151 185 226 278 336
#     4  11  21  36  59  84 111 148 189 232 277 330
#     4  10  21  37  57  83 114 145 182 232 284 331
#     4  10  22  40  59  80 112 151 189 231 279 331
#
# _framework density 24.437107000000001
#
# number of rings (size 3 to 8) (size 9 to 14) (size 15 to 20)
#    0.000    1.833    0.000    3.500    0.000    8.667 
#    0.000    5.833    0.000    3.500    0.000    0.000 
#    0.000    0.000    0.000    0.000    0.000    0.000 
#
# Total GULP energy -134271.338322 kJ/mol
# GULP energy per Si atom -5594.639097 kJ/mol
# Density = 2.438149 g / cm^3
# Si number density = 24.437107 Si / 1000 Ang^3
#
#
#
# Elastic Constant Matrix: (Units=GPa)
#
#
# Indices 1 2 3 4 5 6 
#
# 1 112.7359 42.8701 -2.3119 0.0000 0.4468 0.0000
# 2 42.8701 108.4471 9.4460 0.0000 -24.3719 0.0000
# 3 -2.3119 9.4460 35.4753 0.0000 -8.5492 0.0000
# 4 0.0000 0.0000 0.0000 -4.2411 0.0000 51.2540
# 5 0.4468 -24.3719 -8.5492 0.0000 28.1581 0.0000
# 6 0.0000 0.0000 0.0000 51.2540 0.0000 -56.6697
#
#
#
# Elastic Compliance Matrix: (Units=1/GPa)
#
#
# Indices 1 2 3 4 5 6 
#
# 1 0.010989 -0.005467 0.001068 0.000000 -0.004582 0.000000
# 2 -0.005467 0.014184 -0.001245 0.000000 0.011986 0.000000
# 3 0.001068 -0.001245 0.030562 0.000000 0.008185 0.000000
# 4 0.000000 0.000000 0.000000 0.023745 0.000000 0.021475
# 5 -0.004582 0.011986 0.008185 0.000000 0.048446 0.000000
# 6 0.000000 0.000000 0.000000 0.021475 0.000000 0.001777
#
#
# Mechanical properties :
#
#
# Convention : Reuss Voigt Hill
#
# Bulk Modulus (GPa) = 22.49832 39.62963 31.06397
# Shear Modulus (GPa) = 32.09107 7.22640 19.65873
#
# Velocity S-wave (km/s) = 3.62776 1.72150 2.83938
# Velocity P-wave (km/s) = 5.17437 4.49484 4.84653
#
# Compressibility (1/GPa) = 0.04444776
#
# Stress axis : x y z
#
# Youngs Moduli (GPa) = 90.99819 70.50083 32.72028
#
# Poissons Ratio (x) = 0.38542 -0.03493
# Poissons Ratio (y) = 0.49747 0.04072
# Poissons Ratio (z) = -0.09715 0.08775
#
# Static dielectric constant tensor:
#      x y z
#    x 1.965680 0.000000 0.029130 
#    y 0.000000 1.920040 0.000000 
#    z 0.029130 0.000000 1.944270 
# 
# From -- ./inp_files/73649.got.cif
#   From: 2010.05.17/outbox.cif.g08.bks.cpg/sg12_37_cif.got.tgz:73649.got - 2010.06.03 13:09:07.
