data_PCOD9207510
_publ_section_title
;
Structure prediction by ZEFSAII (Michael W. Deem and Ramdas Pophale) SiO2 
 PCOD9207510
Probable space group: C 2/M
;
_chemical_formula_sum "Si O2"
_cell_formula_units_Z 64
_cell_length_a 14.174253
_cell_length_b 25.888613
_cell_length_c 9.397171
_cell_angle_alpha 90.000000
_cell_angle_beta 108.755089
_cell_angle_gamma 90.000000
_cell_volume 3265.208608
_symmetry_space_group_name_H-M "C 2/M"
_symmetry_group_IT_number 12
_symmetry_cell_setting 'monoclinic'
loop_
_space_group_symop_operation_xyz
x,y,z
-x,y,-z
-x,-y,-z
x,-y,z
1/2+x,1/2+y,z
1/2-x,1/2+y,-z
1/2-x,1/2-y,-z
1/2+x,1/2-y,z
loop_
_atom_site_type_symbol
_atom_site_label
_atom_site_fract_x
_atom_site_fract_y
_atom_site_fract_z
Si Si1 0.399359 0.557820 0.866751
Si Si2 0.682908 0.651687 0.798246
Si Si3 0.962704 0.941949 0.324661
Si Si4 0.789166 0.152073 0.720105
Si Si5 0.400402 0.160780 0.885645
Si Si6 0.886832 0.221279 0.981260
Si Si7 0.099389 0.680882 0.451776
Si Si8 0.608880 0.302031 0.485978
O O1 0.370300 0.500000 0.900356
O O2 0.440522 0.555046 0.726968
O O3 0.315121 0.600987 0.822074
O O4 0.500000 0.572656 0.000000
O O5 0.611673 0.602092 0.764756
O O6 0.796346 0.635094 0.878282
O O7 0.682447 0.676867 0.641306
O O8 0.641445 0.696584 0.881407
O O9 0.000000 0.929702 0.500000
O O10 0.917729 0.000000 0.301948
O O11 0.802206 0.198838 0.836165
O O12 0.687997 0.152958 0.581596
O O13 0.875527 0.164579 0.646987
O O14 0.390343 0.217695 0.954845
O O15 0.412228 0.164880 0.719467
O O16 0.500000 0.136963 0.000000
O O17 0.000000 0.203049 0.000000
O O18 0.125234 0.742000 0.460886
O O19 0.000000 0.675297 0.500000
O O20 0.500000 0.307166 0.500000
#
# Coordination Sequence:
#
# PCOD9207510 Si02
#       8
#     8   8   8   8   8   8   8   8
#     4  10  21  37  58  88 122 149 180 234 296 354
#     4  12  22  36  59  84 115 159 192 233 288 349
#     4  10  21  37  58  89 120 146 184 235 293 351
#     4  12  20  37  59  82 113 153 199 231 282 353
#     4  11  25  41  54  80 117 154 198 246 287 335
#     4  11  23  35  54  88 120 152 191 231 285 351
#     4  11  25  40  57  80 113 156 201 246 286 331
#     4  11  21  34  57  82 115 148 187 237 286 345
#
# _framework density 19.600586
#
# number of rings (size 3 to 8) (size 9 to 14) (size 15 to 20)
#    0.000    1.000    2.500    6.000    7.000    0.000 
#    0.000    0.000    0.000    0.750    0.000    0.000 
#    0.000    0.000    0.000    0.000    0.000    0.000 
#
# Total GULP energy -178724.511084 kJ/mol
# GULP energy per Si atom -5585.140971 kJ/mol
# Density = 1.955597 g / cm^3
# Si number density = 19.600586 Si / 1000 Ang^3
#
#
#
# Elastic Constant Matrix: (Units=GPa)
#
#
# Indices 1 2 3 4 5 6 
#
# 1 65.6072 9.0118 -1.2513 0.0000 14.2258 0.0000
# 2 9.0118 66.1423 7.0668 0.0000 11.7787 0.0000
# 3 -1.2513 7.0668 64.2535 0.0000 8.2328 0.0000
# 4 0.0000 0.0000 0.0000 16.5337 0.0000 1.4336
# 5 14.2258 11.7787 8.2328 0.0000 37.4810 0.0000
# 6 0.0000 0.0000 0.0000 1.4336 0.0000 9.1352
#
#
#
# Elastic Compliance Matrix: (Units=1/GPa)
#
#
# Indices 1 2 3 4 5 6 
#
# 1 0.016801 -0.001313 0.001272 0.000000 -0.006243 0.000000
# 2 -0.001313 0.016201 -0.001254 0.000000 -0.004317 0.000000
# 3 0.001272 -0.001254 0.016193 0.000000 -0.003645 0.000000
# 4 0.000000 0.000000 0.000000 0.061317 0.000000 -0.009623
# 5 -0.006243 -0.004317 -0.003645 0.000000 0.031207 0.000000
# 6 0.000000 0.000000 0.000000 -0.009623 0.000000 0.110977
#
#
# Mechanical properties :
#
#
# Convention : Reuss Voigt Hill
#
# Bulk Modulus (GPa) = 21.45792 25.07310 23.26551
# Shear Modulus (GPa) = 18.46238 24.70836 21.58537
#
# Velocity S-wave (km/s) = 3.07242 3.55433 3.32213
# Velocity P-wave (km/s) = 4.85363 5.44648 5.15858
#
# Compressibility (1/GPa) = 0.04660285
#
# Stress axis : x y z
#
# Youngs Moduli (GPa) = 59.52171 61.72588 61.75458
#
# Poissons Ratio (x) = 0.08105 -0.07852
# Poissons Ratio (y) = 0.07816 0.07745
# Poissons Ratio (z) = -0.07568 0.07742
#
# Static dielectric constant tensor:
#      x y z
#    x 1.728460 0.000000 0.007210 
#    y 0.000000 1.707500 0.000000 
#    z 0.007210 0.000000 1.759150 
# 
# From -- ./inp_files/68276.got.cif
#   From: 2010.05.17/outbox.cif.g08.bks.cpg/sg12_35_cif.got.tgz:68276.got - 2010.06.03 13:09:07.
