data_PCOD9207829
_publ_section_title
;
Structure prediction by ZEFSAII (Michael W. Deem and Ramdas Pophale) SiO2 
 PCOD9207829
Probable space group: C 2/M
;
_chemical_formula_sum "Si O2"
_cell_formula_units_Z 32
_cell_length_a 5.093309
_cell_length_b 36.572011
_cell_length_c 9.020899
_cell_angle_alpha 90.000000
_cell_angle_beta 56.547901
_cell_angle_gamma 90.000000
_cell_volume 1401.991492
_symmetry_space_group_name_H-M "C 2/M"
_symmetry_group_IT_number 12
_symmetry_cell_setting 'monoclinic'
loop_
_space_group_symop_operation_xyz
x,y,z
-x,y,-z
-x,-y,-z
x,-y,z
1/2+x,1/2+y,z
1/2-x,1/2+y,-z
1/2-x,1/2-y,-z
1/2+x,1/2-y,z
loop_
_atom_site_type_symbol
_atom_site_label
_atom_site_fract_x
_atom_site_fract_y
_atom_site_fract_z
Si Si1 0.702548 0.458770 0.782927
Si Si2 0.235276 0.770891 0.786723
Si Si3 0.302191 0.084497 0.213839
Si Si4 0.360455 0.842730 0.385665
O O1 0.695279 0.500000 0.726529
O O2 0.540595 0.429428 0.725878
O O3 0.042863 0.445466 0.727143
O O4 0.500000 0.458935 0.000000
O O5 0.507582 0.740710 0.724518
O O6 0.406438 0.809698 0.727884
O O7 0.000000 0.770765 0.000000
O O8 0.341316 0.123487 0.278656
O O9 0.500000 0.085550 0.000000
O O10 0.500000 0.855498 0.500000
O O11 0.000000 0.829315 0.500000
#
# Coordination Sequence:
#
# PCOD9207829 Si02
#       4
#     8   8   8   8
#     4   9  17  32  58  90 117 148 202 265 310 349
#     4  10  23  43  67  93 121 157 204 255 305 363
#     4  10  21  37  60  87 119 161 206 252 303 364
#     4  12  26  41  62  92 130 168 203 252 307 367
#
# _framework density 22.824674000000002
#
# number of rings (size 3 to 8) (size 9 to 14) (size 15 to 20)
#    0.000    1.750    0.000    3.750    0.000   14.000 
#    0.000    0.000    0.000   15.000    0.000    0.000 
#    0.000    0.000    0.000    0.000    0.000    0.000 
#
# Total GULP energy -89462.038300 kJ/mol
# GULP energy per Si atom -5591.377394 kJ/mol
# Density = 2.277272 g / cm^3
# Si number density = 22.824674 Si / 1000 Ang^3
#
#
#
# Elastic Constant Matrix: (Units=GPa)
#
#
# Indices 1 2 3 4 5 6 
#
# 1 169.8167 62.5669 45.2499 0.0000 -2.5307 0.0000
# 2 62.5669 159.0792 32.8321 0.0000 3.5486 0.0000
# 3 45.2499 32.8321 49.0670 0.0000 -4.7753 0.0000
# 4 0.0000 0.0000 0.0000 43.0359 0.0000 6.3949
# 5 -2.5307 3.5486 -4.7753 0.0000 21.3069 0.0000
# 6 0.0000 0.0000 0.0000 6.3949 0.0000 46.4262
#
#
#
# Elastic Compliance Matrix: (Units=1/GPa)
#
#
# Indices 1 2 3 4 5 6 
#
# 1 0.008300 -0.001949 -0.006362 0.000000 -0.000115 0.000000
# 2 -0.001949 0.007869 -0.003699 0.000000 -0.002371 0.000000
# 3 -0.006362 -0.003699 0.029349 0.000000 0.006438 0.000000
# 4 0.000000 0.000000 0.000000 0.023722 0.000000 -0.003268
# 5 -0.000115 -0.002371 0.006438 0.000000 0.048757 0.000000
# 6 0.000000 0.000000 0.000000 -0.003268 0.000000 0.021990
#
#
# Mechanical properties :
#
#
# Convention : Reuss Voigt Hill
#
# Bulk Modulus (GPa) = 46.51372 73.25119 59.88246
# Shear Modulus (GPa) = 29.21049 37.97475 33.59262
#
# Velocity S-wave (km/s) = 3.58128 4.08334 3.84052
# Velocity P-wave (km/s) = 6.12566 7.37525 6.77930
#
# Compressibility (1/GPa) = 0.02149903
#
# Stress axis : x y z
#
# Youngs Moduli (GPa) = 120.47905 127.08105 34.07329
#
# Poissons Ratio (x) = 0.24768 0.21676
# Poissons Ratio (y) = 0.23481 0.12603
# Poissons Ratio (z) = 0.76644 0.47004
#
# Static dielectric constant tensor:
#      x y z
#    x 1.800420 0.000000 0.015960 
#    y 0.000000 1.821990 0.000000 
#    z 0.015960 0.000000 1.881340 
# 
# From -- ./inp_files/115786.got.cif
#   From: 2010.05.17/outbox.cif.g08.bks.cpg/sg12_58_cif.got.tgz:115786.got - 2010.06.03 13:09:07.
