data_PCOD9207889
_publ_section_title
;
Structure prediction by ZEFSAII (Michael W. Deem and Ramdas Pophale) SiO2 
 PCOD9207889
Probable space group: C 2/M
;
_chemical_formula_sum "Si O2"
_cell_formula_units_Z 50
_cell_length_a 16.069795
_cell_length_b 26.219907
_cell_length_c 7.790802
_cell_angle_alpha 90.000000
_cell_angle_beta 45.581400
_cell_angle_gamma 90.000000
_cell_volume 2344.613003
_symmetry_space_group_name_H-M "C 2/M"
_symmetry_group_IT_number 12
_symmetry_cell_setting 'monoclinic'
loop_
_space_group_symop_operation_xyz
x,y,z
-x,y,-z
-x,-y,-z
x,-y,z
1/2+x,1/2+y,z
1/2-x,1/2+y,-z
1/2-x,1/2-y,-z
1/2+x,1/2-y,z
loop_
_atom_site_type_symbol
_atom_site_label
_atom_site_fract_x
_atom_site_fract_y
_atom_site_fract_z
Si Si1 0.250777 0.790535 0.253395
Si Si2 0.725825 0.060681 0.916975
Si Si3 0.500000 0.500000 0.000000
Si Si4 0.201197 0.680994 0.419242
Si Si5 0.585907 0.380324 0.520575
Si Si6 0.628067 0.403851 0.959109
Si Si7 0.540617 0.856927 0.140558
O O1 0.226866 0.730978 0.268833
O O2 0.284420 0.801168 0.404025
O O3 0.137252 0.825801 0.391084
O O4 0.358142 0.814066 0.993288
O O5 0.802253 0.082501 0.645120
O O6 0.718069 0.000000 0.922294
O O7 0.796317 0.079524 0.982902
O O8 0.603221 0.089978 0.093825
O O9 0.404847 0.455270 0.090025
O O10 0.294230 0.637244 0.249823
O O11 0.071840 0.658662 0.588812
O O12 0.500000 0.402149 0.500000
O O13 0.496345 0.378899 0.805962
O O14 0.500000 0.859579 0.000000
#
# Coordination Sequence:
#
# PCOD9207889 Si02
#       7
#     8   8   2   8   8   8   8
#     4   9  19  38  61  86 119 161 201 245 292 366
#     4  10  21  41  63  84 120 162 205 252 303 355
#     4  12  24  40  58  86 128 152 200 252 300 366
#     4  10  21  37  60  89 124 158 199 248 305 354
#     4   9  20  37  59  87 117 151 203 247 300 363
#     4  11  23  38  59  93 121 158 199 255 308 356
#     4   9  20  40  60  89 119 161 208 242 294 369
#
# _framework density 21.325479999999999
#
# number of rings (size 3 to 8) (size 9 to 14) (size 15 to 20)
#    0.000    2.240    0.800    0.960    3.360    1.920 
#    5.760    3.200    0.000    0.000    0.000    0.000 
#    0.000    0.000    0.000    0.000    0.000    0.000 
#
# Total GULP energy -139267.673902 kJ/mol
# GULP energy per Si atom -5570.706956 kJ/mol
# Density = 2.127694 g / cm^3
# Si number density = 21.325480 Si / 1000 Ang^3
#
#
#
# Elastic Constant Matrix: (Units=GPa)
#
#
# Indices 1 2 3 4 5 6 
#
# 1 56.3667 42.0921 32.7131 0.0000 -18.4468 0.0000
# 2 42.0921 178.9614 75.7894 0.0000 -39.3870 0.0000
# 3 32.7131 75.7894 112.0413 0.0000 -44.6333 0.0000
# 4 0.0000 0.0000 0.0000 0.6359 0.0000 -8.0074
# 5 -18.4468 -39.3870 -44.6333 0.0000 33.6211 0.0000
# 6 0.0000 0.0000 0.0000 -8.0074 0.0000 25.8585
#
#
#
# Elastic Compliance Matrix: (Units=1/GPa)
#
#
# Indices 1 2 3 4 5 6 
#
# 1 0.023446 -0.003223 -0.002218 0.000000 0.006144 0.000000
# 2 -0.003223 0.008616 -0.003334 0.000000 0.003900 0.000000
# 3 -0.002218 -0.003334 0.020773 0.000000 0.022455 0.000000
# 4 0.000000 0.000000 0.000000 -0.542405 0.000000 -0.167962
# 5 0.006144 0.003900 0.022455 0.000000 0.067492 0.000000
# 6 0.000000 0.000000 0.000000 -0.167962 0.000000 -0.013339
#
#
# Mechanical properties :
#
#
# Convention : Reuss Voigt Hill
#
# Bulk Modulus (GPa) = 28.34029 72.06204 50.20117
# Shear Modulus (GPa) = -12.31202 25.14142 6.41470
#
# Velocity S-wave (km/s) = -2.40539 3.43729 1.73624
# Velocity P-wave (km/s) = 2.36721 7.04402 5.25461
#
# Compressibility (1/GPa) = 0.03528545
#
# Stress axis : x y z
#
# Youngs Moduli (GPa) = 42.65195 116.06449 48.13934
#
# Poissons Ratio (x) = 0.37408 0.10676
# Poissons Ratio (y) = 0.13747 0.16048
# Poissons Ratio (z) = 0.09459 0.38692
#
# Static dielectric constant tensor:
#      x y z
#    x 1.896630 0.000000 0.067700 
#    y 0.000000 1.715260 0.000000 
#    z 0.067700 0.000000 1.839610 
# 
# From -- ./inp_files/79811.got.cif
#   From: 2010.05.17/outbox.cif.g08.bks.cpg/sg12_40_cif.got.tgz:79811.got - 2010.06.03 13:09:07.
