data_PCOD9207908
_publ_section_title
;
Structure prediction by ZEFSAII (Michael W. Deem and Ramdas Pophale) SiO2 
 PCOD9207908
Probable space group: C 2/M
;
_chemical_formula_sum "Si O2"
_cell_formula_units_Z 48
_cell_length_a 12.472194
_cell_length_b 17.642656
_cell_length_c 12.736176
_cell_angle_alpha 90.000000
_cell_angle_beta 55.892464
_cell_angle_gamma 90.000000
_cell_volume 2320.433771
_symmetry_space_group_name_H-M "C 2/M"
_symmetry_group_IT_number 12
_symmetry_cell_setting 'monoclinic'
loop_
_space_group_symop_operation_xyz
x,y,z
-x,y,-z
-x,-y,-z
x,-y,z
1/2+x,1/2+y,z
1/2-x,1/2+y,-z
1/2-x,1/2-y,-z
1/2+x,1/2-y,z
loop_
_atom_site_type_symbol
_atom_site_label
_atom_site_fract_x
_atom_site_fract_y
_atom_site_fract_z
Si Si1 0.497897 0.417006 0.705950
Si Si2 0.409599 0.712656 0.628034
Si Si3 0.106695 0.150180 0.853112
Si Si4 0.125891 0.324355 0.771194
Si Si5 0.195555 0.586479 0.935245
Si Si6 0.369012 0.834760 0.817631
O O1 0.532576 0.500000 0.649010
O O2 0.500159 0.356065 0.613368
O O3 0.580902 0.393360 0.760154
O O4 0.348415 0.416826 0.827038
O O5 0.500000 0.760689 0.500000
O O6 0.273713 0.686985 0.653937
O O7 0.373432 0.753410 0.757758
O O8 0.090113 0.240068 0.834405
O O9 0.249953 0.130088 0.817376
O O10 0.000000 0.131445 0.000000
O O11 0.129265 0.383091 0.865798
O O12 0.022388 0.352262 0.742277
O O13 0.155208 0.500000 0.985647
O O14 0.171894 0.647578 0.040276
#
# Coordination Sequence:
#
# PCOD9207908 Si02
#       6
#     8   8   8   8   8   8
#     4  10  21  38  60  89 120 152 195 239 290 351
#     4  10  23  41  61  85 111 154 209 248 285 333
#     4  11  20  33  57  87 125 152 187 226 290 362
#     4  10  22  35  58  90 118 152 191 241 291 348
#     4  10  21  37  60  90 124 156 187 231 292 359
#     4  11  21  36  58  87 120 157 187 238 291 345
#
# _framework density 20.685787999999999
#
# number of rings (size 3 to 8) (size 9 to 14) (size 15 to 20)
#    0.000    1.667    3.333    1.500    0.000    6.000 
#    0.000    0.000    0.000    0.500    0.000    0.000 
#    0.000    0.000    0.000    0.000    0.000    0.000 
#
# Total GULP energy -133662.892643 kJ/mol
# GULP energy per Si atom -5569.287193 kJ/mol
# Density = 2.063871 g / cm^3
# Si number density = 20.685788 Si / 1000 Ang^3
#
#
#
# Elastic Constant Matrix: (Units=GPa)
#
#
# Indices 1 2 3 4 5 6 
#
# 1 177.6091 3.3677 9.8793 0.0000 10.2599 0.0000
# 2 3.3677 50.0250 11.0812 0.0000 6.3074 0.0000
# 3 9.8793 11.0812 43.5749 0.0000 -10.6021 0.0000
# 4 0.0000 0.0000 0.0000 6.5216 0.0000 -0.1503
# 5 10.2599 6.3074 -10.6021 0.0000 24.1215 0.0000
# 6 0.0000 0.0000 0.0000 -0.1503 0.0000 16.6743
#
#
#
# Elastic Compliance Matrix: (Units=1/GPa)
#
#
# Indices 1 2 3 4 5 6 
#
# 1 0.005971 0.000610 -0.002425 0.000000 -0.003765 0.000000
# 2 0.000610 0.023080 -0.008442 0.000000 -0.010005 0.000000
# 3 -0.002425 -0.008442 0.029599 0.000000 0.016248 0.000000
# 4 0.000000 0.000000 0.000000 0.153369 0.000000 0.001383
# 5 -0.003765 -0.010005 0.016248 0.000000 0.052816 0.000000
# 6 0.000000 0.000000 0.000000 0.001383 0.000000 0.059985
#
#
# Mechanical properties :
#
#
# Convention : Reuss Voigt Hill
#
# Bulk Modulus (GPa) = 26.22162 35.54061 30.88111
# Shear Modulus (GPa) = 13.96463 25.92218 19.94341
#
# Velocity S-wave (km/s) = 2.60106 3.54381 3.10838
# Velocity P-wave (km/s) = 4.66094 5.82780 5.27672
#
# Compressibility (1/GPa) = 0.03813647
#
# Stress axis : x y z
#
# Youngs Moduli (GPa) = 167.47163 43.32666 33.78489
#
# Poissons Ratio (x) = -0.02642 0.08193
# Poissons Ratio (y) = -0.10214 0.28521
# Poissons Ratio (z) = 0.40611 0.36577
#
# Static dielectric constant tensor:
#      x y z
#    x 1.783350 0.000000 -0.020370 
#    y 0.000000 1.774890 0.000000 
#    z -0.020370 0.000000 1.732290 
# 
# From -- ./inp_files/131642.got.cif
#   From: 2010.05.17/outbox.cif.g08.bks.cpg/sg12_66_cif.got.tgz:131642.got - 2010.06.03 13:09:07.
