data_PCOD9207491
_publ_section_title
;
Structure prediction by ZEFSAII (Michael W. Deem and Ramdas Pophale) SiO2 
 PCOD9207491
Probable space group: C 2/M
;
_chemical_formula_sum "Si O2"
_cell_formula_units_Z 64
_cell_length_a 30.589903
_cell_length_b 7.624936
_cell_length_c 15.299604
_cell_angle_alpha 90.000000
_cell_angle_beta 128.356550
_cell_angle_gamma 90.000000
_cell_volume 2798.346869
_symmetry_space_group_name_H-M "C 2/M"
_symmetry_group_IT_number 12
_symmetry_cell_setting 'monoclinic'
loop_
_space_group_symop_operation_xyz
x,y,z
-x,y,-z
-x,-y,-z
x,-y,z
1/2+x,1/2+y,z
1/2-x,1/2+y,-z
1/2-x,1/2-y,-z
1/2+x,1/2-y,z
loop_
_atom_site_type_symbol
_atom_site_label
_atom_site_fract_x
_atom_site_fract_y
_atom_site_fract_z
Si Si1 0.228301 0.289213 0.569458
Si Si2 0.696505 0.708979 0.993052
Si Si3 0.509625 0.214399 0.789863
Si Si4 0.104851 0.301221 0.409012
Si Si5 0.408011 0.202475 0.252449
Si Si6 0.057056 0.796830 0.031385
Si Si7 0.441988 0.299329 0.469352
Si Si8 0.817758 0.784698 0.824015
O O1 0.225045 0.500000 0.578483
O O2 0.250000 0.250000 0.500000
O O3 0.165276 0.216892 0.492627
O O4 0.271245 0.225855 0.696835
O O5 0.690098 0.500000 0.988201
O O6 0.643736 0.783881 0.876359
O O7 0.750000 0.750000 0.000000
O O8 0.697126 0.769518 0.094985
O O9 0.445379 0.274891 0.711458
O O10 0.539212 0.270730 0.736916
O O11 0.545589 0.285952 0.913850
O O12 0.510735 0.000000 0.793835
O O13 0.112959 0.500000 0.386521
O O14 0.079900 0.304979 0.475542
O O15 0.400265 0.294399 0.335295
O O16 0.417666 0.000000 0.285220
O O17 0.058464 0.000000 0.062148
O O18 0.119364 0.725003 0.123506
O O19 0.000000 0.715623 0.000000
O O20 0.500000 0.234245 0.500000
O O21 0.449596 0.500000 0.506657
O O22 0.819125 0.000000 0.825021
#
# Coordination Sequence:
#
# PCOD9207491 Si02
#       8
#     8   8   8   8   8   8   8   8
#     4  10  23  43  65  88 118 160 205 253 306 361
#     4  11  23  40  62  90 123 162 207 254 304 366
#     4  10  21  37  58  87 120 154 197 247 301 361
#     4  10  22  40  61  86 120 162 205 247 301 370
#     4  11  22  38  60  85 120 163 201 246 307 364
#     4  10  21  37  61  89 115 151 195 244 304 364
#     4  11  23  37  57  89 124 158 198 248 303 360
#     4   9  20  40  61  86 122 157 196 247 304 359
#
# _framework density 22.870645
#
# number of rings (size 3 to 8) (size 9 to 14) (size 15 to 20)
#    0.000    1.750    2.500    1.125    3.500    2.250 
#    0.000    1.875    0.000    0.000    0.000    0.000 
#    0.000    0.000    0.000    0.000    0.000    0.000 
#
# Total GULP energy -178750.058196 kJ/mol
# GULP energy per Si atom -5585.939319 kJ/mol
# Density = 2.281859 g / cm^3
# Si number density = 22.870645 Si / 1000 Ang^3
#
#
#
# Elastic Constant Matrix: (Units=GPa)
#
#
# Indices 1 2 3 4 5 6 
#
# 1 96.0787 -7.2301 16.8125 0.0000 34.6366 0.0000
# 2 -7.2301 61.3900 -3.1079 0.0000 5.6738 0.0000
# 3 16.8125 -3.1079 120.5030 0.0000 35.0584 0.0000
# 4 0.0000 0.0000 0.0000 5.8119 0.0000 -14.7171
# 5 34.6366 5.6738 35.0584 0.0000 43.1098 0.0000
# 6 0.0000 0.0000 0.0000 -14.7171 0.0000 8.1308
#
#
#
# Elastic Compliance Matrix: (Units=1/GPa)
#
#
# Indices 1 2 3 4 5 6 
#
# 1 0.015590 0.003311 0.002202 0.000000 -0.014753 0.000000
# 2 0.003311 0.017371 0.001867 0.000000 -0.006465 0.000000
# 3 0.002202 0.001867 0.011299 0.000000 -0.011204 0.000000
# 4 0.000000 0.000000 0.000000 -0.048015 0.000000 -0.086909
# 5 -0.014753 -0.006465 -0.011204 0.000000 0.045012 0.000000
# 6 0.000000 0.000000 0.000000 -0.086909 0.000000 -0.034321
#
#
# Mechanical properties :
#
#
# Convention : Reuss Voigt Hill
#
# Bulk Modulus (GPa) = 16.94297 32.32453 24.63375
# Shear Modulus (GPa) = 421.93313 29.51030 225.72171
#
# Velocity S-wave (km/s) = 13.59733 3.59599 9.94531
# Velocity P-wave (km/s) = 15.93551 5.60409 11.94459
#
# Compressibility (1/GPa) = 0.05902154
#
# Stress axis : x y z
#
# Youngs Moduli (GPa) = 64.14205 57.56628 88.50306
#
# Poissons Ratio (x) = -0.19061 -0.19492
# Poissons Ratio (y) = -0.21238 -0.16523
# Poissons Ratio (z) = -0.14127 -0.10747
#
# Static dielectric constant tensor:
#      x y z
#    x 1.866830 0.000000 0.037010 
#    y 0.000000 1.907550 0.000000 
#    z 0.037010 0.000000 1.871200 
# 
# From -- ./inp_files/249987.got.cif
#   From: 2010.05.17/outbox.cif.g08.bks.cpg/sg12_125_cif.got.tgz:249987.got - 2010.06.03 13:09:07.
