data_PCOD9207149
_publ_section_title
;
Structure prediction by ZEFSAII (Michael W. Deem and Ramdas Pophale) SiO2 
 PCOD9207149
Probable space group: C 2/M
;
_chemical_formula_sum "Si O2"
_cell_formula_units_Z 56
_cell_length_a 9.902383
_cell_length_b 14.450888
_cell_length_c 18.609417
_cell_angle_alpha 90.000000
_cell_angle_beta 61.396321
_cell_angle_gamma 90.000000
_cell_volume 2337.964498
_symmetry_space_group_name_H-M "C 2/M"
_symmetry_group_IT_number 12
_symmetry_cell_setting 'monoclinic'
loop_
_space_group_symop_operation_xyz
x,y,z
-x,y,-z
-x,-y,-z
x,-y,z
1/2+x,1/2+y,z
1/2-x,1/2+y,-z
1/2-x,1/2-y,-z
1/2+x,1/2-y,z
loop_
_atom_site_type_symbol
_atom_site_label
_atom_site_fract_x
_atom_site_fract_y
_atom_site_fract_z
Si Si1 0.647169 0.606503 0.415655
Si Si2 0.037735 0.694359 0.688980
Si Si3 0.032050 0.898519 0.687194
Si Si4 0.733715 0.396849 0.976352
Si Si5 0.110743 0.393111 0.406721
Si Si6 0.834048 0.280294 0.077232
Si Si7 0.571876 0.900104 0.827508
O O1 0.500000 0.633716 0.500000
O O2 0.690268 0.500000 0.424547
O O3 0.791475 0.674158 0.385955
O O4 0.583875 0.603735 0.350457
O O5 0.015474 0.797299 0.726096
O O6 0.920656 0.669318 0.655191
O O7 0.030471 0.624627 0.757327
O O8 0.210769 0.894612 0.616293
O O9 0.016210 0.000000 0.727799
O O10 0.668371 0.500000 0.998464
O O11 0.680376 0.329470 0.926221
O O12 0.913181 0.406936 0.911504
O O13 0.719445 0.336528 0.053229
O O14 0.070405 0.500000 0.398018
O O15 0.000000 0.365024 0.500000
O O16 0.831268 0.322067 0.156837
O O17 0.000000 0.298200 0.000000
O O18 0.649526 0.000000 0.812333
#
# Coordination Sequence:
#
# PCOD9207149 Si02
#       7
#     8   8   8   8   8   8   8
#     4  10  21  38  59  84 113 145 187 243 303 359
#     4  12  23  37  60  86 112 151 202 245 290 353
#     4  10  23  39  54  77 111 146 183 236 298 352
#     4   9  18  34  58  86 117 152 188 227 273 331
#     4  10  21  38  59  83 110 142 186 241 297 354
#     4   9  18  34  57  85 116 150 187 225 272 332
#     4  10  21  37  57  82 112 147 189 236 283 335
#
# _framework density 23.952459999999999
#
# number of rings (size 3 to 8) (size 9 to 14) (size 15 to 20)
#    0.000    2.000    0.000    3.429    0.000   10.000 
#    0.000    2.143    0.000    3.429    0.000    0.000 
#    0.000    0.000    0.000    0.000    0.000    0.000 
#
# Total GULP energy -156390.557685 kJ/mol
# GULP energy per Si atom -5585.377060 kJ/mol
# Density = 2.389794 g / cm^3
# Si number density = 23.952460 Si / 1000 Ang^3
#
#
#
# Elastic Constant Matrix: (Units=GPa)
#
#
# Indices 1 2 3 4 5 6 
#
# 1 61.9685 0.0293 10.9825 0.0000 -0.4260 0.0000
# 2 0.0293 152.8287 23.0113 0.0000 23.4190 0.0000
# 3 10.9825 23.0113 30.6894 0.0000 -0.5172 0.0000
# 4 0.0000 0.0000 0.0000 32.4107 0.0000 40.1918
# 5 -0.4260 23.4190 -0.5172 0.0000 30.2777 0.0000
# 6 0.0000 0.0000 0.0000 40.1918 0.0000 121.5881
#
#
#
# Elastic Compliance Matrix: (Units=1/GPa)
#
#
# Indices 1 2 3 4 5 6 
#
# 1 0.017395 0.001193 -0.007133 0.000000 -0.000800 0.000000
# 2 0.001193 0.008640 -0.007020 0.000000 -0.006786 0.000000
# 3 -0.007133 -0.007020 0.040502 0.000000 0.006021 0.000000
# 4 0.000000 0.000000 0.000000 0.052288 0.000000 -0.017284
# 5 -0.000800 -0.006786 0.006021 0.000000 0.038368 0.000000
# 6 0.000000 0.000000 0.000000 -0.017284 0.000000 0.013938
#
#
# Mechanical properties :
#
#
# Convention : Reuss Voigt Hill
#
# Bulk Modulus (GPa) = 24.61961 34.83698 29.72830
# Shear Modulus (GPa) = 23.74289 50.95287 37.34788
#
# Velocity S-wave (km/s) = 3.15183 4.61722 3.95302
# Velocity P-wave (km/s) = 4.85244 6.55749 5.76832
#
# Compressibility (1/GPa) = 0.04061802
#
# Stress axis : x y z
#
# Youngs Moduli (GPa) = 57.48653 115.74315 24.69004
#
# Poissons Ratio (x) = -0.13812 0.17612
# Poissons Ratio (y) = -0.06860 0.17332
# Poissons Ratio (z) = 0.41007 0.81248
#
# Static dielectric constant tensor:
#      x y z
#    x 1.939270 0.000000 -0.038370 
#    y 0.000000 1.978090 0.000000 
#    z -0.038370 0.000000 1.897430 
# 
# From -- ./inp_files/262829.got.cif
#   From: 2010.05.17/outbox.cif.g08.bks.cpg/sg12_132_cif.got.tgz:262829.got - 2010.06.03 13:09:07.
