data_PCOD9207482
_publ_section_title
;
Structure prediction by ZEFSAII (Michael W. Deem and Ramdas Pophale) SiO2 
 PCOD9207482
Probable space group: C 2/M
;
_chemical_formula_sum "Si O2"
_cell_formula_units_Z 58
_cell_length_a 14.630921
_cell_length_b 10.170244
_cell_length_c 20.731912
_cell_angle_alpha 90.000000
_cell_angle_beta 71.799869
_cell_angle_gamma 90.000000
_cell_volume 2930.575378
_symmetry_space_group_name_H-M "C 2/M"
_symmetry_group_IT_number 12
_symmetry_cell_setting 'monoclinic'
loop_
_space_group_symop_operation_xyz
x,y,z
-x,y,-z
-x,-y,-z
x,-y,z
1/2+x,1/2+y,z
1/2-x,1/2+y,-z
1/2-x,1/2-y,-z
1/2+x,1/2-y,z
loop_
_atom_site_type_symbol
_atom_site_label
_atom_site_fract_x
_atom_site_fract_y
_atom_site_fract_z
Si Si1 0.487994 0.844980 0.926046
Si Si2 0.007682 0.850717 0.292210
Si Si3 0.207330 0.150225 0.326952
Si Si4 0.191273 0.359258 0.442429
Si Si5 0.693495 0.158753 0.819510
Si Si6 0.000000 0.000000 0.500000
Si Si7 0.381965 0.658318 0.859189
Si Si8 0.402372 0.713615 0.432033
O O1 0.590235 0.809320 0.870969
O O2 0.408656 0.747881 0.913905
O O3 0.467555 0.000000 0.916921
O O4 0.500000 0.831507 0.000000
O O5 0.940542 0.761370 0.351668
O O6 0.110343 0.854717 0.306012
O O7 0.036245 0.815517 0.213404
O O8 0.967501 0.000000 0.301642
O O9 0.189881 0.241767 0.391657
O O10 0.285433 0.203960 0.258361
O O11 0.228680 0.000000 0.343280
O O12 0.174804 0.500000 0.414543
O O13 0.297969 0.353760 0.448973
O O14 0.116791 0.334830 0.516626
O O15 0.780131 0.196150 0.848815
O O16 0.700007 0.000000 0.813525
O O17 0.972650 0.886149 0.452657
O O18 0.381161 0.500000 0.871652
#
# Coordination Sequence:
#
# PCOD9207482 Si02
#       8
#     8   8   8   8   8   2   8   8
#     4  10  21  37  58  86 123 162 192 227 288 357
#     4   9  17  35  57  84 102 143 199 233 275 341
#     4   9  19  35  62  82 106 151 194 229 281 354
#     4  11  24  38  50  86 120 138 177 250 301 327
#     4   8  17  37  58  85 117 153 197 233 284 346
#     4  12  20  40  62  80  92 162 200 228 254 368
#     4   9  19  36  61  85 115 148 195 253 282 331
#     4  11  23  35  59  76 109 147 194 228 279 352
#
# _framework density 19.791336999999999
#
# number of rings (size 3 to 8) (size 9 to 14) (size 15 to 20)
#    0.000    2.345    1.379    2.483    4.828    1.379 
#    0.000    7.241    0.000    0.000    0.000    0.000 
#    0.000    0.000    0.000    0.000    0.000    0.000 
#
# Total GULP energy -161476.364041 kJ/mol
# GULP energy per Si atom -5568.150484 kJ/mol
# Density = 1.974629 g / cm^3
# Si number density = 19.791337 Si / 1000 Ang^3
#
#
#
# Elastic Constant Matrix: (Units=GPa)
#
#
# Indices 1 2 3 4 5 6 
#
# 1 34.5902 15.5219 10.3021 0.0000 6.7641 0.0000
# 2 15.5219 71.4866 33.6346 0.0000 12.9050 0.0000
# 3 10.3021 33.6346 61.2641 0.0000 11.4454 0.0000
# 4 0.0000 0.0000 0.0000 15.3662 0.0000 1.1550
# 5 6.7641 12.9050 11.4454 0.0000 31.6274 0.0000
# 6 0.0000 0.0000 0.0000 1.1550 0.0000 9.9088
#
#
#
# Elastic Compliance Matrix: (Units=1/GPa)
#
#
# Indices 1 2 3 4 5 6 
#
# 1 0.032714 -0.005573 -0.001672 0.000000 -0.004117 0.000000
# 2 -0.005573 0.020354 -0.009554 0.000000 -0.003656 0.000000
# 3 -0.001672 -0.009554 0.022581 0.000000 -0.003915 0.000000
# 4 0.000000 0.000000 0.000000 0.065653 0.000000 -0.007653
# 5 -0.004117 -0.003656 -0.003915 0.000000 0.035407 0.000000
# 6 0.000000 0.000000 0.000000 -0.007653 0.000000 0.101812
#
#
# Mechanical properties :
#
#
# Convention : Reuss Voigt Hill
#
# Bulk Modulus (GPa) = 23.78159 31.80646 27.79402
# Shear Modulus (GPa) = 15.33093 18.57263 16.95178
#
# Velocity S-wave (km/s) = 2.78623 3.06669 2.92982
# Velocity P-wave (km/s) = 4.73213 5.35213 5.05165
#
# Compressibility (1/GPa) = 0.04204934
#
# Stress axis : x y z
#
# Youngs Moduli (GPa) = 30.56802 49.13021 44.28510
#
# Poissons Ratio (x) = 0.27381 0.07405
# Poissons Ratio (y) = 0.17036 0.42312
# Poissons Ratio (z) = 0.05112 0.46941
#
# Static dielectric constant tensor:
#      x y z
#    x 1.733160 0.000000 -0.035150 
#    y 0.000000 1.684000 0.000000 
#    z -0.035150 0.000000 1.732270 
# 
# From -- ./inp_files/268695.got.cif
#   From: 2010.05.17/outbox.cif.g08.bks.cpg/sg12_135_cif.got.tgz:268695.got - 2010.06.03 13:09:07.
