data_PCOD9207458
_publ_section_title
;
Structure prediction by ZEFSAII (Michael W. Deem and Ramdas Pophale) SiO2 
 PCOD9207458
Probable space group: C 2/M
;
_chemical_formula_sum "Si O2"
_cell_formula_units_Z 48
_cell_length_a 26.383041
_cell_length_b 18.115625
_cell_length_c 10.362682
_cell_angle_alpha 90.000000
_cell_angle_beta 151.874126
_cell_angle_gamma 90.000000
_cell_volume 2334.797993
_symmetry_space_group_name_H-M "C 2/M"
_symmetry_group_IT_number 12
_symmetry_cell_setting 'monoclinic'
loop_
_space_group_symop_operation_xyz
x,y,z
-x,y,-z
-x,-y,-z
x,-y,z
1/2+x,1/2+y,z
1/2-x,1/2+y,-z
1/2-x,1/2-y,-z
1/2+x,1/2-y,z
loop_
_atom_site_type_symbol
_atom_site_label
_atom_site_fract_x
_atom_site_fract_y
_atom_site_fract_z
Si Si1 0.499512 0.912237 0.852218
Si Si2 0.917161 0.150102 0.204439
Si Si3 0.185478 0.295951 0.961900
Si Si4 0.903770 0.821110 0.885898
Si Si5 0.207535 0.667304 0.281655
Si Si6 0.182906 0.411773 0.751329
O O1 0.401228 0.884116 0.545618
O O2 0.486973 0.000000 0.829553
O O3 0.500000 0.883822 0.000000
O O4 0.613921 0.891601 0.050246
O O5 0.905514 0.238799 0.198132
O O6 0.000000 0.123533 0.500000
O O7 0.938859 0.142445 0.100457
O O8 0.802192 0.112713 0.975975
O O9 0.154370 0.370711 0.820384
O O10 0.250000 0.250000 0.000000
O O11 0.252979 0.311761 0.242818
O O12 0.855070 0.739572 0.805448
O O13 0.800131 0.858872 0.585829
O O14 0.000000 0.818031 0.000000
O O15 0.177371 0.500000 0.750814
#
# Coordination Sequence:
#
# PCOD9207458 Si02
#       6
#     8   8   8   8   8   8
#     4  10  21  37  59  83 114 154 193 244 300 354
#     4  10  22  38  62  90 120 159 197 249 302 355
#     4   9  21  36  58  84 119 152 197 242 301 347
#     4  10  22  36  60  89 118 151 198 245 298 354
#     4  10  21  37  58  86 117 152 191 248 296 354
#     4  10  22  39  61  88 119 158 206 248 295 363
#
# _framework density 20.558523000000001
#
# number of rings (size 3 to 8) (size 9 to 14) (size 15 to 20)
#    0.000    2.167    0.000    1.500    9.333    5.000 
#    0.000    1.667    0.000    1.000    0.000    0.000 
#    0.000    0.000    0.000    0.000    0.000    0.000 
#
# Total GULP energy -133839.896641 kJ/mol
# GULP energy per Si atom -5576.662360 kJ/mol
# Density = 2.051173 g / cm^3
# Si number density = 20.558523 Si / 1000 Ang^3
#
#
#
# Elastic Constant Matrix: (Units=GPa)
#
#
# Indices 1 2 3 4 5 6 
#
# 1 104.8564 10.4508 65.7488 0.0000 -20.1925 0.0000
# 2 10.4508 42.4746 20.6575 0.0000 -9.5495 0.0000
# 3 65.7488 20.6575 185.4472 0.0000 -13.3871 0.0000
# 4 0.0000 0.0000 0.0000 17.0665 0.0000 0.2115
# 5 -20.1925 -9.5495 -13.3871 0.0000 28.8477 0.0000
# 6 0.0000 0.0000 0.0000 0.2115 0.0000 19.4933
#
#
#
# Elastic Compliance Matrix: (Units=1/GPa)
#
#
# Indices 1 2 3 4 5 6 
#
# 1 0.013710 0.000484 -0.004356 0.000000 0.007735 0.000000
# 2 0.000484 0.026441 -0.002546 0.000000 0.007910 0.000000
# 3 -0.004356 -0.002546 0.007180 0.000000 -0.000560 0.000000
# 4 0.000000 0.000000 0.000000 0.058602 0.000000 -0.000636
# 5 0.007735 0.007910 -0.000560 0.000000 0.042438 0.000000
# 6 0.000000 0.000000 0.000000 -0.000636 0.000000 0.051307
#
#
# Mechanical properties :
#
#
# Convention : Reuss Voigt Hill
#
# Bulk Modulus (GPa) = 28.98964 58.49914 43.74439
# Shear Modulus (GPa) = 22.32030 28.80958 25.56494
#
# Velocity S-wave (km/s) = 3.29856 3.74752 3.53018
# Velocity P-wave (km/s) = 5.35154 6.87327 6.15958
#
# Compressibility (1/GPa) = 0.03449508
#
# Stress axis : x y z
#
# Youngs Moduli (GPa) = 72.94127 37.82001 139.27541
#
# Poissons Ratio (x) = -0.01832 0.60672
# Poissons Ratio (y) = -0.03534 0.35461
# Poissons Ratio (z) = 0.31775 0.09629
#
# Static dielectric constant tensor:
#      x y z
#    x 1.772990 0.000000 -0.023730 
#    y 0.000000 1.748350 0.000000 
#    z -0.023730 0.000000 1.773410 
# 
# From -- ./inp_files/106585.got.cif
#   From: 2010.05.17/outbox.cif.g08.bks.cpg/sg12_54_cif.got.tgz:106585.got - 2010.06.03 13:09:07.
