data_PCOD9207292
_publ_section_title
;
Structure prediction by ZEFSAII (Michael W. Deem and Ramdas Pophale) SiO2 
 PCOD9207292
Probable space group: C 2/M
;
_chemical_formula_sum "Si O2"
_cell_formula_units_Z 56
_cell_length_a 14.476881
_cell_length_b 24.001286
_cell_length_c 9.458898
_cell_angle_alpha 90.000000
_cell_angle_beta 65.131286
_cell_angle_gamma 90.000000
_cell_volume 2981.868041
_symmetry_space_group_name_H-M "C 2/M"
_symmetry_group_IT_number 12
_symmetry_cell_setting 'monoclinic'
loop_
_space_group_symop_operation_xyz
x,y,z
-x,y,-z
-x,-y,-z
x,-y,z
1/2+x,1/2+y,z
1/2-x,1/2+y,-z
1/2-x,1/2-y,-z
1/2+x,1/2-y,z
loop_
_atom_site_type_symbol
_atom_site_label
_atom_site_fract_x
_atom_site_fract_y
_atom_site_fract_z
Si Si1 0.570319 0.238371 0.820925
Si Si2 0.792535 0.434928 0.487953
Si Si3 0.028843 0.607012 0.820984
Si Si4 0.898437 0.637732 0.656668
Si Si5 0.713964 0.748835 0.184003
Si Si6 0.471684 0.674686 0.681557
Si Si7 0.446999 0.561629 0.380542
O O1 0.549962 0.173421 0.808028
O O2 0.687736 0.245916 0.781393
O O3 0.536272 0.277506 0.716153
O O4 0.500000 0.254576 0.000000
O O5 0.805176 0.500000 0.516187
O O6 0.870921 0.421320 0.309923
O O7 0.825182 0.396557 0.599160
O O8 0.673705 0.426165 0.527212
O O9 0.936460 0.602019 0.767693
O O10 0.000000 0.590373 0.000000
O O11 0.848579 0.695465 0.738444
O O12 0.000000 0.649757 0.500000
O O13 0.644163 0.694353 0.239102
O O14 0.750000 0.750000 0.000000
O O15 0.500000 0.673242 0.500000
O O16 0.499112 0.614330 0.727272
O O17 0.500000 0.558051 0.500000
O O18 0.457713 0.500000 0.307268
#
# Coordination Sequence:
#
# PCOD9207292 Si02
#       7
#     8   8   8   8   8   8   8
#     4  11  22  38  56  85 128 160 189 242 307 361
#     4  10  22  40  65  89 115 164 211 250 303 354
#     4  10  21  37  57  88 128 160 195 254 310 361
#     4  10  21  40  60  87 126 159 203 254 295 359
#     4  12  22  37  61  88 126 160 196 244 305 368
#     4  11  23  37  60  95 115 157 206 241 300 361
#     4   9  20  40  60  86 120 151 200 257 295 346
#
# _framework density 18.780173000000001
#
# number of rings (size 3 to 8) (size 9 to 14) (size 15 to 20)
#    0.000    1.571    2.857    2.143    6.000    3.429 
#    0.000    0.000    0.000    1.286    0.000    0.000 
#    0.000    0.000    0.000    0.000    0.000    0.000 
#
# Total GULP energy -156262.588821 kJ/mol
# GULP energy per Si atom -5580.806744 kJ/mol
# Density = 1.873743 g / cm^3
# Si number density = 18.780173 Si / 1000 Ang^3
#
#
#
# Elastic Constant Matrix: (Units=GPa)
#
#
# Indices 1 2 3 4 5 6 
#
# 1 146.5701 40.5737 33.8488 0.0000 -6.3498 0.0000
# 2 40.5737 103.1104 39.9813 0.0000 -13.8870 0.0000
# 3 33.8488 39.9813 82.4839 0.0000 2.8586 0.0000
# 4 0.0000 0.0000 0.0000 30.9633 0.0000 6.3176
# 5 -6.3498 -13.8870 2.8586 0.0000 26.5240 0.0000
# 6 0.0000 0.0000 0.0000 6.3176 0.0000 30.9435
#
#
#
# Elastic Compliance Matrix: (Units=1/GPa)
#
#
# Indices 1 2 3 4 5 6 
#
# 1 0.007981 -0.002112 -0.002288 0.000000 0.001052 0.000000
# 2 -0.002112 0.013909 -0.006133 0.000000 0.007438 0.000000
# 3 -0.002288 -0.006133 0.016226 0.000000 -0.005508 0.000000
# 4 0.000000 0.000000 0.000000 0.033700 0.000000 -0.006880
# 5 0.001052 0.007438 -0.005508 0.000000 0.042441 0.000000
# 6 0.000000 0.000000 0.000000 -0.006880 0.000000 0.033722
#
#
# Mechanical properties :
#
#
# Convention : Reuss Voigt Hill
#
# Bulk Modulus (GPa) = 58.64884 62.33023 60.48954
# Shear Modulus (GPa) = 28.61566 32.20351 30.40958
#
# Velocity S-wave (km/s) = 3.90772 4.14546 4.02834
# Velocity P-wave (km/s) = 7.18730 7.49497 7.34274
#
# Compressibility (1/GPa) = 0.01705064
#
# Stress axis : x y z
#
# Youngs Moduli (GPa) = 125.29405 71.89487 61.62843
#
# Poissons Ratio (x) = 0.15182 0.14101
# Poissons Ratio (y) = 0.26459 0.37798
# Poissons Ratio (z) = 0.28668 0.44095
#
# Static dielectric constant tensor:
#      x y z
#    x 1.627130 0.000000 -0.049230 
#    y 0.000000 1.667820 0.000000 
#    z -0.049230 0.000000 1.600040 
# 
# From -- ./inp_files/65727.got.cif
#   From: 2010.05.17/outbox.cif.g08.bks.cpg/sg12_33_cif.got.tgz:65727.got - 2010.06.03 13:09:07.
