data_PCOD9207088
_publ_section_title
;
Structure prediction by ZEFSAII (Michael W. Deem and Ramdas Pophale) SiO2 
 PCOD9207088
Probable space group: C 2/M
;
_chemical_formula_sum "Si O2"
_cell_formula_units_Z 28
_cell_length_a 15.498361
_cell_length_b 19.684086
_cell_length_c 14.286079
_cell_angle_alpha 90.000000
_cell_angle_beta 161.421419
_cell_angle_gamma 90.000000
_cell_volume 1388.566344
_symmetry_space_group_name_H-M "C 2/M"
_symmetry_group_IT_number 12
_symmetry_cell_setting 'monoclinic'
loop_
_space_group_symop_operation_xyz
x,y,z
-x,y,-z
-x,-y,-z
x,-y,z
1/2+x,1/2+y,z
1/2-x,1/2+y,-z
1/2-x,1/2-y,-z
1/2+x,1/2-y,z
loop_
_atom_site_type_symbol
_atom_site_label
_atom_site_fract_x
_atom_site_fract_y
_atom_site_fract_z
Si Si1 0.818840 0.394748 0.233403
Si Si2 0.500000 0.236650 0.500000
Si Si3 0.016623 0.211094 0.313971
Si Si4 0.303787 0.423062 0.598176
O O1 0.000000 0.428381 0.500000
O O2 0.782998 0.318133 0.236409
O O3 0.020307 0.397367 0.350849
O O4 0.530672 0.424297 0.912897
O O5 0.440914 0.279408 0.531356
O O6 0.250000 0.250000 0.500000
O O7 0.064254 0.132412 0.335412
O O8 0.750000 0.250000 0.000000
O O9 0.269557 0.500000 0.527120
#
# Coordination Sequence:
#
# PCOD9207088 Si02
#       4
#     8   4   8   8
#     4  10  21  37  56  88 113 149 198 238 301 347
#     4  10  22  38  66  88 118 154 208 240 302 336
#     4  12  22  41  61  88 121 155 203 246 288 355
#     4  12  23  38  57  85 122 156 187 243 302 349
#
# _framework density 20.164683
#
# number of rings (size 3 to 8) (size 9 to 14) (size 15 to 20)
#    0.857    0.000    5.714    1.714    0.000    6.857 
#    0.000    0.714    0.000    0.000    0.000    8.000 
#    0.000    0.000    0.000    0.000    0.000    0.000 
#
# Total GULP energy -77989.828947 kJ/mol
# GULP energy per Si atom -5570.702068 kJ/mol
# Density = 2.011879 g / cm^3
# Si number density = 20.164683 Si / 1000 Ang^3
#
#
#
# Elastic Constant Matrix: (Units=GPa)
#
#
# Indices 1 2 3 4 5 6 
#
# 1 147.5322 73.5637 34.8912 0.0009 -0.8188 -0.0007
# 2 73.5637 151.3365 19.9663 0.0007 -1.1016 -0.0002
# 3 34.8912 19.9663 109.2205 0.0055 27.4638 -0.0027
# 4 0.0009 0.0007 0.0055 -2.1364 0.0018 -4.0871
# 5 -0.8188 -1.1016 27.4638 0.0018 26.6203 -0.0014
# 6 -0.0007 -0.0002 -0.0027 -4.0871 -0.0014 -5.2508
#
#
#
# Elastic Compliance Matrix: (Units=1/GPa)
#
#
# Indices 1 2 3 4 5 6 
#
# 1 0.009667 -0.004258 -0.003160 0.000004 0.003382 -0.000003
# 2 -0.004258 0.008735 -0.000398 0.000000 0.000641 0.000000
# 3 -0.003160 -0.000398 0.013863 -0.000057 -0.014416 0.000041
# 4 0.000004 0.000000 -0.000057 0.956990 -0.000046 -0.744903
# 5 0.003382 0.000641 -0.014416 -0.000046 0.052569 0.000029
# 6 -0.000003 0.000000 0.000041 -0.744903 0.000029 0.389371
#
#
# Mechanical properties :
#
#
# Convention : Reuss Voigt Hill
#
# Bulk Modulus (GPa) = 60.11953 73.88131 67.00042
# Shear Modulus (GPa) = 3.44265 22.49116 12.96691
#
# Velocity S-wave (km/s) = 1.30804 3.34334 2.53859
# Velocity P-wave (km/s) = 5.67100 7.18488 6.47235
#
# Compressibility (1/GPa) = 0.01663353
#
# Stress axis : x y z
#
# Youngs Moduli (GPa) = 103.44104 114.48780 72.13452
#
# Poissons Ratio (x) = 0.48745 0.22796
# Poissons Ratio (y) = 0.44042 0.02869
# Poissons Ratio (z) = 0.32690 0.04554
#
# Static dielectric constant tensor:
#      x y z
#    x 1.749090 0.000000 -0.011720 
#    y 0.000000 1.857580 -0.000020 
#    z -0.011720 -0.000020 1.725380 
# 
# From -- ./inp_files/15489.got.cif
#   From: 2010.05.17/outbox.cif.g08.bks.cpg/sg12_8_cif.got.tgz:15489.got - 2010.06.03 13:09:07.
