data_PCOD9207550
_publ_section_title
;
Structure prediction by ZEFSAII (Michael W. Deem and Ramdas Pophale) SiO2 
 PCOD9207550
Probable space group: C 2/M
;
_chemical_formula_sum "Si O2"
_cell_formula_units_Z 56
_cell_length_a 24.649440
_cell_length_b 15.114457
_cell_length_c 9.134503
_cell_angle_alpha 90.000000
_cell_angle_beta 119.049519
_cell_angle_gamma 90.000000
_cell_volume 2975.058552
_symmetry_space_group_name_H-M "C 2/M"
_symmetry_group_IT_number 12
_symmetry_cell_setting 'monoclinic'
loop_
_space_group_symop_operation_xyz
x,y,z
-x,y,-z
-x,-y,-z
x,-y,z
1/2+x,1/2+y,z
1/2-x,1/2+y,-z
1/2-x,1/2-y,-z
1/2+x,1/2-y,z
loop_
_atom_site_type_symbol
_atom_site_label
_atom_site_fract_x
_atom_site_fract_y
_atom_site_fract_z
Si Si1 0.907077 0.705337 0.218318
Si Si2 0.714374 0.777075 0.099512
Si Si3 0.735647 0.336692 0.383598
Si Si4 0.070893 0.898063 0.645687
Si Si5 0.871606 0.603192 0.467748
Si Si6 0.311166 0.402080 0.392021
Si Si7 0.987513 0.394687 0.814613
O O1 0.914692 0.811888 0.236937
O O2 0.890248 0.665812 0.356223
O O3 0.968101 0.659506 0.235136
O O4 0.850331 0.682354 0.035752
O O5 0.703179 0.694677 0.192753
O O6 0.762262 0.838919 0.248303
O O7 0.750000 0.750000 0.000000
O O8 0.750000 0.250000 0.500000
O O9 0.801202 0.379236 0.424789
O O10 0.695240 0.393384 0.442301
O O11 0.119643 0.887186 0.576062
O O12 0.000000 0.891157 0.500000
O O13 0.079571 0.000000 0.713749
O O14 0.878793 0.500000 0.433884
O O15 0.917635 0.619727 0.664749
O O16 0.292759 0.500000 0.323127
O O17 0.000471 0.500000 0.818280
O O18 0.000000 0.370009 0.000000
#
# Coordination Sequence:
#
# PCOD9207550 Si02
#       7
#     8   8   8   8   8   8   8
#     4  12  22  39  62  89 120 164 199 246 309 363
#     4  11  21  39  58  89 124 154 200 247 302 368
#     4  10  21  37  59  82 118 159 201 246 295 357
#     4  10  21  39  63  86 111 151 207 255 297 354
#     4  11  22  38  61  90 123 161 206 249 298 365
#     4  10  21  38  60  86 117 155 197 249 305 359
#     4  10  24  41  59  90 127 162 204 249 299 365
#
# _framework density 18.823160000000001
#
# number of rings (size 3 to 8) (size 9 to 14) (size 15 to 20)
#    0.000    1.429    2.857    3.000    4.000    2.286 
#    0.000    1.429    0.000    0.429    0.000    0.000 
#    0.000    0.000    0.000    0.000    0.000    0.000 
#
# Total GULP energy -156160.530879 kJ/mol
# GULP energy per Si atom -5577.161817 kJ/mol
# Density = 1.878032 g / cm^3
# Si number density = 18.823160 Si / 1000 Ang^3
#
#
#
# Elastic Constant Matrix: (Units=GPa)
#
#
# Indices 1 2 3 4 5 6 
#
# 1 73.9835 29.6456 27.9719 0.0000 -3.7930 0.0000
# 2 29.6456 76.1731 27.3175 0.0000 -7.4092 0.0000
# 3 27.9719 27.3175 99.3674 0.0000 -4.9639 0.0000
# 4 0.0000 0.0000 0.0000 23.4127 0.0000 2.5800
# 5 -3.7930 -7.4092 -4.9639 0.0000 29.7431 0.0000
# 6 0.0000 0.0000 0.0000 2.5800 0.0000 30.4582
#
#
#
# Elastic Compliance Matrix: (Units=1/GPa)
#
#
# Indices 1 2 3 4 5 6 
#
# 1 0.016926 -0.005388 -0.003270 0.000000 0.000271 0.000000
# 2 -0.005388 0.016547 -0.002885 0.000000 0.002953 0.000000
# 3 -0.003270 -0.002885 0.011819 0.000000 0.000837 0.000000
# 4 0.000000 0.000000 0.000000 0.043114 0.000000 -0.003652
# 5 0.000271 0.002953 0.000837 0.000000 0.034531 0.000000
# 6 0.000000 0.000000 0.000000 -0.003652 0.000000 0.033141
#
#
# Mechanical properties :
#
#
# Convention : Reuss Voigt Hill
#
# Bulk Modulus (GPa) = 45.03268 46.59932 45.81600
# Shear Modulus (GPa) = 26.80022 27.69540 27.24781
#
# Velocity S-wave (km/s) = 3.77741 3.83998 3.80882
# Velocity P-wave (km/s) = 6.55752 6.66863 6.61331
#
# Compressibility (1/GPa) = 0.02220610
#
# Stress axis : x y z
#
# Youngs Moduli (GPa) = 59.08149 60.43454 84.61010
#
# Poissons Ratio (x) = 0.32564 0.27665
# Poissons Ratio (y) = 0.31835 0.24407
# Poissons Ratio (z) = 0.19318 0.17433
#
# Static dielectric constant tensor:
#      x y z
#    x 1.607110 0.000000 -0.128890 
#    y 0.000000 1.703960 0.000000 
#    z -0.128890 0.000000 1.328070 
# 
# From -- ./inp_files/96963.got.cif
#   From: 2010.05.17/outbox.cif.g08.bks.cpg/sg12_49_cif.got.tgz:96963.got - 2010.06.03 13:09:07.
