data_PCOD9207833
_publ_section_title
;
Structure prediction by ZEFSAII (Michael W. Deem and Ramdas Pophale) SiO2 
 PCOD9207833
Probable space group: C 2/M
;
_chemical_formula_sum "Si O2"
_cell_formula_units_Z 50
_cell_length_a 9.289643
_cell_length_b 25.819956
_cell_length_c 14.578453
_cell_angle_alpha 90.000000
_cell_angle_beta 50.706502
_cell_angle_gamma 90.000000
_cell_volume 2706.185669
_symmetry_space_group_name_H-M "C 2/M"
_symmetry_group_IT_number 12
_symmetry_cell_setting 'monoclinic'
loop_
_space_group_symop_operation_xyz
x,y,z
-x,y,-z
-x,-y,-z
x,-y,z
1/2+x,1/2+y,z
1/2-x,1/2+y,-z
1/2-x,1/2-y,-z
1/2+x,1/2-y,z
loop_
_atom_site_type_symbol
_atom_site_label
_atom_site_fract_x
_atom_site_fract_y
_atom_site_fract_z
Si Si1 0.000000 0.500000 0.000000
Si Si2 0.909936 0.145963 0.764017
Si Si3 0.688071 0.285203 0.366025
Si Si4 0.472678 0.144286 0.750761
Si Si5 0.834173 0.442495 0.221776
Si Si6 0.172774 0.193389 0.003283
Si Si7 0.311574 0.161982 0.629934
O O1 0.991825 0.455852 0.083920
O O2 0.128313 0.140767 0.657132
O O3 0.832576 0.190070 0.726454
O O4 0.811773 0.092949 0.773954
O O5 0.882637 0.164028 0.880038
O O6 0.500000 0.295440 0.500000
O O7 0.715162 0.223913 0.350487
O O8 0.869922 0.312462 0.335298
O O9 0.581952 0.092338 0.732348
O O10 0.339353 0.138343 0.718573
O O11 0.344884 0.164107 0.885395
O O12 0.761684 0.500000 0.277397
O O13 0.250000 0.250000 0.000000
O O14 0.000000 0.196681 0.000000
O O15 0.500000 0.152422 0.500000
#
# Coordination Sequence:
#
# PCOD9207833 Si02
#       7
#     2   8   8   8   8   8   8
#     4   8  16  40  64  82  94 140 188 246 284 350
#     4  11  22  37  59  87 120 157 198 245 295 350
#     4  10  21  37  60  87 121 166 207 233 274 352
#     4  11  22  37  59  87 120 157 198 245 295 350
#     4   9  21  39  64  80 109 142 203 247 295 346
#     4  12  25  36  55  88 132 166 188 230 293 362
#     4  11  21  36  58  87 124 160 195 240 287 348
#
# _framework density 18.476189000000002
#
# number of rings (size 3 to 8) (size 9 to 14) (size 15 to 20)
#    0.480    0.960    1.600    4.800    4.480    2.560 
#    0.000    0.800    0.000   20.160    0.000    0.000 
#    0.000    0.000    0.000    0.000    0.000    0.000 
#
# Total GULP energy -139199.273101 kJ/mol
# GULP energy per Si atom -5567.970924 kJ/mol
# Density = 1.843414 g / cm^3
# Si number density = 18.476189 Si / 1000 Ang^3
#
#
#
# Elastic Constant Matrix: (Units=GPa)
#
#
# Indices 1 2 3 4 5 6 
#
# 1 79.0477 32.4996 -1.2534 0.0000 -2.3063 0.0000
# 2 32.4996 103.4040 25.3515 0.0000 -1.8176 0.0000
# 3 -1.2534 25.3515 43.1697 0.0000 -1.6075 0.0000
# 4 0.0000 0.0000 0.0000 -35.8258 0.0000 -8.6713
# 5 -2.3063 -1.8176 -1.6075 0.0000 27.2330 0.0000
# 6 0.0000 0.0000 0.0000 -8.6713 0.0000 5.4587
#
#
#
# Elastic Compliance Matrix: (Units=1/GPa)
#
#
# Indices 1 2 3 4 5 6 
#
# 1 0.015065 -0.005645 0.003794 0.000000 0.001123 0.000000
# 2 -0.005645 0.013416 -0.008045 0.000000 -0.000057 0.000000
# 3 0.003794 -0.008045 0.028053 0.000000 0.001440 0.000000
# 4 0.000000 0.000000 0.000000 -0.020161 0.000000 -0.032026
# 5 0.001123 -0.000057 0.001440 0.000000 0.036896 0.000000
# 6 0.000000 0.000000 0.000000 -0.032026 0.000000 0.132319
#
#
# Mechanical properties :
#
#
# Convention : Reuss Voigt Hill
#
# Bulk Modulus (GPa) = 27.21677 37.64630 32.43153
# Shear Modulus (GPa) = 21.04142 10.64143 15.84143
#
# Velocity S-wave (km/s) = 3.37833 2.40251 2.93131
# Velocity P-wave (km/s) = 5.47542 5.30244 5.38962
#
# Compressibility (1/GPa) = 0.03674206
#
# Stress axis : x y z
#
# Youngs Moduli (GPa) = 66.38119 74.53542 35.64734
#
# Poissons Ratio (x) = 0.42077 -0.13526
# Poissons Ratio (y) = 0.37474 0.28678
# Poissons Ratio (z) = -0.25188 0.59963
#
# Static dielectric constant tensor:
#      x y z
#    x 1.641480 0.000000 -0.011420 
#    y 0.000000 1.622690 0.000000 
#    z -0.011420 0.000000 1.680290 
# 
# From -- ./inp_files/124185.got.cif
#   From: 2010.05.17/outbox.cif.g08.bks.cpg/sg12_63_cif.got.tgz:124185.got - 2010.06.03 13:09:07.
