data_PCOD9207315
_publ_section_title
;
Structure prediction by ZEFSAII (Michael W. Deem and Ramdas Pophale) SiO2 
 PCOD9207315
Probable space group: C 2/M
;
_chemical_formula_sum "Si O2"
_cell_formula_units_Z 64
_cell_length_a 19.447177
_cell_length_b 7.843409
_cell_length_c 29.713012
_cell_angle_alpha 90.000000
_cell_angle_beta 145.748433
_cell_angle_gamma 90.000000
_cell_volume 2550.841318
_symmetry_space_group_name_H-M "C 2/M"
_symmetry_group_IT_number 12
_symmetry_cell_setting 'monoclinic'
loop_
_space_group_symop_operation_xyz
x,y,z
-x,y,-z
-x,-y,-z
x,-y,z
1/2+x,1/2+y,z
1/2-x,1/2+y,-z
1/2-x,1/2-y,-z
1/2+x,1/2-y,z
loop_
_atom_site_type_symbol
_atom_site_label
_atom_site_fract_x
_atom_site_fract_y
_atom_site_fract_z
Si Si1 0.362571 0.807785 0.876151
Si Si2 0.023732 0.198036 0.629482
Si Si3 0.626695 0.311756 0.020973
Si Si4 0.983405 0.209154 0.704592
Si Si5 0.704186 0.800672 0.542494
Si Si6 0.894194 0.705384 0.797396
Si Si7 0.333339 0.293168 0.379833
Si Si8 0.377725 0.299761 0.130214
O O1 0.331016 0.709127 0.904206
O O2 0.333475 0.736326 0.811280
O O3 0.314466 0.000000 0.854996
O O4 0.511449 0.811600 0.954062
O O5 0.045579 0.265680 0.691391
O O6 0.879757 0.209787 0.539763
O O7 0.089867 0.271490 0.621366
O O8 0.060678 0.000000 0.650804
O O9 0.576202 0.500000 0.986832
O O10 0.745357 0.283374 0.055297
O O11 0.842128 0.264727 0.624093
O O12 0.052341 0.265520 0.786945
O O13 0.982176 0.000000 0.704895
O O14 0.641179 0.776864 0.557252
O O15 0.708626 0.000000 0.533694
O O16 0.898253 0.500000 0.802143
O O17 0.805472 0.752825 0.708695
O O18 0.028964 0.770686 0.860011
O O19 0.345710 0.500000 0.389211
O O20 0.356244 0.500000 0.124221
#
# Coordination Sequence:
#
# PCOD9207315 Si02
#       8
#     8   8   8   8   8   8   8   8
#     4  10  21  40  66  93 121 158 199 239 290 350
#     4  10  21  37  58  82 109 149 196 238 288 350
#     4  11  23  40  62  92 127 158 193 242 291 344
#     4   9  20  37  58  83 112 148 193 242 291 344
#     4  11  21  37  57  82 115 149 188 240 293 345
#     4  10  22  39  61  89 119 153 198 249 294 346
#     4  10  21  37  58  83 113 150 191 237 289 346
#     4  11  22  39  63  87 118 160 200 242 295 354
#
# _framework density 25.089763000000001
#
# number of rings (size 3 to 8) (size 9 to 14) (size 15 to 20)
#    0.000    1.750    1.250    3.750    1.750    3.500 
#    0.000    1.875    0.000    0.000    0.000    0.000 
#    0.000    0.000    0.000    0.000    0.000    0.000 
#
# Total GULP energy -179049.832151 kJ/mol
# GULP energy per Si atom -5595.307255 kJ/mol
# Density = 2.503266 g / cm^3
# Si number density = 25.089763 Si / 1000 Ang^3
#
#
#
# Elastic Constant Matrix: (Units=GPa)
#
#
# Indices 1 2 3 4 5 6 
#
# 1 98.4322 -4.5724 2.1779 0.0003 0.2444 -0.0004
# 2 -4.5724 50.1605 -1.0290 0.0007 0.3106 -0.0004
# 3 2.1779 -1.0290 68.0146 0.0001 -2.7942 -0.0002
# 4 0.0003 0.0007 0.0001 8.6393 -0.0001 -0.7566
# 5 0.2444 0.3106 -2.7942 -0.0001 48.9739 0.0001
# 6 -0.0004 -0.0004 -0.0002 -0.7566 0.0001 21.8575
#
#
#
# Elastic Compliance Matrix: (Units=1/GPa)
#
#
# Indices 1 2 3 4 5 6 
#
# 1 0.010209 0.000925 -0.000316 0.000000 -0.000075 0.000000
# 2 0.000925 0.020027 0.000269 -0.000002 -0.000116 0.000000
# 3 -0.000316 0.000269 0.014751 0.000000 0.000842 0.000000
# 4 0.000000 -0.000002 0.000000 0.116102 0.000000 0.004019
# 5 -0.000075 -0.000116 0.000842 0.000000 0.020468 0.000000
# 6 0.000000 0.000000 0.000000 0.004019 0.000000 0.045890
#
#
# Mechanical properties :
#
#
# Convention : Reuss Voigt Hill
#
# Bulk Modulus (GPa) = 21.39410 23.30669 22.35040
# Shear Modulus (GPa) = 20.72337 30.56287 25.64312
#
# Velocity S-wave (km/s) = 2.87709 3.49397 3.20043
# Velocity P-wave (km/s) = 4.42520 5.05832 4.75232
#
# Compressibility (1/GPa) = 0.04674186
#
# Stress axis : x y z
#
# Youngs Moduli (GPa) = 97.94889 49.93377 67.78981
#
# Poissons Ratio (x) = -0.04617 0.02142
# Poissons Ratio (y) = -0.09057 -0.01821
# Poissons Ratio (z) = 0.03095 -0.01341
#
# Static dielectric constant tensor:
#      x y z
#    x 2.000160 0.000000 0.011640 
#    y 0.000000 1.907190 0.000000 
#    z 0.011640 0.000000 2.008700 
# 
# From -- ./inp_files/378350.got.cif
#   From: 2010.05.17/outbox.cif.g08.bks.cpg/sg12_190_cif.got.tgz:378350.got - 2010.06.03 13:09:07.
