data_PCOD9207223
_publ_section_title
;
Structure prediction by ZEFSAII (Michael W. Deem and Ramdas Pophale) SiO2 
 PCOD9207223
Probable space group: C 2/M
;
_chemical_formula_sum "Si O2"
_cell_formula_units_Z 56
_cell_length_a 21.862371
_cell_length_b 8.597960
_cell_length_c 15.614210
_cell_angle_alpha 90.000000
_cell_angle_beta 86.868591
_cell_angle_gamma 90.000000
_cell_volume 2930.648656
_symmetry_space_group_name_H-M "C 2/M"
_symmetry_group_IT_number 12
_symmetry_cell_setting 'monoclinic'
loop_
_space_group_symop_operation_xyz
x,y,z
-x,y,-z
-x,-y,-z
x,-y,z
1/2+x,1/2+y,z
1/2-x,1/2+y,-z
1/2-x,1/2-y,-z
1/2+x,1/2-y,z
loop_
_atom_site_type_symbol
_atom_site_label
_atom_site_fract_x
_atom_site_fract_y
_atom_site_fract_z
Si Si1 0.704422 0.183460 0.127598
Si Si2 0.035732 0.811828 0.911150
Si Si3 0.056470 0.312116 0.557448
Si Si4 0.313599 0.184668 0.530736
Si Si5 0.356254 0.683959 0.701657
Si Si6 0.668431 0.814819 0.936665
Si Si7 0.005728 0.812248 0.274213
O O1 0.673350 0.279588 0.204886
O O2 0.775494 0.228514 0.113181
O O3 0.697684 0.000000 0.144432
O O4 0.674486 0.219759 0.037661
O O5 0.103501 0.742927 0.908983
O O6 0.004751 0.765160 0.823640
O O7 0.038747 0.000000 0.912542
O O8 0.000000 0.761959 0.000000
O O9 0.056283 0.500000 0.555935
O O10 0.123178 0.258003 0.519278
O O11 0.000000 0.259746 0.500000
O O12 0.042197 0.255082 0.654262
O O13 0.250000 0.250000 0.500000
O O14 0.321015 0.229252 0.629230
O O15 0.312292 0.000000 0.520673
O O16 0.354922 0.500000 0.685049
O O17 0.426812 0.737049 0.700290
O O18 0.675434 0.000000 0.925291
O O19 0.003072 0.000000 0.277180
#
# Coordination Sequence:
#
# PCOD9207223 Si02
#       7
#     8   8   8   8   8   8   8
#     4  10  21  37  59  84 114 155 198 242 297 360
#     4  10  21  38  58  83 121 161 198 245 300 357
#     4  10  21  40  64  88 118 157 199 249 305 361
#     4  11  24  42  63  89 123 160 199 248 309 367
#     4  11  22  38  61  89 118 151 197 247 299 359
#     4  10  21  37  57  84 116 153 198 248 300 354
#     4  10  22  37  60  91 118 155 202 248 300 359
#
# _framework density 19.108397
#
# number of rings (size 3 to 8) (size 9 to 14) (size 15 to 20)
#    0.000    1.714    1.429    2.571    0.000    6.857 
#    0.000    2.857    0.000    0.000    0.000    0.000 
#    0.000    0.000    0.000    0.000    0.000    0.000 
#
# Total GULP energy -156427.385773 kJ/mol
# GULP energy per Si atom -5586.692349 kJ/mol
# Density = 1.906491 g / cm^3
# Si number density = 19.108397 Si / 1000 Ang^3
#
#
#
# Elastic Constant Matrix: (Units=GPa)
#
#
# Indices 1 2 3 4 5 6 
#
# 1 107.0718 20.3515 29.2775 0.0000 14.4786 0.0000
# 2 20.3515 13.9495 13.7348 0.0000 5.5571 0.0000
# 3 29.2775 13.7348 65.3901 0.0000 -3.9579 0.0000
# 4 0.0000 0.0000 0.0000 32.1145 0.0000 -2.4938
# 5 14.4786 5.5571 -3.9579 0.0000 29.4335 0.0000
# 6 0.0000 0.0000 0.0000 -2.4938 0.0000 28.5310
#
#
#
# Elastic Compliance Matrix: (Units=1/GPa)
#
#
# Indices 1 2 3 4 5 6 
#
# 1 0.013663 -0.015047 -0.003218 0.000000 -0.004313 0.000000
# 2 -0.015047 0.120021 -0.019555 0.000000 -0.017888 0.000000
# 3 -0.003218 -0.019555 0.021334 0.000000 0.008144 0.000000
# 4 0.000000 0.000000 0.000000 0.031351 0.000000 0.002740
# 5 -0.004313 -0.017888 0.008144 0.000000 0.040569 0.000000
# 6 0.000000 0.000000 0.000000 0.002740 0.000000 0.035289
#
#
# Mechanical properties :
#
#
# Convention : Reuss Voigt Hill
#
# Bulk Modulus (GPa) = 12.59806 34.79323 23.69565
# Shear Modulus (GPa) = 13.72400 26.21895 19.97148
#
# Velocity S-wave (km/s) = 2.68287 3.70823 3.23641
# Velocity P-wave (km/s) = 4.02546 6.04835 5.13745
#
# Compressibility (1/GPa) = 0.07937730
#
# Stress axis : x y z
#
# Youngs Moduli (GPa) = 73.19300 8.33191 46.87357
#
# Poissons Ratio (x) = 0.12537 0.15083
# Poissons Ratio (y) = 1.10131 0.91664
# Poissons Ratio (z) = 0.23552 0.16293
#
# Static dielectric constant tensor:
#      x y z
#    x 1.651500 0.000000 -0.006110 
#    y 0.000000 1.647930 0.000000 
#    z -0.006110 0.000000 1.647110 
# 
# From -- ./inp_files/230863.got.cif
#   From: 2010.05.17/outbox.cif.g08.bks.cpg/sg12_116_cif.got.tgz:230863.got - 2010.06.03 13:09:07.
