data_PCOD9207381
_publ_section_title
;
Structure prediction by ZEFSAII (Michael W. Deem and Ramdas Pophale) SiO2 
 PCOD9207381
Probable space group: C 2/M
;
_chemical_formula_sum "Si O2"
_cell_formula_units_Z 64
_cell_length_a 10.531139
_cell_length_b 8.720091
_cell_length_c 36.513975
_cell_angle_alpha 90.000000
_cell_angle_beta 90.049333
_cell_angle_gamma 90.000000
_cell_volume 3353.168016
_symmetry_space_group_name_H-M "C 2/M"
_symmetry_group_IT_number 12
_symmetry_cell_setting 'monoclinic'
loop_
_space_group_symop_operation_xyz
x,y,z
-x,y,-z
-x,-y,-z
x,-y,z
1/2+x,1/2+y,z
1/2-x,1/2+y,-z
1/2-x,1/2-y,-z
1/2+x,1/2-y,z
loop_
_atom_site_type_symbol
_atom_site_label
_atom_site_fract_x
_atom_site_fract_y
_atom_site_fract_z
Si Si1 0.864149 0.814834 0.729897
Si Si2 0.122937 0.185193 0.354926
Si Si3 0.870945 0.683991 0.478711
Si Si4 0.863122 0.314819 0.144429
Si Si5 0.607744 0.814832 0.770980
Si Si6 0.394257 0.684037 0.897171
Si Si7 0.134574 0.816076 0.602938
Si Si8 0.870542 0.316099 0.978548
O O1 0.873975 0.766730 0.687542
O O2 0.730839 0.766270 0.747713
O O3 0.980919 0.750879 0.753144
O O4 0.869191 0.000000 0.730985
O O5 0.240264 0.256058 0.376777
O O6 0.990347 0.228271 0.373960
O O7 0.133537 0.000000 0.356181
O O8 0.862646 0.500000 0.477791
O O9 0.750000 0.750000 0.500000
O O10 0.873555 0.747581 0.437630
O O11 0.000000 0.727047 0.500000
O O12 0.871456 0.500000 0.142879
O O13 0.876172 0.267311 0.186757
O O14 0.727141 0.270715 0.127532
O O15 0.977206 0.245779 0.120868
O O16 0.602065 0.000000 0.770096
O O17 0.398569 0.500000 0.898883
O O18 0.376773 0.750059 0.937723
O O19 0.138900 0.000000 0.600604
O O20 0.861273 0.500000 0.977083
O O21 0.750000 0.250000 0.000000
O O22 0.000000 0.275806 0.000000
#
# Coordination Sequence:
#
# PCOD9207381 Si02
#       8
#     8   8   8   8   8   8   8   8
#     4  10  21  38  59  85 117 152 193 240 288 340
#     4  10  22  39  59  85 118 154 192 238 289 340
#     4  11  24  41  62  88 117 152 193 236 286 343
#     4  10  22  39  57  83 118 151 189 238 288 340
#     4  10  21  37  58  84 115 152 192 236 287 341
#     4  11  23  39  61  87 115 151 194 238 286 342
#     4  11  23  38  59  87 117 152 194 238 286 342
#     4  11  24  41  61  87 119 153 191 237 287 341
#
# _framework density 19.086428999999999
#
# number of rings (size 3 to 8) (size 9 to 14) (size 15 to 20)
#    0.000    1.500    0.000    4.500    0.000   11.500 
#    0.000    0.000    0.000    0.000    0.000    0.000 
#    0.000    0.000    0.000    0.000    0.000    0.000 
#
# Total GULP energy -178981.467779 kJ/mol
# GULP energy per Si atom -5593.170868 kJ/mol
# Density = 1.904299 g / cm^3
# Si number density = 19.086429 Si / 1000 Ang^3
#
#
#
# Elastic Constant Matrix: (Units=GPa)
#
#
# Indices 1 2 3 4 5 6 
#
# 1 26.5445 -8.5648 -70.7674 0.0000 -0.8230 0.0000
# 2 -8.5648 5.4313 -16.0554 0.0000 1.9515 0.0000
# 3 -70.7674 -16.0554 14.4227 0.0000 -0.7114 0.0000
# 4 0.0000 0.0000 0.0000 28.8444 0.0000 2.5502
# 5 -0.8230 1.9515 -0.7114 0.0000 45.5050 0.0000
# 6 0.0000 0.0000 0.0000 2.5502 0.0000 34.0071
#
#
#
# Elastic Compliance Matrix: (Units=1/GPa)
#
#
# Indices 1 2 3 4 5 6 
#
# 1 0.003459 -0.024197 -0.009916 0.000000 0.000945 0.000000
# 2 -0.024197 0.089066 -0.019802 0.000000 -0.004567 0.000000
# 3 -0.009916 -0.019802 -0.001330 0.000000 0.000649 0.000000
# 4 0.000000 0.000000 0.000000 0.034900 0.000000 -0.002617
# 5 0.000945 -0.004567 0.000649 0.000000 0.022199 0.000000
# 6 0.000000 0.000000 0.000000 -0.002617 0.000000 0.029602
#
#
# Mechanical properties :
#
#
# Convention : Reuss Voigt Hill
#
# Bulk Modulus (GPa) = -60.11401 -16.04184 -38.07793
# Shear Modulus (GPa) = 17.84569 31.12371 24.48470
#
# Velocity S-wave (km/s) = 3.06108 4.04254 3.58555
# Velocity P-wave (km/s) = 4.36697 3.65601 1.68879
#
# Compressibility (1/GPa) = -0.01663506
#
# Stress axis : x y z
#
# Youngs Moduli (GPa) = 289.08178 11.22769 -751.71338
#
# Poissons Ratio (x) = 0.27167 -7.45384
# Poissons Ratio (y) = 6.99481 -14.88566
# Poissons Ratio (z) = 2.86648 0.22233
#
# Static dielectric constant tensor:
#      x y z
#    x 1.623160 0.000000 -0.002910 
#    y 0.000000 1.649530 0.000000 
#    z -0.002910 0.000000 1.631550 
# 
# From -- ./inp_files/373608.got.cif
#   From: 2010.05.17/outbox.cif.g08.bks.cpg/sg12_187_cif.got.tgz:373608.got - 2010.06.03 13:09:07.
