data_PCOD9207758
_publ_section_title
;
Structure prediction by ZEFSAII (Michael W. Deem and Ramdas Pophale) SiO2 
 PCOD9207758
Probable space group: C 2/M
;
_chemical_formula_sum "Si O2"
_cell_formula_units_Z 58
_cell_length_a 23.545448
_cell_length_b 24.039806
_cell_length_c 9.027648
_cell_angle_alpha 90.000000
_cell_angle_beta 32.103462
_cell_angle_gamma 90.000000
_cell_volume 2715.655981
_symmetry_space_group_name_H-M "C 2/M"
_symmetry_group_IT_number 12
_symmetry_cell_setting 'monoclinic'
loop_
_space_group_symop_operation_xyz
x,y,z
-x,y,-z
-x,-y,-z
x,-y,z
1/2+x,1/2+y,z
1/2-x,1/2+y,-z
1/2-x,1/2-y,-z
1/2+x,1/2-y,z
loop_
_atom_site_type_symbol
_atom_site_label
_atom_site_fract_x
_atom_site_fract_y
_atom_site_fract_z
Si Si1 0.208933 0.665324 0.712304
Si Si2 0.400988 0.891106 0.316096
Si Si3 0.280087 0.564469 0.758563
Si Si4 0.564613 0.286556 0.727300
Si Si5 0.719595 0.436129 0.910804
Si Si6 0.000000 0.000000 0.000000
Si Si7 0.999593 0.305802 0.674623
Si Si8 0.975876 0.905440 0.834472
O O1 0.163977 0.649509 0.651110
O O2 0.232280 0.607120 0.746369
O O3 0.318920 0.698501 0.471718
O O4 0.121186 0.698593 0.999336
O O5 0.314624 0.930746 0.583001
O O6 0.451359 0.856281 0.339504
O O7 0.500000 0.914524 0.000000
O O8 0.253766 0.500000 0.784406
O O9 0.409467 0.569743 0.469316
O O10 0.244837 0.580440 0.002374
O O11 0.563233 0.249003 0.584992
O O12 0.502607 0.344092 0.832262
O O13 0.500000 0.255861 0.000000
O O14 0.684847 0.500000 0.001309
O O15 0.616097 0.402953 0.084313
O O16 0.939222 0.049953 0.039276
O O17 0.000000 0.314780 0.500000
#
# Coordination Sequence:
#
# PCOD9207758 Si02
#       8
#     8   8   8   8   8   2   8   8
#     4  10  23  41  65  91 119 159 204 252 305 360
#     4  10  23  42  64  87 116 159 209 258 303 354
#     4  10  21  37  59  91 128 163 200 248 306 370
#     4  11  23  38  62  93 122 158 200 249 297 357
#     4  11  22  36  59  89 127 167 201 248 311 365
#     4  12  20  36  58  96 134 170 198 256 292 360
#     4  11  25  45  64  86 121 158 202 256 306 361
#     4  11  22  35  61  92 133 161 206 243 299 362
#
# _framework density 21.357637
#
# number of rings (size 3 to 8) (size 9 to 14) (size 15 to 20)
#    0.000    1.379    2.069    3.310    1.931    8.000 
#    0.000    2.069    0.000    7.448    0.000    0.000 
#    0.000    0.000    0.000    0.000    0.000    0.000 
#
# Total GULP energy -161838.814418 kJ/mol
# GULP energy per Si atom -5580.648773 kJ/mol
# Density = 2.130903 g / cm^3
# Si number density = 21.357637 Si / 1000 Ang^3
#
#
#
# Elastic Constant Matrix: (Units=GPa)
#
#
# Indices 1 2 3 4 5 6 
#
# 1 106.4941 -3.8328 39.2653 0.0000 12.3889 0.0000
# 2 -3.8328 19.1164 -2.2990 0.0000 3.0474 0.0000
# 3 39.2653 -2.2990 76.2322 0.0000 -1.2138 0.0000
# 4 0.0000 0.0000 0.0000 18.2590 0.0000 1.5078
# 5 12.3889 3.0474 -1.2138 0.0000 35.4086 0.0000
# 6 0.0000 0.0000 0.0000 1.5078 0.0000 11.8001
#
#
#
# Elastic Compliance Matrix: (Units=1/GPa)
#
#
# Indices 1 2 3 4 5 6 
#
# 1 0.012387 0.002476 -0.006381 0.000000 -0.004766 0.000000
# 2 0.002476 0.053712 0.000257 0.000000 -0.005480 0.000000
# 3 -0.006381 0.000257 0.016457 0.000000 0.002775 0.000000
# 4 0.000000 0.000000 0.000000 0.055352 0.000000 -0.007073
# 5 -0.004766 -0.005480 0.002775 0.000000 0.030476 0.000000
# 6 0.000000 0.000000 0.000000 -0.007073 0.000000 0.085649
#
#
# Mechanical properties :
#
#
# Convention : Reuss Voigt Hill
#
# Bulk Modulus (GPa) = 13.28746 29.78996 21.53871
# Shear Modulus (GPa) = 17.45725 24.34082 20.89904
#
# Velocity S-wave (km/s) = 2.86208 3.37957 3.13154
# Velocity P-wave (km/s) = 4.14209 5.40436 4.81477
#
# Compressibility (1/GPa) = 0.07525893
#
# Stress axis : x y z
#
# Youngs Moduli (GPa) = 80.73303 18.61782 60.76612
#
# Poissons Ratio (x) = -0.04609 0.38776
# Poissons Ratio (y) = -0.19988 -0.01564
# Poissons Ratio (z) = 0.51517 -0.00479
#
# Static dielectric constant tensor:
#      x y z
#    x 1.799130 0.000000 0.029370 
#    y 0.000000 1.751680 0.000000 
#    z 0.029370 0.000000 1.818590 
# 
# From -- ./inp_files/100072.got.cif
#   From: 2010.05.17/outbox.cif.g08.bks.cpg/sg12_51_cif.got.tgz:100072.got - 2010.06.03 13:09:07.
