data_PCOD9207934
_publ_section_title
;
Structure prediction by ZEFSAII (Michael W. Deem and Ramdas Pophale) SiO2 
 PCOD9207934
Probable space group: C 2/M
;
_chemical_formula_sum "Si O2"
_cell_formula_units_Z 64
_cell_length_a 15.459444
_cell_length_b 8.492012
_cell_length_c 32.589603
_cell_angle_alpha 90.000000
_cell_angle_beta 132.478343
_cell_angle_gamma 90.000000
_cell_volume 3155.475331
_symmetry_space_group_name_H-M "C 2/M"
_symmetry_group_IT_number 12
_symmetry_cell_setting 'monoclinic'
loop_
_space_group_symop_operation_xyz
x,y,z
-x,y,-z
-x,-y,-z
x,-y,z
1/2+x,1/2+y,z
1/2-x,1/2+y,-z
1/2-x,1/2-y,-z
1/2+x,1/2-y,z
loop_
_atom_site_type_symbol
_atom_site_label
_atom_site_fract_x
_atom_site_fract_y
_atom_site_fract_z
Si Si1 0.130321 0.312712 0.918475
Si Si2 0.399264 0.689869 0.000290
Si Si3 0.638068 0.687354 0.488160
Si Si4 0.562811 0.314206 0.203761
Si Si5 0.741595 0.314939 0.609810
Si Si6 0.534277 0.689776 0.288157
Si Si7 0.588670 0.180123 0.628701
Si Si8 0.692937 0.317088 0.741690
O O1 0.135803 0.500000 0.925972
O O2 0.263141 0.258504 0.949261
O O3 0.039149 0.269774 0.853976
O O4 0.085159 0.239942 0.947132
O O5 0.401673 0.500000 0.999110
O O6 0.500000 0.745470 0.000000
O O7 0.624188 0.500000 0.478816
O O8 0.750000 0.750000 0.500000
O O9 0.667349 0.717197 0.545161
O O10 0.526087 0.771192 0.433158
O O11 0.539520 0.500000 0.196397
O O12 0.567116 0.261702 0.252571
O O13 0.688708 0.280452 0.224033
O O14 0.726747 0.500000 0.614893
O O15 0.879055 0.274207 0.651866
O O16 0.693276 0.204927 0.630067
O O17 0.546109 0.500000 0.296567
O O18 0.398728 0.729254 0.252627
O O19 0.618341 0.290781 0.676279
O O20 0.581950 0.000000 0.640445
O O21 0.724314 0.500000 0.756009
#
# Coordination Sequence:
#
# PCOD9207934 Si02
#       8
#     8   8   8   8   8   8   8   8
#     4  10  21  37  60  91 126 165 207 253 303 356
#     4   9  19  38  63  92 127 166 207 252 302 357
#     4  11  24  40  58  85 116 149 194 247 306 371
#     4  11  23  41  62  88 124 165 207 254 303 360
#     4  11  23  39  61  86 114 151 197 248 303 367
#     4  10  23  41  62  88 120 157 200 251 309 370
#     4  12  24  39  60  86 116 154 197 245 308 372
#     4  11  23  41  64  90 120 158 203 256 312 368
#
# _framework density 20.282207
#
# number of rings (size 3 to 8) (size 9 to 14) (size 15 to 20)
#    0.000    1.375    1.250    4.125    0.000    8.750 
#    0.000    2.500    0.000    0.000    0.000    0.000 
#    0.000    0.000    0.000    0.000    0.000    0.000 
#
# Total GULP energy -178767.130757 kJ/mol
# GULP energy per Si atom -5586.472836 kJ/mol
# Density = 2.023604 g / cm^3
# Si number density = 20.282207 Si / 1000 Ang^3
#
#
#
# Elastic Constant Matrix: (Units=GPa)
#
#
# Indices 1 2 3 4 5 6 
#
# 1 99.8397 8.7975 19.2222 0.0000 14.2798 0.0000
# 2 8.7975 12.1277 2.3182 0.0000 -0.2659 0.0000
# 3 19.2222 2.3182 87.2372 0.0000 17.0279 0.0000
# 4 0.0000 0.0000 0.0000 30.8808 0.0000 2.1439
# 5 14.2798 -0.2659 17.0279 0.0000 15.4818 0.0000
# 6 0.0000 0.0000 0.0000 2.1439 0.0000 26.0307
#
#
#
# Elastic Compliance Matrix: (Units=1/GPa)
#
#
# Indices 1 2 3 4 5 6 
#
# 1 0.012518 -0.009275 -0.000289 0.000000 -0.011387 0.000000
# 2 -0.009275 0.090042 -0.002955 0.000000 0.013352 0.000000
# 3 -0.000289 -0.002955 0.014724 0.000000 -0.015979 0.000000
# 4 0.000000 0.000000 0.000000 0.032569 0.000000 -0.002682
# 5 -0.011387 0.013352 -0.015979 0.000000 0.092899 0.000000
# 6 0.000000 0.000000 0.000000 -0.002682 0.000000 0.038637
#
#
# Mechanical properties :
#
#
# Convention : Reuss Voigt Hill
#
# Bulk Modulus (GPa) = 10.84068 28.87560 19.85814
# Shear Modulus (GPa) = 14.82911 25.73642 20.28277
#
# Velocity S-wave (km/s) = 2.70689 3.56605 3.16575
# Velocity P-wave (km/s) = 3.88924 5.58779 4.81402
#
# Compressibility (1/GPa) = 0.09224516
#
# Stress axis : x y z
#
# Youngs Moduli (GPa) = 79.88728 11.10599 67.91583
#
# Poissons Ratio (x) = 0.10301 0.01963
# Poissons Ratio (y) = 0.74094 0.20071
# Poissons Ratio (z) = 0.02309 0.03282
#
# Static dielectric constant tensor:
#      x y z
#    x 1.761510 0.000000 0.019730 
#    y 0.000000 1.681960 0.000000 
#    z 0.019730 0.000000 1.718540 
# 
# From -- ./inp_files/375581.got.cif
#   From: 2010.05.17/outbox.cif.g08.bks.cpg/sg12_188_cif.got.tgz:375581.got - 2010.06.03 13:09:07.
