data_PCOD9207212
_publ_section_title
;
Structure prediction by ZEFSAII (Michael W. Deem and Ramdas Pophale) SiO2 
 PCOD9207212
Probable space group: C 2/M
;
_chemical_formula_sum "Si O2"
_cell_formula_units_Z 40
_cell_length_a 26.915923
_cell_length_b 7.533598
_cell_length_c 16.529951
_cell_angle_alpha 90.000000
_cell_angle_beta 37.373371
_cell_angle_gamma 90.000000
_cell_volume 2034.588893
_symmetry_space_group_name_H-M "C 2/M"
_symmetry_group_IT_number 12
_symmetry_cell_setting 'monoclinic'
loop_
_space_group_symop_operation_xyz
x,y,z
-x,y,-z
-x,-y,-z
x,-y,z
1/2+x,1/2+y,z
1/2-x,1/2+y,-z
1/2-x,1/2-y,-z
1/2+x,1/2-y,z
loop_
_atom_site_type_symbol
_atom_site_label
_atom_site_fract_x
_atom_site_fract_y
_atom_site_fract_z
Si Si1 0.834587 0.192817 0.929283
Si Si2 0.577478 0.715353 0.453213
Si Si3 0.740727 0.795618 0.815746
Si Si4 0.986805 0.216110 0.289070
Si Si5 0.865821 0.500000 0.150297
Si Si6 0.527968 0.000000 0.828299
O O1 0.815101 0.192471 0.049532
O O2 0.850506 0.000000 0.873573
O O3 0.750000 0.250000 0.000000
O O4 0.921396 0.283764 0.807009
O O5 0.500000 0.776839 0.500000
O O6 0.578478 0.500000 0.445594
O O7 0.667453 0.775497 0.308840
O O8 0.565682 0.754875 0.563141
O O9 0.745264 0.000000 0.842427
O O10 0.692781 0.831504 0.794107
O O11 0.963534 0.327868 0.240252
O O12 0.986788 0.000000 0.275436
O O13 0.905694 0.500000 0.185984
O O14 0.939415 0.500000 0.988511
#
# Coordination Sequence:
#
# PCOD9207212 Si02
#       6
#     8   8   8   8   4   4
#     4  11  21  32  52  81 113 145 185 224 274 334
#     4   9  17  32  55  80 113 152 182 217 278 341
#     4   9  17  35  55  75 109 144 183 226 273 330
#     4  10  21  37  57  84 113 149 189 230 276 335
#     4   9  20  36  63  80 102 151 186 231 303 321
#     4  11  20  40  61  82 112 143 188 245 285 327
#
# _framework density 19.659991000000002
#
# number of rings (size 3 to 8) (size 9 to 14) (size 15 to 20)
#    0.600    1.600    2.000    1.800    1.400    3.200 
#    1.800    4.500    0.000    0.000    0.000    0.000 
#    0.000    0.000    0.000    0.000    0.000    0.000 
#
# Total GULP energy -111335.478718 kJ/mol
# GULP energy per Si atom -5566.773936 kJ/mol
# Density = 1.961524 g / cm^3
# Si number density = 19.659991 Si / 1000 Ang^3
#
#
#
# Elastic Constant Matrix: (Units=GPa)
#
#
# Indices 1 2 3 4 5 6 
#
# 1 95.6987 7.2899 -13.9916 0.0018 3.9897 -0.0014
# 2 7.2899 59.0451 -6.2833 0.0005 9.8792 -0.0029
# 3 -13.9916 -6.2833 48.7250 0.0099 -5.1709 -0.0051
# 4 0.0018 0.0005 0.0099 12.5864 0.0002 8.9516
# 5 3.9897 9.8792 -5.1709 0.0002 31.4695 -0.0005
# 6 -0.0014 -0.0029 -0.0051 8.9516 -0.0005 16.0469
#
#
#
# Elastic Compliance Matrix: (Units=1/GPa)
#
#
# Indices 1 2 3 4 5 6 
#
# 1 0.010980 -0.000938 0.002967 -0.000008 -0.000610 0.000006
# 2 -0.000938 0.018101 0.001501 -0.000007 -0.005317 0.000007
# 3 0.002967 0.001501 0.021860 -0.000038 0.002745 0.000029
# 4 -0.000008 -0.000007 -0.000038 0.131704 -0.000005 -0.073470
# 5 -0.000610 -0.005317 0.002745 -0.000005 0.033974 0.000004
# 6 0.000006 0.000007 0.000029 -0.073470 0.000004 0.103302
#
#
# Mechanical properties :
#
#
# Convention : Reuss Voigt Hill
#
# Bulk Modulus (GPa) = 17.24075 19.72210 18.48142
# Shear Modulus (GPa) = 15.05138 26.45081 20.75110
#
# Velocity S-wave (km/s) = 2.76992 3.67197 3.25237
# Velocity P-wave (km/s) = 4.36101 5.29445 4.85024
#
# Compressibility (1/GPa) = 0.05800212
#
# Stress axis : x y z
#
# Youngs Moduli (GPa) = 91.07330 55.24464 45.74523
#
# Poissons Ratio (x) = 0.05181 -0.13574
# Poissons Ratio (y) = 0.08541 -0.06865
# Poissons Ratio (z) = -0.27024 -0.08291
#
# Static dielectric constant tensor:
#      x y z
#    x 1.721070 0.000000 -0.013340 
#    y 0.000000 1.683730 0.000000 
#    z -0.013340 0.000000 1.684200 
# 
# From -- ./inp_files/236521.got.cif
#   From: 2010.05.17/outbox.cif.g08.bks.cpg/sg12_119_cif.got.tgz:236521.got - 2010.06.03 13:09:07.
