data_PCOD9207876
_publ_section_title
;
Structure prediction by ZEFSAII (Michael W. Deem and Ramdas Pophale) SiO2 
 PCOD9207876
Probable space group: C 2/M
;
_chemical_formula_sum "Si O2"
_cell_formula_units_Z 40
_cell_length_a 8.476437
_cell_length_b 25.938237
_cell_length_c 16.318886
_cell_angle_alpha 90.000000
_cell_angle_beta 148.616914
_cell_angle_gamma 90.000000
_cell_volume 1868.443409
_symmetry_space_group_name_H-M "C 2/M"
_symmetry_group_IT_number 12
_symmetry_cell_setting 'monoclinic'
loop_
_space_group_symop_operation_xyz
x,y,z
-x,y,-z
-x,-y,-z
x,-y,z
1/2+x,1/2+y,z
1/2-x,1/2+y,-z
1/2-x,1/2-y,-z
1/2+x,1/2-y,z
loop_
_atom_site_type_symbol
_atom_site_label
_atom_site_fract_x
_atom_site_fract_y
_atom_site_fract_z
Si Si1 0.275516 0.397806 0.340061
Si Si2 0.043783 0.770946 0.833045
Si Si3 0.522217 0.708345 0.637864
Si Si4 0.653860 0.939857 0.985106
Si Si5 0.834189 0.861852 0.845498
O O1 0.500000 0.427003 0.500000
O O2 0.476937 0.351985 0.386875
O O3 0.996625 0.377038 0.271877
O O4 0.104457 0.431126 0.196931
O O5 0.801414 0.727209 0.707246
O O6 0.144015 0.787269 0.786392
O O7 0.857009 0.818922 0.786629
O O8 0.250000 0.750000 0.000000
O O9 0.250000 0.750000 0.500000
O O10 0.951553 0.908688 0.089447
O O11 0.725787 0.000000 0.026808
O O12 0.500000 0.919404 0.000000
O O13 0.000000 0.839822 0.000000
#
# Coordination Sequence:
#
# PCOD9207876 Si02
#       5
#     8   8   8   8   8
#     4  11  23  40  61  89 125 162 206 252 302 362
#     4  12  22  35  56  82 114 156 208 252 291 350
#     4  12  24  38  56  83 124 167 202 244 303 356
#     4  10  22  43  68  92 120 156 200 254 316 372
#     4  10  21  37  60  89 120 157 203 251 303 361
#
# _framework density 21.408196
#
# number of rings (size 3 to 8) (size 9 to 14) (size 15 to 20)
#    0.000    1.000    0.000    9.600    0.000    4.000 
#    0.000    3.000    0.000    2.400    0.000    0.000 
#    0.000    0.000    0.000    0.000    0.000    0.000 
#
# Total GULP energy -111486.002201 kJ/mol
# GULP energy per Si atom -5574.300110 kJ/mol
# Density = 2.135947 g / cm^3
# Si number density = 21.408196 Si / 1000 Ang^3
#
#
#
# Elastic Constant Matrix: (Units=GPa)
#
#
# Indices 1 2 3 4 5 6 
#
# 1 127.4898 10.8550 26.9283 0.0000 -14.8124 0.0000
# 2 10.8550 37.2476 -6.8980 0.0000 -5.0710 0.0000
# 3 26.9283 -6.8980 97.2878 0.0000 -3.6263 0.0000
# 4 0.0000 0.0000 0.0000 23.3343 0.0000 -0.6398
# 5 -14.8124 -5.0710 -3.6263 0.0000 27.0020 0.0000
# 6 0.0000 0.0000 0.0000 -0.6398 0.0000 28.9011
#
#
#
# Elastic Compliance Matrix: (Units=1/GPa)
#
#
# Indices 1 2 3 4 5 6 
#
# 1 0.009081 -0.002550 -0.002539 0.000000 0.004161 0.000000
# 2 -0.002550 0.028726 0.002906 0.000000 0.004386 0.000000
# 3 -0.002539 0.002906 0.011212 0.000000 0.000659 0.000000
# 4 0.000000 0.000000 0.000000 0.042881 0.000000 0.000949
# 5 0.004161 0.004386 0.000659 0.000000 0.040229 0.000000
# 6 0.000000 0.000000 0.000000 0.000949 0.000000 0.034622
#
#
# Mechanical properties :
#
#
# Convention : Reuss Voigt Hill
#
# Bulk Modulus (GPa) = 22.39514 35.97730 29.18622
# Shear Modulus (GPa) = 26.88148 31.25681 29.06914
#
# Velocity S-wave (km/s) = 3.54738 3.82519 3.68890
# Velocity P-wave (km/s) = 5.22133 6.02921 5.63975
#
# Compressibility (1/GPa) = 0.04465254
#
# Stress axis : x y z
#
# Youngs Moduli (GPa) = 110.12363 34.81180 89.18867
#
# Poissons Ratio (x) = 0.08877 0.22646
# Poissons Ratio (y) = 0.28082 -0.25919
# Poissons Ratio (z) = 0.27962 -0.10117
#
# Static dielectric constant tensor:
#      x y z
#    x 1.808940 0.000000 0.021400 
#    y 0.000000 1.800320 0.000000 
#    z 0.021400 0.000000 1.824280 
# 
# From -- ./inp_files/41461.got.cif
#   From: 2010.05.17/outbox.cif.g08.bks.cpg/sg12_21_cif.got.tgz:41461.got - 2010.06.03 13:09:07.
