data_PCOD9207298
_publ_section_title
;
Structure prediction by ZEFSAII (Michael W. Deem and Ramdas Pophale) SiO2 
 PCOD9207298
Probable space group: C 2/M
;
_chemical_formula_sum "Si O2"
_cell_formula_units_Z 50
_cell_length_a 23.053030
_cell_length_b 7.867487
_cell_length_c 13.781942
_cell_angle_alpha 90.000000
_cell_angle_beta 63.233250
_cell_angle_gamma 90.000000
_cell_volume 2231.781472
_symmetry_space_group_name_H-M "C 2/M"
_symmetry_group_IT_number 12
_symmetry_cell_setting 'monoclinic'
loop_
_space_group_symop_operation_xyz
x,y,z
-x,y,-z
-x,-y,-z
x,-y,z
1/2+x,1/2+y,z
1/2-x,1/2+y,-z
1/2-x,1/2-y,-z
1/2+x,1/2-y,z
loop_
_atom_site_type_symbol
_atom_site_label
_atom_site_fract_x
_atom_site_fract_y
_atom_site_fract_z
Si Si1 0.952411 0.697340 0.312788
Si Si2 0.712305 0.296240 0.124958
Si Si3 0.150121 0.296312 0.457194
Si Si4 0.000000 0.500000 0.000000
Si Si5 0.780983 0.297268 0.271754
Si Si6 0.581601 0.701036 0.307614
Si Si7 0.424266 0.687373 0.135275
O O1 0.942684 0.500000 0.291771
O O2 0.889487 0.760327 0.418498
O O3 0.965450 0.795741 0.203684
O O4 0.013871 0.709822 0.337429
O O5 0.709116 0.500000 0.133960
O O6 0.750842 0.237984 0.191386
O O7 0.637997 0.236106 0.191610
O O8 0.750000 0.250000 0.000000
O O9 0.146920 0.500000 0.457668
O O10 0.224850 0.242418 0.391718
O O11 0.111562 0.229655 0.391593
O O12 0.944944 0.346861 0.054557
O O13 0.789827 0.500000 0.263777
O O14 0.850565 0.212492 0.227292
O O15 0.570989 0.500000 0.303135
O O16 0.430667 0.500000 0.086391
#
# Coordination Sequence:
#
# PCOD9207298 Si02
#       7
#     8   8   8   2   8   8   8
#     4  11  23  41  62  93 135 172 219 281 327 397
#     4   9  20  36  58  86 120 162 210 269 328 380
#     4  10  21  37  63  95 129 176 222 266 339 397
#     4  12  26  52  68  94 134 168 216 280 320 390
#     4  10  21  42  64  92 132 170 213 277 332 389
#     4  10  21  37  57  89 130 171 221 274 330 397
#     4  12  26  46  73  98 129 176 224 269 335 395
#
# _framework density 22.403628000000001
#
# number of rings (size 3 to 8) (size 9 to 14) (size 15 to 20)
#    0.000    1.600    1.600    3.600    0.000   10.240 
#    0.000    1.600    0.000    0.000    0.000    0.000 
#    0.000    0.000    0.000    0.000    0.000    0.000 
#
# Total GULP energy -139484.320558 kJ/mol
# GULP energy per Si atom -5579.372822 kJ/mol
# Density = 2.235264 g / cm^3
# Si number density = 22.403628 Si / 1000 Ang^3
#
#
#
# Elastic Constant Matrix: (Units=GPa)
#
#
# Indices 1 2 3 4 5 6 
#
# 1 67.9504 11.6090 15.9000 0.0000 -24.6751 0.0000
# 2 11.6090 103.9096 21.7619 0.0000 -9.4372 0.0000
# 3 15.9000 21.7619 82.9708 0.0000 -22.3986 0.0000
# 4 0.0000 0.0000 0.0000 23.2848 0.0000 -7.0937
# 5 -24.6751 -9.4372 -22.3986 0.0000 28.6701 0.0000
# 6 0.0000 0.0000 0.0000 -7.0937 0.0000 25.3340
#
#
#
# Elastic Compliance Matrix: (Units=1/GPa)
#
#
# Indices 1 2 3 4 5 6 
#
# 1 0.021572 -0.000934 0.001318 0.000000 0.019288 0.000000
# 2 -0.000934 0.010282 -0.002308 0.000000 0.000777 0.000000
# 3 0.001318 -0.002308 0.015849 0.000000 0.012757 0.000000
# 4 0.000000 0.000000 0.000000 0.046952 0.000000 0.013147
# 5 0.019288 0.000777 0.012757 0.000000 0.061703 0.000000
# 6 0.000000 0.000000 0.000000 0.013147 0.000000 0.043154
#
#
# Mechanical properties :
#
#
# Convention : Reuss Voigt Hill
#
# Bulk Modulus (GPa) = 22.80244 39.26361 31.03303
# Shear Modulus (GPa) = 22.93814 29.16177 26.04996
#
# Velocity S-wave (km/s) = 3.20325 3.61176 3.41362
# Velocity P-wave (km/s) = 4.88684 5.91242 5.42392
#
# Compressibility (1/GPa) = 0.04385496
#
# Stress axis : x y z
#
# Youngs Moduli (GPa) = 46.35621 97.25653 63.09552
#
# Poissons Ratio (x) = 0.09087 -0.08317
# Poissons Ratio (y) = 0.04331 0.14562
# Poissons Ratio (z) = -0.06111 0.22446
#
# Static dielectric constant tensor:
#      x y z
#    x 1.822330 0.000000 -0.008610 
#    y 0.000000 1.809190 0.000000 
#    z -0.008610 0.000000 1.858150 
# 
# From -- ./inp_files/237257.got.cif
#   From: 2010.05.17/outbox.cif.g08.bks.cpg/sg12_119_cif.got.tgz:237257.got - 2010.06.03 13:09:07.
