data_PCOD9207092
_publ_section_title
;
Structure prediction by ZEFSAII (Michael W. Deem and Ramdas Pophale) SiO2 
 PCOD9207092
Probable space group: C 2/M
;
_chemical_formula_sum "Si O2"
_cell_formula_units_Z 42
_cell_length_a 10.018133
_cell_length_b 7.418178
_cell_length_c 27.804299
_cell_angle_alpha 90.000000
_cell_angle_beta 124.542508
_cell_angle_gamma 90.000000
_cell_volume 1702.033434
_symmetry_space_group_name_H-M "C 2/M"
_symmetry_group_IT_number 12
_symmetry_cell_setting 'monoclinic'
loop_
_space_group_symop_operation_xyz
x,y,z
-x,y,-z
-x,-y,-z
x,-y,z
1/2+x,1/2+y,z
1/2-x,1/2+y,-z
1/2-x,1/2-y,-z
1/2+x,1/2-y,z
loop_
_atom_site_type_symbol
_atom_site_label
_atom_site_fract_x
_atom_site_fract_y
_atom_site_fract_z
Si Si1 0.047607 0.281065 0.832465
Si Si2 0.500000 0.000000 0.500000
Si Si3 0.723903 0.204605 0.426136
Si Si4 0.352689 0.218317 0.352725
Si Si5 0.814747 0.290621 0.237309
Si Si6 0.819140 0.785052 0.961748
O O1 0.048080 0.500000 0.832096
O O2 0.077391 0.215685 0.783910
O O3 0.194317 0.217455 0.896073
O O4 0.873439 0.221440 0.816000
O O5 0.641939 0.156536 0.529912
O O6 0.540852 0.255110 0.402965
O O7 0.737097 0.207110 0.370374
O O8 0.753272 0.000000 0.448348
O O9 0.323972 0.286471 0.292884
O O10 0.335452 0.000000 0.350891
O O11 0.860056 0.500000 0.251539
O O12 0.830223 0.000000 0.955698
O O13 0.750000 0.750000 0.000000
O O14 0.000000 0.710180 0.000000
#
# Coordination Sequence:
#
# PCOD9207092 Si02
#       6
#     8   2   8   8   8   8
#     4  10  21  37  56  89 121 154 206 256 308 369
#     4  12  26  48  68 100 136 168 218 266 306 382
#     4  11  25  45  69  97 131 173 211 264 318 378
#     4  10  22  43  65  96 129 164 212 259 317 382
#     4  10  21  38  63  89 122 158 198 256 306 367
#     4  10  21  37  57  80 116 162 204 255 310 366
#
# _framework density 24.676366999999999
#
# number of rings (size 3 to 8) (size 9 to 14) (size 15 to 20)
#    0.000    1.714    0.952    2.571    1.333    6.476 
#    0.000    0.000    0.000    0.000    0.000    0.000 
#    0.000    0.000    0.000    0.000    0.000    0.000 
#
# Total GULP energy -117356.055072 kJ/mol
# GULP energy per Si atom -5588.383575 kJ/mol
# Density = 2.462020 g / cm^3
# Si number density = 24.676367 Si / 1000 Ang^3
#
#
#
# Elastic Constant Matrix: (Units=GPa)
#
#
# Indices 1 2 3 4 5 6 
#
# 1 94.1569 -12.5844 -4.6238 0.0000 -9.1520 0.0000
# 2 -12.5844 90.0522 12.1950 0.0000 10.4920 0.0000
# 3 -4.6238 12.1950 81.4553 0.0000 -5.2535 0.0000
# 4 0.0000 0.0000 0.0000 20.0960 0.0000 2.9802
# 5 -9.1520 10.4920 -5.2535 0.0000 48.3986 0.0000
# 6 0.0000 0.0000 0.0000 2.9802 0.0000 14.6640
#
#
#
# Elastic Compliance Matrix: (Units=1/GPa)
#
#
# Indices 1 2 3 4 5 6 
#
# 1 0.010996 0.001243 0.000559 0.000000 0.001870 0.000000
# 2 0.001243 0.011826 -0.001863 0.000000 -0.002531 0.000000
# 3 0.000559 -0.001863 0.012709 0.000000 0.001889 0.000000
# 4 0.000000 0.000000 0.000000 0.051308 0.000000 -0.010427
# 5 0.001870 -0.002531 0.001889 0.000000 0.021769 0.000000
# 6 0.000000 0.000000 0.000000 -0.010427 0.000000 0.070313
#
#
# Mechanical properties :
#
#
# Convention : Reuss Voigt Hill
#
# Bulk Modulus (GPa) = 28.24224 28.40423 28.32323
# Shear Modulus (GPa) = 26.19913 34.67690 30.43801
#
# Velocity S-wave (km/s) = 3.26192 3.75276 3.51592
# Velocity P-wave (km/s) = 5.06525 5.50575 5.29009
#
# Compressibility (1/GPa) = 0.03540796
#
# Stress axis : x y z
#
# Youngs Moduli (GPa) = 90.94255 84.56276 78.68343
#
# Poissons Ratio (x) = -0.10511 -0.04396
# Poissons Ratio (y) = -0.11305 0.14660
# Poissons Ratio (z) = -0.05081 0.15755
#
# Static dielectric constant tensor:
#      x y z
#    x 1.903570 0.000000 -0.039020 
#    y 0.000000 2.093860 0.000000 
#    z -0.039020 0.000000 2.003550 
# 
# From -- ./inp_files/371810.got.cif
#   From: 2010.05.17/outbox.cif.g08.bks.cpg/sg12_186_cif.got.tgz:371810.got - 2010.06.03 13:09:07.
