data_PCOD9207354
_publ_section_title
;
Structure prediction by ZEFSAII (Michael W. Deem and Ramdas Pophale) SiO2 
 PCOD9207354
Probable space group: C 2/M
;
_chemical_formula_sum "Si O2"
_cell_formula_units_Z 64
_cell_length_a 20.148149
_cell_length_b 7.623210
_cell_length_c 16.931778
_cell_angle_alpha 90.000000
_cell_angle_beta 87.961312
_cell_angle_gamma 90.000000
_cell_volume 2598.966146
_symmetry_space_group_name_H-M "C 2/M"
_symmetry_group_IT_number 12
_symmetry_cell_setting 'monoclinic'
loop_
_space_group_symop_operation_xyz
x,y,z
-x,y,-z
-x,-y,-z
x,-y,z
1/2+x,1/2+y,z
1/2-x,1/2+y,-z
1/2-x,1/2-y,-z
1/2+x,1/2-y,z
loop_
_atom_site_type_symbol
_atom_site_label
_atom_site_fract_x
_atom_site_fract_y
_atom_site_fract_z
Si Si1 0.575351 0.207114 0.831485
Si Si2 0.170316 0.212920 0.682345
Si Si3 0.051436 0.705275 0.249646
Si Si4 0.296932 0.709932 0.924375
Si Si5 0.546709 0.712378 0.424868
Si Si6 0.301439 0.203090 0.751564
Si Si7 0.672238 0.290051 0.508689
Si Si8 0.926698 0.797583 0.997725
O O1 0.623167 0.232527 0.755274
O O2 0.503088 0.278864 0.808042
O O3 0.599638 0.291879 0.911374
O O4 0.570738 0.000000 0.847006
O O5 0.245022 0.278575 0.697433
O O6 0.148900 0.271327 0.596360
O O7 0.171674 0.000000 0.682264
O O8 0.057706 0.500000 0.229113
O O9 0.025643 0.719742 0.340433
O O10 0.125237 0.785180 0.248332
O O11 0.299202 0.500000 0.915328
O O12 0.274579 0.787405 0.842166
O O13 0.250000 0.750000 0.000000
O O14 0.370723 0.778935 0.943235
O O15 0.500000 0.763252 0.500000
O O16 0.544731 0.500000 0.419909
O O17 0.621608 0.773466 0.443723
O O18 0.309763 0.000000 0.728054
O O19 0.666022 0.500000 0.507776
O O20 0.750000 0.250000 0.500000
O O21 0.935015 0.000000 0.973309
O O22 0.000000 0.715747 0.000000
#
# Coordination Sequence:
#
# PCOD9207354 Si02
#       8
#     8   8   8   8   8   8   8   8
#     4  11  23  37  57  86 115 144 182 230 280 328
#     4  10  21  38  59  81 110 150 188 224 273 331
#     4  10  22  39  58  83 114 147 184 228 281 333
#     4  11  23  38  58  84 113 146 184 227 276 328
#     4  10  21  37  58  84 112 146 190 233 273 325
#     4  10  21  38  59  82 110 146 187 228 273 328
#     4  10  21  37  58  84 113 147 187 231 279 329
#     4  10  22  40  60  82 110 147 188 226 271 330
#
# _framework density 24.625177999999998
#
# number of rings (size 3 to 8) (size 9 to 14) (size 15 to 20)
#    0.000    1.750    0.000    3.750    0.000    9.500 
#    0.000    0.000    0.000    0.000    0.000    0.000 
#    0.000    0.000    0.000    0.000    0.000    0.000 
#
# Total GULP energy -179051.580051 kJ/mol
# GULP energy per Si atom -5595.361877 kJ/mol
# Density = 2.456913 g / cm^3
# Si number density = 24.625178 Si / 1000 Ang^3
#
#
#
# Elastic Constant Matrix: (Units=GPa)
#
#
# Indices 1 2 3 4 5 6 
#
# 1 76.5199 5.1937 -10.3513 0.0000 9.0192 0.0000
# 2 5.1937 65.6653 -5.4659 0.0000 4.7308 0.0000
# 3 -10.3513 -5.4659 82.7161 0.0000 9.6585 0.0000
# 4 0.0000 0.0000 0.0000 19.7021 0.0000 -7.1042
# 5 9.0192 4.7308 9.6585 0.0000 50.6191 0.0000
# 6 0.0000 0.0000 0.0000 -7.1042 0.0000 16.4447
#
#
#
# Elastic Compliance Matrix: (Units=1/GPa)
#
#
# Indices 1 2 3 4 5 6 
#
# 1 0.013711 -0.000720 0.001990 0.000000 -0.002755 0.000000
# 2 -0.000720 0.015489 0.001112 0.000000 -0.001531 0.000000
# 3 0.001990 0.001112 0.012750 0.000000 -0.002891 0.000000
# 4 0.000000 0.000000 0.000000 0.060121 0.000000 0.025973
# 5 -0.002755 -0.001531 -0.002891 0.000000 0.020941 0.000000
# 6 0.000000 0.000000 0.000000 0.025973 0.000000 0.072030
#
#
# Mechanical properties :
#
#
# Convention : Reuss Voigt Hill
#
# Bulk Modulus (GPa) = 21.40716 22.62828 22.01772
# Shear Modulus (GPa) = 24.28957 33.05484 28.67220
#
# Velocity S-wave (km/s) = 3.14406 3.66774 3.41595
# Velocity P-wave (km/s) = 4.67891 5.21013 4.95165
#
# Compressibility (1/GPa) = 0.04671335
#
# Stress axis : x y z
#
# Youngs Moduli (GPa) = 72.93225 64.56358 78.43338
#
# Poissons Ratio (x) = 0.04651 -0.15608
# Poissons Ratio (y) = 0.05253 -0.08723
# Poissons Ratio (z) = -0.14514 -0.07181
#
# Static dielectric constant tensor:
#      x y z
#    x 2.009990 0.000000 -0.017960 
#    y 0.000000 1.934760 0.000000 
#    z -0.017960 0.000000 1.916460 
# 
# From -- ./inp_files/281365.got.cif
#   From: 2010.05.17/outbox.cif.g08.bks.cpg/sg12_141_cif.got.tgz:281365.got - 2010.06.03 13:09:07.
