data_PCOD9207440
_publ_section_title
;
Structure prediction by ZEFSAII (Michael W. Deem and Ramdas Pophale) SiO2 
 PCOD9207440
Probable space group: C 2/M
;
_chemical_formula_sum "Si O2"
_cell_formula_units_Z 60
_cell_length_a 14.086628
_cell_length_b 8.091219
_cell_length_c 33.098353
_cell_angle_alpha 90.000000
_cell_angle_beta 40.305401
_cell_angle_gamma 90.000000
_cell_volume 2440.275181
_symmetry_space_group_name_H-M "C 2/M"
_symmetry_group_IT_number 12
_symmetry_cell_setting 'monoclinic'
loop_
_space_group_symop_operation_xyz
x,y,z
-x,y,-z
-x,-y,-z
x,-y,z
1/2+x,1/2+y,z
1/2-x,1/2+y,-z
1/2-x,1/2-y,-z
1/2+x,1/2-y,z
loop_
_atom_site_type_symbol
_atom_site_label
_atom_site_fract_x
_atom_site_fract_y
_atom_site_fract_z
Si Si1 0.542690 0.806825 0.264797
Si Si2 0.423061 0.312926 0.066225
Si Si3 0.915337 0.751555 0.834341
Si Si4 0.165041 0.314058 0.595187
Si Si5 0.044030 0.193392 0.401074
Si Si6 0.250101 0.684943 0.738358
Si Si7 0.000000 0.746490 0.500000
Si Si8 0.885488 0.306890 0.928871
O O1 0.556013 0.692816 0.221129
O O2 0.409698 0.763472 0.338174
O O3 0.686872 0.794371 0.246030
O O4 0.524769 0.000000 0.257339
O O5 0.478854 0.500000 0.054065
O O6 0.248437 0.319770 0.118838
O O7 0.473566 0.208869 0.088203
O O8 0.500000 0.250667 0.000000
O O9 0.868590 0.500000 0.921558
O O10 0.076782 0.677290 0.790428
O O11 0.891979 0.812156 0.887909
O O12 0.110181 0.500000 0.605347
O O13 0.100780 0.206030 0.579774
O O14 0.339077 0.318924 0.542086
O O15 0.176064 0.236388 0.327885
O O16 0.035371 0.310340 0.442777
O O17 0.062490 0.000000 0.408414
O O18 0.307187 0.500000 0.727785
O O19 0.750000 0.250000 0.000000
#
# Coordination Sequence:
#
# PCOD9207440 Si02
#       8
#     8   8   8   8   8   8   4   8
#     4  10  21  39  62  87 115 154 199 243 293 350
#     4  11  23  42  64  88 119 157 195 238 296 357
#     4  12  23  40  66  89 118 157 197 242 298 357
#     4  10  21  37  58  85 118 154 198 246 291 345
#     4  10  21  37  58  85 119 156 198 245 292 344
#     4  10  21  39  62  88 117 154 198 245 294 347
#     4  12  21  34  59  88 117 158 205 240 283 352
#     4  12  25  43  64  90 121 156 196 242 295 356
#
# _framework density 24.587389999999999
#
# number of rings (size 3 to 8) (size 9 to 14) (size 15 to 20)
#    0.000    1.200    1.333    6.000    0.000    2.400 
#    0.000    4.667    0.000    6.400    0.000    0.000 
#    0.000    0.000    0.000    0.000    0.000    0.000 
#
# Total GULP energy -167114.289876 kJ/mol
# GULP energy per Si atom -5570.476329 kJ/mol
# Density = 2.453143 g / cm^3
# Si number density = 24.587390 Si / 1000 Ang^3
#
#
#
# Elastic Constant Matrix: (Units=GPa)
#
#
# Indices 1 2 3 4 5 6 
#
# 1 123.0701 21.5640 54.8797 0.0065 7.6319 0.0059
# 2 21.5640 65.2286 19.0040 0.0280 10.0473 0.0150
# 3 54.8797 19.0040 152.2453 0.0122 10.9548 0.0042
# 4 0.0065 0.0280 0.0122 -8.7145 0.0040 -1.0539
# 5 7.6319 10.0473 10.9548 0.0040 67.1952 0.0028
# 6 0.0059 0.0150 0.0042 -1.0539 0.0028 -4.4288
#
#
#
# Elastic Compliance Matrix: (Units=1/GPa)
#
#
# Indices 1 2 3 4 5 6 
#
# 1 0.010020 -0.002310 -0.003305 -0.000005 -0.000254 0.000003
# 2 -0.002310 0.016734 -0.001108 0.000045 -0.002059 0.000040
# 3 -0.003305 -0.001108 0.007952 0.000005 -0.000755 -0.000002
# 4 -0.000005 0.000045 0.000005 -0.118151 -0.000001 0.028117
# 5 -0.000254 -0.002059 -0.000755 -0.000001 0.015342 0.000002
# 6 0.000003 0.000040 -0.000002 0.028117 0.000002 -0.232487
#
#
# Mechanical properties :
#
#
# Convention : Reuss Voigt Hill
#
# Bulk Modulus (GPa) = 47.03732 59.04883 53.04307
# Shear Modulus (GPa) = -17.85356 27.15012 4.64828
#
# Velocity S-wave (km/s) = -2.69760 3.32660 1.37645
# Velocity P-wave (km/s) = 3.07725 6.23082 4.91389
#
# Compressibility (1/GPa) = 0.02125971
#
# Stress axis : x y z
#
# Youngs Moduli (GPa) = 99.80162 59.75699 125.74792
#
# Poissons Ratio (x) = 0.13807 0.41562
# Poissons Ratio (y) = 0.23059 0.13931
# Poissons Ratio (z) = 0.32986 0.06620
#
# Static dielectric constant tensor:
#      x y z
#    x 1.901600 0.000000 0.017600 
#    y 0.000000 1.943640 0.000000 
#    z 0.017600 0.000000 1.942960 
# 
# From -- ./inp_files/373807.got.cif
#   From: 2010.05.17/outbox.cif.g08.bks.cpg/sg12_187_cif.got.tgz:373807.got - 2010.06.03 13:09:07.
