data_PCOD9207444
_publ_section_title
;
Structure prediction by ZEFSAII (Michael W. Deem and Ramdas Pophale) SiO2 
 PCOD9207444
Probable space group: C 2/M
;
_chemical_formula_sum "Si O2"
_cell_formula_units_Z 48
_cell_length_a 30.257965
_cell_length_b 7.989679
_cell_length_c 19.187297
_cell_angle_alpha 90.000000
_cell_angle_beta 150.126716
_cell_angle_gamma 90.000000
_cell_volume 2310.388274
_symmetry_space_group_name_H-M "C 2/M"
_symmetry_group_IT_number 12
_symmetry_cell_setting 'monoclinic'
loop_
_space_group_symop_operation_xyz
x,y,z
-x,y,-z
-x,-y,-z
x,-y,z
1/2+x,1/2+y,z
1/2-x,1/2+y,-z
1/2-x,1/2-y,-z
1/2+x,1/2-y,z
loop_
_atom_site_type_symbol
_atom_site_label
_atom_site_fract_x
_atom_site_fract_y
_atom_site_fract_z
Si Si1 0.908451 0.192201 0.053515
Si Si2 0.752359 0.809163 0.082334
Si Si3 0.599067 0.295629 0.113694
Si Si4 0.760006 0.702680 0.432693
Si Si5 0.446041 0.197351 0.355061
Si Si6 0.048801 0.302646 0.358006
O O1 0.982365 0.279223 0.202241
O O2 0.938255 0.000000 0.087060
O O3 0.815392 0.200725 0.966046
O O4 0.891653 0.261129 0.953416
O O5 0.854141 0.790537 0.241867
O O6 0.721829 0.000000 0.046095
O O7 0.750000 0.750000 0.000000
O O8 0.603301 0.500000 0.120264
O O9 0.676485 0.238426 0.271846
O O10 0.500000 0.246929 0.000000
O O11 0.761100 0.500000 0.431455
O O12 0.750000 0.750000 0.500000
O O13 0.853894 0.764693 0.529185
O O14 0.500000 0.207626 0.500000
O O15 0.500443 0.262819 0.362029
O O16 0.425428 0.000000 0.313596
O O17 0.060957 0.500000 0.387653
#
# Coordination Sequence:
#
# PCOD9207444 Si02
#       6
#     8   8   8   8   8   8
#     4  11  22  37  63  90 117 156 199 247 300 357
#     4  12  24  40  61  88 122 160 203 250 298 355
#     4   9  19  36  60  89 117 149 194 242 289 351
#     4  10  21  38  60  86 118 155 195 241 296 355
#     4  10  22  39  62  88 119 160 202 246 299 357
#     4  10  21  37  58  85 119 156 195 246 298 352
#
# _framework density 20.775728000000001
#
# number of rings (size 3 to 8) (size 9 to 14) (size 15 to 20)
#    0.000    1.667    1.667    3.000    2.333    2.333 
#    0.000    1.667    0.000    4.500    0.000    0.000 
#    0.000    0.000    0.000    0.000    0.000    0.000 
#
# Total GULP energy -134050.894388 kJ/mol
# GULP energy per Si atom -5585.453933 kJ/mol
# Density = 2.072844 g / cm^3
# Si number density = 20.775728 Si / 1000 Ang^3
#
#
#
# Elastic Constant Matrix: (Units=GPa)
#
#
# Indices 1 2 3 4 5 6 
#
# 1 141.8861 -14.3714 80.3857 0.0000 -0.3780 0.0000
# 2 -14.3714 22.8275 -1.2671 0.0000 -0.8920 0.0000
# 3 80.3857 -1.2671 148.9383 0.0000 6.4732 0.0000
# 4 0.0000 0.0000 0.0000 22.7726 0.0000 -3.1611
# 5 -0.3780 -0.8920 6.4732 0.0000 39.1013 0.0000
# 6 0.0000 0.0000 0.0000 -3.1611 0.0000 19.1173
#
#
#
# Elastic Compliance Matrix: (Units=1/GPa)
#
#
# Indices 1 2 3 4 5 6 
#
# 1 0.011136 0.006727 -0.006008 0.000000 0.001256 0.000000
# 2 0.006727 0.047925 -0.003297 0.000000 0.001704 0.000000
# 3 -0.006008 -0.003297 0.010007 0.000000 -0.001790 0.000000
# 4 0.000000 0.000000 0.000000 0.044944 0.000000 0.007432
# 5 0.001256 0.001704 -0.001790 0.000000 0.025922 0.000000
# 6 0.000000 0.000000 0.000000 0.007432 0.000000 0.053537
#
#
# Mechanical properties :
#
#
# Convention : Reuss Voigt Hill
#
# Bulk Modulus (GPa) = 15.64651 49.23846 32.44249
# Shear Modulus (GPa) = 22.73431 32.79190 27.76310
#
# Velocity S-wave (km/s) = 3.31157 3.97719 3.65954
# Velocity P-wave (km/s) = 4.70845 6.69643 5.78842
#
# Compressibility (1/GPa) = 0.06391201
#
# Stress axis : x y z
#
# Youngs Moduli (GPa) = 89.79583 20.86578 99.93450
#
# Poissons Ratio (x) = -0.14036 0.60040
# Poissons Ratio (y) = -0.60403 0.32947
# Poissons Ratio (z) = 0.53949 0.06879
#
# Static dielectric constant tensor:
#      x y z
#    x 1.719490 0.000000 -0.022410 
#    y 0.000000 1.830570 0.000000 
#    z -0.022410 0.000000 1.698360 
# 
# From -- ./inp_files/244720.got.cif
#   From: 2010.05.17/outbox.cif.g08.bks.cpg/sg12_123_cif.got.tgz:244720.got - 2010.06.03 13:09:07.
