data_PCOD9207274
_publ_section_title
;
Structure prediction by ZEFSAII (Michael W. Deem and Ramdas Pophale) SiO2 
 PCOD9207274
Probable space group: C 2/M
;
_chemical_formula_sum "Si O2"
_cell_formula_units_Z 64
_cell_length_a 12.352542
_cell_length_b 18.968575
_cell_length_c 14.329487
_cell_angle_alpha 90.000000
_cell_angle_beta 85.045445
_cell_angle_gamma 90.000000
_cell_volume 3344.998393
_symmetry_space_group_name_H-M "C 2/M"
_symmetry_group_IT_number 12
_symmetry_cell_setting 'monoclinic'
loop_
_space_group_symop_operation_xyz
x,y,z
-x,y,-z
-x,-y,-z
x,-y,z
1/2+x,1/2+y,z
1/2-x,1/2+y,-z
1/2-x,1/2-y,-z
1/2+x,1/2-y,z
loop_
_atom_site_type_symbol
_atom_site_label
_atom_site_fract_x
_atom_site_fract_y
_atom_site_fract_z
Si Si1 0.869645 0.417016 0.020027
Si Si2 0.398650 0.662754 0.676368
Si Si3 0.165288 0.917341 0.503484
Si Si4 0.280074 0.151214 0.840996
Si Si5 0.911284 0.422142 0.425623
Si Si6 0.698321 0.196915 0.823759
Si Si7 0.994458 0.692726 0.716972
Si Si8 0.400160 0.415517 0.280417
O O1 0.853078 0.500000 0.039936
O O2 0.823542 0.366893 0.104327
O O3 0.809954 0.393585 0.929524
O O4 0.000000 0.405415 0.000000
O O5 0.386520 0.626537 0.576789
O O6 0.284002 0.673459 0.737445
O O7 0.452789 0.739462 0.664355
O O8 0.478830 0.615897 0.734323
O O9 0.294197 0.910628 0.479611
O O10 0.136071 0.896365 0.610827
O O11 0.135890 0.000000 0.494199
O O12 0.246478 0.232023 0.865965
O O13 0.389638 0.157191 0.771573
O O14 0.184331 0.117025 0.786540
O O15 0.910093 0.500000 0.380572
O O16 0.944006 0.362933 0.351224
O O17 0.000000 0.422315 0.500000
O O18 0.582467 0.216214 0.786877
O O19 0.400078 0.500000 0.272503
#
# Coordination Sequence:
#
# PCOD9207274 Si02
#       8
#     8   8   8   8   8   8   8   8
#     4  11  24  42  69  99 124 156 203 259 318 374
#     4  11  23  40  63  91 127 169 214 250 308 367
#     4  10  21  38  61  89 125 170 213 258 306 364
#     4  11  23  43  66  93 128 164 204 258 315 376
#     4  10  21  37  57  86 122 162 209 261 316 362
#     4  11  23  44  65  93 126 163 208 256 311 377
#     4  11  22  40  63  90 124 163 211 258 312 364
#     4  11  23  40  63  92 129 169 212 255 309 374
#
# _framework density 19.133043000000001
#
# number of rings (size 3 to 8) (size 9 to 14) (size 15 to 20)
#    0.000    1.250    3.750    2.250    0.000    5.500 
#    0.000    3.125    0.000    1.500    0.000    0.000 
#    0.000    0.000    0.000    0.000    0.000    0.000 
#
# Total GULP energy -178810.613660 kJ/mol
# GULP energy per Si atom -5587.831677 kJ/mol
# Density = 1.908950 g / cm^3
# Si number density = 19.133043 Si / 1000 Ang^3
#
#
#
# Elastic Constant Matrix: (Units=GPa)
#
#
# Indices 1 2 3 4 5 6 
#
# 1 103.3364 28.5515 17.5360 0.0000 18.5037 0.0000
# 2 28.5515 87.4088 36.8700 0.0000 -4.0976 0.0000
# 3 17.5360 36.8700 55.6380 0.0000 17.0239 0.0000
# 4 0.0000 0.0000 0.0000 43.4134 0.0000 -2.5574
# 5 18.5037 -4.0976 17.0239 0.0000 29.4222 0.0000
# 6 0.0000 0.0000 0.0000 -2.5574 0.0000 41.1548
#
#
#
# Elastic Compliance Matrix: (Units=1/GPa)
#
#
# Indices 1 2 3 4 5 6 
#
# 1 0.012711 -0.006038 0.003279 0.000000 -0.010732 0.000000
# 2 -0.006038 0.021662 -0.017664 0.000000 0.017035 0.000000
# 3 0.003279 -0.017664 0.036490 0.000000 -0.025635 0.000000
# 4 0.000000 0.000000 0.000000 0.023119 0.000000 0.001437
# 5 -0.010732 0.017035 -0.025635 0.000000 0.057943 0.000000
# 6 0.000000 0.000000 0.000000 0.001437 0.000000 0.024388
#
#
# Mechanical properties :
#
#
# Convention : Reuss Voigt Hill
#
# Bulk Modulus (GPa) = 33.31635 45.81093 39.56364
# Shear Modulus (GPa) = 22.01051 33.69313 27.85182
#
# Velocity S-wave (km/s) = 3.39542 4.20097 3.81949
# Velocity P-wave (km/s) = 5.72911 6.89392 6.33833
#
# Compressibility (1/GPa) = 0.03001529
#
# Stress axis : x y z
#
# Youngs Moduli (GPa) = 78.67406 46.16298 27.40511
#
# Poissons Ratio (x) = 0.27873 -0.08985
# Poissons Ratio (y) = 0.47503 0.48410
# Poissons Ratio (z) = -0.25795 0.81544
#
# Static dielectric constant tensor:
#      x y z
#    x 1.663320 0.000000 0.012250 
#    y 0.000000 1.669220 0.000000 
#    z 0.012250 0.000000 1.642110 
# 
# From -- ./inp_files/206713.got.cif
#   From: 2010.05.17/outbox.cif.g08.bks.cpg/sg12_104_cif.got.tgz:206713.got - 2010.06.03 13:09:07.
