data_PCOD9207040
_publ_section_title
;
Structure prediction by ZEFSAII (Michael W. Deem and Ramdas Pophale) SiO2 
 PCOD9207040
Probable space group: C 2/M
;
_chemical_formula_sum "Si O2"
_cell_formula_units_Z 64
_cell_length_a 14.772976
_cell_length_b 8.765006
_cell_length_c 25.462519
_cell_angle_alpha 90.000000
_cell_angle_beta 90.743943
_cell_angle_gamma 90.000000
_cell_volume 3296.742038
_symmetry_space_group_name_H-M "C 2/M"
_symmetry_group_IT_number 12
_symmetry_cell_setting 'monoclinic'
loop_
_space_group_symop_operation_xyz
x,y,z
-x,y,-z
-x,-y,-z
x,-y,z
1/2+x,1/2+y,z
1/2-x,1/2+y,-z
1/2-x,1/2-y,-z
1/2+x,1/2-y,z
loop_
_atom_site_type_symbol
_atom_site_label
_atom_site_fract_x
_atom_site_fract_y
_atom_site_fract_z
Si Si1 0.749980 0.315869 0.918239
Si Si2 0.658636 0.682243 0.288973
Si Si3 0.714464 0.819972 0.402299
Si Si4 0.712237 0.316836 0.799290
Si Si5 0.551518 0.318852 0.727926
Si Si6 0.450710 0.324416 0.555339
Si Si7 0.104381 0.815818 0.005009
Si Si8 0.603524 0.177459 0.620838
O O1 0.755203 0.500000 0.919010
O O2 0.733988 0.265925 0.858380
O O3 0.840552 0.249461 0.945070
O O4 0.665145 0.271856 0.954821
O O5 0.667781 0.500000 0.295955
O O6 0.683243 0.762153 0.344232
O O7 0.723533 0.739929 0.243284
O O8 0.554679 0.716364 0.272505
O O9 0.651425 0.734520 0.443695
O O10 0.818977 0.773995 0.407090
O O11 0.703198 0.000000 0.406379
O O12 0.725867 0.500000 0.796732
O O13 0.608551 0.287956 0.780837
O O14 0.560532 0.500000 0.716249
O O15 0.598006 0.226890 0.681221
O O16 0.500000 0.314842 0.500000
O O17 0.453633 0.500000 0.573530
O O18 0.507584 0.219846 0.595169
O O19 0.104551 0.000000 0.008325
O O20 0.000000 0.765574 0.000000
O O21 0.623741 0.000000 0.616002
#
# Coordination Sequence:
#
# PCOD9207040 Si02
#       8
#     8   8   8   8   8   8   8   8
#     4   9  19  35  54  81 116 152 193 242 296 350
#     4  11  22  36  58  87 117 152 199 245 290 352
#     4  12  24  40  64  90 122 159 198 246 298 356
#     4  10  21  37  56  81 118 159 195 238 297 357
#     4  10  21  37  58  83 117 156 194 239 296 353
#     4  11  25  45  67  92 123 157 198 250 304 359
#     4   9  18  34  58  83 110 148 196 243 294 356
#     4  12  24  39  64  92 121 157 200 245 296 360
#
# _framework density 19.413105000000002
#
# number of rings (size 3 to 8) (size 9 to 14) (size 15 to 20)
#    0.000    1.500    2.500    3.000    0.000    3.750 
#    0.000    2.500    0.000    0.000    0.000    0.000 
#    0.000    0.000    0.000    0.000    0.000    0.000 
#
# Total GULP energy -178821.540921 kJ/mol
# GULP energy per Si atom -5588.173154 kJ/mol
# Density = 1.936892 g / cm^3
# Si number density = 19.413105 Si / 1000 Ang^3
#
#
#
# Elastic Constant Matrix: (Units=GPa)
#
#
# Indices 1 2 3 4 5 6 
#
# 1 78.7944 5.4079 -12.4264 0.0000 -2.7549 0.0000
# 2 5.4079 33.4927 5.1544 0.0000 -0.7785 0.0000
# 3 -12.4264 5.1544 34.9100 0.0000 -0.5904 0.0000
# 4 0.0000 0.0000 0.0000 22.5037 0.0000 -3.2928
# 5 -2.7549 -0.7785 -0.5904 0.0000 18.5361 0.0000
# 6 0.0000 0.0000 0.0000 -3.2928 0.0000 23.4639
#
#
#
# Elastic Compliance Matrix: (Units=1/GPa)
#
#
# Indices 1 2 3 4 5 6 
#
# 1 0.013823 -0.003014 0.005401 0.000000 0.002100 0.000000
# 2 -0.003014 0.031233 -0.005673 0.000000 0.000683 0.000000
# 3 0.005401 -0.005673 0.031432 0.000000 0.001566 0.000000
# 4 0.000000 0.000000 0.000000 0.045369 0.000000 0.006367
# 5 0.002100 0.000683 0.001566 0.000000 0.054339 0.000000
# 6 0.000000 0.000000 0.000000 0.006367 0.000000 0.043512
#
#
# Mechanical properties :
#
#
# Convention : Reuss Voigt Hill
#
# Bulk Modulus (GPa) = 14.30298 15.94100 15.12199
# Shear Modulus (GPa) = 20.03318 22.83815 21.43567
#
# Velocity S-wave (km/s) = 3.21587 3.43363 3.32653
# Velocity P-wave (km/s) = 4.60139 4.89378 4.74983
#
# Compressibility (1/GPa) = 0.06991549
#
# Stress axis : x y z
#
# Youngs Moduli (GPa) = 72.34139 32.01749 31.81502
#
# Poissons Ratio (x) = 0.09651 -0.17184
# Poissons Ratio (y) = 0.21807 0.18048
# Poissons Ratio (z) = -0.39072 0.18163
#
# Static dielectric constant tensor:
#      x y z
#    x 1.674060 0.000000 0.007680 
#    y 0.000000 1.649740 0.000000 
#    z 0.007680 0.000000 1.662890 
# 
# From -- ./inp_files/338933.got.cif
#   From: 2010.05.17/outbox.cif.g08.bks.cpg/sg12_170_cif.got.tgz:338933.got - 2010.06.03 13:09:07.
