data_PCOD9207394
_publ_section_title
;
Structure prediction by ZEFSAII (Michael W. Deem and Ramdas Pophale) SiO2 
 PCOD9207394
Probable space group: C 2/M
;
_chemical_formula_sum "Si O2"
_cell_formula_units_Z 34
_cell_length_a 8.784879
_cell_length_b 15.610300
_cell_length_c 12.094782
_cell_angle_alpha 90.000000
_cell_angle_beta 52.565362
_cell_angle_gamma 90.000000
_cell_volume 1317.017195
_symmetry_space_group_name_H-M "C 2/M"
_symmetry_group_IT_number 12
_symmetry_cell_setting 'monoclinic'
loop_
_space_group_symop_operation_xyz
x,y,z
-x,y,-z
-x,-y,-z
x,-y,z
1/2+x,1/2+y,z
1/2-x,1/2+y,-z
1/2-x,1/2-y,-z
1/2+x,1/2-y,z
loop_
_atom_site_type_symbol
_atom_site_label
_atom_site_fract_x
_atom_site_fract_y
_atom_site_fract_z
Si Si1 0.165385 0.500000 0.514197
Si Si2 0.564625 0.500000 0.341192
Si Si3 0.500000 0.000000 0.000000
Si Si4 0.158741 0.784541 0.808926
Si Si5 0.288526 0.636143 0.891818
Si Si6 0.905475 0.684337 0.377161
O O1 0.365386 0.500000 0.364290
O O2 0.159579 0.587233 0.584642
O O3 0.000000 0.500000 0.500000
O O4 0.500000 0.500000 0.500000
O O5 0.667727 0.583172 0.243500
O O6 0.624782 0.925006 0.010831
O O7 0.203505 0.728891 0.898181
O O8 0.092329 0.716654 0.747566
O O9 0.374181 0.813795 0.677691
O O10 0.987126 0.853661 0.872442
O O11 0.750000 0.750000 0.500000
#
# Coordination Sequence:
#
# PCOD9207394 Si02
#       6
#     4   4   2   8   8   8
#     4  12  21  30  50  78 116 161 199 235 284 347
#     4  11  21  35  54  84 121 158 195 234 290 359
#     4  10  24  44  66  86 112 150 206 258 314 370
#     4  10  21  37  58  84 117 154 199 247 303 360
#     4  10  22  40  62  85 114 155 200 252 302 362
#     4  11  21  35  54  85 127 165 199 240 292 362
#
# _framework density 25.815909999999999
#
# number of rings (size 3 to 8) (size 9 to 14) (size 15 to 20)
#    0.000    1.412    0.000    7.765    0.000    2.824 
#    0.000    0.000    0.000    5.647    0.000    0.000 
#    0.000    0.000    0.000    0.000    0.000    0.000 
#
# Total GULP energy -94648.933370 kJ/mol
# GULP energy per Si atom -5567.584316 kJ/mol
# Density = 2.575715 g / cm^3
# Si number density = 25.815910 Si / 1000 Ang^3
#
#
#
# Elastic Constant Matrix: (Units=GPa)
#
#
# Indices 1 2 3 4 5 6 
#
# 1 141.5255 33.5980 51.6652 0.0000 -39.9283 0.0000
# 2 33.5980 163.3255 57.7356 0.0000 -27.4474 0.0000
# 3 51.6652 57.7356 107.0185 0.0000 -33.8361 0.0000
# 4 0.0000 0.0000 0.0000 59.4914 0.0000 -19.1393
# 5 -39.9283 -27.4474 -33.8361 0.0000 74.3460 0.0000
# 6 0.0000 0.0000 0.0000 -19.1393 0.0000 42.5852
#
#
#
# Elastic Compliance Matrix: (Units=1/GPa)
#
#
# Indices 1 2 3 4 5 6 
#
# 1 0.009277 -0.000164 -0.003310 0.000000 0.003415 0.000000
# 2 -0.000164 0.007645 -0.003715 0.000000 0.001043 0.000000
# 3 -0.003310 -0.003715 0.013960 0.000000 0.003204 0.000000
# 4 0.000000 0.000000 0.000000 0.019650 0.000000 0.008832
# 5 0.003415 0.001043 0.003204 0.000000 0.017128 0.000000
# 6 0.000000 0.000000 0.000000 0.008832 0.000000 0.027452
#
#
# Mechanical properties :
#
#
# Convention : Reuss Voigt Hill
#
# Bulk Modulus (GPa) = 60.59891 77.54080 69.06985
# Shear Modulus (GPa) = 43.48133 53.20924 48.34529
#
# Velocity S-wave (km/s) = 4.10846 4.54486 4.33216
# Velocity P-wave (km/s) = 6.78456 7.59225 7.19974
#
# Compressibility (1/GPa) = 0.01650195
#
# Stress axis : x y z
#
# Youngs Moduli (GPa) = 107.79648 130.79994 71.63530
#
# Poissons Ratio (x) = 0.02149 0.23712
# Poissons Ratio (y) = 0.01771 0.26615
# Poissons Ratio (z) = 0.35682 0.48597
#
# Static dielectric constant tensor:
#      x y z
#    x 2.112710 0.000000 -0.019120 
#    y 0.000000 1.956980 0.000000 
#    z -0.019120 0.000000 2.304700 
# 
# From -- ./inp_files/118543.got.cif
#   From: 2010.05.17/outbox.cif.g08.bks.cpg/sg12_60_cif.got.tgz:118543.got - 2010.06.03 13:09:07.
