data_PCOD9207382
_publ_section_title
;
Structure prediction by ZEFSAII (Michael W. Deem and Ramdas Pophale) SiO2 
 PCOD9207382
Probable space group: C 2/M
;
_chemical_formula_sum "Si O2"
_cell_formula_units_Z 40
_cell_length_a 19.930810
_cell_length_b 10.086826
_cell_length_c 10.382091
_cell_angle_alpha 90.000000
_cell_angle_beta 101.147460
_cell_angle_gamma 90.000000
_cell_volume 2047.821642
_symmetry_space_group_name_H-M "C 2/M"
_symmetry_group_IT_number 12
_symmetry_cell_setting 'monoclinic'
loop_
_space_group_symop_operation_xyz
x,y,z
-x,y,-z
-x,-y,-z
x,-y,z
1/2+x,1/2+y,z
1/2-x,1/2+y,-z
1/2-x,1/2-y,-z
1/2+x,1/2-y,z
loop_
_atom_site_type_symbol
_atom_site_label
_atom_site_fract_x
_atom_site_fract_y
_atom_site_fract_z
Si Si1 0.339488 0.650318 0.959855
Si Si2 0.962773 0.345380 0.620784
Si Si3 0.179509 0.651478 0.827120
Si Si4 0.309917 0.156866 0.467917
Si Si5 0.465264 0.345863 0.848264
O O1 0.356114 0.500000 0.007497
O O2 0.260395 0.654391 0.890844
O O3 0.385640 0.678509 0.853032
O O4 0.353073 0.750134 0.081554
O O5 0.976198 0.500000 0.655010
O O6 0.881348 0.328494 0.569700
O O7 0.987305 0.251481 0.744172
O O8 0.000000 0.315039 0.500000
O O9 0.155030 0.500000 0.833590
O O10 0.173867 0.689018 0.675702
O O11 0.250000 0.250000 0.500000
O O12 0.290205 0.000000 0.464736
O O13 0.474650 0.500000 0.815929
O O14 0.500000 0.324435 0.000000
#
# Coordination Sequence:
#
# PCOD9207382 Si02
#       5
#     8   8   8   8   8
#     4   9  18  33  52  78 111 141 180 232 282 334
#     4  10  23  41  60  87 122 157 197 243 293 354
#     4   9  18  32  53  79 107 142 182 229 283 336
#     4  10  21  37  58  84 115 152 195 240 291 349
#     4  10  22  39  59  84 115 152 196 241 288 346
#
# _framework density 19.532952000000002
#
# number of rings (size 3 to 8) (size 9 to 14) (size 15 to 20)
#    0.000    2.400    0.000    1.200    2.800    4.800 
#    0.000    4.000    0.000    0.000    0.000    0.000 
#    0.000    0.000    0.000    0.000    0.000    0.000 
#
# Total GULP energy -111658.333609 kJ/mol
# GULP energy per Si atom -5582.916680 kJ/mol
# Density = 1.948849 g / cm^3
# Si number density = 19.532952 Si / 1000 Ang^3
#
#
#
# Elastic Constant Matrix: (Units=GPa)
#
#
# Indices 1 2 3 4 5 6 
#
# 1 57.9133 33.9129 14.2307 0.0000 -6.8724 0.0000
# 2 33.9129 97.4692 92.9005 0.0000 -20.3048 0.0000
# 3 14.2307 92.9005 129.7992 0.0000 -13.2552 0.0000
# 4 0.0000 0.0000 0.0000 41.7129 0.0000 -8.0781
# 5 -6.8724 -20.3048 -13.2552 0.0000 21.0012 0.0000
# 6 0.0000 0.0000 0.0000 -8.0781 0.0000 17.7578
#
#
#
# Elastic Compliance Matrix: (Units=1/GPa)
#
#
# Indices 1 2 3 4 5 6 
#
# 1 0.026553 -0.022013 0.012354 0.000000 -0.004796 0.000000
# 2 -0.022013 0.058215 -0.036599 0.000000 0.025981 0.000000
# 3 0.012354 -0.036599 0.031365 0.000000 -0.011546 0.000000
# 4 0.000000 0.000000 0.000000 0.026289 0.000000 0.011959
# 5 -0.004796 0.025981 -0.011546 0.000000 0.063879 0.000000
# 6 0.000000 0.000000 0.000000 0.011959 0.000000 0.061754
#
#
# Mechanical properties :
#
#
# Convention : Reuss Voigt Hill
#
# Bulk Modulus (GPa) = 42.34190 63.03001 52.68596
# Shear Modulus (GPa) = 13.57065 25.70353 19.63709
#
# Velocity S-wave (km/s) = 2.63868 3.63148 3.17414
# Velocity P-wave (km/s) = 5.56846 7.06556 6.36121
#
# Compressibility (1/GPa) = 0.02361727
#
# Stress axis : x y z
#
# Youngs Moduli (GPa) = 37.66101 17.17783 31.88216
#
# Poissons Ratio (x) = 0.37814 -0.39388
# Poissons Ratio (y) = 0.82903 1.16686
# Poissons Ratio (z) = -0.46528 0.62869
#
# Static dielectric constant tensor:
#      x y z
#    x 1.740910 0.000000 0.033770 
#    y 0.000000 1.669410 0.000000 
#    z 0.033770 0.000000 1.658860 
# 
# From -- ./inp_files/71200.got.cif
#   From: 2010.05.17/outbox.cif.g08.bks.cpg/sg12_36_cif.got.tgz:71200.got - 2010.06.03 13:09:07.
