data_PCOD9207147
_publ_section_title
;
Structure prediction by ZEFSAII (Michael W. Deem and Ramdas Pophale) SiO2 
 PCOD9207147
Probable space group: C 2/M
;
_chemical_formula_sum "Si O2"
_cell_formula_units_Z 40
_cell_length_a 19.481072
_cell_length_b 8.621869
_cell_length_c 28.520047
_cell_angle_alpha 90.000000
_cell_angle_beta 153.119843
_cell_angle_gamma 90.000000
_cell_volume 2165.827317
_symmetry_space_group_name_H-M "C 2/M"
_symmetry_group_IT_number 12
_symmetry_cell_setting 'monoclinic'
loop_
_space_group_symop_operation_xyz
x,y,z
-x,y,-z
-x,-y,-z
x,-y,z
1/2+x,1/2+y,z
1/2-x,1/2+y,-z
1/2-x,1/2-y,-z
1/2+x,1/2-y,z
loop_
_atom_site_type_symbol
_atom_site_label
_atom_site_fract_x
_atom_site_fract_y
_atom_site_fract_z
Si Si1 0.116359 0.314587 0.886356
Si Si2 0.057554 0.815352 0.751115
Si Si3 0.717989 0.685836 0.300951
Si Si4 0.222180 0.815013 0.563483
Si Si5 0.419867 0.814529 0.333831
O O1 0.110309 0.500000 0.884593
O O2 0.134451 0.260176 0.843537
O O3 0.954685 0.245172 0.804187
O O4 0.250000 0.250000 0.000000
O O5 0.882323 0.758378 0.645601
O O6 0.124715 0.759388 0.742825
O O7 0.061635 0.000000 0.757646
O O8 0.720208 0.500000 0.309209
O O9 0.797118 0.764694 0.394037
O O10 0.804112 0.722343 0.305366
O O11 0.083435 0.750413 0.448938
O O12 0.231160 0.000000 0.565152
O O13 0.429070 0.000000 0.334615
#
# Coordination Sequence:
#
# PCOD9207147 Si02
#       5
#     8   8   8   8   8
#     4  11  22  40  64  85 108 139 180 226 274 329
#     4  11  22  37  57  82 112 145 186 229 272 324
#     4  10  21  37  57  82 112 146 185 227 273 325
#     4  11  21  34  54  80 113 152 191 226 266 322
#     4  11  22  36  54  80 116 151 183 225 275 323
#
# _framework density 18.468692999999998
#
# number of rings (size 3 to 8) (size 9 to 14) (size 15 to 20)
#    0.000    1.200    0.000   10.200    0.000    5.600 
#    0.000    1.000    0.000    6.000    0.000    0.000 
#    0.000    0.000    0.000    0.000    0.000    0.000 
#
# Total GULP energy -111862.918842 kJ/mol
# GULP energy per Si atom -5593.145942 kJ/mol
# Density = 1.842666 g / cm^3
# Si number density = 18.468693 Si / 1000 Ang^3
#
#
#
# Elastic Constant Matrix: (Units=GPa)
#
#
# Indices 1 2 3 4 5 6 
#
# 1 89.5421 15.1427 15.0824 0.0002 -23.3397 0.0000
# 2 15.1427 75.4720 0.9663 0.0003 -4.4701 -0.0003
# 3 15.0824 0.9663 81.1042 0.0001 -26.4934 0.0001
# 4 0.0002 0.0003 0.0001 29.4712 -0.0001 -4.9827
# 5 -23.3397 -4.4701 -26.4934 -0.0001 16.4863 0.0000
# 6 0.0000 -0.0003 0.0001 -4.9827 0.0000 32.4116
#
#
#
# Elastic Compliance Matrix: (Units=1/GPa)
#
#
# Indices 1 2 3 4 5 6 
#
# 1 0.023212 -0.001646 0.013244 0.000000 0.053698 0.000000
# 2 -0.001646 0.013767 0.001263 0.000000 0.003432 0.000000
# 3 0.013244 0.001263 0.033866 0.000000 0.073515 0.000000
# 4 0.000000 0.000000 0.000000 0.034837 0.000000 0.005356
# 5 0.053698 0.003432 0.073515 0.000000 0.255745 0.000000
# 6 0.000000 0.000000 0.000000 0.005356 0.000000 0.031676
#
#
# Mechanical properties :
#
#
# Convention : Reuss Voigt Hill
#
# Bulk Modulus (GPa) = 10.35543 34.27789 22.31666
# Shear Modulus (GPa) = 12.51341 30.00230 21.25785
#
# Velocity S-wave (km/s) = 2.60580 4.03487 3.39635
# Velocity P-wave (km/s) = 3.83050 6.34880 5.24309
#
# Compressibility (1/GPa) = 0.09656769
#
# Stress axis : x y z
#
# Youngs Moduli (GPa) = 43.08055 72.63539 29.52809
#
# Poissons Ratio (x) = 0.11959 -0.39107
# Poissons Ratio (y) = 0.07093 -0.03730
# Poissons Ratio (z) = -0.57056 -0.09176
#
# Static dielectric constant tensor:
#      x y z
#    x 1.657000 0.000000 -0.006820 
#    y 0.000000 1.613780 0.000000 
#    z -0.006820 0.000000 1.603550 
# 
# From -- ./inp_files/187008.got.cif
#   From: 2010.05.17/outbox.cif.g08.bks.cpg/sg12_94_cif.got.tgz:187008.got - 2010.06.03 13:09:07.
