data_PCOD9207959
_publ_section_title
;
Structure prediction by ZEFSAII (Michael W. Deem and Ramdas Pophale) SiO2 
 PCOD9207959
Probable space group: C 2/M
;
_chemical_formula_sum "Si O2"
_cell_formula_units_Z 56
_cell_length_a 11.501741
_cell_length_b 18.857835
_cell_length_c 15.785513
_cell_angle_alpha 90.000000
_cell_angle_beta 57.891432
_cell_angle_gamma 90.000000
_cell_volume 2900.142179
_symmetry_space_group_name_H-M "C 2/M"
_symmetry_group_IT_number 12
_symmetry_cell_setting 'monoclinic'
loop_
_space_group_symop_operation_xyz
x,y,z
-x,y,-z
-x,-y,-z
x,-y,z
1/2+x,1/2+y,z
1/2-x,1/2+y,-z
1/2-x,1/2-y,-z
1/2+x,1/2-y,z
loop_
_atom_site_type_symbol
_atom_site_label
_atom_site_fract_x
_atom_site_fract_y
_atom_site_fract_z
Si Si1 0.267738 0.077833 0.313779
Si Si2 0.247009 0.317609 0.437022
Si Si3 0.318402 0.806715 0.727899
Si Si4 0.034120 0.416942 0.604150
Si Si5 0.979922 0.815461 0.604058
Si Si6 0.670220 0.234811 0.941613
Si Si7 0.348422 0.076830 0.095986
O O1 0.365471 0.089208 0.354389
O O2 0.149846 0.134481 0.350341
O O3 0.355397 0.079522 0.194442
O O4 0.203638 0.000000 0.346718
O O5 0.250000 0.250000 0.500000
O O6 0.253768 0.295770 0.335970
O O7 0.118363 0.368964 0.503961
O O8 0.387850 0.355123 0.411106
O O9 0.390474 0.882938 0.690279
O O10 0.444174 0.750741 0.676964
O O11 0.228808 0.785955 0.844056
O O12 0.021804 0.500000 0.586609
O O13 0.000000 0.789255 0.500000
O O14 0.711387 0.152545 0.907670
O O15 0.500000 0.238814 0.000000
O O16 0.750000 0.250000 0.000000
O O17 0.281036 0.000000 0.099998
O O18 0.500000 0.074931 0.000000
#
# Coordination Sequence:
#
# PCOD9207959 Si02
#       7
#     8   8   8   8   8   8   8
#     4  10  21  37  60  93 125 162 207 264 329 384
#     4  12  23  38  61  92 129 169 217 258 319 387
#     4  12  25  40  65  90 129 171 216 266 322 396
#     4  11  24  41  64  94 132 174 220 264 315 394
#     4  12  21  35  60  90 127 166 206 258 319 379
#     4  11  27  44  69 101 133 170 223 283 337 396
#     4   9  19  37  64  93 123 161 216 278 331 385
#
# _framework density 19.309398999999999
#
# number of rings (size 3 to 8) (size 9 to 14) (size 15 to 20)
#    0.000    1.000    5.714    0.429    6.000    2.000 
#    0.000    0.000    0.000    1.714    0.000    0.000 
#    0.000    0.000    0.000    0.000    0.000    0.000 
#
# Total GULP energy -156012.856841 kJ/mol
# GULP energy per Si atom -5571.887744 kJ/mol
# Density = 1.926545 g / cm^3
# Si number density = 19.309399 Si / 1000 Ang^3
#
#
#
# Elastic Constant Matrix: (Units=GPa)
#
#
# Indices 1 2 3 4 5 6 
#
# 1 104.1861 39.7904 49.1656 0.0000 10.9611 0.0000
# 2 39.7904 96.9902 43.9539 0.0000 7.9495 0.0000
# 3 49.1656 43.9539 127.7670 0.0000 8.6136 0.0000
# 4 0.0000 0.0000 0.0000 25.0828 0.0000 1.6018
# 5 10.9611 7.9495 8.6136 0.0000 31.4273 0.0000
# 6 0.0000 0.0000 0.0000 1.6018 0.0000 -7.9864
#
#
#
# Elastic Compliance Matrix: (Units=1/GPa)
#
#
# Indices 1 2 3 4 5 6 
#
# 1 0.012888 -0.003440 -0.003598 0.000000 -0.002639 0.000000
# 2 -0.003440 0.013254 -0.003149 0.000000 -0.001290 0.000000
# 3 -0.003598 -0.003149 0.010347 0.000000 -0.000785 0.000000
# 4 0.000000 0.000000 0.000000 0.039364 0.000000 0.007895
# 5 -0.002639 -0.001290 -0.000785 0.000000 0.033281 0.000000
# 6 0.000000 0.000000 0.000000 0.007895 0.000000 -0.123629
#
#
# Mechanical properties :
#
#
# Convention : Reuss Voigt Hill
#
# Bulk Modulus (GPa) = 62.05332 66.08478 64.06905
# Shear Modulus (GPa) = 444.39933 22.77363 233.58648
#
# Velocity S-wave (km/s) = 15.18704 3.43797 11.01058
# Velocity P-wave (km/s) = 18.43189 7.07517 13.96052
#
# Compressibility (1/GPa) = 0.01611517
#
# Stress axis : x y z
#
# Youngs Moduli (GPa) = 77.59417 75.44613 96.64292
#
# Poissons Ratio (x) = 0.25957 0.34770
# Poissons Ratio (y) = 0.26696 0.30432
# Poissons Ratio (z) = 0.27917 0.23757
#
# Static dielectric constant tensor:
#      x y z
#    x 1.735280 0.000000 -0.019270 
#    y 0.000000 1.736480 0.000000 
#    z -0.019270 0.000000 1.711760 
# 
# From -- ./inp_files/206539.got.cif
#   From: 2010.05.17/outbox.cif.g08.bks.cpg/sg12_104_cif.got.tgz:206539.got - 2010.06.03 13:09:07.
