data_PCOD9207055
_publ_section_title
;
Structure prediction by ZEFSAII (Michael W. Deem and Ramdas Pophale) SiO2 
 PCOD9207055
Probable space group: C 2/M
;
_chemical_formula_sum "Si O2"
_cell_formula_units_Z 40
_cell_length_a 5.273134
_cell_length_b 24.677907
_cell_length_c 13.276718
_cell_angle_alpha 90.000000
_cell_angle_beta 85.587533
_cell_angle_gamma 90.000000
_cell_volume 1722.577288
_symmetry_space_group_name_H-M "C 2/M"
_symmetry_group_IT_number 12
_symmetry_cell_setting 'monoclinic'
loop_
_space_group_symop_operation_xyz
x,y,z
-x,y,-z
-x,-y,-z
x,-y,z
1/2+x,1/2+y,z
1/2-x,1/2+y,-z
1/2-x,1/2-y,-z
1/2+x,1/2-y,z
loop_
_atom_site_type_symbol
_atom_site_label
_atom_site_fract_x
_atom_site_fract_y
_atom_site_fract_z
Si Si1 0.449568 0.062093 0.720676
Si Si2 0.474012 0.626833 0.704046
Si Si3 0.734825 0.937071 0.045211
Si Si4 0.004473 0.213796 0.118221
Si Si5 0.271686 0.728963 0.613266
O O1 0.733384 0.086306 0.721918
O O2 0.321785 0.061660 0.835654
O O3 0.239652 0.097834 0.668622
O O4 0.462740 0.000000 0.684396
O O5 0.510201 0.663281 0.804074
O O6 0.383667 0.669750 0.623158
O O7 0.738909 0.000000 0.008665
O O8 0.500000 0.907727 0.000000
O O9 0.000000 0.915206 0.000000
O O10 0.765265 0.254440 0.134284
O O11 0.000000 0.198907 0.000000
O O12 0.250000 0.750000 0.500000
O O13 0.482992 0.766755 0.659927
#
# Coordination Sequence:
#
# PCOD9207055 Si02
#       5
#     8   8   8   8   8
#     4  11  24  38  54  84 123 166 216 258 297 356
#     4  12  22  37  62  88 121 165 206 252 313 368
#     4   9  17  31  49  68 100 150 206 263 302 319
#     4  10  21  37  56  82 119 159 201 252 310 374
#     4  10  21  39  65  99 126 145 184 252 322 382
#
# _framework density 23.221022000000001
#
# number of rings (size 3 to 8) (size 9 to 14) (size 15 to 20)
#    0.000    1.600    0.000    5.400    0.000    5.600 
#    0.000    0.000    0.000    0.600    0.000   56.000 
#    0.000    0.000    0.000    0.000    0.000    0.000 
#
# Total GULP energy -111758.021472 kJ/mol
# GULP energy per Si atom -5587.901074 kJ/mol
# Density = 2.316817 g / cm^3
# Si number density = 23.221022 Si / 1000 Ang^3
#
#
#
# Elastic Constant Matrix: (Units=GPa)
#
#
# Indices 1 2 3 4 5 6 
#
# 1 168.8896 46.0099 -1.4050 0.0000 22.0777 0.0000
# 2 46.0099 138.5548 13.9805 0.0000 16.3387 0.0000
# 3 -1.4050 13.9805 63.6227 0.0000 11.2357 0.0000
# 4 0.0000 0.0000 0.0000 13.1621 0.0000 6.9418
# 5 22.0777 16.3387 11.2357 0.0000 25.1130 0.0000
# 6 0.0000 0.0000 0.0000 6.9418 0.0000 18.9345
#
#
#
# Elastic Compliance Matrix: (Units=1/GPa)
#
#
# Indices 1 2 3 4 5 6 
#
# 1 0.007206 -0.001866 0.001600 0.000000 -0.005836 0.000000
# 2 -0.001866 0.008347 -0.001310 0.000000 -0.003204 0.000000
# 3 0.001600 -0.001310 0.017523 0.000000 -0.008394 0.000000
# 4 0.000000 0.000000 0.000000 0.094188 0.000000 -0.034531
# 5 -0.005836 -0.003204 -0.008394 0.000000 0.050792 0.000000
# 6 0.000000 0.000000 0.000000 -0.034531 0.000000 0.065474
#
#
# Mechanical properties :
#
#
# Convention : Reuss Voigt Hill
#
# Bulk Modulus (GPa) = 33.41730 54.24868 43.83299
# Shear Modulus (GPa) = 19.48143 32.27403 25.87773
#
# Velocity S-wave (km/s) = 2.89962 3.73213 3.34190
# Velocity P-wave (km/s) = 5.06286 6.47953 5.81450
#
# Compressibility (1/GPa) = 0.02992462
#
# Stress axis : x y z
#
# Youngs Moduli (GPa) = 138.78039 119.80380 57.06720
#
# Poissons Ratio (x) = 0.22355 -0.09130
# Poissons Ratio (y) = 0.25896 0.07473
# Poissons Ratio (z) = -0.22203 0.15688
#
# Static dielectric constant tensor:
#      x y z
#    x 1.942800 0.000000 -0.035470 
#    y 0.000000 1.901680 0.000000 
#    z -0.035470 0.000000 1.953320 
# 
# From -- ./inp_files/191469.got.cif
#   From: 2010.05.17/outbox.cif.g08.bks.cpg/sg12_96_cif.got.tgz:191469.got - 2010.06.03 13:09:07.
