data_PCOD9207368
_publ_section_title
;
Structure prediction by ZEFSAII (Michael W. Deem and Ramdas Pophale) SiO2 
 PCOD9207368
Probable space group: C 2/M
;
_chemical_formula_sum "Si O2"
_cell_formula_units_Z 48
_cell_length_a 20.590181
_cell_length_b 7.607627
_cell_length_c 13.671478
_cell_angle_alpha 90.000000
_cell_angle_beta 90.369465
_cell_angle_gamma 90.000000
_cell_volume 2141.488833
_symmetry_space_group_name_H-M "C 2/M"
_symmetry_group_IT_number 12
_symmetry_cell_setting 'monoclinic'
loop_
_space_group_symop_operation_xyz
x,y,z
-x,y,-z
-x,-y,-z
x,-y,z
1/2+x,1/2+y,z
1/2-x,1/2+y,-z
1/2-x,1/2-y,-z
1/2+x,1/2-y,z
loop_
_atom_site_type_symbol
_atom_site_label
_atom_site_fract_x
_atom_site_fract_y
_atom_site_fract_z
Si Si1 0.307621 0.708898 0.074755
Si Si2 0.549087 0.204454 0.921290
Si Si3 0.884131 0.701023 0.659437
Si Si4 0.528738 0.785458 0.700910
Si Si5 0.354491 0.704340 0.442255
Si Si6 0.752953 0.216011 0.281951
O O1 0.315586 0.500000 0.080426
O O2 0.376740 0.784615 0.043850
O O3 0.287850 0.773053 0.182812
O O4 0.250000 0.750000 0.000000
O O5 0.545140 0.275619 0.810987
O O6 0.530425 0.000000 0.910408
O O7 0.500000 0.283682 0.000000
O O8 0.889130 0.500000 0.694676
O O9 0.955832 0.775967 0.675104
O O10 0.866696 0.702537 0.544740
O O11 0.821281 0.778403 0.712649
O O12 0.581990 0.719283 0.625185
O O13 0.531541 0.000000 0.695315
O O14 0.342667 0.500000 0.464691
O O15 0.294508 0.771989 0.376589
O O16 0.752775 0.000000 0.282925
#
# Coordination Sequence:
#
# PCOD9207368 Si02
#       6
#     8   8   8   8   8   8
#     4  11  23  41  64  90 121 157 195 243 298 356
#     4  10  22  40  64  91 118 154 200 248 296 352
#     4  10  21  37  58  84 113 153 198 238 283 344
#     4  10  21  37  59  85 115 152 195 239 286 346
#     4  11  21  37  58  84 117 153 191 239 294 343
#     4   9  20  38  60  83 115 153 191 239 293 342
#
# _framework density 22.414314000000001
#
# number of rings (size 3 to 8) (size 9 to 14) (size 15 to 20)
#    0.000    1.833    1.667    2.000    2.333    3.000 
#    0.000    2.500    0.000    0.000    0.000    0.000 
#    0.000    0.000    0.000    0.000    0.000    0.000 
#
# Total GULP energy -134170.306178 kJ/mol
# GULP energy per Si atom -5590.429424 kJ/mol
# Density = 2.236330 g / cm^3
# Si number density = 22.414314 Si / 1000 Ang^3
#
#
#
# Elastic Constant Matrix: (Units=GPa)
#
#
# Indices 1 2 3 4 5 6 
#
# 1 112.0358 -19.8494 10.3407 0.0000 -6.7148 0.0000
# 2 -19.8494 52.8549 -11.7521 0.0000 -1.2314 0.0000
# 3 10.3407 -11.7521 57.0831 0.0000 -6.1094 0.0000
# 4 0.0000 0.0000 0.0000 -0.1311 0.0000 6.5776
# 5 -6.7148 -1.2314 -6.1094 0.0000 45.8514 0.0000
# 6 0.0000 0.0000 0.0000 6.5776 0.0000 18.6471
#
#
#
# Elastic Compliance Matrix: (Units=1/GPa)
#
#
# Indices 1 2 3 4 5 6 
#
# 1 0.009708 0.003480 -0.000893 0.000000 0.001396 0.000000
# 2 0.003480 0.021129 0.003890 0.000000 0.001595 0.000000
# 3 -0.000893 0.003890 0.018745 0.000000 0.002471 0.000000
# 4 0.000000 0.000000 0.000000 -0.407946 0.000000 0.143899
# 5 0.001396 0.001595 0.002471 0.000000 0.022386 0.000000
# 6 0.000000 0.000000 0.000000 0.143899 0.000000 0.002869
#
#
# Mechanical properties :
#
#
# Convention : Reuss Voigt Hill
#
# Bulk Modulus (GPa) = 15.99042 19.93913 17.96477
# Shear Modulus (GPa) = -15.37431 29.08910 6.85740
#
# Velocity S-wave (km/s) = -2.62184 3.60640 1.75101
# Velocity P-wave (km/s) = 1.41982 5.12411 3.48142
#
# Compressibility (1/GPa) = 0.06253744
#
# Stress axis : x y z
#
# Youngs Moduli (GPa) = 103.00413 47.32883 53.34617
#
# Poissons Ratio (x) = -0.16470 0.04763
# Poissons Ratio (y) = -0.35845 -0.20753
# Poissons Ratio (z) = 0.09196 -0.18412
#
# Static dielectric constant tensor:
#      x y z
#    x 1.814080 0.000000 -0.006670 
#    y 0.000000 1.871880 0.000000 
#    z -0.006670 0.000000 1.788170 
# 
# From -- ./inp_files/221510.got.cif
#   From: 2010.05.17/outbox.cif.g08.bks.cpg/sg12_111_cif.got.tgz:221510.got - 2010.06.03 13:09:07.
