data_PCOD9207413
_publ_section_title
;
Structure prediction by ZEFSAII (Michael W. Deem and Ramdas Pophale) SiO2 
 PCOD9207413
Probable space group: C 2/M
;
_chemical_formula_sum "Si O2"
_cell_formula_units_Z 48
_cell_length_a 19.650654
_cell_length_b 7.500665
_cell_length_c 29.515823
_cell_angle_alpha 90.000000
_cell_angle_beta 155.033674
_cell_angle_gamma 90.000000
_cell_volume 1836.251404
_symmetry_space_group_name_H-M "C 2/M"
_symmetry_group_IT_number 12
_symmetry_cell_setting 'monoclinic'
loop_
_space_group_symop_operation_xyz
x,y,z
-x,y,-z
-x,-y,-z
x,-y,z
1/2+x,1/2+y,z
1/2-x,1/2+y,-z
1/2-x,1/2-y,-z
1/2+x,1/2-y,z
loop_
_atom_site_type_symbol
_atom_site_label
_atom_site_fract_x
_atom_site_fract_y
_atom_site_fract_z
Si Si1 0.132917 0.712868 0.886438
Si Si2 0.595216 0.283462 0.012731
Si Si3 0.702998 0.706934 0.535400
Si Si4 0.742164 0.295572 0.333016
Si Si5 0.220090 0.218420 0.222469
Si Si6 0.986377 0.299370 0.323133
O O1 0.112828 0.500000 0.871111
O O2 0.953308 0.788887 0.781927
O O3 0.250000 0.750000 0.000000
O O4 0.231079 0.775469 0.900702
O O5 0.604173 0.500000 0.021595
O O6 0.466302 0.237497 0.895815
O O7 0.500000 0.222828 0.000000
O O8 0.699179 0.500000 0.518801
O O9 0.682724 0.715528 0.576556
O O10 0.882393 0.778661 0.631559
O O11 0.580272 0.804463 0.428272
O O12 0.793692 0.500000 0.363618
O O13 0.783125 0.215625 0.308722
O O14 0.319817 0.283192 0.239093
O O15 0.230145 0.000000 0.228087
O O16 0.951911 0.500000 0.285921
#
# Coordination Sequence:
#
# PCOD9207413 Si02
#       6
#     8   8   8   8   8   8
#     4  11  21  36  58  83 113 148 184 225 276 326
#     4   9  18  32  55  83 110 142 187 231 263 312
#     4  10  21  37  58  85 112 141 181 227 283 336
#     4  11  22  37  57  82 113 147 187 228 271 326
#     4   9  18  34  55  81 108 144 191 229 265 318
#     4   9  19  37  61  82 108 144 186 231 272 325
#
# _framework density 26.140211999999998
#
# number of rings (size 3 to 8) (size 9 to 14) (size 15 to 20)
#    0.000    2.167    1.667    1.500    2.333    1.333 
#    0.000    5.000    0.000    2.000    0.000    0.000 
#    0.000    0.000    0.000    0.000    0.000    0.000 
#
# Total GULP energy -134176.107712 kJ/mol
# GULP energy per Si atom -5590.671155 kJ/mol
# Density = 2.608072 g / cm^3
# Si number density = 26.140212 Si / 1000 Ang^3
#
#
#
# Elastic Constant Matrix: (Units=GPa)
#
#
# Indices 1 2 3 4 5 6 
#
# 1 115.0114 -5.6281 -3.6168 0.0009 -3.7263 -0.0002
# 2 -5.6281 87.5238 -5.8266 0.0005 -2.9311 -0.0021
# 3 -3.6168 -5.8266 76.3178 0.0006 1.8045 -0.0003
# 4 0.0009 0.0005 0.0006 13.6464 -0.0004 -1.5874
# 5 -3.7263 -2.9311 1.8045 -0.0004 53.7509 0.0002
# 6 -0.0002 -0.0021 -0.0003 -1.5874 0.0002 6.4560
#
#
#
# Elastic Compliance Matrix: (Units=1/GPa)
#
#
# Indices 1 2 3 4 5 6 
#
# 1 0.008759 0.000614 0.000447 -0.000001 0.000626 0.000000
# 2 0.000614 0.011546 0.000895 0.000000 0.000642 0.000004
# 3 0.000447 0.000895 0.013201 -0.000001 -0.000363 0.000001
# 4 -0.000001 0.000000 -0.000001 0.075437 0.000000 0.018548
# 5 0.000626 0.000642 -0.000363 0.000000 0.018695 0.000000
# 6 0.000000 0.000004 0.000001 0.018548 0.000000 0.159456
#
#
# Mechanical properties :
#
#
# Convention : Reuss Voigt Hill
#
# Bulk Modulus (GPa) = 26.72394 27.63444 27.17919
# Shear Modulus (GPa) = 16.91159 34.36561 25.63860
#
# Velocity S-wave (km/s) = 2.54629 3.62976 3.13519
# Velocity P-wave (km/s) = 4.34630 5.30674 4.85035
#
# Compressibility (1/GPa) = 0.03741964
#
# Stress axis : x y z
#
# Youngs Moduli (GPa) = 114.16605 86.60967 75.75036
#
# Poissons Ratio (x) = -0.05318 -0.03387
# Poissons Ratio (y) = -0.07009 -0.06783
# Poissons Ratio (z) = -0.05105 -0.07755
#
# Static dielectric constant tensor:
#      x y z
#    x 2.051480 0.000000 -0.001230 
#    y 0.000000 2.052750 0.000000 
#    z -0.001230 0.000000 2.077260 
# 
# From -- ./inp_files/244755.got.cif
#   From: 2010.05.17/outbox.cif.g08.bks.cpg/sg12_123_cif.got.tgz:244755.got - 2010.06.03 13:09:07.
