data_PCOD9207573
_publ_section_title
;
Structure prediction by ZEFSAII (Michael W. Deem and Ramdas Pophale) SiO2 
 PCOD9207573
Probable space group: C 2/M
;
_chemical_formula_sum "Si O2"
_cell_formula_units_Z 64
_cell_length_a 28.995234
_cell_length_b 7.984263
_cell_length_c 12.938531
_cell_angle_alpha 90.000000
_cell_angle_beta 92.047668
_cell_angle_gamma 90.000000
_cell_volume 2993.429358
_symmetry_space_group_name_H-M "C 2/M"
_symmetry_group_IT_number 12
_symmetry_cell_setting 'monoclinic'
loop_
_space_group_symop_operation_xyz
x,y,z
-x,y,-z
-x,-y,-z
x,-y,z
1/2+x,1/2+y,z
1/2-x,1/2+y,-z
1/2-x,1/2-y,-z
1/2+x,1/2-y,z
loop_
_atom_site_type_symbol
_atom_site_label
_atom_site_fract_x
_atom_site_fract_y
_atom_site_fract_z
Si Si1 0.766769 0.797907 0.616346
Si Si2 0.011303 0.805013 0.610037
Si Si3 0.114621 0.187246 0.559141
Si Si4 0.591476 0.799513 0.114892
Si Si5 0.494447 0.298650 0.167436
Si Si6 0.871849 0.302235 0.662882
Si Si7 0.819628 0.692132 0.272089
Si Si8 0.889787 0.702440 0.105478
O O1 0.750000 0.750000 0.500000
O O2 0.817418 0.729792 0.644276
O O3 0.729304 0.733968 0.697182
O O4 0.768267 0.000000 0.620848
O O5 0.066694 0.807260 0.616185
O O6 0.000000 0.722169 0.500000
O O7 0.994375 0.731576 0.715848
O O8 0.995185 0.000000 0.604477
O O9 0.105808 0.225210 0.438546
O O10 0.150180 0.305209 0.620211
O O11 0.134128 0.000000 0.567519
O O12 0.536996 0.760357 0.101781
O O13 0.610487 0.732999 0.225793
O O14 0.596864 0.000000 0.117562
O O15 0.616639 0.738117 0.013134
O O16 0.494905 0.500000 0.169198
O O17 0.442637 0.245227 0.137612
O O18 0.880865 0.500000 0.660865
O O19 0.810837 0.500000 0.241367
O O20 0.852238 0.767829 0.185209
O O21 0.886972 0.500000 0.107563
#
# Coordination Sequence:
#
# PCOD9207573 Si02
#       8
#     8   8   8   8   8   8   8   8
#     4  11  22  37  60  89 118 149 187 234 291 349
#     4   9  18  31  47  74 113 150 182 223 280 340
#     4  11  20  33  56  82 114 151 186 230 288 343
#     4  10  23  41  59  81 113 157 200 238 284 341
#     4  11  21  35  57  86 117 150 194 243 288 335
#     4  11  23  39  58  84 118 152 193 239 287 343
#     4  10  21  37  59  85 113 145 187 236 282 339
#     4  10  21  40  62  82 113 156 198 238 285 338
#
# _framework density 21.38016
#
# number of rings (size 3 to 8) (size 9 to 14) (size 15 to 20)
#    0.000    1.625    2.500    2.625    0.000    4.500 
#    0.000    0.625    0.000    3.000    0.000    0.000 
#    0.000    0.000    0.000    0.000    0.000    0.000 
#
# Total GULP energy -178664.839827 kJ/mol
# GULP energy per Si atom -5583.276245 kJ/mol
# Density = 2.133150 g / cm^3
# Si number density = 21.380160 Si / 1000 Ang^3
#
#
#
# Elastic Constant Matrix: (Units=GPa)
#
#
# Indices 1 2 3 4 5 6 
#
# 1 78.5982 -6.0159 38.8783 0.0000 -20.0044 0.0000
# 2 -6.0159 28.1328 0.8657 0.0000 -3.6071 0.0000
# 3 38.8783 0.8657 134.9408 0.0000 -27.1660 0.0000
# 4 0.0000 0.0000 0.0000 12.7497 0.0000 -1.8734
# 5 -20.0044 -3.6071 -27.1660 0.0000 35.7925 0.0000
# 6 0.0000 0.0000 0.0000 -1.8734 0.0000 19.8418
#
#
#
# Elastic Compliance Matrix: (Units=1/GPa)
#
#
# Indices 1 2 3 4 5 6 
#
# 1 0.016556 0.004562 -0.003357 0.000000 0.007165 0.000000
# 2 0.004562 0.037308 -0.000335 0.000000 0.006056 0.000000
# 3 -0.003357 -0.000335 0.009437 0.000000 0.005253 0.000000
# 4 0.000000 0.000000 0.000000 0.079536 0.000000 0.007510
# 5 0.007165 0.006056 0.005253 0.000000 0.036541 0.000000
# 6 0.000000 0.000000 0.000000 0.007510 0.000000 0.051108
#
#
# Mechanical properties :
#
#
# Convention : Reuss Voigt Hill
#
# Bulk Modulus (GPa) = 15.37434 34.34753 24.86094
# Shear Modulus (GPa) = 19.96598 27.53974 23.75286
#
# Velocity S-wave (km/s) = 3.05922 3.59290 3.33675
# Velocity P-wave (km/s) = 4.43678 5.77165 5.14767
#
# Compressibility (1/GPa) = 0.06504343
#
# Stress axis : x y z
#
# Youngs Moduli (GPa) = 60.40006 26.80388 105.96034
#
# Poissons Ratio (x) = -0.12229 0.35569
# Poissons Ratio (y) = -0.27557 0.03547
# Poissons Ratio (z) = 0.20275 0.00897
#
# Static dielectric constant tensor:
#      x y z
#    x 1.764550 0.000000 -0.011990 
#    y 0.000000 1.768390 0.000000 
#    z -0.011990 0.000000 1.823630 
# 
# From -- ./inp_files/187529.got.cif
#   From: 2010.05.17/outbox.cif.g08.bks.cpg/sg12_94_cif.got.tgz:187529.got - 2010.06.03 13:09:07.
