data_PCOD9207927
_publ_section_title
;
Structure prediction by ZEFSAII (Michael W. Deem and Ramdas Pophale) SiO2 
 PCOD9207927
Probable space group: C 2/M
;
_chemical_formula_sum "Si O2"
_cell_formula_units_Z 32
_cell_length_a 15.384906
_cell_length_b 13.552019
_cell_length_c 12.766687
_cell_angle_alpha 90.000000
_cell_angle_beta 29.049748
_cell_angle_gamma 90.000000
_cell_volume 1292.492017
_symmetry_space_group_name_H-M "C 2/M"
_symmetry_group_IT_number 12
_symmetry_cell_setting 'monoclinic'
loop_
_space_group_symop_operation_xyz
x,y,z
-x,y,-z
-x,-y,-z
x,-y,z
1/2+x,1/2+y,z
1/2-x,1/2+y,-z
1/2-x,1/2-y,-z
1/2+x,1/2-y,z
loop_
_atom_site_type_symbol
_atom_site_label
_atom_site_fract_x
_atom_site_fract_y
_atom_site_fract_z
Si Si1 0.329042 0.388812 0.103730
Si Si2 0.843022 0.745101 0.557267
Si Si3 0.070152 0.382993 0.736437
Si Si4 0.352886 0.614638 0.835757
O O1 0.253556 0.500000 0.178923
O O2 0.376556 0.363182 0.934679
O O3 0.500000 0.389891 0.000000
O O4 0.194396 0.314121 0.298352
O O5 0.009536 0.817941 0.369739
O O6 0.865930 0.662188 0.442099
O O7 0.673457 0.815982 0.711262
O O8 0.112223 0.500000 0.699400
O O9 0.856015 0.372090 0.969890
O O10 0.397005 0.500000 0.772572
#
# Coordination Sequence:
#
# PCOD9207927 Si02
#       4
#     8   8   8   8
#     4  10  21  38  63  96 128 160 205 260 314 368
#     4  11  21  37  64  93 124 165 206 254 313 371
#     4  10  21  37  60  91 124 162 207 255 310 369
#     4  10  22  41  64  92 126 161 205 260 312 368
#
# _framework density 24.758372999999999
#
# number of rings (size 3 to 8) (size 9 to 14) (size 15 to 20)
#    0.000    1.750    0.000    5.250    0.000    3.000 
#    0.000    6.250    0.000   22.500    0.000   29.750 
#    0.000    0.000    0.000    0.000    0.000    0.000 
#
# Total GULP energy -89800.887702 kJ/mol
# GULP energy per Si atom -5612.555481 kJ/mol
# Density = 2.470202 g / cm^3
# Si number density = 24.758373 Si / 1000 Ang^3
#
#
#
# Elastic Constant Matrix: (Units=GPa)
#
#
# Indices 1 2 3 4 5 6 
#
# 1 101.7061 70.5275 56.2116 -0.0001 18.9564 0.0000
# 2 70.5275 208.8883 75.5860 0.0016 24.0058 -0.0002
# 3 56.2116 75.5860 134.9652 0.0018 2.0992 -0.0002
# 4 -0.0001 0.0016 0.0018 19.8911 -0.0003 3.2012
# 5 18.9564 24.0058 2.0992 -0.0003 25.6517 0.0000
# 6 0.0000 -0.0002 -0.0002 3.2012 0.0000 40.3802
#
#
#
# Elastic Compliance Matrix: (Units=1/GPa)
#
#
# Indices 1 2 3 4 5 6 
#
# 1 0.016146 -0.002532 -0.005164 0.000001 -0.009139 0.000000
# 2 -0.002532 0.007237 -0.002926 0.000000 -0.004661 0.000000
# 3 -0.005164 -0.002926 0.011111 -0.000001 0.005645 0.000000
# 4 0.000001 0.000000 -0.000001 0.050923 0.000001 -0.004037
# 5 -0.009139 -0.004661 0.005645 0.000001 0.049638 0.000000
# 6 0.000000 0.000000 0.000000 -0.004037 0.000000 0.025085
#
#
# Mechanical properties :
#
#
# Convention : Reuss Voigt Hill
#
# Bulk Modulus (GPa) = 75.47783 94.46775 84.97279
# Shear Modulus (GPa) = 26.91066 33.40023 30.15545
#
# Velocity S-wave (km/s) = 3.30044 3.67692 3.49376
# Velocity P-wave (km/s) = 6.71385 7.50100 7.11832
#
# Compressibility (1/GPa) = 0.01324892
#
# Stress axis : x y z
#
# Youngs Moduli (GPa) = 61.93512 138.18672 90.00274
#
# Poissons Ratio (x) = 0.34995 0.46479
# Poissons Ratio (y) = 0.15685 0.26331
# Poissons Ratio (z) = 0.31984 0.40427
#
# Static dielectric constant tensor:
#      x y z
#    x 1.933660 0.000000 -0.074160 
#    y 0.000000 1.931550 0.000000 
#    z -0.074160 0.000000 1.993820 
# 
# From -- ./inp_files/57809.got.cif
#   From: 2010.05.17/outbox.cif.g08.bks.cpg/sg12_29_cif.got.tgz:57809.got - 2010.06.03 13:09:07.
