data_PCOD9207362
_publ_section_title
;
Structure prediction by ZEFSAII (Michael W. Deem and Ramdas Pophale) SiO2 
 PCOD9207362
Probable space group: C 2/M
;
_chemical_formula_sum "Si O2"
_cell_formula_units_Z 64
_cell_length_a 19.248051
_cell_length_b 8.782075
_cell_length_c 31.953313
_cell_angle_alpha 90.000000
_cell_angle_beta 41.023491
_cell_angle_gamma 90.000000
_cell_volume 3545.254861
_symmetry_space_group_name_H-M "C 2/M"
_symmetry_group_IT_number 12
_symmetry_cell_setting 'monoclinic'
loop_
_space_group_symop_operation_xyz
x,y,z
-x,y,-z
-x,-y,-z
x,-y,z
1/2+x,1/2+y,z
1/2-x,1/2+y,-z
1/2-x,1/2-y,-z
1/2+x,1/2-y,z
loop_
_atom_site_type_symbol
_atom_site_label
_atom_site_fract_x
_atom_site_fract_y
_atom_site_fract_z
Si Si1 0.876718 0.817599 0.559814
Si Si2 0.083971 0.683395 0.068548
Si Si3 0.743756 0.183434 0.068943
Si Si4 0.188154 0.317422 0.188371
Si Si5 0.956025 0.182382 0.300200
Si Si6 0.730846 0.682479 0.554183
Si Si7 0.711788 0.317438 0.696136
Si Si8 0.659307 0.183106 0.810360
O O1 0.815624 0.751580 0.547624
O O2 0.818068 0.746832 0.626575
O O3 0.000000 0.779263 0.500000
O O4 0.865863 0.000000 0.566050
O O5 0.087562 0.500000 0.064569
O O6 0.146939 0.729509 0.082233
O O7 0.962023 0.730608 0.125331
O O8 0.150453 0.750642 0.999910
O O9 0.723933 0.231702 0.125475
O O10 0.749206 0.000000 0.065685
O O11 0.195269 0.500000 0.187502
O O12 0.262864 0.244632 0.189412
O O13 0.067205 0.266330 0.249521
O O14 0.883654 0.218865 0.373471
O O15 0.884221 0.221847 0.292267
O O16 0.973232 0.000000 0.291689
O O17 0.740391 0.500000 0.549281
O O18 0.750000 0.750000 0.500000
O O19 0.717569 0.500000 0.695715
O O20 0.691766 0.247612 0.750481
O O21 0.663237 0.000000 0.807518
#
# Coordination Sequence:
#
# PCOD9207362 Si02
#       8
#     8   8   8   8   8   8   8   8
#     4  10  21  37  58  84 114 148 184 225 275 328
#     4   9  19  36  58  82 106 140 184 224 269 326
#     4   9  19  36  57  81 108 139 179 226 272 323
#     4  11  23  37  55  81 112 146 185 227 275 328
#     4   9  20  38  58  81 109 142 182 227 274 326
#     4  10  21  37  58  84 113 146 186 230 277 330
#     4  10  21  38  60  84 110 143 185 229 274 328
#     4  11  23  38  56  80 113 148 184 228 275 325
#
# _framework density 18.052299000000001
#
# number of rings (size 3 to 8) (size 9 to 14) (size 15 to 20)
#    0.000    2.125    0.000    3.375    0.000    8.500 
#    0.000    6.250    0.000    0.000    0.000    0.000 
#    0.000    0.000    0.000    0.000    0.000    0.000 
#
# Total GULP energy -178707.072073 kJ/mol
# GULP energy per Si atom -5584.596002 kJ/mol
# Density = 1.801121 g / cm^3
# Si number density = 18.052299 Si / 1000 Ang^3
#
#
#
# Elastic Constant Matrix: (Units=GPa)
#
#
# Indices 1 2 3 4 5 6 
#
# 1 117.7699 54.2629 126.2783 0.0002 1.8938 0.0018
# 2 54.2629 50.7471 67.3272 0.0006 -3.9990 0.0026
# 3 126.2783 67.3272 191.6353 -0.0002 -0.4036 -0.0001
# 4 0.0002 0.0006 -0.0002 34.9573 0.0001 0.6349
# 5 1.8938 -3.9990 -0.4036 0.0001 33.1390 -0.0001
# 6 0.0018 0.0026 -0.0001 0.6349 -0.0001 28.8263
#
#
#
# Elastic Compliance Matrix: (Units=1/GPa)
#
#
# Indices 1 2 3 4 5 6 
#
# 1 0.032731 -0.012467 -0.017196 0.000000 -0.003584 -0.000001
# 2 -0.012467 0.042281 -0.006627 -0.000001 0.005734 -0.000003
# 3 -0.017196 -0.006627 0.018878 0.000000 0.000413 0.000002
# 4 0.000000 -0.000001 0.000000 0.028618 0.000000 -0.000630
# 5 -0.003584 0.005734 0.000413 0.000000 0.031078 0.000000
# 6 -0.000001 -0.000003 0.000002 -0.000630 0.000000 0.034704
#
#
# Mechanical properties :
#
#
# Convention : Reuss Voigt Hill
#
# Bulk Modulus (GPa) = 46.92579 95.09877 71.01228
# Shear Modulus (GPa) = 18.65859 26.87013 22.76436
#
# Velocity S-wave (km/s) = 3.21843 3.86224 3.55494
# Velocity P-wave (km/s) = 6.31362 8.52544 7.50150
#
# Compressibility (1/GPa) = 0.02131024
#
# Stress axis : x y z
#
# Youngs Moduli (GPa) = 30.55204 23.65148 52.97069
#
# Poissons Ratio (x) = 0.29487 0.91086
# Poissons Ratio (y) = 0.38091 0.35103
# Poissons Ratio (z) = 0.52536 0.15674
#
# Static dielectric constant tensor:
#      x y z
#    x 1.597500 0.000000 0.000950 
#    y 0.000000 1.604910 0.000000 
#    z 0.000950 0.000000 1.599540 
# 
# From -- ./inp_files/378021.got.cif
#   From: 2010.05.17/outbox.cif.g08.bks.cpg/sg12_190_cif.got.tgz:378021.got - 2010.06.03 13:09:07.
