data_PCOD9207725
_publ_section_title
;
Structure prediction by ZEFSAII (Michael W. Deem and Ramdas Pophale) SiO2 
 PCOD9207725
Probable space group: C 2/M
;
_chemical_formula_sum "Si O2"
_cell_formula_units_Z 60
_cell_length_a 8.926862
_cell_length_b 22.583809
_cell_length_c 15.295750
_cell_angle_alpha 90.000000
_cell_angle_beta 118.502751
_cell_angle_gamma 90.000000
_cell_volume 2709.904415
_symmetry_space_group_name_H-M "C 2/M"
_symmetry_group_IT_number 12
_symmetry_cell_setting 'monoclinic'
loop_
_space_group_symop_operation_xyz
x,y,z
-x,y,-z
-x,-y,-z
x,-y,z
1/2+x,1/2+y,z
1/2-x,1/2+y,-z
1/2-x,1/2-y,-z
1/2+x,1/2-y,z
loop_
_atom_site_type_symbol
_atom_site_label
_atom_site_fract_x
_atom_site_fract_y
_atom_site_fract_z
Si Si1 0.081722 0.564313 0.277935
Si Si2 0.600477 0.600070 0.751986
Si Si3 0.073702 0.693115 0.314094
Si Si4 0.823064 0.681215 0.934758
Si Si5 0.787582 0.064256 0.906737
Si Si6 0.769895 0.807044 0.891387
Si Si7 0.053153 0.000000 0.880314
Si Si8 0.963560 0.197065 0.388965
O O1 0.080845 0.500000 0.321810
O O2 0.251861 0.571014 0.267695
O O3 0.070224 0.622787 0.334450
O O4 0.913922 0.564465 0.167899
O O5 0.697853 0.647550 0.838172
O O6 0.526226 0.552204 0.796531
O O7 0.484345 0.641121 0.656751
O O8 0.258844 0.704038 0.324747
O O9 0.915694 0.700195 0.203687
O O10 0.047202 0.741737 0.381229
O O11 0.863327 0.745226 0.902310
O O12 0.746027 0.688173 0.008953
O O13 0.000000 0.647876 0.000000
O O14 0.841797 0.128356 0.886101
O O15 0.856447 0.000000 0.879013
O O16 0.849564 0.051205 0.021482
O O17 0.000000 0.184844 0.500000
#
# Coordination Sequence:
#
# PCOD9207725 Si02
#       8
#     8   8   8   8   8   8   4   8
#     4   9  17  36  61  83 118 163 204 240 302 376
#     4  11  22  41  63  91 122 162 209 260 305 368
#     4  10  21  39  66  93 122 164 203 254 316 365
#     4  11  22  37  59  90 122 164 213 249 307 366
#     4   8  18  36  56  88 116 162 202 240 310 359
#     4  10  21  37  59  89 126 163 204 257 305 377
#     4  10  22  38  63  88 122 162 205 262 313 360
#     4  11  23  40  64  97 126 160 206 261 319 370
#
# _framework density 22.141002
#
# number of rings (size 3 to 8) (size 9 to 14) (size 15 to 20)
#    0.400    1.600    2.000    2.800    0.000    4.267 
#    1.200    1.333    0.000    0.400    0.000    0.000 
#    0.000    0.000    0.000    0.000    0.000    0.000 
#
# Total GULP energy -167066.691144 kJ/mol
# GULP energy per Si atom -5568.889705 kJ/mol
# Density = 2.209061 g / cm^3
# Si number density = 22.141002 Si / 1000 Ang^3
#
#
#
# Elastic Constant Matrix: (Units=GPa)
#
#
# Indices 1 2 3 4 5 6 
#
# 1 47.1983 26.5123 9.2070 0.0000 -0.4891 0.0000
# 2 26.5123 172.9607 46.0531 0.0000 -28.6946 0.0000
# 3 9.2070 46.0531 96.4857 0.0000 -22.0187 0.0000
# 4 0.0000 0.0000 0.0000 14.5402 0.0000 -15.3309
# 5 -0.4891 -28.6946 -22.0187 0.0000 21.5959 0.0000
# 6 0.0000 0.0000 0.0000 -15.3309 0.0000 33.9388
#
#
#
# Elastic Compliance Matrix: (Units=1/GPa)
#
#
# Indices 1 2 3 4 5 6 
#
# 1 0.023919 -0.004361 -0.001824 0.000000 -0.007112 0.000000
# 2 -0.004361 0.008427 -0.001399 0.000000 0.009672 0.000000
# 3 -0.001824 -0.001399 0.014039 0.000000 0.012414 0.000000
# 4 0.000000 0.000000 0.000000 0.131322 0.000000 0.059321
# 5 -0.007112 0.009672 0.012414 0.000000 0.071652 0.000000
# 6 0.000000 0.000000 0.000000 0.059321 0.000000 0.056261
#
#
# Mechanical properties :
#
#
# Convention : Reuss Voigt Hill
#
# Bulk Modulus (GPa) = 32.03329 53.35437 42.69383
# Shear Modulus (GPa) = 15.09692 29.67313 22.38503
#
# Velocity S-wave (km/s) = 2.61407 3.66483 3.18311
# Velocity P-wave (km/s) = 4.85905 6.48520 5.73011
#
# Compressibility (1/GPa) = 0.03121753
#
# Stress axis : x y z
#
# Youngs Moduli (GPa) = 41.80812 118.66322 71.23065
#
# Poissons Ratio (x) = 0.51744 0.12993
# Poissons Ratio (y) = 0.18231 0.09965
# Poissons Ratio (z) = 0.07626 0.16601
#
# Static dielectric constant tensor:
#      x y z
#    x 1.860510 0.000000 -0.001620 
#    y 0.000000 1.952920 0.000000 
#    z -0.001620 0.000000 1.778810 
# 
# From -- ./inp_files/208435.got.cif
#   From: 2010.05.17/outbox.cif.g08.bks.cpg/sg12_105_cif.got.tgz:208435.got - 2010.06.03 13:09:07.
