data_PCOD9207607
_publ_section_title
;
Structure prediction by ZEFSAII (Michael W. Deem and Ramdas Pophale) SiO2 
 PCOD9207607
Probable space group: C 2/M
;
_chemical_formula_sum "Si O2"
_cell_formula_units_Z 48
_cell_length_a 19.444199
_cell_length_b 9.192672
_cell_length_c 25.437079
_cell_angle_alpha 90.000000
_cell_angle_beta 149.300630
_cell_angle_gamma 90.000000
_cell_volume 2321.257254
_symmetry_space_group_name_H-M "C 2/M"
_symmetry_group_IT_number 12
_symmetry_cell_setting 'monoclinic'
loop_
_space_group_symop_operation_xyz
x,y,z
-x,y,-z
-x,-y,-z
x,-y,z
1/2+x,1/2+y,z
1/2-x,1/2+y,-z
1/2-x,1/2-y,-z
1/2+x,1/2-y,z
loop_
_atom_site_type_symbol
_atom_site_label
_atom_site_fract_x
_atom_site_fract_y
_atom_site_fract_z
Si Si1 0.879619 0.328237 0.650333
Si Si2 0.189071 0.831075 0.010411
Si Si3 0.583007 0.666706 0.226268
Si Si4 0.195042 0.675758 0.706515
Si Si5 0.838350 0.326958 0.899294
Si Si6 0.095162 0.673235 0.452621
O O1 0.871554 0.500000 0.650472
O O2 0.957897 0.261253 0.750722
O O3 0.936678 0.296245 0.629908
O O4 0.730667 0.258507 0.554455
O O5 0.029180 0.829379 0.892596
O O6 0.232564 0.000000 0.041816
O O7 0.250000 0.750000 0.000000
O O8 0.210440 0.748380 0.078968
O O9 0.596418 0.500000 0.252833
O O10 0.722350 0.715302 0.291365
O O11 0.207164 0.500000 0.720996
O O12 0.263784 0.754418 0.800988
O O13 0.037000 0.710619 0.601277
O O14 0.813547 0.500000 0.884605
O O15 0.000000 0.305012 0.000000
O O16 0.120695 0.500000 0.474321
#
# Coordination Sequence:
#
# PCOD9207607 Si02
#       6
#     8   8   8   8   8   8
#     4  10  21  37  59  86 117 150 187 238 294 347
#     4  11  24  41  61  87 120 158 201 244 293 349
#     4  10  22  39  59  84 116 153 193 240 291 346
#     4  10  21  39  62  86 113 154 202 241 287 346
#     4  11  23  39  60  88 122 158 195 242 295 347
#     4   9  20  39  61  85 111 148 194 237 288 350
#
# _framework density 20.678450000000002
#
# number of rings (size 3 to 8) (size 9 to 14) (size 15 to 20)
#    0.000    1.833    1.667    1.500    2.333    4.667 
#    0.000    3.333    0.000    0.000    0.000    0.000 
#    0.000    0.000    0.000    0.000    0.000    0.000 
#
# Total GULP energy -134136.896430 kJ/mol
# GULP energy per Si atom -5589.037351 kJ/mol
# Density = 2.063138 g / cm^3
# Si number density = 20.678450 Si / 1000 Ang^3
#
#
#
# Elastic Constant Matrix: (Units=GPa)
#
#
# Indices 1 2 3 4 5 6 
#
# 1 83.4739 34.7568 -6.6806 0.0000 2.1610 0.0000
# 2 34.7568 49.3500 1.2712 0.0000 -7.7821 0.0000
# 3 -6.6806 1.2712 21.6263 0.0000 -3.6756 0.0000
# 4 0.0000 0.0000 0.0000 31.8552 0.0000 -5.2112
# 5 2.1610 -7.7821 -3.6756 0.0000 39.2748 0.0000
# 6 0.0000 0.0000 0.0000 -5.2112 0.0000 27.5210
#
#
#
# Elastic Compliance Matrix: (Units=1/GPa)
#
#
# Indices 1 2 3 4 5 6 
#
# 1 0.018104 -0.013390 0.005852 0.000000 -0.003102 0.000000
# 2 -0.013390 0.030827 -0.004862 0.000000 0.006390 0.000000
# 3 0.005852 -0.004862 0.048893 0.000000 0.003290 0.000000
# 4 0.000000 0.000000 0.000000 0.032396 0.000000 0.006134
# 5 -0.003102 0.006390 0.003290 0.000000 0.027206 0.000000
# 6 0.000000 0.000000 0.000000 0.006134 0.000000 0.037497
#
#
# Mechanical properties :
#
#
# Convention : Reuss Voigt Hill
#
# Bulk Modulus (GPa) = 13.69426 23.68279 18.68853
# Shear Modulus (GPa) = 20.48636 28.07036 24.27836
#
# Velocity S-wave (km/s) = 3.15097 3.68838 3.43022
# Velocity P-wave (km/s) = 4.45814 5.44212 4.97452
#
# Compressibility (1/GPa) = 0.07302327
#
# Stress axis : x y z
#
# Youngs Moduli (GPa) = 55.23666 32.43909 20.45287
#
# Poissons Ratio (x) = 0.43437 -0.11970
# Poissons Ratio (y) = 0.73964 0.09945
# Poissons Ratio (z) = -0.32327 0.15773
#
# Static dielectric constant tensor:
#      x y z
#    x 1.726850 0.000000 0.021150 
#    y 0.000000 1.693490 0.000000 
#    z 0.021150 0.000000 1.756790 
# 
# From -- ./inp_files/221593.got.cif
#   From: 2010.05.17/outbox.cif.g08.bks.cpg/sg12_111_cif.got.tgz:221593.got - 2010.06.03 13:09:07.
