data_PCOD9207157
_publ_section_title
;
Structure prediction by ZEFSAII (Michael W. Deem and Ramdas Pophale) SiO2 
 PCOD9207157
Probable space group: C 2/M
;
_chemical_formula_sum "Si O2"
_cell_formula_units_Z 58
_cell_length_a 27.050179
_cell_length_b 7.313697
_cell_length_c 11.945270
_cell_angle_alpha 90.000000
_cell_angle_beta 96.479551
_cell_angle_gamma 90.000000
_cell_volume 2348.118396
_symmetry_space_group_name_H-M "C 2/M"
_symmetry_group_IT_number 12
_symmetry_cell_setting 'monoclinic'
loop_
_space_group_symop_operation_xyz
x,y,z
-x,y,-z
-x,-y,-z
x,-y,z
1/2+x,1/2+y,z
1/2-x,1/2+y,-z
1/2-x,1/2-y,-z
1/2+x,1/2-y,z
loop_
_atom_site_type_symbol
_atom_site_label
_atom_site_fract_x
_atom_site_fract_y
_atom_site_fract_z
Si Si1 0.500000 0.000000 0.000000
Si Si2 0.060695 0.223385 0.855902
Si Si3 0.018323 0.796446 0.622002
Si Si4 0.762741 0.781849 0.876020
Si Si5 0.787588 0.292967 0.341983
Si Si6 0.078971 0.288757 0.276545
Si Si7 0.180011 0.276890 0.418816
Si Si8 0.128090 0.781397 0.066752
O O1 0.521176 0.840054 0.917121
O O2 0.057511 0.277171 0.723810
O O3 0.053313 0.000000 0.860163
O O4 0.111587 0.265870 0.937055
O O5 0.968874 0.806127 0.685826
O O6 0.000000 0.709626 0.500000
O O7 0.036212 0.000000 0.595612
O O8 0.721561 0.706098 0.780824
O O9 0.818813 0.709045 0.878402
O O10 0.764297 0.000000 0.856423
O O11 0.750000 0.750000 0.000000
O O12 0.805686 0.500000 0.332250
O O13 0.819133 0.214362 0.451870
O O14 0.730561 0.292948 0.374915
O O15 0.073491 0.500000 0.307124
O O16 0.130229 0.219028 0.343711
O O17 0.087188 0.281187 0.145682
O O18 0.182909 0.500000 0.417017
O O19 0.130040 0.000000 0.073129
#
# Coordination Sequence:
#
# PCOD9207157 Si02
#       8
#     2   8   8   8   8   8   8   8
#     4  12  22  36  66 102 124 160 218 242 328 382
#     4  10  23  41  61  91 130 163 203 266 311 371
#     4  10  23  44  64  82 115 161 203 245 308 371
#     4  10  21  37  57  82 113 155 195 240 299 360
#     4   9  17  33  54  75 108 145 183 225 275 338
#     4  11  22  34  57  90 118 146 186 246 299 351
#     4   9  18  32  52  81 112 140 177 229 285 330
#     4  10  21  39  61  85 118 154 198 248 303 363
#
# _framework density 24.700627999999998
#
# number of rings (size 3 to 8) (size 9 to 14) (size 15 to 20)
#    0.000    2.069    1.379    1.448    3.862    4.138 
#    2.483    0.000    0.000    0.000    0.000    0.000 
#    0.000    0.000    0.000    0.000    0.000    0.000 
#
# Total GULP energy -161664.314488 kJ/mol
# GULP energy per Si atom -5574.631534 kJ/mol
# Density = 2.464441 g / cm^3
# Si number density = 24.700628 Si / 1000 Ang^3
#
#
#
# Elastic Constant Matrix: (Units=GPa)
#
#
# Indices 1 2 3 4 5 6 
#
# 1 25.3314 -12.1142 -1.6682 0.0000 11.4998 0.0000
# 2 -12.1142 119.7847 0.2388 0.0000 5.0129 0.0000
# 3 -1.6682 0.2388 200.1619 0.0000 26.7396 0.0000
# 4 0.0000 0.0000 0.0000 10.0743 0.0000 -5.3066
# 5 11.4998 5.0129 26.7396 0.0000 40.8411 0.0000
# 6 0.0000 0.0000 0.0000 -5.3066 0.0000 13.7949
#
#
#
# Elastic Compliance Matrix: (Units=1/GPa)
#
#
# Indices 1 2 3 4 5 6 
#
# 1 0.049852 0.005725 0.002606 0.000000 -0.016446 0.000000
# 2 0.005725 0.009052 0.000439 0.000000 -0.003011 0.000000
# 3 0.002606 0.000439 0.005613 0.000000 -0.004463 0.000000
# 4 0.000000 0.000000 0.000000 0.124488 0.000000 0.047888
# 5 -0.016446 -0.003011 -0.004463 0.000000 0.032407 0.000000
# 6 0.000000 0.000000 0.000000 0.047888 0.000000 0.090912
#
#
# Mechanical properties :
#
#
# Convention : Reuss Voigt Hill
#
# Bulk Modulus (GPa) = 12.18673 35.35452 23.77062
# Shear Modulus (GPa) = 15.52129 36.86350 26.19239
#
# Velocity S-wave (km/s) = 2.50946 3.86736 3.25990
# Velocity P-wave (km/s) = 3.65254 5.85545 4.87992
#
# Compressibility (1/GPa) = 0.08205649
#
# Stress axis : x y z
#
# Youngs Moduli (GPa) = 20.05941 110.46814 178.14753
#
# Poissons Ratio (x) = -0.63240 -0.46418
# Poissons Ratio (y) = -0.11483 -0.07822
# Poissons Ratio (z) = -0.05227 -0.04851
#
# Static dielectric constant tensor:
#      x y z
#    x 2.000460 0.000000 0.099560 
#    y 0.000000 1.997360 0.000000 
#    z 0.099560 0.000000 2.048180 
# 
# From -- ./inp_files/186749.got.cif
#   From: 2010.05.17/outbox.cif.g08.bks.cpg/sg12_94_cif.got.tgz:186749.got - 2010.06.03 13:09:07.
