data_PCOD9207551
_publ_section_title
;
Structure prediction by ZEFSAII (Michael W. Deem and Ramdas Pophale) SiO2 
 PCOD9207551
Probable space group: C 2/M
;
_chemical_formula_sum "Si O2"
_cell_formula_units_Z 50
_cell_length_a 11.668129
_cell_length_b 13.762154
_cell_length_c 16.178473
_cell_angle_alpha 90.000000
_cell_angle_beta 60.706930
_cell_angle_gamma 90.000000
_cell_volume 2265.716782
_symmetry_space_group_name_H-M "C 2/M"
_symmetry_group_IT_number 12
_symmetry_cell_setting 'monoclinic'
loop_
_space_group_symop_operation_xyz
x,y,z
-x,y,-z
-x,-y,-z
x,-y,z
1/2+x,1/2+y,z
1/2-x,1/2+y,-z
1/2-x,1/2-y,-z
1/2+x,1/2-y,z
loop_
_atom_site_type_symbol
_atom_site_label
_atom_site_fract_x
_atom_site_fract_y
_atom_site_fract_z
Si Si1 0.901240 0.712523 0.298213
Si Si2 0.838173 0.614616 0.853171
Si Si3 0.054813 0.805171 0.561396
Si Si4 0.283799 0.616942 0.940171
Si Si5 0.500000 0.500000 0.500000
Si Si6 0.084906 0.112017 0.829062
Si Si7 0.196521 0.884695 0.255294
O O1 0.887479 0.813320 0.253432
O O2 0.808198 0.639235 0.281483
O O3 0.046507 0.669209 0.234421
O O4 0.864273 0.736714 0.405432
O O5 0.871219 0.500000 0.844980
O O6 0.698385 0.622156 0.856581
O O7 0.814958 0.653298 0.954592
O O8 0.933147 0.834015 0.664576
O O9 0.000000 0.749966 0.500000
O O10 0.089725 0.911425 0.511410
O O11 0.265205 0.500000 0.946075
O O12 0.436125 0.631993 0.910970
O O13 0.266936 0.647639 0.850719
O O14 0.085477 0.000000 0.799834
O O15 0.170173 0.000000 0.263682
#
# Coordination Sequence:
#
# PCOD9207551 Si02
#       7
#     8   8   8   8   2   8   8
#     4  12  24  36  61  94 123 156 195 251 304 370
#     4  10  22  42  57  86 127 169 205 243 300 353
#     4  10  21  41  65  88 116 148 200 250 303 357
#     4   9  19  37  64  83 117 167 215 252 284 347
#     4   8  20  40  72  88 110 154 200 260 292 368
#     4  10  21  37  59  82 118 161 209 257 296 340
#     4  11  21  40  62  91 123 161 202 247 304 357
#
# _framework density 22.068072999999998
#
# number of rings (size 3 to 8) (size 9 to 14) (size 15 to 20)
#    0.480    1.280    2.400    1.920    1.120    3.840 
#    2.880    2.400    0.000    1.920    0.000    0.000 
#    0.000    0.000    0.000    0.000    0.000    0.000 
#
# Total GULP energy -139297.512075 kJ/mol
# GULP energy per Si atom -5571.900483 kJ/mol
# Density = 2.201784 g / cm^3
# Si number density = 22.068073 Si / 1000 Ang^3
#
#
#
# Elastic Constant Matrix: (Units=GPa)
#
#
# Indices 1 2 3 4 5 6 
#
# 1 56.5661 19.9302 30.3585 0.0000 15.2823 0.0000
# 2 19.9302 77.7488 34.5892 0.0000 6.1522 0.0000
# 3 30.3585 34.5892 128.9034 0.0000 16.9201 0.0000
# 4 0.0000 0.0000 0.0000 26.2457 0.0000 8.9374
# 5 15.2823 6.1522 16.9201 0.0000 27.7796 0.0000
# 6 0.0000 0.0000 0.0000 8.9374 0.0000 30.3959
#
#
#
# Elastic Compliance Matrix: (Units=1/GPa)
#
#
# Indices 1 2 3 4 5 6 
#
# 1 0.023458 -0.003799 -0.003176 0.000000 -0.010129 0.000000
# 2 -0.003799 0.015242 -0.003290 0.000000 0.000718 0.000000
# 3 -0.003176 -0.003290 0.009851 0.000000 -0.003525 0.000000
# 4 0.000000 0.000000 0.000000 0.042341 0.000000 -0.012450
# 5 -0.010129 0.000718 -0.003525 0.000000 0.043558 0.000000
# 6 0.000000 0.000000 0.000000 -0.012450 0.000000 0.036560
#
#
# Mechanical properties :
#
#
# Convention : Reuss Voigt Hill
#
# Bulk Modulus (GPa) = 35.68502 48.10824 41.89663
# Shear Modulus (GPa) = 24.89059 28.77360 26.83209
#
# Velocity S-wave (km/s) = 3.36207 3.61481 3.49073
# Velocity P-wave (km/s) = 5.59257 6.26656 5.93913
#
# Compressibility (1/GPa) = 0.02802296
#
# Stress axis : x y z
#
# Youngs Moduli (GPa) = 42.62966 65.60631 101.51246
#
# Poissons Ratio (x) = 0.24923 0.32237
# Poissons Ratio (y) = 0.16195 0.33394
# Poissons Ratio (z) = 0.13538 0.21582
#
# Static dielectric constant tensor:
#      x y z
#    x 1.871970 0.000000 0.023460 
#    y 0.000000 1.828550 0.000000 
#    z 0.023460 0.000000 1.864230 
# 
# From -- ./inp_files/204926.got.cif
#   From: 2010.05.17/outbox.cif.g08.bks.cpg/sg12_103_cif.got.tgz:204926.got - 2010.06.03 13:09:07.
