data_PCOD9207707
_publ_section_title
;
Structure prediction by ZEFSAII (Michael W. Deem and Ramdas Pophale) SiO2 
 PCOD9207707
Probable space group: C 2/M
;
_chemical_formula_sum "Si O2"
_cell_formula_units_Z 64
_cell_length_a 30.977308
_cell_length_b 7.565947
_cell_length_c 20.229690
_cell_angle_alpha 90.000000
_cell_angle_beta 34.975877
_cell_angle_gamma 90.000000
_cell_volume 2717.854761
_symmetry_space_group_name_H-M "C 2/M"
_symmetry_group_IT_number 12
_symmetry_cell_setting 'monoclinic'
loop_
_space_group_symop_operation_xyz
x,y,z
-x,y,-z
-x,-y,-z
x,-y,z
1/2+x,1/2+y,z
1/2-x,1/2+y,-z
1/2-x,1/2-y,-z
1/2+x,1/2-y,z
loop_
_atom_site_type_symbol
_atom_site_label
_atom_site_fract_x
_atom_site_fract_y
_atom_site_fract_z
Si Si1 0.311310 0.789640 0.867280
Si Si2 0.285733 0.201519 0.383740
Si Si3 0.958784 0.215452 0.871411
Si Si4 0.023528 0.798238 0.298246
Si Si5 0.438834 0.197585 0.527846
Si Si6 0.792990 0.214887 0.118621
Si Si7 0.712903 0.214132 0.343629
Si Si8 0.057871 0.296780 0.871412
O O1 0.389188 0.703713 0.790492
O O2 0.274595 0.727971 0.844572
O O3 0.323713 0.000000 0.848091
O O4 0.250000 0.750000 0.000000
O O5 0.250000 0.250000 0.500000
O O6 0.223380 0.218958 0.404378
O O7 0.361241 0.285190 0.254125
O O8 0.308348 0.000000 0.364851
O O9 0.984136 0.267271 0.766575
O O10 0.009814 0.290467 0.864754
O O11 0.960857 0.000000 0.871807
O O12 0.872758 0.272529 0.990420
O O13 0.980023 0.687142 0.406328
O O14 0.995762 0.000000 0.336390
O O15 0.500000 0.283605 0.500000
O O16 0.359554 0.278403 0.606610
O O17 0.423322 0.000000 0.575215
O O18 0.781573 0.264442 0.209129
O O19 0.792241 0.000000 0.117240
O O20 0.707773 0.000000 0.353675
O O21 0.072180 0.500000 0.875218
O O22 0.000000 0.219226 0.000000
#
# Coordination Sequence:
#
# PCOD9207707 Si02
#       8
#     8   8   8   8   8   8   8   8
#     4  11  20  35  57  84 122 165 205 251 304 364
#     4  11  25  44  66  93 128 166 208 260 317 379
#     4  10  21  37  59  89 122 156 196 245 304 368
#     4  11  23  38  56  86 123 158 203 254 305 364
#     4  10  22  41  63  89 121 163 210 252 304 370
#     4   9  18  36  60  87 122 158 198 248 301 364
#     4  10  21  39  66  93 119 158 208 254 303 367
#     4  10  23  43  65  91 123 157 201 258 316 375
#
# _framework density 23.547982999999999
#
# number of rings (size 3 to 8) (size 9 to 14) (size 15 to 20)
#    0.000    1.750    1.250    2.625    1.750    5.000 
#    0.000    2.500    0.000    0.000    0.000    0.000 
#    0.000    0.000    0.000    0.000    0.000    0.000 
#
# Total GULP energy -178696.490231 kJ/mol
# GULP energy per Si atom -5584.265320 kJ/mol
# Density = 2.349439 g / cm^3
# Si number density = 23.547983 Si / 1000 Ang^3
#
#
#
# Elastic Constant Matrix: (Units=GPa)
#
#
# Indices 1 2 3 4 5 6 
#
# 1 128.5056 -4.4904 41.8745 -0.0019 26.8013 -0.0049
# 2 -4.4904 61.9446 12.9111 -0.0134 5.0010 0.0086
# 3 41.8745 12.9111 148.1600 0.0078 26.3201 0.0039
# 4 -0.0019 -0.0134 0.0078 15.2702 0.0086 0.2355
# 5 26.8013 5.0010 26.3201 0.0086 42.3675 -0.0037
# 6 -0.0049 0.0086 0.0039 0.2355 -0.0037 19.5301
#
#
#
# Elastic Compliance Matrix: (Units=1/GPa)
#
#
# Indices 1 2 3 4 5 6 
#
# 1 0.009503 0.001494 -0.001930 0.000006 -0.004989 0.000001
# 2 0.001494 0.016730 -0.001530 0.000017 -0.001969 -0.000007
# 3 -0.001930 -0.001530 0.008070 -0.000004 -0.003612 -0.000002
# 4 0.000006 0.000017 -0.000004 0.065499 -0.000017 -0.000790
# 5 -0.004989 -0.001969 -0.003612 -0.000017 0.029235 0.000006
# 6 0.000001 -0.000007 -0.000002 -0.000790 0.000006 0.051213
#
#
# Mechanical properties :
#
#
# Convention : Reuss Voigt Hill
#
# Bulk Modulus (GPa) = 32.92660 48.80006 40.86333
# Shear Modulus (GPa) = 25.73259 34.65455 30.19357
#
# Velocity S-wave (km/s) = 3.30930 3.84038 3.58469
# Velocity P-wave (km/s) = 5.34930 6.35872 5.87573
#
# Compressibility (1/GPa) = 0.03037059
#
# Stress axis : x y z
#
# Youngs Moduli (GPa) = 105.22589 59.77395 123.91768
#
# Poissons Ratio (x) = -0.08930 0.23914
# Poissons Ratio (y) = -0.15720 0.18963
# Poissons Ratio (z) = 0.20307 0.09147
#
# Static dielectric constant tensor:
#      x y z
#    x 1.867330 -0.000010 -0.040160 
#    y -0.000010 1.911370 0.000020 
#    z -0.040160 0.000020 1.938950 
# 
# From -- ./inp_files/295587.got.cif
#   From: 2010.05.17/outbox.cif.g08.bks.cpg/sg12_148_cif.got.tgz:295587.got - 2010.06.03 13:09:07.
