data_PCOD9207042
_publ_section_title
;
Structure prediction by ZEFSAII (Michael W. Deem and Ramdas Pophale) SiO2 
 PCOD9207042
Probable space group: C 2/M
;
_chemical_formula_sum "Si O2"
_cell_formula_units_Z 40
_cell_length_a 7.270878
_cell_length_b 17.461589
_cell_length_c 21.176020
_cell_angle_alpha 90.000000
_cell_angle_beta 139.130219
_cell_angle_gamma 90.000000
_cell_volume 1759.218572
_symmetry_space_group_name_H-M "C 2/M"
_symmetry_group_IT_number 12
_symmetry_cell_setting 'monoclinic'
loop_
_space_group_symop_operation_xyz
x,y,z
-x,y,-z
-x,-y,-z
x,-y,z
1/2+x,1/2+y,z
1/2-x,1/2+y,-z
1/2-x,1/2-y,-z
1/2+x,1/2-y,z
loop_
_atom_site_type_symbol
_atom_site_label
_atom_site_fract_x
_atom_site_fract_y
_atom_site_fract_z
Si Si1 0.592356 0.695198 0.796602
Si Si2 0.297022 0.301909 0.391765
Si Si3 0.205215 0.312938 0.932702
Si Si4 0.832446 0.913995 0.596298
Si Si5 0.188171 0.585983 0.702959
O O1 0.389379 0.736837 0.691146
O O2 0.670202 0.767083 0.859069
O O3 0.409968 0.639965 0.794879
O O4 0.889528 0.654319 0.858449
O O5 0.500000 0.271597 0.500000
O O6 0.481020 0.350409 0.389480
O O7 0.094885 0.365034 0.371651
O O8 0.500000 0.358095 0.000000
O O9 0.250000 0.250000 0.000000
O O10 0.500000 0.903720 0.500000
O O11 0.844765 0.916187 0.675493
O O12 0.905266 0.000000 0.591139
O O13 0.141875 0.500000 0.712699
#
# Coordination Sequence:
#
# PCOD9207042 Si02
#       5
#     8   8   8   8   8
#     4  11  21  40  60  99 126 158 215 265 312 382
#     4  12  24  38  64  92 133 173 217 264 312 370
#     4   9  19  37  67  95 119 155 203 267 325 378
#     4  10  21  37  56  81 120 173 225 259 301 368
#     4  11  24  41  61  88 132 176 213 260 318 374
#
# _framework density 22.737369000000001
#
# number of rings (size 3 to 8) (size 9 to 14) (size 15 to 20)
#    0.000    1.400    4.000    1.800    0.000    2.400 
#    0.000    0.000    0.000    6.000    0.000    0.000 
#    0.000    0.000    0.000    0.000    0.000    0.000 
#
# Total GULP energy -111434.180537 kJ/mol
# GULP energy per Si atom -5571.709027 kJ/mol
# Density = 2.268562 g / cm^3
# Si number density = 22.737369 Si / 1000 Ang^3
#
#
#
# Elastic Constant Matrix: (Units=GPa)
#
#
# Indices 1 2 3 4 5 6 
#
# 1 90.7049 19.5976 37.6519 0.0000 12.5198 0.0000
# 2 19.5976 119.9277 37.5411 0.0002 12.8620 0.0001
# 3 37.6519 37.5411 122.7704 0.0015 25.8633 0.0010
# 4 0.0000 0.0002 0.0015 0.0258 0.0003 -2.1265
# 5 12.5198 12.8620 25.8633 0.0003 41.5116 0.0000
# 6 0.0000 0.0001 0.0010 -2.1265 0.0000 11.3546
#
#
#
# Elastic Compliance Matrix: (Units=1/GPa)
#
#
# Indices 1 2 3 4 5 6 
#
# 1 0.012811 -0.000886 -0.003340 -0.000016 -0.001508 -0.000003
# 2 -0.000886 0.009340 -0.002338 -0.000007 -0.001170 -0.000001
# 3 -0.003340 -0.002338 0.010958 0.000046 -0.005095 0.000008
# 4 -0.000016 -0.000007 0.000046 -2.684686 -0.000003 -0.502785
# 5 -0.001508 -0.001170 -0.005095 -0.000003 0.028082 0.000000
# 6 -0.000003 -0.000001 0.000008 -0.502785 0.000000 -0.006091
#
#
# Mechanical properties :
#
#
# Convention : Reuss Voigt Hill
#
# Bulk Modulus (GPa) = 50.04776 58.10934 54.07855
# Shear Modulus (GPa) = -1.91586 26.48589 12.28502
#
# Velocity S-wave (km/s) = -0.91893 3.41671 2.32696
# Velocity P-wave (km/s) = 4.57527 6.41697 5.57273
#
# Compressibility (1/GPa) = 0.01998092
#
# Stress axis : x y z
#
# Youngs Moduli (GPa) = 78.05835 107.06072 91.25746
#
# Poissons Ratio (x) = 0.09487 0.30482
# Poissons Ratio (y) = 0.06917 0.21335
# Poissons Ratio (z) = 0.26074 0.25030
#
# Static dielectric constant tensor:
#      x y z
#    x 1.968120 -0.000020 0.028910 
#    y -0.000020 -13.054370 -0.000050 
#    z 0.028910 -0.000050 2.134140 
# 
# From -- ./inp_files/356615.got.cif
#   From: 2010.05.17/outbox.cif.g08.bks.cpg/sg12_179_cif.got.tgz:356615.got - 2010.06.03 13:09:07.
