data_PCOD9207082
_publ_section_title
;
Structure prediction by ZEFSAII (Michael W. Deem and Ramdas Pophale) SiO2 
 PCOD9207082
Probable space group: C 2/M
;
_chemical_formula_sum "Si O2"
_cell_formula_units_Z 48
_cell_length_a 19.034734
_cell_length_b 16.129759
_cell_length_c 9.602151
_cell_angle_alpha 90.000000
_cell_angle_beta 105.048743
_cell_angle_gamma 90.000000
_cell_volume 2847.002402
_symmetry_space_group_name_H-M "C 2/M"
_symmetry_group_IT_number 12
_symmetry_cell_setting 'monoclinic'
loop_
_space_group_symop_operation_xyz
x,y,z
-x,y,-z
-x,-y,-z
x,-y,z
1/2+x,1/2+y,z
1/2-x,1/2+y,-z
1/2-x,1/2-y,-z
1/2+x,1/2-y,z
loop_
_atom_site_type_symbol
_atom_site_label
_atom_site_fract_x
_atom_site_fract_y
_atom_site_fract_z
Si Si1 0.174361 0.311637 0.111860
Si Si2 0.540538 0.718405 0.166711
Si Si3 0.956862 0.327934 0.342821
Si Si4 0.839993 0.775278 0.200267
Si Si5 0.116107 0.500000 0.090810
Si Si6 0.972300 0.902474 0.326492
Si Si7 0.487300 0.000000 0.232895
O O1 0.117977 0.261267 0.180073
O O2 0.258585 0.301028 0.194853
O O3 0.156277 0.410350 0.102444
O O4 0.163490 0.266104 0.955960
O O5 0.492206 0.784006 0.227036
O O6 0.533900 0.636155 0.256587
O O7 0.500000 0.703405 0.000000
O O8 0.874383 0.297839 0.310942
O O9 0.968990 0.422469 0.318026
O O10 0.000000 0.300666 0.500000
O O11 0.898277 0.850533 0.252037
O O12 0.067726 0.500000 0.207047
O O13 0.063961 0.500000 0.929239
O O14 0.000000 0.891550 0.500000
O O15 0.961067 0.000000 0.296946
#
# Coordination Sequence:
#
# PCOD9207082 Si02
#       7
#     8   8   8   8   4   8   4
#     4  11  21  35  58  86 117 144 185 234 290 334
#     4  11  18  36  59  86 112 142 193 234 275 332
#     4  11  21  36  56  84 116 151 186 229 282 337
#     4  10  21  37  56  85 114 145 186 234 283 340
#     4  11  20  34  60  88 111 144 187 243 277 325
#     4  10  22  40  61  83 112 152 193 232 278 334
#     4  11  19  32  58  86 112 143 192 234 273 337
#
# _framework density 16.859836999999999
#
# number of rings (size 3 to 8) (size 9 to 14) (size 15 to 20)
#    0.000    1.333    6.667    2.250    1.167    0.333 
#    0.000    3.333    3.667    0.000    0.000    0.000 
#    0.000    0.000    0.000    0.000    0.000    0.000 
#
# Total GULP energy -133613.771187 kJ/mol
# GULP energy per Si atom -5567.240466 kJ/mol
# Density = 1.682146 g / cm^3
# Si number density = 16.859837 Si / 1000 Ang^3
#
#
#
# Elastic Constant Matrix: (Units=GPa)
#
#
# Indices 1 2 3 4 5 6 
#
# 1 131.4304 58.6691 37.1984 0.0000 15.7688 0.0000
# 2 58.6691 142.5613 33.7970 0.0000 -2.6535 0.0000
# 3 37.1984 33.7970 77.1178 0.0000 5.0338 0.0000
# 4 0.0000 0.0000 0.0000 29.3216 0.0000 -3.3251
# 5 15.7688 -2.6535 5.0338 0.0000 20.5511 0.0000
# 6 0.0000 0.0000 0.0000 -3.3251 0.0000 6.8832
#
#
#
# Elastic Compliance Matrix: (Units=1/GPa)
#
#
# Indices 1 2 3 4 5 6 
#
# 1 0.011328 -0.004078 -0.003125 0.000000 -0.008453 0.000000
# 2 -0.004078 0.009368 -0.002461 0.000000 0.004942 0.000000
# 3 -0.003125 -0.002461 0.015668 0.000000 -0.001758 0.000000
# 4 0.000000 0.000000 0.000000 0.036081 0.000000 0.017430
# 5 -0.008453 0.004942 -0.001758 0.000000 0.056214 0.000000
# 6 0.000000 0.000000 0.000000 0.017430 0.000000 0.153702
#
#
# Mechanical properties :
#
#
# Convention : Reuss Voigt Hill
#
# Bulk Modulus (GPa) = 58.70168 67.82651 63.26410
# Shear Modulus (GPa) = 16.26718 26.11417 21.19068
#
# Velocity S-wave (km/s) = 3.10957 3.93987 3.54909
# Velocity P-wave (km/s) = 6.91271 7.81113 7.37562
#
# Compressibility (1/GPa) = 0.01703529
#
# Stress axis : x y z
#
# Youngs Moduli (GPa) = 88.27934 106.74301 63.82515
#
# Poissons Ratio (x) = 0.43532 0.19945
# Poissons Ratio (y) = 0.36003 0.15708
# Poissons Ratio (z) = 0.27587 0.26270
#
# Static dielectric constant tensor:
#      x y z
#    x 1.584750 0.000000 0.004660 
#    y 0.000000 1.612840 0.000000 
#    z 0.004660 0.000000 1.571470 
# 
# From -- ./inp_files/85981.got.cif
#   From: 2010.05.17/outbox.cif.g08.bks.cpg/sg12_43_cif.got.tgz:85981.got - 2010.06.03 13:09:07.
