data_PCOD9207465
_publ_section_title
;
Structure prediction by ZEFSAII (Michael W. Deem and Ramdas Pophale) SiO2 
 PCOD9207465
Probable space group: C 2/M
;
_chemical_formula_sum "Si O2"
_cell_formula_units_Z 64
_cell_length_a 19.325375
_cell_length_b 7.829004
_cell_length_c 33.830780
_cell_angle_alpha 90.000000
_cell_angle_beta 143.937687
_cell_angle_gamma 90.000000
_cell_volume 3013.106603
_symmetry_space_group_name_H-M "C 2/M"
_symmetry_group_IT_number 12
_symmetry_cell_setting 'monoclinic'
loop_
_space_group_symop_operation_xyz
x,y,z
-x,y,-z
-x,-y,-z
x,-y,z
1/2+x,1/2+y,z
1/2-x,1/2+y,-z
1/2-x,1/2-y,-z
1/2+x,1/2-y,z
loop_
_atom_site_type_symbol
_atom_site_label
_atom_site_fract_x
_atom_site_fract_y
_atom_site_fract_z
Si Si1 0.109816 0.704962 0.184821
Si Si2 0.213526 0.802593 0.799486
Si Si3 0.046608 0.300978 0.318074
Si Si4 0.360569 0.303381 0.940646
Si Si5 0.682028 0.205452 0.303915
Si Si6 0.113004 0.706013 0.434909
Si Si7 0.633995 0.296500 0.969801
Si Si8 0.455963 0.206598 0.436492
O O1 0.122676 0.500000 0.191794
O O2 0.213961 0.770417 0.204303
O O3 0.124642 0.769689 0.236415
O O4 0.984398 0.739742 0.106820
O O5 0.298765 0.791344 0.876410
O O6 0.092106 0.711108 0.753002
O O7 0.185002 0.000000 0.778242
O O8 0.081498 0.500000 0.336572
O O9 0.119487 0.226472 0.314844
O O10 0.069066 0.227135 0.372098
O O11 0.316354 0.500000 0.919149
O O12 0.500000 0.308719 0.000000
O O13 0.345785 0.224800 0.976985
O O14 0.820501 0.243399 0.367880
O O15 0.666567 0.000000 0.296910
O O16 0.100342 0.500000 0.429461
O O17 0.250000 0.750000 0.500000
O O18 0.038100 0.768588 0.438153
O O19 0.623054 0.500000 0.969278
O O20 0.750000 0.250000 0.000000
O O21 0.500000 0.266776 0.500000
O O22 0.461933 0.000000 0.439564
#
# Coordination Sequence:
#
# PCOD9207465 Si02
#       8
#     8   8   8   8   8   8   8   8
#     4  10  22  40  58  82 116 151 190 239 291 342
#     4  11  23  37  59  87 115 148 191 243 291 338
#     4  10  22  39  58  83 116 152 193 237 285 346
#     4  10  21  40  62  84 112 151 194 234 286 350
#     4  10  22  39  59  83 113 152 194 233 281 341
#     4  10  21  37  59  87 117 152 192 236 284 336
#     4  11  24  40  61  86 115 151 191 237 289 347
#     4  10  21  37  58  86 119 152 187 233 287 338
#
# _framework density 21.240535999999999
#
# number of rings (size 3 to 8) (size 9 to 14) (size 15 to 20)
#    0.000    1.750    1.250    2.250    1.750    4.000 
#    0.000    0.000    0.000    0.000    0.000    0.000 
#    0.000    0.000    0.000    0.000    0.000    0.000 
#
# Total GULP energy -178739.614743 kJ/mol
# GULP energy per Si atom -5585.612961 kJ/mol
# Density = 2.119219 g / cm^3
# Si number density = 21.240536 Si / 1000 Ang^3
#
#
#
# Elastic Constant Matrix: (Units=GPa)
#
#
# Indices 1 2 3 4 5 6 
#
# 1 210.0704 5.5230 71.7919 -0.0001 -19.8451 0.0003
# 2 5.5230 25.1340 -2.4280 0.0000 -10.6519 0.0001
# 3 71.7919 -2.4280 108.9145 0.0000 -18.5472 0.0001
# 4 -0.0001 0.0000 0.0000 24.2234 0.0000 12.9390
# 5 -19.8451 -10.6519 -18.5472 0.0000 41.5976 0.0000
# 6 0.0003 0.0001 0.0001 12.9390 0.0000 13.0144
#
#
#
# Elastic Compliance Matrix: (Units=1/GPa)
#
#
# Indices 1 2 3 4 5 6 
#
# 1 0.006245 -0.001406 -0.004006 0.000000 0.000833 0.000000
# 2 -0.001406 0.045990 0.004159 0.000000 0.012960 0.000000
# 3 -0.004006 0.004159 0.012738 0.000000 0.004833 0.000000
# 4 0.000000 0.000000 0.000000 0.088034 0.000000 -0.087523
# 5 0.000833 0.012960 0.004833 0.000000 0.029911 0.000000
# 6 0.000000 0.000000 0.000000 -0.087523 0.000000 0.163854
#
#
# Mechanical properties :
#
#
# Convention : Reuss Voigt Hill
#
# Bulk Modulus (GPa) = 16.00844 54.87698 35.44271
# Shear Modulus (GPa) = 13.50986 33.71587 23.61287
#
# Velocity S-wave (km/s) = 2.52472 3.98846 3.33782
# Velocity P-wave (km/s) = 4.00650 6.86312 5.61937
#
# Compressibility (1/GPa) = 0.06246704
#
# Stress axis : x y z
#
# Youngs Moduli (GPa) = 160.12768 21.74381 78.50615
#
# Poissons Ratio (x) = 0.03058 0.31449
# Poissons Ratio (y) = 0.22517 -0.32652
# Poissons Ratio (z) = 0.64146 -0.09044
#
# Static dielectric constant tensor:
#      x y z
#    x 1.745370 0.000000 -0.033200 
#    y 0.000000 1.802900 0.000000 
#    z -0.033200 0.000000 1.732000 
# 
# From -- ./inp_files/378467.got.cif
#   From: 2010.05.17/outbox.cif.g08.bks.cpg/sg12_190_cif.got.tgz:378467.got - 2010.06.03 13:09:07.
