data_PCOD9207133
_publ_section_title
;
Structure prediction by ZEFSAII (Michael W. Deem and Ramdas Pophale) SiO2 
 PCOD9207133
Probable space group: C 2/M
;
_chemical_formula_sum "Si O2"
_cell_formula_units_Z 64
_cell_length_a 18.681774
_cell_length_b 8.416190
_cell_length_c 31.329867
_cell_angle_alpha 90.000000
_cell_angle_beta 137.988354
_cell_angle_gamma 90.000000
_cell_volume 3296.864599
_symmetry_space_group_name_H-M "C 2/M"
_symmetry_group_IT_number 12
_symmetry_cell_setting 'monoclinic'
loop_
_space_group_symop_operation_xyz
x,y,z
-x,y,-z
-x,-y,-z
x,-y,z
1/2+x,1/2+y,z
1/2-x,1/2+y,-z
1/2-x,1/2-y,-z
1/2+x,1/2-y,z
loop_
_atom_site_type_symbol
_atom_site_label
_atom_site_fract_x
_atom_site_fract_y
_atom_site_fract_z
Si Si1 0.278673 0.806052 0.188841
Si Si2 0.063531 0.311150 0.816416
Si Si3 0.763126 0.311398 0.575817
Si Si4 0.535833 0.305784 0.063141
Si Si5 0.584727 0.310244 0.429634
Si Si6 0.171634 0.188086 0.304668
Si Si7 0.130835 0.810486 0.938677
Si Si8 0.651397 0.192395 0.685627
O O1 0.356375 0.752914 0.185214
O O2 0.156674 0.755159 0.127010
O O3 0.321124 0.756410 0.253985
O O4 0.279102 0.000000 0.188955
O O5 0.077219 0.500000 0.825807
O O6 0.091997 0.238077 0.874641
O O7 0.942244 0.272243 0.750234
O O8 0.760662 0.500000 0.582397
O O9 0.656551 0.264614 0.502434
O O10 0.860836 0.270902 0.587325
O O11 0.778596 0.223871 0.627165
O O12 0.535704 0.500000 0.063445
O O13 0.452179 0.251647 0.062022
O O14 0.500000 0.256031 0.000000
O O15 0.593987 0.500000 0.428752
O O16 0.462345 0.260487 0.378861
O O17 0.254090 0.240427 0.304520
O O18 0.154099 0.000000 0.291902
O O19 0.132178 0.000000 0.942090
O O20 0.250000 0.750000 0.000000
O O21 0.645015 0.000000 0.682195
#
# Coordination Sequence:
#
# PCOD9207133 Si02
#       8
#     8   8   8   8   8   8   8   8
#     4   9  18  34  56  81 107 141 188 233 276 332
#     4  11  22  37  60  86 113 148 189 236 289 343
#     4  10  21  38  59  83 114 151 189 234 290 348
#     4   9  17  32  56  82 107 141 187 232 273 326
#     4  10  21  37  59  85 112 146 192 242 287 339
#     4  11  23  38  58  85 116 151 192 237 285 343
#     4  11  22  37  59  85 115 149 186 233 285 340
#     4  10  21  37  57  81 113 152 192 237 289 345
#
# _framework density 19.412385
#
# number of rings (size 3 to 8) (size 9 to 14) (size 15 to 20)
#    0.000    1.875    0.000    4.125    0.000    8.000 
#    0.000    3.125    0.000    9.750    0.000    0.000 
#    0.000    0.000    0.000    0.000    0.000    0.000 
#
# Total GULP energy -178836.948503 kJ/mol
# GULP energy per Si atom -5588.654641 kJ/mol
# Density = 1.936820 g / cm^3
# Si number density = 19.412385 Si / 1000 Ang^3
#
#
#
# Elastic Constant Matrix: (Units=GPa)
#
#
# Indices 1 2 3 4 5 6 
#
# 1 167.7090 11.6368 82.0484 0.0000 5.4158 0.0000
# 2 11.6368 15.2092 5.1060 0.0000 1.3005 0.0001
# 3 82.0484 5.1060 110.4454 0.0000 5.2873 0.0000
# 4 0.0000 0.0000 0.0000 28.8764 0.0000 1.1982
# 5 5.4158 1.3005 5.2873 0.0000 39.8852 0.0000
# 6 0.0000 0.0001 0.0000 1.1982 0.0000 27.2649
#
#
#
# Elastic Compliance Matrix: (Units=1/GPa)
#
#
# Indices 1 2 3 4 5 6 
#
# 1 0.009744 -0.005088 -0.006993 0.000000 -0.000230 0.000000
# 2 -0.005088 0.069569 0.000643 0.000000 -0.001663 0.000000
# 3 -0.006993 0.000643 0.014265 0.000000 -0.000963 0.000000
# 4 0.000000 0.000000 0.000000 0.034694 0.000000 -0.001525
# 5 -0.000230 -0.001663 -0.000963 0.000000 0.025285 0.000000
# 6 0.000000 0.000000 0.000000 -0.001525 0.000000 0.036744
#
#
# Mechanical properties :
#
#
# Convention : Reuss Voigt Hill
#
# Bulk Modulus (GPa) = 14.14357 54.54957 34.34657
# Shear Modulus (GPa) = 21.11985 32.17677 26.64831
#
# Velocity S-wave (km/s) = 3.30200 4.07570 3.70908
# Velocity P-wave (km/s) = 4.67325 7.09295 6.00621
#
# Compressibility (1/GPa) = 0.07070350
#
# Stress axis : x y z
#
# Youngs Moduli (GPa) = 102.62536 14.37422 70.10032
#
# Poissons Ratio (x) = 0.07314 0.49018
# Poissons Ratio (y) = 0.52218 -0.04510
# Poissons Ratio (z) = 0.71761 -0.00925
#
# Static dielectric constant tensor:
#      x y z
#    x 1.655540 0.000000 -0.001670 
#    y 0.000000 1.677780 0.000000 
#    z -0.001670 0.000000 1.644960 
# 
# From -- ./inp_files/378475.got.cif
#   From: 2010.05.17/outbox.cif.g08.bks.cpg/sg12_190_cif.got.tgz:378475.got - 2010.06.03 13:09:07.
