data_PCOD9207728
_publ_section_title
;
Structure prediction by ZEFSAII (Michael W. Deem and Ramdas Pophale) SiO2 
 PCOD9207728
Probable space group: C 2/M
;
_chemical_formula_sum "Si O2"
_cell_formula_units_Z 56
_cell_length_a 27.132017
_cell_length_b 8.850574
_cell_length_c 12.812207
_cell_angle_alpha 90.000000
_cell_angle_beta 111.732913
_cell_angle_gamma 90.000000
_cell_volume 2857.957644
_symmetry_space_group_name_H-M "C 2/M"
_symmetry_group_IT_number 12
_symmetry_cell_setting 'monoclinic'
loop_
_space_group_symop_operation_xyz
x,y,z
-x,y,-z
-x,-y,-z
x,-y,z
1/2+x,1/2+y,z
1/2-x,1/2+y,-z
1/2-x,1/2-y,-z
1/2+x,1/2-y,z
loop_
_atom_site_type_symbol
_atom_site_label
_atom_site_fract_x
_atom_site_fract_y
_atom_site_fract_z
Si Si1 0.389180 0.820484 0.514339
Si Si2 0.610599 0.181402 0.721885
Si Si3 0.844641 0.320485 0.830619
Si Si4 0.957284 0.822006 0.877135
Si Si5 0.691829 0.182173 0.966331
Si Si6 0.301555 0.679675 0.594137
Si Si7 0.495790 0.678611 0.671470
O O1 0.370647 0.788716 0.381621
O O2 0.352792 0.735052 0.569162
O O3 0.449677 0.765265 0.573238
O O4 0.386027 0.000000 0.530759
O O5 0.554031 0.259632 0.694097
O O6 0.603354 0.000000 0.725578
O O7 0.652612 0.230759 0.842341
O O8 0.837742 0.500000 0.814886
O O9 0.904849 0.275250 0.851914
O O10 0.831399 0.275720 0.938722
O O11 0.808194 0.238095 0.717158
O O12 0.982473 0.798083 0.783307
O O13 0.942829 0.000000 0.873522
O O14 0.000000 0.788314 0.000000
O O15 0.695110 0.000000 0.964748
O O16 0.750000 0.250000 0.000000
O O17 0.298709 0.500000 0.590329
O O18 0.250000 0.750000 0.500000
O O19 0.492767 0.500000 0.646461
#
# Coordination Sequence:
#
# PCOD9207728 Si02
#       7
#     8   8   8   8   8   8   8
#     4  11  23  41  65  94 128 168 211 257 314 376
#     4  10  23  42  63  90 127 169 211 258 314 373
#     4  11  23  41  65  95 127 163 211 261 313 376
#     4  10  21  37  59  89 126 168 212 258 312 371
#     4  10  24  44  65  93 125 164 213 262 315 374
#     4  12  26  44  67  95 128 165 210 262 319 380
#     4  11  22  37  60  93 128 166 211 258 311 372
#
# _framework density 19.594411999999998
#
# number of rings (size 3 to 8) (size 9 to 14) (size 15 to 20)
#    0.000    1.286    1.429    3.857    2.000    5.429 
#    0.000    0.000    0.000    0.000    0.000    0.000 
#    0.000    0.000    0.000    0.000    0.000    0.000 
#
# Total GULP energy -156634.550115 kJ/mol
# GULP energy per Si atom -5594.091076 kJ/mol
# Density = 1.954981 g / cm^3
# Si number density = 19.594412 Si / 1000 Ang^3
#
#
#
# Elastic Constant Matrix: (Units=GPa)
#
#
# Indices 1 2 3 4 5 6 
#
# 1 46.1676 16.2110 21.9546 0.0000 6.5789 0.0000
# 2 16.2110 63.2726 53.3344 0.0000 -1.6030 0.0000
# 3 21.9546 53.3344 154.0031 0.0000 7.5539 0.0000
# 4 0.0000 0.0000 0.0000 27.3897 0.0000 6.5208
# 5 6.5789 -1.6030 7.5539 0.0000 30.5286 0.0000
# 6 0.0000 0.0000 0.0000 6.5208 0.0000 38.0299
#
#
#
# Elastic Compliance Matrix: (Units=1/GPa)
#
#
# Indices 1 2 3 4 5 6 
#
# 1 0.024972 -0.005297 -0.001466 0.000000 -0.005297 0.000000
# 2 -0.005297 0.023742 -0.007678 0.000000 0.004288 0.000000
# 3 -0.001466 -0.007678 0.009481 0.000000 -0.002433 0.000000
# 4 0.000000 0.000000 0.000000 0.038064 0.000000 -0.006527
# 5 -0.005297 0.004288 -0.002433 0.000000 0.034725 0.000000
# 6 0.000000 0.000000 0.000000 -0.006527 0.000000 0.027414
#
#
# Mechanical properties :
#
#
# Convention : Reuss Voigt Hill
#
# Bulk Modulus (GPa) = 34.11292 49.60482 41.85887
# Shear Modulus (GPa) = 25.37442 30.65253 28.01348
#
# Velocity S-wave (km/s) = 3.60249 3.95948 3.78520
# Velocity P-wave (km/s) = 5.89502 6.80250 6.36495
#
# Compressibility (1/GPa) = 0.02931440
#
# Stress axis : x y z
#
# Youngs Moduli (GPa) = 40.04504 42.11954 105.47873
#
# Poissons Ratio (x) = 0.22309 0.15462
# Poissons Ratio (y) = 0.21210 0.80982
# Poissons Ratio (z) = 0.05870 0.32338
#
# Static dielectric constant tensor:
#      x y z
#    x 1.647310 0.000000 -0.009230 
#    y 0.000000 1.656760 0.000000 
#    z -0.009230 0.000000 1.691170 
# 
# From -- ./inp_files/181014.got.cif
#   From: 2010.05.17/outbox.cif.g08.bks.cpg/sg12_91_cif.got.tgz:181014.got - 2010.06.03 13:09:07.
