data_PCOD9207207
_publ_section_title
;
Structure prediction by ZEFSAII (Michael W. Deem and Ramdas Pophale) SiO2 
 PCOD9207207
Probable space group: C 2/M
;
_chemical_formula_sum "Si O2"
_cell_formula_units_Z 56
_cell_length_a 29.272529
_cell_length_b 16.537784
_cell_length_c 10.345774
_cell_angle_alpha 90.000000
_cell_angle_beta 32.009608
_cell_angle_gamma 90.000000
_cell_volume 2654.769268
_symmetry_space_group_name_H-M "C 2/M"
_symmetry_group_IT_number 12
_symmetry_cell_setting 'monoclinic'
loop_
_space_group_symop_operation_xyz
x,y,z
-x,y,-z
-x,-y,-z
x,-y,z
1/2+x,1/2+y,z
1/2-x,1/2+y,-z
1/2-x,1/2-y,-z
1/2+x,1/2-y,z
loop_
_atom_site_type_symbol
_atom_site_label
_atom_site_fract_x
_atom_site_fract_y
_atom_site_fract_z
Si Si1 0.625357 0.375079 0.097441
Si Si2 0.682939 0.092676 0.454569
Si Si3 0.774284 0.598236 0.368171
Si Si4 0.882204 0.319951 0.891019
Si Si5 0.422499 0.182722 0.509134
Si Si6 0.908624 0.092415 0.248567
Si Si7 0.565797 0.376984 0.524421
O O1 0.627396 0.277256 0.083342
O O2 0.611546 0.400323 0.280440
O O3 0.535820 0.399203 0.242334
O O4 0.715528 0.405288 0.826102
O O5 0.676854 0.120090 0.617732
O O6 0.627586 0.146149 0.490574
O O7 0.653470 0.000000 0.516113
O O8 0.773337 0.500000 0.360998
O O9 0.675754 0.628604 0.613218
O O10 0.815473 0.636636 0.143252
O O11 0.876199 0.341835 0.754325
O O12 0.977846 0.341775 0.712422
O O13 0.425391 0.279796 0.493118
O O14 0.897194 0.091218 0.430466
O O15 0.914097 0.000000 0.186912
O O16 0.000000 0.133343 0.000000
#
# Coordination Sequence:
#
# PCOD9207207 Si02
#       7
#     8   8   8   8   8   8   8
#     4   9  20  37  60  86 118 152 191 243 296 347
#     4  11  24  39  56  86 123 156 191 242 300 348
#     4  10  23  39  57  84 118 155 195 239 290 350
#     4   9  20  41  63  84 115 153 197 242 288 347
#     4   9  21  40  61  87 117 152 193 244 295 343
#     4  10  21  37  57  83 120 160 195 235 288 349
#     4   9  19  38  59  86 116 153 197 240 291 346
#
# _framework density 21.094111999999999
#
# number of rings (size 3 to 8) (size 9 to 14) (size 15 to 20)
#    0.000    2.429    0.000    2.571    4.000    5.714 
#    5.143    4.286    0.000    0.000    0.000    0.000 
#    0.000    0.000    0.000    0.000    0.000    0.000 
#
# Total GULP energy -156395.648844 kJ/mol
# GULP energy per Si atom -5585.558887 kJ/mol
# Density = 2.104610 g / cm^3
# Si number density = 21.094112 Si / 1000 Ang^3
#
#
#
# Elastic Constant Matrix: (Units=GPa)
#
#
# Indices 1 2 3 4 5 6 
#
# 1 110.6386 39.8250 22.7445 0.0000 9.9522 0.0000
# 2 39.8250 38.7892 24.1770 0.0000 0.0199 0.0000
# 3 22.7445 24.1770 75.0266 0.0000 4.3613 0.0000
# 4 0.0000 0.0000 0.0000 20.5774 0.0000 9.3692
# 5 9.9522 0.0199 4.3613 0.0000 15.8348 0.0000
# 6 0.0000 0.0000 0.0000 9.3692 0.0000 17.1400
#
#
#
# Elastic Compliance Matrix: (Units=1/GPa)
#
#
# Indices 1 2 3 4 5 6 
#
# 1 0.015841 -0.017066 0.001296 0.000000 -0.010291 0.000000
# 2 -0.017066 0.050775 -0.012000 0.000000 0.013967 0.000000
# 3 0.001296 -0.012000 0.017123 0.000000 -0.005515 0.000000
# 4 0.000000 0.000000 0.000000 0.064700 0.000000 -0.035366
# 5 -0.010291 0.013967 -0.005515 0.000000 0.071122 0.000000
# 6 0.000000 0.000000 0.000000 -0.035366 0.000000 0.077675
#
#
# Mechanical properties :
#
#
# Convention : Reuss Voigt Hill
#
# Bulk Modulus (GPa) = 35.46423 44.21639 39.84031
# Shear Modulus (GPa) = 13.80543 19.89098 16.84820
#
# Velocity S-wave (km/s) = 2.56103 3.07410 2.82922
# Velocity P-wave (km/s) = 5.05906 5.79717 5.44064
#
# Compressibility (1/GPa) = 0.02819742
#
# Stress axis : x y z
#
# Youngs Moduli (GPa) = 63.12778 19.69487 58.39928
#
# Poissons Ratio (x) = 0.33611 -0.07566
# Poissons Ratio (y) = 1.07734 0.70080
# Poissons Ratio (z) = -0.08178 0.23634
#
# Static dielectric constant tensor:
#      x y z
#    x 1.740910 0.000000 -0.004140 
#    y 0.000000 1.743220 0.000000 
#    z -0.004140 0.000000 1.763250 
# 
# From -- ./inp_files/105943.got.cif
#   From: 2010.05.17/outbox.cif.g08.bks.cpg/sg12_53_cif.got.tgz:105943.got - 2010.06.03 13:09:07.
