data_PCOD9207712
_publ_section_title
;
Structure prediction by ZEFSAII (Michael W. Deem and Ramdas Pophale) SiO2 
 PCOD9207712
Probable space group: C 2/M
;
_chemical_formula_sum "Si O2"
_cell_formula_units_Z 64
_cell_length_a 12.231174
_cell_length_b 27.261790
_cell_length_c 9.692750
_cell_angle_alpha 90.000000
_cell_angle_beta 88.980707
_cell_angle_gamma 90.000000
_cell_volume 3231.474971
_symmetry_space_group_name_H-M "C 2/M"
_symmetry_group_IT_number 12
_symmetry_cell_setting 'monoclinic'
loop_
_space_group_symop_operation_xyz
x,y,z
-x,y,-z
-x,-y,-z
x,-y,z
1/2+x,1/2+y,z
1/2-x,1/2+y,-z
1/2-x,1/2-y,-z
1/2+x,1/2-y,z
loop_
_atom_site_type_symbol
_atom_site_label
_atom_site_fract_x
_atom_site_fract_y
_atom_site_fract_z
Si Si1 0.384995 0.340609 0.871498
Si Si2 0.879010 0.442386 0.963800
Si Si3 0.822671 0.944166 0.832725
Si Si4 0.384593 0.199997 0.571100
Si Si5 0.627335 0.442115 0.491061
Si Si6 0.719546 0.885562 0.295477
Si Si7 0.886893 0.194906 0.178495
Si Si8 0.741718 0.219395 0.696956
O O1 0.390117 0.398803 0.894309
O O2 0.491865 0.322690 0.788725
O O3 0.279358 0.325776 0.787618
O O4 0.378837 0.311144 0.014151
O O5 0.889896 0.500000 0.928433
O O6 0.824103 0.415742 0.834400
O O7 0.796897 0.439232 0.096020
O O8 0.000000 0.423601 0.000000
O O9 0.830521 0.937638 0.667482
O O10 0.861107 0.000000 0.862356
O O11 0.500000 0.211229 0.500000
O O12 0.379225 0.146174 0.637276
O O13 0.295565 0.200899 0.450569
O O14 0.342313 0.242404 0.674706
O O15 0.500000 0.424246 0.500000
O O16 0.624057 0.500000 0.526057
O O17 0.711040 0.416431 0.594572
O O18 0.802584 0.843683 0.242719
O O19 0.853680 0.248382 0.231563
#
# Coordination Sequence:
#
# PCOD9207712 Si02
#       8
#     8   8   8   8   8   8   8   8
#     4  11  20  37  61  85 121 164 198 253 308 366
#     4  10  22  41  62  85 120 166 212 262 319 375
#     4  10  21  39  61  90 125 162 208 256 310 377
#     4  10  22  38  57  87 116 154 205 252 303 374
#     4  10  21  37  59  89 123 160 205 255 312 375
#     4  11  21  38  59  87 123 156 204 261 310 374
#     4  10  22  36  56  90 120 153 207 250 300 376
#     4  10  21  38  60  81 121 162 199 251 308 360
#
# _framework density 19.805195999999999
#
# number of rings (size 3 to 8) (size 9 to 14) (size 15 to 20)
#    0.000    1.750    1.250    3.000    0.000    2.000 
#    0.000    5.000    0.000    3.750    0.000    0.000 
#    0.000    0.000    0.000    0.000    0.000    0.000 
#
# Total GULP energy -178538.708834 kJ/mol
# GULP energy per Si atom -5579.334651 kJ/mol
# Density = 1.976012 g / cm^3
# Si number density = 19.805196 Si / 1000 Ang^3
#
#
#
# Elastic Constant Matrix: (Units=GPa)
#
#
# Indices 1 2 3 4 5 6 
#
# 1 66.1967 27.4057 16.2306 0.0000 -11.0904 0.0000
# 2 27.4057 81.7948 28.6367 0.0000 -0.1826 0.0000
# 3 16.2306 28.6367 73.3614 0.0000 -1.5022 0.0000
# 4 0.0000 0.0000 0.0000 27.4819 0.0000 3.4255
# 5 -11.0904 -0.1826 -1.5022 0.0000 30.9266 0.0000
# 6 0.0000 0.0000 0.0000 3.4255 0.0000 14.5844
#
#
#
# Elastic Compliance Matrix: (Units=1/GPa)
#
#
# Indices 1 2 3 4 5 6 
#
# 1 0.019052 -0.005723 -0.001844 0.000000 0.006709 0.000000
# 2 -0.005723 0.015881 -0.004978 0.000000 -0.002200 0.000000
# 3 -0.001844 -0.004978 0.015984 0.000000 0.000086 0.000000
# 4 0.000000 0.000000 0.000000 0.037485 0.000000 -0.008804
# 5 0.006709 -0.002200 0.000086 0.000000 0.034732 0.000000
# 6 0.000000 0.000000 0.000000 -0.008804 0.000000 0.070634
#
#
# Mechanical properties :
#
#
# Convention : Reuss Voigt Hill
#
# Bulk Modulus (GPa) = 38.71853 40.65544 39.68699
# Shear Modulus (GPa) = 21.98127 24.53727 23.25927
#
# Velocity S-wave (km/s) = 3.33509 3.52366 3.43067
# Velocity P-wave (km/s) = 5.86708 6.09321 5.98121
#
# Compressibility (1/GPa) = 0.02582742
#
# Stress axis : x y z
#
# Youngs Moduli (GPa) = 52.48843 62.96768 62.56244
#
# Poissons Ratio (x) = 0.36036 0.11535
# Poissons Ratio (y) = 0.30039 0.31144
# Poissons Ratio (z) = 0.09678 0.31346
#
# Static dielectric constant tensor:
#      x y z
#    x 1.715470 0.000000 -0.017300 
#    y 0.000000 1.696880 0.000000 
#    z -0.017300 0.000000 1.692930 
# 
# From -- ./inp_files/54690.got.cif
#   From: 2010.05.17/outbox.cif.g08.bks.cpg/sg12_28_cif.got.tgz:54690.got - 2010.06.03 13:09:07.
