data_PCOD9207890
_publ_section_title
;
Structure prediction by ZEFSAII (Michael W. Deem and Ramdas Pophale) SiO2 
 PCOD9207890
Probable space group: C 2/M
;
_chemical_formula_sum "Si O2"
_cell_formula_units_Z 56
_cell_length_a 23.317912
_cell_length_b 8.777558
_cell_length_c 14.791547
_cell_angle_alpha 90.000000
_cell_angle_beta 68.948563
_cell_angle_gamma 90.000000
_cell_volume 2825.392828
_symmetry_space_group_name_H-M "C 2/M"
_symmetry_group_IT_number 12
_symmetry_cell_setting 'monoclinic'
loop_
_space_group_symop_operation_xyz
x,y,z
-x,y,-z
-x,-y,-z
x,-y,z
1/2+x,1/2+y,z
1/2-x,1/2+y,-z
1/2-x,1/2-y,-z
1/2+x,1/2-y,z
loop_
_atom_site_type_symbol
_atom_site_label
_atom_site_fract_x
_atom_site_fract_y
_atom_site_fract_z
Si Si1 0.939785 0.318033 0.592992
Si Si2 0.914334 0.180875 0.795531
Si Si3 0.174726 0.182134 0.450376
Si Si4 0.189550 0.818733 0.648673
Si Si5 0.327985 0.818788 0.158675
Si Si6 0.278663 0.818367 0.892092
Si Si7 0.056351 0.318260 0.033768
O O1 0.932333 0.500000 0.602183
O O2 0.946028 0.250603 0.689507
O O3 0.879668 0.247093 0.579781
O O4 0.000000 0.283134 0.500000
O O5 0.845634 0.249439 0.838621
O O6 0.945756 0.230122 0.871208
O O7 0.911233 0.000000 0.789947
O O8 0.163232 0.213037 0.563578
O O9 0.240267 0.258194 0.391381
O O10 0.179998 0.000000 0.435179
O O11 0.155615 0.735843 0.750142
O O12 0.189118 0.000000 0.662789
O O13 0.267015 0.731719 0.161594
O O14 0.317401 0.000000 0.163801
O O15 0.381219 0.783886 0.056329
O O16 0.282525 0.000000 0.897136
O O17 0.250000 0.750000 0.000000
O O18 0.055889 0.500000 0.052509
O O19 0.000000 0.282746 0.000000
#
# Coordination Sequence:
#
# PCOD9207890 Si02
#       7
#     8   8   8   8   8   8   8
#     4  11  25  44  66  90 121 164 211 259 311 371
#     4  12  25  42  66  94 126 164 205 258 315 370
#     4  10  21  39  62  90 123 158 202 255 310 365
#     4  10  21  37  60  89 124 161 199 250 308 369
#     4  11  22  37  60  90 124 162 204 251 303 368
#     4  12  23  38  62  92 127 162 203 254 309 370
#     4  10  23  43  64  87 121 164 207 252 302 364
#
# _framework density 19.820252
#
# number of rings (size 3 to 8) (size 9 to 14) (size 15 to 20)
#    0.000    1.143    1.429    5.143    0.000    4.857 
#    0.000    4.286    0.000    0.000    0.000    0.000 
#    0.000    0.000    0.000    0.000    0.000    0.000 
#
# Total GULP energy -156678.581096 kJ/mol
# GULP energy per Si atom -5595.663611 kJ/mol
# Density = 1.977514 g / cm^3
# Si number density = 19.820252 Si / 1000 Ang^3
#
#
#
# Elastic Constant Matrix: (Units=GPa)
#
#
# Indices 1 2 3 4 5 6 
#
# 1 57.6090 28.3580 23.1658 0.0000 9.4551 0.0000
# 2 28.3580 74.8582 58.4608 0.0000 1.9198 0.0000
# 3 23.1658 58.4608 144.6893 0.0000 12.1943 0.0000
# 4 0.0000 0.0000 0.0000 35.9797 0.0000 9.1451
# 5 9.4551 1.9198 12.1943 0.0000 20.8837 0.0000
# 6 0.0000 0.0000 0.0000 9.1451 0.0000 24.1492
#
#
#
# Elastic Compliance Matrix: (Units=1/GPa)
#
#
# Indices 1 2 3 4 5 6 
#
# 1 0.023212 -0.009203 0.000859 0.000000 -0.010164 0.000000
# 2 -0.009203 0.023341 -0.008548 0.000000 0.007012 0.000000
# 3 0.000859 -0.008548 0.010722 0.000000 -0.005864 0.000000
# 4 0.000000 0.000000 0.000000 0.030754 0.000000 -0.011646
# 5 -0.010164 0.007012 -0.005864 0.000000 0.055265 0.000000
# 6 0.000000 0.000000 0.000000 -0.011646 0.000000 0.045820
#
#
# Mechanical properties :
#
#
# Convention : Reuss Voigt Hill
#
# Bulk Modulus (GPa) = 42.57271 55.23619 48.90445
# Shear Modulus (GPa) = 21.67056 27.34730 24.50893
#
# Velocity S-wave (km/s) = 3.31018 3.71855 3.52029
# Velocity P-wave (km/s) = 6.01130 6.80925 6.42268
#
# Compressibility (1/GPa) = 0.02348922
#
# Stress axis : x y z
#
# Youngs Moduli (GPa) = 43.08205 42.84331 93.26682
#
# Poissons Ratio (x) = 0.39429 -0.08009
# Poissons Ratio (y) = 0.39649 0.79727
# Poissons Ratio (z) = -0.03700 0.36624
#
# Static dielectric constant tensor:
#      x y z
#    x 1.673150 0.000000 0.014700 
#    y 0.000000 1.658340 0.000000 
#    z 0.014700 0.000000 1.711590 
# 
# From -- ./inp_files/237424.got.cif
#   From: 2010.05.17/outbox.cif.g08.bks.cpg/sg12_119_cif.got.tgz:237424.got - 2010.06.03 13:09:07.
