data_PCOD9207166
_publ_section_title
;
Structure prediction by ZEFSAII (Michael W. Deem and Ramdas Pophale) SiO2 
 PCOD9207166
Probable space group: C 2/M
;
_chemical_formula_sum "Si O2"
_cell_formula_units_Z 56
_cell_length_a 12.610295
_cell_length_b 14.729885
_cell_length_c 14.803298
_cell_angle_alpha 90.000000
_cell_angle_beta 93.844654
_cell_angle_gamma 90.000000
_cell_volume 2743.497757
_symmetry_space_group_name_H-M "C 2/M"
_symmetry_group_IT_number 12
_symmetry_cell_setting 'monoclinic'
loop_
_space_group_symop_operation_xyz
x,y,z
-x,y,-z
-x,-y,-z
x,-y,z
1/2+x,1/2+y,z
1/2-x,1/2+y,-z
1/2-x,1/2-y,-z
1/2+x,1/2-y,z
loop_
_atom_site_type_symbol
_atom_site_label
_atom_site_fract_x
_atom_site_fract_y
_atom_site_fract_z
Si Si1 0.633415 0.266386 0.529749
Si Si2 0.749770 0.893211 0.332734
Si Si3 0.179660 0.390764 0.129787
Si Si4 0.033372 0.710542 0.836532
Si Si5 0.973948 0.688116 0.626951
Si Si6 0.269933 0.106838 0.069015
Si Si7 0.531724 0.400203 0.106644
O O1 0.750000 0.250000 0.500000
O O2 0.657957 0.340411 0.608229
O O3 0.580439 0.176390 0.572638
O O4 0.567008 0.277346 0.431977
O O5 0.737762 0.864399 0.226650
O O6 0.632268 0.872648 0.369804
O O7 0.768941 0.000000 0.337246
O O8 0.161752 0.500000 0.134129
O O9 0.067273 0.338605 0.121172
O O10 0.238482 0.372151 0.038605
O O11 0.139573 0.666735 0.880995
O O12 0.015715 0.695631 0.729865
O O13 0.026979 0.817191 0.852384
O O14 0.157908 0.117852 0.112462
O O15 0.299009 0.000000 0.076739
O O16 0.508573 0.500000 0.144208
O O17 0.500000 0.402904 0.000000
#
# Coordination Sequence:
#
# PCOD9207166 Si02
#       7
#     8   8   8   8   8   8   8
#     4   9  18  37  57  75 105 143 177 217 277 339
#     4   9  18  34  58  85 110 140 184 231 276 331
#     4   9  18  33  55  86 118 146 185 238 285 327
#     4  11  21  34  58  84 110 148 194 235 278 335
#     4   9  20  36  56  80 110 144 180 228 286 336
#     4  10  21  37  57  82 116 155 191 231 279 330
#     4  10  23  40  54  76 115 156 193 234 278 327
#
# _framework density 20.411899999999999
#
# number of rings (size 3 to 8) (size 9 to 14) (size 15 to 20)
#    0.000    2.429    0.000    1.714    0.000    8.571 
#    0.000   10.000    0.000    4.286    0.000    0.000 
#    0.000    0.000    0.000    0.000    0.000    0.000 
#
# Total GULP energy -155957.380653 kJ/mol
# GULP energy per Si atom -5569.906452 kJ/mol
# Density = 2.036544 g / cm^3
# Si number density = 20.411900 Si / 1000 Ang^3
#
#
#
# Elastic Constant Matrix: (Units=GPa)
#
#
# Indices 1 2 3 4 5 6 
#
# 1 60.0567 35.6017 21.3829 0.0000 8.8172 0.0000
# 2 35.6017 58.0234 28.6068 0.0000 13.1184 0.0000
# 3 21.3829 28.6068 73.8592 0.0000 17.3472 0.0000
# 4 0.0000 0.0000 0.0000 19.2887 0.0000 10.8092
# 5 8.8172 13.1184 17.3472 0.0000 35.3007 0.0000
# 6 0.0000 0.0000 0.0000 10.8092 0.0000 22.6529
#
#
#
# Elastic Compliance Matrix: (Units=1/GPa)
#
#
# Indices 1 2 3 4 5 6 
#
# 1 0.026339 -0.015320 -0.001677 0.000000 -0.000061 0.000000
# 2 -0.015320 0.030825 -0.006457 0.000000 -0.004456 0.000000
# 3 -0.001677 -0.006457 0.017934 0.000000 -0.005994 0.000000
# 4 0.000000 0.000000 0.000000 0.070767 0.000000 -0.033768
# 5 -0.000061 -0.004456 -0.005994 0.000000 0.032945 0.000000
# 6 0.000000 0.000000 0.000000 -0.033768 0.000000 0.060257
#
#
# Mechanical properties :
#
#
# Convention : Reuss Voigt Hill
#
# Bulk Modulus (GPa) = 35.47533 40.34691 37.91112
# Shear Modulus (GPa) = 16.92777 22.53832 19.73305
#
# Velocity S-wave (km/s) = 2.88290 3.32652 3.11262
# Velocity P-wave (km/s) = 5.33844 5.87908 5.61527
#
# Compressibility (1/GPa) = 0.02818860
#
# Stress axis : x y z
#
# Youngs Moduli (GPa) = 37.96664 32.44072 55.76084
#
# Poissons Ratio (x) = 0.49700 0.09352
# Poissons Ratio (y) = 0.58165 0.36007
# Poissons Ratio (z) = 0.06368 0.20948
#
# Static dielectric constant tensor:
#      x y z
#    x 1.849890 0.000000 -0.034930 
#    y 0.000000 1.724930 0.000000 
#    z -0.034930 0.000000 1.758340 
# 
# From -- ./inp_files/204994.got.cif
#   From: 2010.05.17/outbox.cif.g08.bks.cpg/sg12_103_cif.got.tgz:204994.got - 2010.06.03 13:09:07.
