data_PCOD9207597
_publ_section_title
;
Structure prediction by ZEFSAII (Michael W. Deem and Ramdas Pophale) SiO2 
 PCOD9207597
Probable space group: C 2/M
;
_chemical_formula_sum "Si O2"
_cell_formula_units_Z 48
_cell_length_a 19.753637
_cell_length_b 14.324697
_cell_length_c 16.745567
_cell_angle_alpha 90.000000
_cell_angle_beta 148.784088
_cell_angle_gamma 90.000000
_cell_volume 2455.748368
_symmetry_space_group_name_H-M "C 2/M"
_symmetry_group_IT_number 12
_symmetry_cell_setting 'monoclinic'
loop_
_space_group_symop_operation_xyz
x,y,z
-x,y,-z
-x,-y,-z
x,-y,z
1/2+x,1/2+y,z
1/2-x,1/2+y,-z
1/2-x,1/2-y,-z
1/2+x,1/2-y,z
loop_
_atom_site_type_symbol
_atom_site_label
_atom_site_fract_x
_atom_site_fract_y
_atom_site_fract_z
Si Si1 0.531749 0.898493 0.938119
Si Si2 0.092529 0.694093 0.693283
Si Si3 0.658451 0.603893 0.777306
Si Si4 0.453925 0.698470 0.860642
Si Si5 0.675571 0.111585 0.606584
Si Si6 0.181537 0.106436 0.989224
O O1 0.461178 0.805335 0.837241
O O2 0.497236 0.000000 0.867255
O O3 0.500000 0.903370 0.000000
O O4 0.687370 0.886042 0.086315
O O5 0.086857 0.804840 0.672623
O O6 0.150739 0.644890 0.672831
O O7 0.195547 0.671730 0.866611
O O8 0.951225 0.650967 0.566812
O O9 0.617084 0.500000 0.708301
O O10 0.647189 0.607578 0.861613
O O11 0.310387 0.655500 0.712825
O O12 0.500000 0.698350 0.000000
O O13 0.558730 0.639627 0.916856
O O14 0.679863 0.000000 0.607823
O O15 0.217312 0.000000 0.047000
#
# Coordination Sequence:
#
# PCOD9207597 Si02
#       6
#     8   8   8   8   8   8
#     4   9  17  32  54  81 109 142 186 234 275 321
#     4  11  20  37  57  82 115 153 186 229 287 339
#     4  10  21  37  59  86 114 149 193 237 278 334
#     4  11  20  34  57  85 113 148 190 236 284 332
#     4  11  23  37  56  86 120 146 184 238 291 338
#     4  11  21  34  59  86 115 150 191 234 281 338
#
# _framework density 19.545977000000001
#
# number of rings (size 3 to 8) (size 9 to 14) (size 15 to 20)
#    0.000    1.500    3.333    4.000    0.000    0.667 
#    0.000    3.333    0.000    0.000    0.000    0.000 
#    0.000    0.000    0.000    0.000    0.000    0.000 
#
# Total GULP energy -134008.356702 kJ/mol
# GULP energy per Si atom -5583.681529 kJ/mol
# Density = 1.950149 g / cm^3
# Si number density = 19.545977 Si / 1000 Ang^3
#
#
#
# Elastic Constant Matrix: (Units=GPa)
#
#
# Indices 1 2 3 4 5 6 
#
# 1 57.1501 3.7135 17.2027 0.0000 4.8042 0.0000
# 2 3.7135 177.7117 32.3632 0.0000 14.5139 0.0000
# 3 17.2027 32.3632 56.9642 0.0000 24.4768 0.0000
# 4 0.0000 0.0000 0.0000 20.1152 0.0000 11.0168
# 5 4.8042 14.5139 24.4768 0.0000 17.6672 0.0000
# 6 0.0000 0.0000 0.0000 11.0168 0.0000 24.4581
#
#
#
# Elastic Compliance Matrix: (Units=1/GPa)
#
#
# Indices 1 2 3 4 5 6 
#
# 1 0.019683 0.000722 -0.009389 0.000000 0.007062 0.000000
# 2 0.000722 0.006305 -0.003682 0.000000 -0.000275 0.000000
# 3 -0.009389 -0.003682 0.049631 0.000000 -0.063182 0.000000
# 4 0.000000 0.000000 0.000000 0.065994 0.000000 -0.029726
# 5 0.007062 -0.000275 -0.063182 0.000000 0.142443 0.000000
# 6 0.000000 0.000000 0.000000 -0.029726 0.000000 0.054276
#
#
# Mechanical properties :
#
#
# Convention : Reuss Voigt Hill
#
# Bulk Modulus (GPa) = 19.63822 44.26499 31.95161
# Shear Modulus (GPa) = 13.15776 28.35120 20.75448
#
# Velocity S-wave (km/s) = 2.59737 3.81266 3.26211
# Velocity P-wave (km/s) = 4.36624 6.48672 5.52909
#
# Compressibility (1/GPa) = 0.05092110
#
# Stress axis : x y z
#
# Youngs Moduli (GPa) = 50.80446 158.60499 20.14882
#
# Poissons Ratio (x) = -0.11447 0.18917
# Poissons Ratio (y) = -0.03667 0.07419
# Poissons Ratio (z) = 0.47699 0.58397
#
# Static dielectric constant tensor:
#      x y z
#    x 1.658560 0.000000 -0.028490 
#    y 0.000000 1.745930 0.000000 
#    z -0.028490 0.000000 1.705970 
# 
# From -- ./inp_files/225439.got.cif
#   From: 2010.05.17/outbox.cif.g08.bks.cpg/sg12_113_cif.got.tgz:225439.got - 2010.06.03 13:09:07.
