data_PCOD9207873
_publ_section_title
;
Structure prediction by ZEFSAII (Michael W. Deem and Ramdas Pophale) SiO2 
 PCOD9207873
Probable space group: C 2/M
;
_chemical_formula_sum "Si O2"
_cell_formula_units_Z 64
_cell_length_a 13.926725
_cell_length_b 11.607027
_cell_length_c 20.895727
_cell_angle_alpha 90.000000
_cell_angle_beta 112.690093
_cell_angle_gamma 90.000000
_cell_volume 3116.328212
_symmetry_space_group_name_H-M "C 2/M"
_symmetry_group_IT_number 12
_symmetry_cell_setting 'monoclinic'
loop_
_space_group_symop_operation_xyz
x,y,z
-x,y,-z
-x,-y,-z
x,-y,z
1/2+x,1/2+y,z
1/2-x,1/2+y,-z
1/2-x,1/2-y,-z
1/2+x,1/2-y,z
loop_
_atom_site_type_symbol
_atom_site_label
_atom_site_fract_x
_atom_site_fract_y
_atom_site_fract_z
Si Si1 0.233248 0.334591 0.219208
Si Si2 0.648169 0.373220 0.620902
Si Si3 0.292177 0.870902 0.538885
Si Si4 0.005210 0.632639 0.851523
Si Si5 0.145158 0.370715 0.770598
Si Si6 0.540244 0.870058 0.606368
Si Si7 0.414164 0.698568 0.023551
Si Si8 0.257051 0.877717 0.924726
O O1 0.309045 0.372294 0.295597
O O2 0.252058 0.198657 0.219230
O O3 0.263168 0.377158 0.156256
O O4 0.114209 0.363468 0.201231
O O5 0.595196 0.500000 0.596806
O O6 0.746849 0.371346 0.599055
O O7 0.587127 0.252039 0.592938
O O8 0.250000 0.750000 0.500000
O O9 0.416568 0.866129 0.567761
O O10 0.261326 0.000000 0.504279
O O11 0.030641 0.500000 0.871624
O O12 0.080500 0.675386 0.814238
O O13 0.022656 0.708894 0.917983
O O14 0.173201 0.500000 0.793412
O O15 0.072598 0.369191 0.689320
O O16 0.574284 0.000000 0.590760
O O17 0.344916 0.629657 0.056934
O O18 0.500000 0.640632 0.000000
O O19 0.329624 0.769839 0.960471
O O20 0.310819 0.000000 0.953245
#
# Coordination Sequence:
#
# PCOD9207873 Si02
#       8
#     8   8   8   8   8   8   8   8
#     4  11  20  35  60  86 112 141 189 239 289 337
#     4  10  21  37  60  89 120 152 193 242 293 341
#     4  10  22  40  61  89 122 160 197 236 283 340
#     4  11  20  33  56  80 105 142 185 230 281 334
#     4   9  19  36  57  81 112 148 184 227 280 340
#     4   9  19  37  60  85 118 155 195 234 282 344
#     4  11  23  38  53  77 109 142 186 234 280 342
#     4  11  23  38  56  78 107 144 185 235 289 340
#
# _framework density 20.536988999999998
#
# number of rings (size 3 to 8) (size 9 to 14) (size 15 to 20)
#    0.000    1.750    2.500    2.250    0.000    4.250 
#    0.000    3.125    0.000    3.000    0.000    0.000 
#    0.000    0.000    0.000    0.000    0.000    0.000 
#
# Total GULP energy -178282.861560 kJ/mol
# GULP energy per Si atom -5571.339424 kJ/mol
# Density = 2.049025 g / cm^3
# Si number density = 20.536989 Si / 1000 Ang^3
#
#
#
# Elastic Constant Matrix: (Units=GPa)
#
#
# Indices 1 2 3 4 5 6 
#
# 1 67.5504 33.1731 6.2790 0.0000 -9.7202 0.0000
# 2 33.1731 136.3675 27.3758 0.0000 7.5846 0.0000
# 3 6.2790 27.3758 51.4228 0.0000 -8.5701 0.0000
# 4 0.0000 0.0000 0.0000 -11.0434 0.0000 11.3599
# 5 -9.7202 7.5846 -8.5701 0.0000 27.5748 0.0000
# 6 0.0000 0.0000 0.0000 11.3599 0.0000 17.8055
#
#
#
# Elastic Compliance Matrix: (Units=1/GPa)
#
#
# Indices 1 2 3 4 5 6 
#
# 1 0.018506 -0.005395 0.002053 0.000000 0.008646 0.000000
# 2 -0.005395 0.010182 -0.005849 0.000000 -0.006520 0.000000
# 3 0.002053 -0.005849 0.023938 0.000000 0.009772 0.000000
# 4 0.000000 0.000000 0.000000 -0.054672 0.000000 0.034881
# 5 0.008646 -0.006520 0.009772 0.000000 0.044143 0.000000
# 6 0.000000 0.000000 0.000000 0.034881 0.000000 0.033909
#
#
# Mechanical properties :
#
#
# Convention : Reuss Voigt Hill
#
# Bulk Modulus (GPa) = 29.20034 43.22187 36.21110
# Shear Modulus (GPa) = 47.25756 19.43489 33.34623
#
# Velocity S-wave (km/s) = 4.80218 3.07959 4.03391
# Velocity P-wave (km/s) = 6.70799 5.80834 6.27431
#
# Compressibility (1/GPa) = 0.03424617
#
# Stress axis : x y z
#
# Youngs Moduli (GPa) = 54.03544 98.20990 41.77429
#
# Poissons Ratio (x) = 0.52984 -0.08577
# Poissons Ratio (y) = 0.29152 0.24432
# Poissons Ratio (z) = -0.11095 0.57439
#
# Static dielectric constant tensor:
#      x y z
#    x 1.705310 0.000000 -0.016110 
#    y 0.000000 1.810630 0.000000 
#    z -0.016110 0.000000 1.723970 
# 
# From -- ./inp_files/309953.got.cif
#   From: 2010.05.17/outbox.cif.g08.bks.cpg/sg12_155_cif.got.tgz:309953.got - 2010.06.03 13:09:07.
