data_PCOD9207374
_publ_section_title
;
Structure prediction by ZEFSAII (Michael W. Deem and Ramdas Pophale) SiO2 
 PCOD9207374
Probable space group: C 2/M
;
_chemical_formula_sum "Si O2"
_cell_formula_units_Z 56
_cell_length_a 10.058399
_cell_length_b 9.064795
_cell_length_c 31.534022
_cell_angle_alpha 90.000000
_cell_angle_beta 104.351274
_cell_angle_gamma 90.000000
_cell_volume 2785.465536
_symmetry_space_group_name_H-M "C 2/M"
_symmetry_group_IT_number 12
_symmetry_cell_setting 'monoclinic'
loop_
_space_group_symop_operation_xyz
x,y,z
-x,y,-z
-x,-y,-z
x,-y,z
1/2+x,1/2+y,z
1/2-x,1/2+y,-z
1/2-x,1/2-y,-z
1/2+x,1/2-y,z
loop_
_atom_site_type_symbol
_atom_site_label
_atom_site_fract_x
_atom_site_fract_y
_atom_site_fract_z
Si Si1 0.157281 0.670902 0.027659
Si Si2 0.064995 0.823935 0.831786
Si Si3 0.403137 0.322762 0.309466
Si Si4 0.368818 0.323059 0.404917
Si Si5 0.129736 0.176763 0.263083
Si Si6 0.325819 0.676012 0.545512
Si Si7 0.335795 0.324140 0.880716
O O1 0.199018 0.500000 0.035154
O O2 0.168232 0.749492 0.073780
O O3 0.250000 0.750000 0.000000
O O4 0.000000 0.676584 0.000000
O O5 0.206557 0.736681 0.844154
O O6 0.967923 0.788025 0.784317
O O7 0.976085 0.790008 0.866798
O O8 0.091996 0.000000 0.832808
O O9 0.396734 0.500000 0.306501
O O10 0.389487 0.280428 0.357518
O O11 0.275146 0.255800 0.274193
O O12 0.545120 0.278386 0.298481
O O13 0.345469 0.500000 0.405142
O O14 0.512205 0.291177 0.440100
O O15 0.246695 0.237809 0.418066
O O16 0.150419 0.000000 0.265016
O O17 0.310615 0.500000 0.542312
O O18 0.250000 0.750000 0.500000
O O19 0.325660 0.500000 0.883797
#
# Coordination Sequence:
#
# PCOD9207374 Si02
#       7
#     8   8   8   8   8   8   8
#     4  11  24  41  62  88 117 152 193 236 286 343
#     4  10  22  39  59  85 118 154 192 237 286 337
#     4  10  21  37  58  84 114 150 191 235 284 337
#     4  10  22  39  57  82 116 150 188 235 284 337
#     4  10  21  38  59  85 117 152 192 237 285 337
#     4  11  23  39  60  85 114 149 189 234 284 339
#     4  11  23  38  59  87 117 152 194 238 286 340
#
# _framework density 20.104358999999999
#
# number of rings (size 3 to 8) (size 9 to 14) (size 15 to 20)
#    0.000    1.571    0.000    4.286    0.000   10.286 
#    0.000    0.000    0.000    0.000    0.000    0.000 
#    0.000    0.000    0.000    0.000    0.000    0.000 
#
# Total GULP energy -156623.474105 kJ/mol
# GULP energy per Si atom -5593.695504 kJ/mol
# Density = 2.005860 g / cm^3
# Si number density = 20.104359 Si / 1000 Ang^3
#
#
#
# Elastic Constant Matrix: (Units=GPa)
#
#
# Indices 1 2 3 4 5 6 
#
# 1 59.0046 21.0354 -18.0450 0.0000 -2.8363 0.0000
# 2 21.0354 31.8423 4.0231 0.0000 -2.2121 0.0000
# 3 -18.0450 4.0231 52.1571 0.0000 -4.7222 0.0000
# 4 0.0000 0.0000 0.0000 33.4776 0.0000 4.4269
# 5 -2.8363 -2.2121 -4.7222 0.0000 35.7654 0.0000
# 6 0.0000 0.0000 0.0000 4.4269 0.0000 28.0662
#
#
#
# Elastic Compliance Matrix: (Units=1/GPa)
#
#
# Indices 1 2 3 4 5 6 
#
# 1 0.027377 -0.019328 0.011185 0.000000 0.002452 0.000000
# 2 -0.019328 0.045457 -0.010199 0.000000 -0.000068 0.000000
# 3 0.011185 -0.010199 0.024141 0.000000 0.003443 0.000000
# 4 0.000000 0.000000 0.000000 0.030507 0.000000 -0.004812
# 5 0.002452 -0.000068 0.003443 0.000000 0.028605 0.000000
# 6 0.000000 0.000000 0.000000 -0.004812 0.000000 0.036389
#
#
# Mechanical properties :
#
#
# Convention : Reuss Voigt Hill
#
# Bulk Modulus (GPa) = 16.58689 17.44788 17.01738
# Shear Modulus (GPa) = 20.05954 28.52787 24.29371
#
# Velocity S-wave (km/s) = 3.16218 3.77103 3.47995
# Velocity P-wave (km/s) = 4.64767 5.25913 4.96282
#
# Compressibility (1/GPa) = 0.06028859
#
# Stress axis : x y z
#
# Youngs Moduli (GPa) = 36.52733 21.99879 41.42349
#
# Poissons Ratio (x) = 0.42520 -0.46330
# Poissons Ratio (y) = 0.70600 0.42250
# Poissons Ratio (z) = -0.40854 0.22438
#
# Static dielectric constant tensor:
#      x y z
#    x 1.676110 0.000000 -0.011180 
#    y 0.000000 1.665970 0.000000 
#    z -0.011180 0.000000 1.717980 
# 
# From -- ./inp_files/357517.got.cif
#   From: 2010.05.17/outbox.cif.g08.bks.cpg/sg12_179_cif.got.tgz:357517.got - 2010.06.03 13:09:07.
