data_PCOD9207847
_publ_section_title
;
Structure prediction by ZEFSAII (Michael W. Deem and Ramdas Pophale) SiO2 
 PCOD9207847
Probable space group: C 2/M
;
_chemical_formula_sum "Si O2"
_cell_formula_units_Z 48
_cell_length_a 29.298269
_cell_length_b 7.706087
_cell_length_c 14.804486
_cell_angle_alpha 90.000000
_cell_angle_beta 39.249554
_cell_angle_gamma 90.000000
_cell_volume 2114.786639
_symmetry_space_group_name_H-M "C 2/M"
_symmetry_group_IT_number 12
_symmetry_cell_setting 'monoclinic'
loop_
_space_group_symop_operation_xyz
x,y,z
-x,y,-z
-x,-y,-z
x,-y,z
1/2+x,1/2+y,z
1/2-x,1/2+y,-z
1/2-x,1/2-y,-z
1/2+x,1/2-y,z
loop_
_atom_site_type_symbol
_atom_site_label
_atom_site_fract_x
_atom_site_fract_y
_atom_site_fract_z
Si Si1 0.103216 0.211275 0.080200
Si Si2 0.488629 0.700192 0.616896
Si Si3 0.072739 0.296433 0.930975
Si Si4 0.858634 0.704599 0.577174
Si Si5 0.767976 0.292771 0.368552
Si Si6 0.240787 0.292448 0.118331
O O1 0.070337 0.276182 0.224899
O O2 0.100297 0.000000 0.084573
O O3 0.064620 0.278350 0.050748
O O4 0.185997 0.267876 0.946504
O O5 0.500000 0.779766 0.500000
O O6 0.467350 0.500000 0.634750
O O7 0.564480 0.707052 0.553832
O O8 0.074856 0.500000 0.902319
O O9 0.151671 0.224766 0.781083
O O10 0.000000 0.219133 0.000000
O O11 0.873679 0.500000 0.561010
O O12 0.796332 0.727561 0.598065
O O13 0.826645 0.773818 0.721539
O O14 0.768962 0.500000 0.356251
O O15 0.750000 0.250000 0.500000
O O16 0.238099 0.500000 0.130109
O O17 0.250000 0.250000 0.000000
#
# Coordination Sequence:
#
# PCOD9207847 Si02
#       6
#     8   8   8   8   8   8
#     4  10  21  39  61  88 120 158 201 247 298 357
#     4  10  22  40  62  89 125 166 206 250 304 364
#     4  10  23  42  63  90 121 156 197 247 306 361
#     4  11  23  40  62  89 124 161 204 255 303 361
#     4  11  24  42  65  92 124 161 201 249 308 369
#     4  10  21  37  60  88 118 155 200 247 298 356
#
# _framework density 22.697326
#
# number of rings (size 3 to 8) (size 9 to 14) (size 15 to 20)
#    0.000    1.667    1.667    2.000    2.333    5.333 
#    0.000    0.000    0.000    0.000    0.000    0.000 
#    0.000    0.000    0.000    0.000    0.000    0.000 
#
# Total GULP energy -134086.435017 kJ/mol
# GULP energy per Si atom -5586.934792 kJ/mol
# Density = 2.264567 g / cm^3
# Si number density = 22.697326 Si / 1000 Ang^3
#
#
#
# Elastic Constant Matrix: (Units=GPa)
#
#
# Indices 1 2 3 4 5 6 
#
# 1 85.0344 -9.9977 -2.5806 -0.0001 0.0826 0.0000
# 2 -9.9977 47.4016 -1.3023 -0.0033 -5.9128 0.0003
# 3 -2.5806 -1.3023 90.6182 -0.0007 4.5027 0.0001
# 4 -0.0001 -0.0033 -0.0007 12.0382 0.0001 8.2519
# 5 0.0826 -5.9128 4.5027 0.0001 39.9781 0.0001
# 6 0.0000 0.0003 0.0001 8.2519 0.0001 25.9477
#
#
#
# Elastic Compliance Matrix: (Units=1/GPa)
#
#
# Indices 1 2 3 4 5 6 
#
# 1 0.012076 0.002597 0.000365 0.000001 0.000318 0.000000
# 2 0.002597 0.022053 0.000230 0.000008 0.003230 -0.000003
# 3 0.000365 0.000230 0.011110 0.000001 -0.001218 0.000000
# 4 0.000001 0.000008 0.000001 0.106226 0.000001 -0.033782
# 5 0.000318 0.003230 -0.001218 0.000001 0.025628 0.000000
# 6 0.000000 -0.000003 0.000000 -0.033782 0.000000 0.049282
#
#
# Mechanical properties :
#
#
# Convention : Reuss Voigt Hill
#
# Bulk Modulus (GPa) = 19.37088 21.69922 20.53505
# Shear Modulus (GPa) = 21.07943 31.38845 26.23394
#
# Velocity S-wave (km/s) = 3.05079 3.72279 3.40342
# Velocity P-wave (km/s) = 4.57851 5.29716 4.95089
#
# Compressibility (1/GPa) = 0.05162388
#
# Stress axis : x y z
#
# Youngs Moduli (GPa) = 82.80862 45.34472 90.01269
#
# Poissons Ratio (x) = -0.11775 -0.03289
# Poissons Ratio (y) = -0.21503 -0.02074
# Poissons Ratio (z) = -0.03026 -0.01045
#
# Static dielectric constant tensor:
#      x y z
#    x 1.861060 0.000000 0.017620 
#    y 0.000000 1.830420 0.000000 
#    z 0.017620 0.000000 1.909200 
# 
# From -- ./inp_files/244624.got.cif
#   From: 2010.05.17/outbox.cif.g08.bks.cpg/sg12_123_cif.got.tgz:244624.got - 2010.06.03 13:09:07.
