data_PCOD9207342
_publ_section_title
;
Structure prediction by ZEFSAII (Michael W. Deem and Ramdas Pophale) SiO2 
 PCOD9207342
Probable space group: C 2/M
;
_chemical_formula_sum "Si O2"
_cell_formula_units_Z 64
_cell_length_a 16.056392
_cell_length_b 8.513791
_cell_length_c 31.392202
_cell_angle_alpha 90.000000
_cell_angle_beta 129.704322
_cell_angle_gamma 90.000000
_cell_volume 3301.546802
_symmetry_space_group_name_H-M "C 2/M"
_symmetry_group_IT_number 12
_symmetry_cell_setting 'monoclinic'
loop_
_space_group_symop_operation_xyz
x,y,z
-x,y,-z
-x,-y,-z
x,-y,z
1/2+x,1/2+y,z
1/2-x,1/2+y,-z
1/2-x,1/2-y,-z
1/2+x,1/2-y,z
loop_
_atom_site_type_symbol
_atom_site_label
_atom_site_fract_x
_atom_site_fract_y
_atom_site_fract_z
Si Si1 0.259995 0.310400 0.435733
Si Si2 0.920608 0.189618 0.564032
Si Si3 0.451440 0.312682 0.938335
Si Si4 0.823742 0.187005 0.758144
Si Si5 0.667400 0.310323 0.633943
Si Si6 0.426918 0.309882 0.169002
Si Si7 0.641987 0.187054 0.942462
Si Si8 0.749911 0.313981 0.824699
O O1 0.257613 0.500000 0.434837
O O2 0.146950 0.249786 0.417647
O O3 0.352840 0.261493 0.499877
O O4 0.289185 0.255854 0.397911
O O5 0.044268 0.244117 0.601780
O O6 0.920613 0.000000 0.565004
O O7 0.433387 0.500000 0.932556
O O8 0.540175 0.267873 0.932154
O O9 0.341306 0.227503 0.889404
O O10 0.500000 0.266713 0.000000
O O11 0.746142 0.258614 0.697218
O O12 0.781981 0.231169 0.791407
O O13 0.948084 0.240535 0.792498
O O14 0.823306 0.000000 0.753680
O O15 0.664445 0.500000 0.631704
O O16 0.422409 0.500000 0.163038
O O17 0.364292 0.234098 0.108902
O O18 0.365042 0.268463 0.192312
O O19 0.635421 0.000000 0.944999
O O20 0.750000 0.250000 0.000000
O O21 0.750041 0.500000 0.817074
#
# Coordination Sequence:
#
# PCOD9207342 Si02
#       8
#     8   8   8   8   8   8   8   8
#     4   9  18  34  57  86 119 156 198 246 298 354
#     4   9  18  34  57  85 119 158 197 244 302 355
#     4  11  23  39  60  89 124 157 193 240 294 355
#     4  11  24  42  62  85 119 160 200 252 303 356
#     4  10  21  37  58  83 116 157 203 248 293 358
#     4  10  23  43  64  86 118 154 194 245 303 360
#     4  12  24  38  61  90 122 157 195 242 295 357
#     4  11  23  41  65  90 116 154 198 244 300 361
#
# _framework density 19.384854000000001
#
# number of rings (size 3 to 8) (size 9 to 14) (size 15 to 20)
#    0.000    1.625    1.250    3.375    0.000    8.000 
#    0.000    3.750    0.000    3.750    0.000    0.000 
#    0.000    0.000    0.000    0.000    0.000    0.000 
#
# Total GULP energy -178836.039327 kJ/mol
# GULP energy per Si atom -5588.626229 kJ/mol
# Density = 1.934073 g / cm^3
# Si number density = 19.384854 Si / 1000 Ang^3
#
#
#
# Elastic Constant Matrix: (Units=GPa)
#
#
# Indices 1 2 3 4 5 6 
#
# 1 148.2485 8.7718 69.5725 0.0000 3.3895 0.0000
# 2 8.7718 6.8604 8.8087 0.0000 2.5075 0.0000
# 3 69.5725 8.8087 107.6560 0.0000 2.5924 0.0000
# 4 0.0000 0.0000 0.0000 29.6459 0.0000 -1.3654
# 5 3.3895 2.5075 2.5924 0.0000 11.2828 0.0000
# 6 0.0000 0.0000 0.0000 -1.3654 0.0000 27.0083
#
#
#
# Elastic Compliance Matrix: (Units=1/GPa)
#
#
# Indices 1 2 3 4 5 6 
#
# 1 0.009832 -0.004731 -0.005954 0.000000 -0.000534 0.000000
# 2 -0.004731 0.178642 -0.010697 0.000000 -0.035822 0.000000
# 3 -0.005954 -0.010697 0.013989 0.000000 0.000952 0.000000
# 4 0.000000 0.000000 0.000000 0.033810 0.000000 0.001709
# 5 -0.000534 -0.035822 0.000952 0.000000 0.096534 0.000000
# 6 0.000000 0.000000 0.000000 0.001709 0.000000 0.037112
#
#
# Mechanical properties :
#
#
# Convention : Reuss Voigt Hill
#
# Bulk Modulus (GPa) = 6.26180 48.56342 27.41261
# Shear Modulus (GPa) = 10.73159 25.29485 18.01322
#
# Velocity S-wave (km/s) = 2.35544 3.61623 3.05165
# Velocity P-wave (km/s) = 3.26109 6.52248 5.15643
#
# Compressibility (1/GPa) = 0.15969861
#
# Stress axis : x y z
#
# Youngs Moduli (GPa) = 101.71253 5.59780 71.48597
#
# Poissons Ratio (x) = 0.02648 0.42561
# Poissons Ratio (y) = 0.48121 0.76468
# Poissons Ratio (z) = 0.60557 0.05988
#
# Static dielectric constant tensor:
#      x y z
#    x 1.799760 0.000000 -0.019670 
#    y 0.000000 1.660880 0.000000 
#    z -0.019670 0.000000 1.656570 
# 
# From -- ./inp_files/375681.got.cif
#   From: 2010.05.17/outbox.cif.g08.bks.cpg/sg12_188_cif.got.tgz:375681.got - 2010.06.03 13:09:07.
