data_PCOD9207275
_publ_section_title
;
Structure prediction by ZEFSAII (Michael W. Deem and Ramdas Pophale) SiO2 
 PCOD9207275
Probable space group: C 2/M
;
_chemical_formula_sum "Si O2"
_cell_formula_units_Z 56
_cell_length_a 15.163066
_cell_length_b 14.717496
_cell_length_c 30.184903
_cell_angle_alpha 90.000000
_cell_angle_beta 153.080108
_cell_angle_gamma 90.000000
_cell_volume 3049.746383
_symmetry_space_group_name_H-M "C 2/M"
_symmetry_group_IT_number 12
_symmetry_cell_setting 'monoclinic'
loop_
_space_group_symop_operation_xyz
x,y,z
-x,y,-z
-x,-y,-z
x,-y,z
1/2+x,1/2+y,z
1/2-x,1/2+y,-z
1/2-x,1/2-y,-z
1/2+x,1/2-y,z
loop_
_atom_site_type_symbol
_atom_site_label
_atom_site_fract_x
_atom_site_fract_y
_atom_site_fract_z
Si Si1 0.233657 0.739781 0.190917
Si Si2 0.525229 0.397057 0.959597
Si Si3 0.602803 0.812017 0.906387
Si Si4 0.842604 0.107170 0.389890
Si Si5 0.860873 0.605467 0.394997
Si Si6 0.022987 0.755772 0.244538
Si Si7 0.481201 0.251961 0.600436
O O1 0.329095 0.727449 0.185737
O O2 0.411853 0.747486 0.304662
O O3 0.107448 0.831560 0.129465
O O4 0.079883 0.668373 0.143285
O O5 0.459679 0.500000 0.925342
O O6 0.500000 0.371135 0.000000
O O7 0.752610 0.388128 0.048097
O O8 0.520869 0.758638 0.826968
O O9 0.750000 0.750000 0.000000
O O10 0.647420 0.165250 0.313638
O O11 0.000000 0.113521 0.500000
O O12 0.938699 0.161800 0.391835
O O13 0.804585 0.000000 0.364387
O O14 0.832223 0.500000 0.371959
O O15 0.661832 0.658681 0.314926
O O16 0.000000 0.613053 0.500000
O O17 0.955907 0.662027 0.397885
O O18 0.250000 0.250000 0.500000
#
# Coordination Sequence:
#
# PCOD9207275 Si02
#       7
#     8   8   8   8   8   8   8
#     4  11  21  37  60  88 116 161 196 240 305 358
#     4  10  21  38  61  90 121 153 197 254 308 359
#     4  10  21  38  58  87 115 154 200 239 300 352
#     4  10  21  37  57  86 123 157 195 250 307 358
#     4  10  21  38  58  82 117 162 206 248 289 347
#     4  11  20  39  61  84 122 158 195 249 300 362
#     4  11  21  37  59  89 121 159 202 242 300 361
#
# _framework density 18.362183000000002
#
# number of rings (size 3 to 8) (size 9 to 14) (size 15 to 20)
#    0.000    1.571    4.286    3.429    0.000    2.286 
#    0.000    1.429    0.000    0.000    0.000    4.000 
#    0.000    0.000    0.000    0.000    0.000    0.000 
#
# Total GULP energy -156083.997959 kJ/mol
# GULP energy per Si atom -5574.428499 kJ/mol
# Density = 1.832039 g / cm^3
# Si number density = 18.362183 Si / 1000 Ang^3
#
#
#
# Elastic Constant Matrix: (Units=GPa)
#
#
# Indices 1 2 3 4 5 6 
#
# 1 102.4763 20.8111 12.1335 0.0001 25.8688 0.0000
# 2 20.8111 98.7470 25.1535 0.0002 -0.4452 0.0001
# 3 12.1335 25.1535 81.5741 0.0000 7.7498 0.0001
# 4 0.0001 0.0002 0.0000 11.1614 0.0002 -7.8521
# 5 25.8688 -0.4452 7.7498 0.0002 38.9181 0.0001
# 6 0.0000 0.0001 0.0001 -7.8521 0.0001 6.0845
#
#
#
# Elastic Compliance Matrix: (Units=1/GPa)
#
#
# Indices 1 2 3 4 5 6 
#
# 1 0.012386 -0.002579 -0.000267 0.000002 -0.008209 0.000002
# 2 -0.002579 0.011553 -0.003419 -0.000004 0.002527 -0.000006
# 3 -0.000267 -0.003419 0.013597 0.000001 -0.002569 0.000001
# 4 0.000002 -0.000004 0.000001 0.972718 -0.000007 1.255307
# 5 -0.008209 0.002527 -0.002569 -0.000007 0.031692 -0.000009
# 6 0.000002 -0.000006 0.000001 1.255307 -0.000009 1.784343
#
#
# Mechanical properties :
#
#
# Convention : Reuss Voigt Hill
#
# Bulk Modulus (GPa) = 39.99160 44.33261 42.16210
# Shear Modulus (GPa) = 1.75614 26.21275 13.98445
#
# Velocity S-wave (km/s) = 0.97901 3.78238 2.76269
# Velocity P-wave (km/s) = 4.80672 6.57807 5.76089
#
# Compressibility (1/GPa) = 0.02500525
#
# Stress axis : x y z
#
# Youngs Moduli (GPa) = 80.73535 86.55958 73.54684
#
# Poissons Ratio (x) = 0.22327 0.01964
# Poissons Ratio (y) = 0.20825 0.25144
# Poissons Ratio (z) = 0.02156 0.29593
#
# Static dielectric constant tensor:
#      x y z
#    x 1.672830 0.000000 0.012860 
#    y 0.000000 1.613930 0.000000 
#    z 0.012860 0.000000 1.628170 
# 
# From -- ./inp_files/361476.got.cif
#   From: 2010.05.17/outbox.cif.g08.bks.cpg/sg12_181_cif.got.tgz:361476.got - 2010.06.03 13:09:07.
