data_PCOD9207586
_publ_section_title
;
Structure prediction by ZEFSAII (Michael W. Deem and Ramdas Pophale) SiO2 
 PCOD9207586
Probable space group: C 2/M
;
_chemical_formula_sum "Si O2"
_cell_formula_units_Z 48
_cell_length_a 14.891172
_cell_length_b 9.137243
_cell_length_c 15.119984
_cell_angle_alpha 90.000000
_cell_angle_beta 90.301860
_cell_angle_gamma 90.000000
_cell_volume 2057.260839
_symmetry_space_group_name_H-M "C 2/M"
_symmetry_group_IT_number 12
_symmetry_cell_setting 'monoclinic'
loop_
_space_group_symop_operation_xyz
x,y,z
-x,y,-z
-x,-y,-z
x,-y,z
1/2+x,1/2+y,z
1/2-x,1/2+y,-z
1/2-x,1/2-y,-z
1/2+x,1/2-y,z
loop_
_atom_site_type_symbol
_atom_site_label
_atom_site_fract_x
_atom_site_fract_y
_atom_site_fract_z
Si Si1 0.329659 0.326555 0.803912
Si Si2 0.490614 0.829410 0.124495
Si Si3 0.311267 0.322134 0.076912
Si Si4 0.682478 0.343878 0.553826
Si Si5 0.083366 0.341023 0.679235
Si Si6 0.073596 0.839403 0.379094
O O1 0.318872 0.500000 0.825407
O O2 0.417091 0.258299 0.855097
O O3 0.242944 0.236972 0.836717
O O4 0.352154 0.320197 0.698600
O O5 0.412887 0.743850 0.069758
O O6 0.442218 0.837532 0.219518
O O7 0.507029 0.000000 0.097915
O O8 0.312932 0.500000 0.074054
O O9 0.250000 0.250000 0.000000
O O10 0.723322 0.500000 0.570212
O O11 0.750000 0.250000 0.500000
O O12 0.651286 0.277216 0.644456
O O13 0.604394 0.351118 0.479832
O O14 0.117623 0.500000 0.654080
O O15 0.991441 0.296916 0.630853
O O16 0.030759 0.000000 0.356307
#
# Coordination Sequence:
#
# PCOD9207586 Si02
#       6
#     8   8   8   8   8   8
#     4  10  21  41  67  95 127 165 208 258 314 372
#     4  10  22  42  66  94 128 166 209 258 311 371
#     4  12  26  44  67  97 128 163 205 252 312 376
#     4  11  23  36  52  81 118 159 203 250 300 353
#     4  10  21  37  59  85 116 155 200 249 301 355
#     4   9  20  38  59  82 115 157 200 247 301 355
#
# _framework density 23.331994999999999
#
# number of rings (size 3 to 8) (size 9 to 14) (size 15 to 20)
#    0.000    1.667    0.000    4.000    2.333    6.667 
#    0.000    3.333    0.000    0.000    0.000    0.000 
#    0.000    0.000    0.000    0.000    0.000    0.000 
#
# Total GULP energy -133988.071813 kJ/mol
# GULP energy per Si atom -5582.836326 kJ/mol
# Density = 2.327889 g / cm^3
# Si number density = 23.331995 Si / 1000 Ang^3
#
#
#
# Elastic Constant Matrix: (Units=GPa)
#
#
# Indices 1 2 3 4 5 6 
#
# 1 81.9361 18.2111 -12.8703 0.0000 13.0710 0.0000
# 2 18.2111 142.0793 3.9602 0.0000 0.3788 0.0000
# 3 -12.8703 3.9602 76.6810 0.0000 -2.2168 0.0000
# 4 0.0000 0.0000 0.0000 23.8071 0.0000 -9.0868
# 5 13.0710 0.3788 -2.2168 0.0000 37.2908 0.0000
# 6 0.0000 0.0000 0.0000 -9.0868 0.0000 32.3559
#
#
#
# Elastic Compliance Matrix: (Units=1/GPa)
#
#
# Indices 1 2 3 4 5 6 
#
# 1 0.013703 -0.001807 0.002259 0.000000 -0.004650 0.000000
# 2 -0.001807 0.007287 -0.000665 0.000000 0.000520 0.000000
# 3 0.002259 -0.000665 0.013455 0.000000 0.000015 0.000000
# 4 0.000000 0.000000 0.000000 0.047047 0.000000 0.013213
# 5 -0.004650 0.000520 0.000015 0.000000 0.028442 0.000000
# 6 0.000000 0.000000 0.000000 0.013213 0.000000 0.034617
#
#
# Mechanical properties :
#
#
# Convention : Reuss Voigt Hill
#
# Bulk Modulus (GPa) = 29.39498 35.47762 32.43630
# Shear Modulus (GPa) = 31.98644 38.11712 35.05178
#
# Velocity S-wave (km/s) = 3.70662 4.04627 3.88016
# Velocity P-wave (km/s) = 5.56279 6.08838 5.83151
#
# Compressibility (1/GPa) = 0.03401941
#
# Stress axis : x y z
#
# Youngs Moduli (GPa) = 72.97721 137.22939 74.32224
#
# Poissons Ratio (x) = 0.24797 -0.16788
# Poissons Ratio (y) = 0.13187 0.04939
# Poissons Ratio (z) = -0.16484 0.09120
#
# Static dielectric constant tensor:
#      x y z
#    x 1.992810 0.000000 0.050210 
#    y 0.000000 1.995010 0.000000 
#    z 0.050210 0.000000 1.923240 
# 
# From -- ./inp_files/267717.got.cif
#   From: 2010.05.17/outbox.cif.g08.bks.cpg/sg12_134_cif.got.tgz:267717.got - 2010.06.03 13:09:07.
