data_PCOD9207121
_publ_section_title
;
Structure prediction by ZEFSAII (Michael W. Deem and Ramdas Pophale) SiO2 
 PCOD9207121
Probable space group: C 2/M
;
_chemical_formula_sum "Si O2"
_cell_formula_units_Z 40
_cell_length_a 10.485260
_cell_length_b 8.120926
_cell_length_c 22.908476
_cell_angle_alpha 90.000000
_cell_angle_beta 83.450987
_cell_angle_gamma 90.000000
_cell_volume 1937.928489
_symmetry_space_group_name_H-M "C 2/M"
_symmetry_group_IT_number 12
_symmetry_cell_setting 'monoclinic'
loop_
_space_group_symop_operation_xyz
x,y,z
-x,y,-z
-x,-y,-z
x,-y,z
1/2+x,1/2+y,z
1/2-x,1/2+y,-z
1/2-x,1/2-y,-z
1/2+x,1/2-y,z
loop_
_atom_site_type_symbol
_atom_site_label
_atom_site_fract_x
_atom_site_fract_y
_atom_site_fract_z
Si Si1 0.196022 0.199417 0.331039
Si Si2 0.801934 0.804054 0.934604
Si Si3 0.567894 0.300562 0.868110
Si Si4 0.866930 0.198850 0.534817
Si Si5 0.036758 0.801839 0.736779
O O1 0.155933 0.256328 0.397754
O O2 0.337445 0.256183 0.306319
O O3 0.091357 0.257758 0.289121
O O4 0.194883 0.000000 0.331040
O O5 0.699760 0.753490 0.890825
O O6 0.944404 0.741502 0.911518
O O7 0.810050 0.000000 0.934842
O O8 0.750000 0.750000 0.000000
O O9 0.566880 0.500000 0.867953
O O10 0.552464 0.241832 0.802321
O O11 0.750000 0.250000 0.500000
O O12 0.000000 0.259189 0.500000
O O13 0.872300 0.000000 0.536267
O O14 0.028333 0.000000 0.739777
#
# Coordination Sequence:
#
# PCOD9207121 Si02
#       5
#     8   8   8   8   8
#     4  10  21  37  57  83 113 145 185 231 277 328
#     4  11  23  39  60  85 114 148 186 229 276 327
#     4  10  22  39  58  83 114 147 185 228 274 328
#     4  10  21  37  57  81 111 147 186 229 277 330
#     4  10  21  38  59  82 111 147 185 227 276 329
#
# _framework density 20.640598000000001
#
# number of rings (size 3 to 8) (size 9 to 14) (size 15 to 20)
#    0.000    1.800    0.000    3.600    0.000   10.000 
#    0.000    0.000    0.000    0.000    0.000    0.000 
#    0.000    0.000    0.000    0.000    0.000    0.000 
#
# Total GULP energy -111811.859872 kJ/mol
# GULP energy per Si atom -5590.592994 kJ/mol
# Density = 2.059362 g / cm^3
# Si number density = 20.640598 Si / 1000 Ang^3
#
#
#
# Elastic Constant Matrix: (Units=GPa)
#
#
# Indices 1 2 3 4 5 6 
#
# 1 59.5076 -7.0562 -39.6945 0.0000 -0.7327 0.0000
# 2 -7.0562 9.9939 0.6294 0.0000 0.1829 0.0000
# 3 -39.6945 0.6294 48.4149 0.0000 0.6604 0.0000
# 4 0.0000 0.0000 0.0000 26.5601 0.0000 0.3461
# 5 -0.7327 0.1829 0.6604 0.0000 45.3324 0.0000
# 6 0.0000 0.0000 0.0000 0.3461 0.0000 32.4869
#
#
#
# Elastic Compliance Matrix: (Units=1/GPa)
#
#
# Indices 1 2 3 4 5 6 
#
# 1 0.044093 0.028878 0.035775 0.000000 0.000075 0.000000
# 2 0.028878 0.119062 0.022133 0.000000 -0.000336 0.000000
# 3 0.035775 0.022133 0.049702 0.000000 -0.000235 0.000000
# 4 0.000000 0.000000 0.000000 0.037656 0.000000 -0.000401
# 5 0.000075 -0.000336 -0.000235 0.000000 0.022065 0.000000
# 6 0.000000 0.000000 0.000000 -0.000401 0.000000 0.030786
#
#
# Mechanical properties :
#
#
# Convention : Reuss Voigt Hill
#
# Bulk Modulus (GPa) = 2.58780 2.85264 2.72022
# Shear Modulus (GPa) = 19.33474 31.81175 25.57324
#
# Velocity S-wave (km/s) = 3.06393 3.93010 3.52373
# Velocity P-wave (km/s) = 3.71125 4.68821 4.22804
#
# Compressibility (1/GPa) = 0.38642889
#
# Stress axis : x y z
#
# Youngs Moduli (GPa) = 22.67912 8.39897 20.12011
#
# Poissons Ratio (x) = -0.24254 -0.71980
# Poissons Ratio (y) = -0.65492 -0.44532
# Poissons Ratio (z) = -0.81134 -0.18590
#
# Static dielectric constant tensor:
#      x y z
#    x 1.688380 0.000000 -0.006520 
#    y 0.000000 1.736280 0.000000 
#    z -0.006520 0.000000 1.729650 
# 
# From -- ./inp_files/254725.got.cif
#   From: 2010.05.17/outbox.cif.g08.bks.cpg/sg12_128_cif.got.tgz:254725.got - 2010.06.03 13:09:07.
