data_PCOD9207746
_publ_section_title
;
Structure prediction by ZEFSAII (Michael W. Deem and Ramdas Pophale) SiO2 
 PCOD9207746
Probable space group: C 2/M
;
_chemical_formula_sum "Si O2"
_cell_formula_units_Z 64
_cell_length_a 14.776435
_cell_length_b 18.382587
_cell_length_c 16.681473
_cell_angle_alpha 90.000000
_cell_angle_beta 132.038054
_cell_angle_gamma 90.000000
_cell_volume 3365.303699
_symmetry_space_group_name_H-M "C 2/M"
_symmetry_group_IT_number 12
_symmetry_cell_setting 'monoclinic'
loop_
_space_group_symop_operation_xyz
x,y,z
-x,y,-z
-x,-y,-z
x,-y,z
1/2+x,1/2+y,z
1/2-x,1/2+y,-z
1/2-x,1/2-y,-z
1/2+x,1/2-y,z
loop_
_atom_site_type_symbol
_atom_site_label
_atom_site_fract_x
_atom_site_fract_y
_atom_site_fract_z
Si Si1 0.240489 0.915261 0.831820
Si Si2 0.950999 0.829996 0.383120
Si Si3 0.797366 0.668502 0.019462
Si Si4 0.378561 0.915355 0.646921
Si Si5 0.244598 0.703360 0.716275
Si Si6 0.300062 0.325148 0.564526
Si Si7 0.166572 0.414601 0.794163
Si Si8 0.084031 0.665538 0.166308
O O1 0.144003 0.887102 0.709445
O O2 0.369540 0.892576 0.870315
O O3 0.231360 0.000000 0.840581
O O4 0.227054 0.871215 0.906074
O O5 0.877557 0.753782 0.350818
O O6 0.000000 0.850397 0.500000
O O7 0.062010 0.827750 0.386073
O O8 0.792237 0.622035 0.097934
O O9 0.940223 0.672236 0.082936
O O10 0.750000 0.750000 0.000000
O O11 0.281817 0.888129 0.524258
O O12 0.518837 0.908714 0.701329
O O13 0.370603 0.864038 0.720240
O O14 0.358098 0.000000 0.656079
O O15 0.280181 0.679648 0.647716
O O16 0.224550 0.633123 0.758510
O O17 0.349667 0.757870 0.810056
O O18 0.250000 0.250000 0.500000
O O19 0.196959 0.500000 0.809726
#
# Coordination Sequence:
#
# PCOD9207746 Si02
#       8
#     8   8   8   8   8   8   8   8
#     4  11  24  40  61  94 130 162 206 259 318 385
#     4  11  23  39  62  95 128 169 209 259 317 371
#     4  11  23  40  69  93 120 160 216 266 317 373
#     4  10  21  37  59  90 125 164 209 258 316 375
#     4  11  23  38  65  92 125 166 217 257 309 376
#     4  12  21  36  62  90 125 170 217 261 307 371
#     4  10  23  42  62  89 129 168 207 265 323 371
#     4  10  21  38  62  93 121 160 204 263 320 374
#
# _framework density 19.017599000000001
#
# number of rings (size 3 to 8) (size 9 to 14) (size 15 to 20)
#    0.000    1.250    2.500    4.125    3.500    3.250 
#    0.000    1.250    0.000    0.750    0.000    0.000 
#    0.000    0.000    0.000    0.000    0.000    0.000 
#
# Total GULP energy -178817.035290 kJ/mol
# GULP energy per Si atom -5588.032353 kJ/mol
# Density = 1.897431 g / cm^3
# Si number density = 19.017599 Si / 1000 Ang^3
#
#
#
# Elastic Constant Matrix: (Units=GPa)
#
#
# Indices 1 2 3 4 5 6 
#
# 1 97.8282 69.1656 45.6876 0.0000 -19.7237 0.0000
# 2 69.1656 151.7913 54.2332 0.0000 -8.0428 0.0000
# 3 45.6876 54.2332 98.7205 0.0000 -9.3040 0.0000
# 4 0.0000 0.0000 0.0000 24.6493 0.0000 -6.0276
# 5 -19.7237 -8.0428 -9.3040 0.0000 24.3766 0.0000
# 6 0.0000 0.0000 0.0000 -6.0276 0.0000 19.6128
#
#
#
# Elastic Compliance Matrix: (Units=1/GPa)
#
#
# Indices 1 2 3 4 5 6 
#
# 1 0.019243 -0.006667 -0.004131 0.000000 0.011793 0.000000
# 2 -0.006667 0.010532 -0.002988 0.000000 -0.003061 0.000000
# 3 -0.004131 -0.002988 0.013771 0.000000 0.000927 0.000000
# 4 0.000000 0.000000 0.000000 0.043866 0.000000 0.013481
# 5 0.011793 -0.003061 0.000927 0.000000 0.049909 0.000000
# 6 0.000000 0.000000 0.000000 0.013481 0.000000 0.055130
#
#
# Mechanical properties :
#
#
# Convention : Reuss Voigt Hill
#
# Bulk Modulus (GPa) = 62.61346 76.27920 69.44633
# Shear Modulus (GPa) = 22.18781 25.67798 23.93289
#
# Velocity S-wave (km/s) = 3.41940 3.67852 3.55133
# Velocity P-wave (km/s) = 6.97031 7.63144 7.30835
#
# Compressibility (1/GPa) = 0.01597101
#
# Stress axis : x y z
#
# Youngs Moduli (GPa) = 51.96671 94.95184 72.61776
#
# Poissons Ratio (x) = 0.63308 0.30001
# Poissons Ratio (y) = 0.34648 0.21702
# Poissons Ratio (z) = 0.21469 0.28376
#
# Static dielectric constant tensor:
#      x y z
#    x 1.610140 0.000000 0.002340 
#    y 0.000000 1.642430 0.000000 
#    z 0.002340 0.000000 1.677580 
# 
# From -- ./inp_files/216836.got.cif
#   From: 2010.05.17/outbox.cif.g08.bks.cpg/sg12_109_cif.got.tgz:216836.got - 2010.06.03 13:09:07.
