data_PCOD9207356
_publ_section_title
;
Structure prediction by ZEFSAII (Michael W. Deem and Ramdas Pophale) SiO2 
 PCOD9207356
Probable space group: C 2/M
;
_chemical_formula_sum "Si O2"
_cell_formula_units_Z 64
_cell_length_a 17.043156
_cell_length_b 15.017815
_cell_length_c 16.133323
_cell_angle_alpha 90.000000
_cell_angle_beta 126.224036
_cell_angle_gamma 90.000000
_cell_volume 3331.189757
_symmetry_space_group_name_H-M "C 2/M"
_symmetry_group_IT_number 12
_symmetry_cell_setting 'monoclinic'
loop_
_space_group_symop_operation_xyz
x,y,z
-x,y,-z
-x,-y,-z
x,-y,z
1/2+x,1/2+y,z
1/2-x,1/2+y,-z
1/2-x,1/2-y,-z
1/2+x,1/2-y,z
loop_
_atom_site_type_symbol
_atom_site_label
_atom_site_fract_x
_atom_site_fract_y
_atom_site_fract_z
Si Si1 0.079208 0.101812 0.120835
Si Si2 0.579907 0.098719 0.622446
Si Si3 0.275058 0.605969 0.169746
Si Si4 0.157288 0.241350 0.384477
Si Si5 0.477127 0.899784 0.735612
Si Si6 0.497273 0.604647 0.254684
Si Si7 0.743057 0.727804 0.258559
Si Si8 0.431289 0.107760 0.033834
O O1 0.024578 0.116497 0.174722
O O2 0.165667 0.170911 0.157152
O O3 0.117818 0.000000 0.147099
O O4 0.000000 0.108224 0.000000
O O5 0.500000 0.112618 0.500000
O O6 0.540183 0.096280 0.691474
O O7 0.655964 0.177292 0.671900
O O8 0.622809 0.000000 0.631798
O O9 0.269732 0.500000 0.186264
O O10 0.383108 0.623486 0.200739
O O11 0.257310 0.672394 0.235235
O O12 0.182591 0.626865 0.052661
O O13 0.250000 0.250000 0.500000
O O14 0.071464 0.169977 0.349853
O O15 0.198107 0.219081 0.320490
O O16 0.109437 0.336940 0.344167
O O17 0.529981 0.863164 0.851612
O O18 0.444855 0.000000 0.735130
O O19 0.513770 0.500000 0.285255
O O20 0.438322 0.000000 0.037871
O O21 0.500000 0.139581 0.000000
#
# Coordination Sequence:
#
# PCOD9207356 Si02
#       8
#     8   8   8   8   8   8   8   8
#     4   9  19  36  57  81 110 144 183 228 276 332
#     4  10  21  38  59  82 110 143 182 234 289 334
#     4  10  21  37  58  84 117 155 187 226 284 345
#     4  11  23  38  58  82 109 145 190 239 285 332
#     4  10  21  37  58  84 113 144 184 234 285 340
#     4   9  20  39  58  79 112 151 189 228 277 339
#     4  11  22  35  57  83 110 144 186 231 277 336
#     4   9  18  34  56  83 116 151 187 229 279 338
#
# _framework density 19.212354000000001
#
# number of rings (size 3 to 8) (size 9 to 14) (size 15 to 20)
#    0.000    2.125    0.000    2.625    0.000    6.000 
#    0.000    5.625    0.000    1.875    0.000    0.000 
#    0.000    0.000    0.000    0.000    0.000    0.000 
#
# Total GULP energy -178365.138545 kJ/mol
# GULP energy per Si atom -5573.910580 kJ/mol
# Density = 1.916863 g / cm^3
# Si number density = 19.212354 Si / 1000 Ang^3
#
#
#
# Elastic Constant Matrix: (Units=GPa)
#
#
# Indices 1 2 3 4 5 6 
#
# 1 69.5705 36.1391 47.3790 0.0000 13.0780 0.0000
# 2 36.1391 84.0134 47.0448 0.0000 21.7496 0.0000
# 3 47.3790 47.0448 153.5972 0.0000 15.8938 0.0000
# 4 0.0000 0.0000 0.0000 23.1866 0.0000 41.9022
# 5 13.0780 21.7496 15.8938 0.0000 29.2252 0.0000
# 6 0.0000 0.0000 0.0000 41.9022 0.0000 41.2605
#
#
#
# Elastic Compliance Matrix: (Units=1/GPa)
#
#
# Indices 1 2 3 4 5 6 
#
# 1 0.020890 -0.005859 -0.004380 0.000000 -0.002606 0.000000
# 2 -0.005859 0.018515 -0.002871 0.000000 -0.009596 0.000000
# 3 -0.004380 -0.002871 0.008813 0.000000 -0.000697 0.000000
# 4 0.000000 0.000000 0.000000 -0.051634 0.000000 0.052437
# 5 -0.002606 -0.009596 -0.000697 0.000000 0.042903 0.000000
# 6 0.000000 0.000000 0.000000 0.052437 0.000000 -0.029016
#
#
# Mechanical properties :
#
#
# Convention : Reuss Voigt Hill
#
# Bulk Modulus (GPa) = 45.45620 63.14521 54.30071
# Shear Modulus (GPa) = 113.57923 30.50902 72.04412
#
# Velocity S-wave (km/s) = 7.69715 3.98928 6.13027
# Velocity P-wave (km/s) = 10.13440 7.35918 8.85617
#
# Compressibility (1/GPa) = 0.02199920
#
# Stress axis : x y z
#
# Youngs Moduli (GPa) = 47.87023 54.01093 113.47155
#
# Poissons Ratio (x) = 0.31644 0.49696
# Poissons Ratio (y) = 0.28047 0.32573
# Poissons Ratio (z) = 0.20965 0.15505
#
# Static dielectric constant tensor:
#      x y z
#    x 1.373910 0.000000 0.063190 
#    y 0.000000 1.723730 0.000000 
#    z 0.063190 0.000000 1.709570 
# 
# From -- ./inp_files/278185.got.cif
#   From: 2010.05.17/outbox.cif.g08.bks.cpg/sg12_140_cif.got.tgz:278185.got - 2010.06.03 13:09:07.
