data_PCOD9207911
_publ_section_title
;
Structure prediction by ZEFSAII (Michael W. Deem and Ramdas Pophale) SiO2 
 PCOD9207911
Probable space group: C 2/M
;
_chemical_formula_sum "Si O2"
_cell_formula_units_Z 48
_cell_length_a 11.233960
_cell_length_b 22.322470
_cell_length_c 13.593017
_cell_angle_alpha 90.000000
_cell_angle_beta 139.606168
_cell_angle_gamma 90.000000
_cell_volume 2208.978038
_symmetry_space_group_name_H-M "C 2/M"
_symmetry_group_IT_number 12
_symmetry_cell_setting 'monoclinic'
loop_
_space_group_symop_operation_xyz
x,y,z
-x,y,-z
-x,-y,-z
x,-y,z
1/2+x,1/2+y,z
1/2-x,1/2+y,-z
1/2-x,1/2-y,-z
1/2+x,1/2-y,z
loop_
_atom_site_type_symbol
_atom_site_label
_atom_site_fract_x
_atom_site_fract_y
_atom_site_fract_z
Si Si1 0.258925 0.179253 0.985175
Si Si2 0.561952 0.817286 0.702795
Si Si3 0.767843 0.131147 0.432201
Si Si4 0.277841 0.000000 0.381849
Si Si5 0.306515 0.500000 0.437582
Si Si6 0.598185 0.386190 0.164998
Si Si7 0.643824 0.318832 0.711127
O O1 0.288787 0.169071 0.888770
O O2 0.061876 0.149207 0.880017
O O3 0.250000 0.250000 0.000000
O O4 0.393471 0.160442 0.157174
O O5 0.365736 0.847755 0.564963
O O6 0.733179 0.841795 0.750441
O O7 0.558777 0.746282 0.683085
O O8 0.771416 0.178336 0.344065
O O9 0.977670 0.133470 0.602615
O O10 0.722346 0.065373 0.361973
O O11 0.500000 0.000000 0.500000
O O12 0.184219 0.057505 0.273295
O O13 0.216638 0.000000 0.457786
O O14 0.500000 0.500000 0.500000
O O15 0.500000 0.403938 0.000000
#
# Coordination Sequence:
#
# PCOD9207911 Si02
#       7
#     8   8   8   4   4   8   8
#     4   9  20  38  62  88 125 167 210 260 326 396
#     4  10  22  38  61  93 131 159 212 273 329 394
#     4  11  23  41  62  91 126 174 216 275 328 399
#     4  12  25  43  72 101 130 181 235 281 335 406
#     4  12  24  45  64  90 135 175 222 273 331 401
#     4  10  22  41  64  97 131 172 216 281 333 396
#     4  10  21  37  60  90 124 166 212 257 335 390
#
# _framework density 21.729503000000001
#
# number of rings (size 3 to 8) (size 9 to 14) (size 15 to 20)
#    0.000    1.667    1.667    2.750    4.667    0.667 
#    9.000    0.833    0.000    1.000    0.000    0.000 
#    0.000    0.000    0.000    0.000    0.000    0.000 
#
# Total GULP energy -133833.498389 kJ/mol
# GULP energy per Si atom -5576.395766 kJ/mol
# Density = 2.168005 g / cm^3
# Si number density = 21.729503 Si / 1000 Ang^3
#
#
#
# Elastic Constant Matrix: (Units=GPa)
#
#
# Indices 1 2 3 4 5 6 
#
# 1 82.7190 18.8956 49.2706 0.0000 11.3286 0.0000
# 2 18.8956 110.4269 26.5242 0.0000 12.0130 0.0000
# 3 49.2706 26.5242 62.1259 0.0000 -8.0494 0.0000
# 4 0.0000 0.0000 0.0000 29.1223 0.0000 5.0901
# 5 11.3286 12.0130 -8.0494 0.0000 52.0509 0.0000
# 6 0.0000 0.0000 0.0000 5.0901 0.0000 26.8202
#
#
#
# Elastic Compliance Matrix: (Units=1/GPa)
#
#
# Indices 1 2 3 4 5 6 
#
# 1 0.027103 0.002154 -0.023718 0.000000 -0.010064 0.000000
# 2 0.002154 0.010762 -0.006822 0.000000 -0.004008 0.000000
# 3 -0.023718 -0.006822 0.039484 0.000000 0.012843 0.000000
# 4 0.000000 0.000000 0.000000 0.035516 0.000000 -0.006740
# 5 -0.010064 -0.004008 0.012843 0.000000 0.024313 0.000000
# 6 0.000000 0.000000 0.000000 -0.006740 0.000000 0.038565
#
#
# Mechanical properties :
#
#
# Convention : Reuss Voigt Hill
#
# Bulk Modulus (GPa) = 48.60212 49.40584 49.00398
# Shear Modulus (GPa) = 20.88786 32.30410 26.59598
#
# Velocity S-wave (km/s) = 3.10379 3.85989 3.50231
# Velocity P-wave (km/s) = 5.93803 6.53078 6.24144
#
# Compressibility (1/GPa) = 0.02057523
#
# Stress axis : x y z
#
# Youngs Moduli (GPa) = 36.89657 92.92078 25.32702
#
# Poissons Ratio (x) = -0.20017 0.60071
# Poissons Ratio (y) = -0.07948 0.17279
# Poissons Ratio (z) = 0.87512 0.63394
#
# Static dielectric constant tensor:
#      x y z
#    x 1.803970 0.000000 -0.033590 
#    y 0.000000 1.794210 0.000000 
#    z -0.033590 0.000000 1.867410 
# 
# From -- ./inp_files/208030.got.cif
#   From: 2010.05.17/outbox.cif.g08.bks.cpg/sg12_105_cif.got.tgz:208030.got - 2010.06.03 13:09:07.
