data_PCOD9207236
_publ_section_title
;
Structure prediction by ZEFSAII (Michael W. Deem and Ramdas Pophale) SiO2 
 PCOD9207236
Probable space group: C 2/M
;
_chemical_formula_sum "Si O2"
_cell_formula_units_Z 44
_cell_length_a 9.381271
_cell_length_b 17.562693
_cell_length_c 24.499684
_cell_angle_alpha 90.000000
_cell_angle_beta 35.934513
_cell_angle_gamma 90.000000
_cell_volume 2368.906532
_symmetry_space_group_name_H-M "C 2/M"
_symmetry_group_IT_number 12
_symmetry_cell_setting 'monoclinic'
loop_
_space_group_symop_operation_xyz
x,y,z
-x,y,-z
-x,-y,-z
x,-y,z
1/2+x,1/2+y,z
1/2-x,1/2+y,-z
1/2-x,1/2-y,-z
1/2+x,1/2-y,z
loop_
_atom_site_type_symbol
_atom_site_label
_atom_site_fract_x
_atom_site_fract_y
_atom_site_fract_z
Si Si1 0.505360 0.084202 0.617827
Si Si2 0.500000 0.863418 0.500000
Si Si3 0.266659 0.299617 0.940037
Si Si4 0.809485 0.914022 0.179703
Si Si5 0.452652 0.745726 0.366164
Si Si6 0.480090 0.786041 0.238870
O O1 0.447971 0.090391 0.571481
O O2 0.277353 0.085870 0.729945
O O3 0.622012 0.166515 0.597267
O O4 0.622940 0.000000 0.590889
O O5 0.271550 0.809831 0.557907
O O6 0.436824 0.370764 0.901452
O O7 0.403134 0.253004 0.849864
O O8 0.250000 0.250000 0.000000
O O9 0.000000 0.318835 0.000000
O O10 0.603796 0.867876 0.210102
O O11 0.825534 0.000000 0.155607
O O12 0.541318 0.742786 0.275976
O O13 0.688316 0.719395 0.326673
#
# Coordination Sequence:
#
# PCOD9207236 Si02
#       6
#     8   4   8   8   8   8
#     4  10  21  37  57  84 120 158 193 246 303 345
#     4  12  21  36  61  90 118 158 210 252 285 352
#     4  12  21  36  64  94 117 156 204 247 295 359
#     4  10  22  41  61  86 125 159 196 249 306 352
#     4  11  21  37  64  84 117 158 211 240 293 359
#     4  11  20  40  61  86 116 162 200 242 299 362
#
# _framework density 18.573971
#
# number of rings (size 3 to 8) (size 9 to 14) (size 15 to 20)
#    0.000    1.091    7.273    0.818    0.000    0.364 
#    0.000    4.091    0.000    2.182    0.000    0.000 
#    0.000    0.000    0.000    0.000    0.000    0.000 
#
# Total GULP energy -122614.043015 kJ/mol
# GULP energy per Si atom -5573.365592 kJ/mol
# Density = 1.853170 g / cm^3
# Si number density = 18.573971 Si / 1000 Ang^3
#
#
#
# Elastic Constant Matrix: (Units=GPa)
#
#
# Indices 1 2 3 4 5 6 
#
# 1 78.8266 38.3796 16.5193 0.0048 -14.2954 -0.0022
# 2 38.3796 135.7039 39.3756 -0.0072 -22.1821 0.0008
# 3 16.5193 39.3756 51.5738 -0.0026 -2.6379 -0.0032
# 4 0.0048 -0.0072 -0.0026 5.7606 -0.0033 -5.4434
# 5 -14.2954 -22.1821 -2.6379 -0.0033 36.7528 0.0045
# 6 -0.0022 0.0008 -0.0032 -5.4434 0.0045 13.3715
#
#
#
# Elastic Compliance Matrix: (Units=1/GPa)
#
#
# Indices 1 2 3 4 5 6 
#
# 1 0.015378 -0.002987 -0.002441 -0.000024 0.004004 -0.000009
# 2 -0.002987 0.011158 -0.007304 0.000019 0.005049 0.000003
# 3 -0.002441 -0.007304 0.025568 0.000016 -0.003523 0.000014
# 4 -0.000024 0.000019 0.000016 0.282120 0.000014 0.114848
# 5 0.004004 0.005049 -0.003523 0.000014 0.031560 -0.000005
# 6 -0.000009 0.000003 0.000014 0.114848 -0.000005 0.121539
#
#
# Mechanical properties :
#
#
# Convention : Reuss Voigt Hill
#
# Bulk Modulus (GPa) = 37.53606 50.51705 44.02656
# Shear Modulus (GPa) = 9.58466 22.63229 16.10848
#
# Velocity S-wave (km/s) = 2.27409 3.49448 2.94812
# Velocity P-wave (km/s) = 5.21039 6.59838 5.94503
#
# Compressibility (1/GPa) = 0.02664105
#
# Stress axis : x y z
#
# Youngs Moduli (GPa) = 65.02927 89.61950 39.11144
#
# Poissons Ratio (x) = 0.26765 0.09546
# Poissons Ratio (y) = 0.19421 0.28568
# Poissons Ratio (z) = 0.15871 0.65461
#
# Static dielectric constant tensor:
#      x y z
#    x 1.651290 0.000000 0.017200 
#    y 0.000000 1.658750 0.000000 
#    z 0.017200 0.000000 1.662310 
# 
# From -- ./inp_files/333273.got.cif
#   From: 2010.05.17/outbox.cif.g08.bks.cpg/sg12_167_cif.got.tgz:333273.got - 2010.06.03 13:09:07.
