data_PCOD9207475
_publ_section_title
;
Structure prediction by ZEFSAII (Michael W. Deem and Ramdas Pophale) SiO2 
 PCOD9207475
Probable space group: C 2/M
;
_chemical_formula_sum "Si O2"
_cell_formula_units_Z 40
_cell_length_a 8.766950
_cell_length_b 30.596961
_cell_length_c 14.563711
_cell_angle_alpha 90.000000
_cell_angle_beta 30.894025
_cell_angle_gamma 90.000000
_cell_volume 2005.850347
_symmetry_space_group_name_H-M "C 2/M"
_symmetry_group_IT_number 12
_symmetry_cell_setting 'monoclinic'
loop_
_space_group_symop_operation_xyz
x,y,z
-x,y,-z
-x,-y,-z
x,-y,z
1/2+x,1/2+y,z
1/2-x,1/2+y,-z
1/2-x,1/2-y,-z
1/2+x,1/2-y,z
loop_
_atom_site_type_symbol
_atom_site_label
_atom_site_fract_x
_atom_site_fract_y
_atom_site_fract_z
Si Si1 0.350770 0.452661 0.306538
Si Si2 0.274267 0.134727 0.700868
Si Si3 0.654611 0.950150 0.819259
Si Si4 0.645865 0.133195 0.696890
Si Si5 0.684236 0.298348 0.999935
O O1 0.451709 0.500000 0.218117
O O2 0.406785 0.410625 0.215914
O O3 0.500836 0.446706 0.328040
O O4 0.000000 0.454394 0.500000
O O5 0.500000 0.138859 0.500000
O O6 0.470060 0.132116 0.691424
O O7 0.039629 0.173851 0.821294
O O8 0.592438 0.911730 0.780617
O O9 0.601908 0.000000 0.813997
O O10 0.500000 0.944933 0.000000
O O11 0.000000 0.139089 0.500000
O O12 0.484872 0.173426 0.832252
O O13 0.500000 0.295964 0.000000
O O14 0.750000 0.250000 0.000000
#
# Coordination Sequence:
#
# PCOD9207475 Si02
#       5
#     8   8   8   8   8
#     4   9  17  31  53  81 113 150 188 226 275 332
#     4  10  21  39  61  87 119 155 195 240 292 351
#     4  10  21  37  58  86 120 159 201 242 287 341
#     4  11  23  38  60  91 121 154 198 242 293 353
#     4  10  24  43  62  85 114 150 194 245 299 355
#
# _framework density 19.941666000000001
#
# number of rings (size 3 to 8) (size 9 to 14) (size 15 to 20)
#    0.000    2.000    0.000    3.600    0.000    6.000 
#    0.000    4.000    0.000    7.200    0.000    0.000 
#    0.000    0.000    0.000    0.000    0.000    0.000 
#
# Total GULP energy -111573.873159 kJ/mol
# GULP energy per Si atom -5578.693658 kJ/mol
# Density = 1.989628 g / cm^3
# Si number density = 19.941666 Si / 1000 Ang^3
#
#
#
# Elastic Constant Matrix: (Units=GPa)
#
#
# Indices 1 2 3 4 5 6 
#
# 1 66.7655 65.7837 42.0405 0.0000 -6.0327 0.0000
# 2 65.7837 217.3256 82.8079 0.0000 -0.0269 0.0000
# 3 42.0405 82.8079 117.0752 0.0000 -7.4446 0.0000
# 4 0.0000 0.0000 0.0000 26.3124 0.0000 -4.1510
# 5 -6.0327 -0.0269 -7.4446 0.0000 26.5133 0.0000
# 6 0.0000 0.0000 0.0000 -4.1510 0.0000 39.3368
#
#
#
# Elastic Compliance Matrix: (Units=1/GPa)
#
#
# Indices 1 2 3 4 5 6 
#
# 1 0.023428 -0.005456 -0.004292 0.000000 0.004120 0.000000
# 2 -0.005456 0.007612 -0.003567 0.000000 -0.002235 0.000000
# 3 -0.004292 -0.003567 0.012771 0.000000 0.002606 0.000000
# 4 0.000000 0.000000 0.000000 0.038648 0.000000 0.004078
# 5 0.004120 -0.002235 0.002606 0.000000 0.039384 0.000000
# 6 0.000000 0.000000 0.000000 0.004078 0.000000 0.025852
#
#
# Mechanical properties :
#
#
# Convention : Reuss Voigt Hill
#
# Bulk Modulus (GPa) = 58.20027 86.93671 72.56849
# Shear Modulus (GPa) = 27.76990 32.46810 30.11900
#
# Velocity S-wave (km/s) = 3.73575 4.03942 3.89055
# Velocity P-wave (km/s) = 6.91783 8.08987 7.52670
#
# Compressibility (1/GPa) = 0.01718205
#
# Stress axis : x y z
#
# Youngs Moduli (GPa) = 42.68377 131.37857 78.30123
#
# Poissons Ratio (x) = 0.71677 0.33606
# Poissons Ratio (y) = 0.23287 0.27928
# Poissons Ratio (z) = 0.18320 0.46859
#
# Static dielectric constant tensor:
#      x y z
#    x 1.703930 0.000000 -0.028770 
#    y 0.000000 1.728980 0.000000 
#    z -0.028770 0.000000 1.766050 
# 
# From -- ./inp_files/41434.got.cif
#   From: 2010.05.17/outbox.cif.g08.bks.cpg/sg12_21_cif.got.tgz:41434.got - 2010.06.03 13:09:07.
