data_PCOD9207467
_publ_section_title
;
Structure prediction by ZEFSAII (Michael W. Deem and Ramdas Pophale) SiO2 
 PCOD9207467
Probable space group: C 2/M
;
_chemical_formula_sum "Si O2"
_cell_formula_units_Z 40
_cell_length_a 27.910472
_cell_length_b 8.720953
_cell_length_c 19.005477
_cell_angle_alpha 90.000000
_cell_angle_beta 153.003994
_cell_angle_gamma 90.000000
_cell_volume 2099.893381
_symmetry_space_group_name_H-M "C 2/M"
_symmetry_group_IT_number 12
_symmetry_cell_setting 'monoclinic'
loop_
_space_group_symop_operation_xyz
x,y,z
-x,y,-z
-x,-y,-z
x,-y,z
1/2+x,1/2+y,z
1/2-x,1/2+y,-z
1/2-x,1/2-y,-z
1/2+x,1/2-y,z
loop_
_atom_site_type_symbol
_atom_site_label
_atom_site_fract_x
_atom_site_fract_y
_atom_site_fract_z
Si Si1 0.931164 0.314692 0.568511
Si Si2 0.469524 0.183525 0.040217
Si Si3 0.740099 0.814720 0.774314
Si Si4 0.635465 0.317177 0.368305
Si Si5 0.168184 0.685029 0.836552
O O1 0.929844 0.500000 0.574261
O O2 0.846610 0.273852 0.397801
O O3 0.899992 0.240781 0.601510
O O4 0.048868 0.268447 0.699286
O O5 0.551460 0.258977 0.201175
O O6 0.475032 0.000000 0.054877
O O7 0.500000 0.223589 0.000000
O O8 0.352088 0.240591 0.903359
O O9 0.700593 0.768452 0.800119
O O10 0.751225 0.000000 0.788339
O O11 0.640163 0.500000 0.373485
O O12 0.750000 0.250000 0.500000
O O13 0.171700 0.500000 0.843604
O O14 0.250000 0.750000 0.000000
#
# Coordination Sequence:
#
# PCOD9207467 Si02
#       5
#     8   8   8   8   8
#     4  10  21  39  62  87 119 157 196 241 293 346
#     4  11  24  41  61  87 119 154 195 243 293 347
#     4  10  21  38  61  88 118 155 198 242 291 348
#     4  12  25  41  62  88 119 154 195 241 291 349
#     4  10  21  37  58  86 119 156 197 241 290 345
#
# _framework density 19.048586
#
# number of rings (size 3 to 8) (size 9 to 14) (size 15 to 20)
#    0.000    1.400    0.000    5.400    0.000   12.800 
#    0.000    0.000    0.000    3.600    0.000    0.000 
#    0.000    0.000    0.000    0.000    0.000    0.000 
#
# Total GULP energy -111880.262751 kJ/mol
# GULP energy per Si atom -5594.013138 kJ/mol
# Density = 1.900523 g / cm^3
# Si number density = 19.048586 Si / 1000 Ang^3
#
#
#
# Elastic Constant Matrix: (Units=GPa)
#
#
# Indices 1 2 3 4 5 6 
#
# 1 237.9780 78.3183 144.3044 0.0000 1.9923 0.0000
# 2 78.3183 52.9784 73.6949 0.0000 -3.0624 0.0000
# 3 144.3044 73.6949 230.5768 0.0000 2.3333 0.0000
# 4 0.0000 0.0000 0.0000 32.6736 0.0000 1.4977
# 5 1.9923 -3.0624 2.3333 0.0000 45.6329 0.0000
# 6 0.0000 0.0000 0.0000 1.4977 0.0000 26.8455
#
#
#
# Elastic Compliance Matrix: (Units=1/GPa)
#
#
# Indices 1 2 3 4 5 6 
#
# 1 0.008933 -0.009895 -0.002419 0.000000 -0.000930 0.000000
# 2 -0.009895 0.045317 -0.008331 0.000000 0.003899 0.000000
# 3 -0.002419 -0.008331 0.008522 0.000000 -0.000889 0.000000
# 4 0.000000 0.000000 0.000000 0.030684 0.000000 -0.001712
# 5 -0.000930 0.003899 -0.000889 0.000000 0.022262 0.000000
# 6 0.000000 0.000000 0.000000 -0.001712 0.000000 0.037346
#
#
# Mechanical properties :
#
#
# Convention : Reuss Voigt Hill
#
# Bulk Modulus (GPa) = 46.54700 123.79648 85.17174
# Shear Modulus (GPa) = 24.81233 36.04480 30.42856
#
# Velocity S-wave (km/s) = 3.61304 4.35473 4.00111
# Velocity P-wave (km/s) = 6.47259 9.50872 8.13358
#
# Compressibility (1/GPa) = 0.02148366
#
# Stress axis : x y z
#
# Youngs Moduli (GPa) = 111.94650 22.06687 117.34112
#
# Poissons Ratio (x) = 0.21835 0.28380
# Poissons Ratio (y) = 1.10770 0.97752
# Poissons Ratio (z) = 0.27076 0.18383
#
# Static dielectric constant tensor:
#      x y z
#    x 1.630660 0.000000 0.000270 
#    y 0.000000 1.641780 0.000000 
#    z 0.000270 0.000000 1.618260 
# 
# From -- ./inp_files/151670.got.cif
#   From: 2010.05.17/outbox.cif.g08.bks.cpg/sg12_76_cif.got.tgz:151670.got - 2010.06.03 13:09:07.
