data_PCOD9207460
_publ_section_title
;
Structure prediction by ZEFSAII (Michael W. Deem and Ramdas Pophale) SiO2 
 PCOD9207460
Probable space group: C 2/M
;
_chemical_formula_sum "Si O2"
_cell_formula_units_Z 56
_cell_length_a 19.779411
_cell_length_b 9.077453
_cell_length_c 28.692243
_cell_angle_alpha 90.000000
_cell_angle_beta 150.676538
_cell_angle_gamma 90.000000
_cell_volume 2522.940507
_symmetry_space_group_name_H-M "C 2/M"
_symmetry_group_IT_number 12
_symmetry_cell_setting 'monoclinic'
loop_
_space_group_symop_operation_xyz
x,y,z
-x,y,-z
-x,-y,-z
x,-y,z
1/2+x,1/2+y,z
1/2-x,1/2+y,-z
1/2-x,1/2-y,-z
1/2+x,1/2-y,z
loop_
_atom_site_type_symbol
_atom_site_label
_atom_site_fract_x
_atom_site_fract_y
_atom_site_fract_z
Si Si1 0.839916 0.338820 0.489874
Si Si2 0.655826 0.175454 0.199805
Si Si3 0.951291 0.163112 0.635107
Si Si4 0.834197 0.168430 0.397123
Si Si5 0.900844 0.823513 0.096692
Si Si6 0.656055 0.673800 0.105108
Si Si7 0.909971 0.672265 0.197824
O O1 0.904026 0.500000 0.522653
O O2 0.941725 0.227616 0.577520
O O3 0.705709 0.352945 0.441468
O O4 0.787402 0.276398 0.409594
O O5 0.767448 0.205128 0.307516
O O6 0.514477 0.257559 0.129789
O O7 0.703742 0.234858 0.178577
O O8 0.632789 0.000000 0.184109
O O9 0.015912 0.276546 0.710392
O O10 0.015869 0.000000 0.675236
O O11 0.000000 0.175969 0.500000
O O12 0.793134 0.000000 0.383531
O O13 0.946992 0.772447 0.176251
O O14 0.892374 0.000000 0.087362
O O15 0.750000 0.750000 0.000000
O O16 0.660884 0.500000 0.119845
O O17 0.750029 0.692760 0.116033
O O18 0.500000 0.715970 0.000000
O O19 0.935640 0.500000 0.203030
#
# Coordination Sequence:
#
# PCOD9207460 Si02
#       7
#     8   8   8   8   8   8   8
#     4  10  21  37  58  86 117 156 206 258 309 365
#     4  11  24  42  67  97 132 174 219 269 325 388
#     4  10  21  37  59  86 120 160 200 252 314 375
#     4  10  23  41  60  87 125 169 212 260 315 378
#     4  12  25  43  68  97 130 168 214 269 329 392
#     4  10  23  43  65  91 128 170 210 262 324 385
#     4  11  23  39  63  95 128 162 209 263 317 380
#
# _framework density 22.196321000000001
#
# number of rings (size 3 to 8) (size 9 to 14) (size 15 to 20)
#    0.000    1.429    0.000    4.714    2.000    8.000 
#    0.000    0.000    0.000    0.000    0.000    0.000 
#    0.000    0.000    0.000    0.000    0.000    0.000 
#
# Total GULP energy -156601.222998 kJ/mol
# GULP energy per Si atom -5592.900821 kJ/mol
# Density = 2.214580 g / cm^3
# Si number density = 22.196321 Si / 1000 Ang^3
#
#
#
# Elastic Constant Matrix: (Units=GPa)
#
#
# Indices 1 2 3 4 5 6 
#
# 1 73.5863 38.0498 4.6225 0.0001 -12.6129 0.0000
# 2 38.0498 99.6112 18.0183 -0.0001 -13.3876 0.0001
# 3 4.6225 18.0183 52.1490 0.0000 -6.9972 0.0000
# 4 0.0001 -0.0001 0.0000 27.1071 0.0000 -4.8569
# 5 -12.6129 -13.3876 -6.9972 0.0000 36.2977 0.0000
# 6 0.0000 0.0001 0.0000 -4.8569 0.0000 28.6598
#
#
#
# Elastic Compliance Matrix: (Units=1/GPa)
#
#
# Indices 1 2 3 4 5 6 
#
# 1 0.017482 -0.006359 0.001178 0.000000 0.003956 0.000000
# 2 -0.006359 0.013427 -0.003806 0.000000 0.002009 0.000000
# 3 0.001178 -0.003806 0.020791 0.000000 0.003014 0.000000
# 4 0.000000 0.000000 0.000000 0.038046 0.000000 0.006448
# 5 0.003956 0.002009 0.003014 0.000000 0.030247 0.000000
# 6 0.000000 0.000000 0.000000 0.006448 0.000000 0.035985
#
#
# Mechanical properties :
#
#
# Convention : Reuss Voigt Hill
#
# Bulk Modulus (GPa) = 29.65085 38.52528 34.08806
# Shear Modulus (GPa) = 26.99910 29.38999 28.19455
#
# Velocity S-wave (km/s) = 3.49144 3.64276 3.56790
# Velocity P-wave (km/s) = 5.44436 5.92344 5.68895
#
# Compressibility (1/GPa) = 0.03372585
#
# Stress axis : x y z
#
# Youngs Moduli (GPa) = 57.20242 74.47945 48.09840
#
# Poissons Ratio (x) = 0.47363 -0.05668
# Poissons Ratio (y) = 0.36376 0.18306
# Poissons Ratio (z) = -0.06741 0.28346
#
# Static dielectric constant tensor:
#      x y z
#    x 1.812120 0.000000 0.044070 
#    y 0.000000 1.789570 0.000000 
#    z 0.044070 0.000000 1.839150 
# 
# From -- ./inp_files/380817.got.cif
#   From: 2010.05.17/outbox.cif.g08.bks.cpg/sg12_191_cif.got.tgz:380817.got - 2010.06.03 13:09:07.
