data_PCOD9207860
_publ_section_title
;
Structure prediction by ZEFSAII (Michael W. Deem and Ramdas Pophale) SiO2 
 PCOD9207860
Probable space group: C 2/M
;
_chemical_formula_sum "Si O2"
_cell_formula_units_Z 56
_cell_length_a 26.994464
_cell_length_b 10.242298
_cell_length_c 16.109511
_cell_angle_alpha 90.000000
_cell_angle_beta 42.842387
_cell_angle_gamma 90.000000
_cell_volume 3028.678124
_symmetry_space_group_name_H-M "C 2/M"
_symmetry_group_IT_number 12
_symmetry_cell_setting 'monoclinic'
loop_
_space_group_symop_operation_xyz
x,y,z
-x,y,-z
-x,-y,-z
x,-y,z
1/2+x,1/2+y,z
1/2-x,1/2+y,-z
1/2-x,1/2-y,-z
1/2+x,1/2-y,z
loop_
_atom_site_type_symbol
_atom_site_label
_atom_site_fract_x
_atom_site_fract_y
_atom_site_fract_z
Si Si1 0.832542 0.236814 0.362107
Si Si2 0.914903 0.500000 0.205948
Si Si3 0.359961 0.651761 0.503476
Si Si4 0.992335 0.151337 0.607150
Si Si5 0.236339 0.853383 0.712278
Si Si6 0.838265 0.154275 0.848652
Si Si7 0.195532 0.272339 0.930040
Si Si8 0.408855 0.000000 0.011819
O O1 0.750000 0.250000 0.500000
O O2 0.874117 0.372976 0.294122
O O3 0.867826 0.159379 0.394497
O O4 0.824614 0.164869 0.284121
O O5 0.003119 0.500000 0.113096
O O6 0.902596 0.500000 0.120581
O O7 0.348336 0.500000 0.542790
O O8 0.434793 0.709970 0.445964
O O9 0.295066 0.741252 0.618099
O O10 0.915240 0.210886 0.724580
O O11 0.000000 0.149105 0.500000
O O12 0.992631 0.000000 0.636178
O O13 0.205845 0.826758 0.841220
O O14 0.266493 0.000000 0.668678
O O15 0.775886 0.174367 0.856000
O O16 0.843287 0.000000 0.852121
O O17 0.824970 0.211820 0.956017
O O18 0.135808 0.377466 0.972118
#
# Coordination Sequence:
#
# PCOD9207860 Si02
#       8
#     8   4   8   8   8   8   8   4
#     4  10  23  36  63  88 126 161 209 259 320 379
#     4  11  24  44  64  98 129 167 221 272 314 397
#     4  10  22  36  60  89 124 164 211 259 320 385
#     4   9  18  35  58  87 116 155 200 254 311 369
#     4  11  23  38  61  90 126 164 212 266 324 384
#     4  10  21  37  60  88 122 159 212 263 310 378
#     4  11  22  38  62  88 121 166 214 259 317 372
#     4  11  24  42  68  92 124 177 224 262 324 378
#
# _framework density 18.489913999999999
#
# number of rings (size 3 to 8) (size 9 to 14) (size 15 to 20)
#    0.000    1.714    2.143    1.714   11.000    1.143 
#    0.000    0.000    0.000    2.143    0.000    0.000 
#    0.000    0.000    0.000    0.000    0.000    0.000 
#
# Total GULP energy -155930.674467 kJ/mol
# GULP energy per Si atom -5568.952660 kJ/mol
# Density = 1.844783 g / cm^3
# Si number density = 18.489914 Si / 1000 Ang^3
#
#
#
# Elastic Constant Matrix: (Units=GPa)
#
#
# Indices 1 2 3 4 5 6 
#
# 1 86.7510 3.1053 3.0741 0.0043 -5.4103 -0.0127
# 2 3.1053 77.6170 18.0678 0.0058 -7.2302 -0.0169
# 3 3.0741 18.0678 54.7733 0.0066 -5.4053 -0.0196
# 4 0.0043 0.0058 0.0066 -45.2140 -0.0018 172.6989
# 5 -5.4103 -7.2302 -5.4053 -0.0018 30.5495 0.0054
# 6 -0.0127 -0.0169 -0.0196 172.6989 0.0054 -422.4075
#
#
#
# Elastic Compliance Matrix: (Units=1/GPa)
#
#
# Indices 1 2 3 4 5 6 
#
# 1 0.011670 -0.000192 -0.000399 0.000000 0.001951 0.000000
# 2 -0.000192 0.014154 -0.004408 0.000000 0.002536 0.000000
# 3 -0.000399 -0.004408 0.019972 0.000001 0.002420 0.000000
# 4 0.000000 0.000000 0.000001 0.039381 0.000000 0.016101
# 5 0.001951 0.002536 0.002420 0.000000 0.034108 0.000000
# 6 0.000000 0.000000 0.000000 0.016101 0.000000 0.004215
#
#
# Mechanical properties :
#
#
# Convention : Reuss Voigt Hill
#
# Bulk Modulus (GPa) = 27.93478 29.73729 28.83603
# Shear Modulus (GPa) = 34.38069 -74.42146 -20.02038
#
# Velocity S-wave (km/s) = 4.31679 -6.35115 -3.29412
# Velocity P-wave (km/s) = 6.32354 6.13718 1.07754
#
# Compressibility (1/GPa) = 0.03579767
#
# Stress axis : x y z
#
# Youngs Moduli (GPa) = 85.69037 70.65270 50.06947
#
# Poissons Ratio (x) = 0.01359 0.01998
# Poissons Ratio (y) = 0.01648 0.22070
# Poissons Ratio (z) = 0.03419 0.31142
#
# Static dielectric constant tensor:
#      x y z
#    x 1.675830 0.000000 -0.027870 
#    y 0.000000 1.642120 0.000000 
#    z -0.027870 0.000000 1.663490 
# 
# From -- ./inp_files/292473.got.cif
#   From: 2010.05.17/outbox.cif.g08.bks.cpg/sg12_147_cif.got.tgz:292473.got - 2010.06.03 13:09:07.
