data_PCOD9207884
_publ_section_title
;
Structure prediction by ZEFSAII (Michael W. Deem and Ramdas Pophale) SiO2 
 PCOD9207884
Probable space group: C 2/M
;
_chemical_formula_sum "Si O2"
_cell_formula_units_Z 64
_cell_length_a 30.410095
_cell_length_b 9.375921
_cell_length_c 18.800661
_cell_angle_alpha 90.000000
_cell_angle_beta 141.990574
_cell_angle_gamma 90.000000
_cell_volume 3300.944688
_symmetry_space_group_name_H-M "C 2/M"
_symmetry_group_IT_number 12
_symmetry_cell_setting 'monoclinic'
loop_
_space_group_symop_operation_xyz
x,y,z
-x,y,-z
-x,-y,-z
x,-y,z
1/2+x,1/2+y,z
1/2-x,1/2+y,-z
1/2-x,1/2-y,-z
1/2+x,1/2-y,z
loop_
_atom_site_type_symbol
_atom_site_label
_atom_site_fract_x
_atom_site_fract_y
_atom_site_fract_z
Si Si1 0.837190 0.835831 0.376896
Si Si2 0.877549 0.167748 0.023007
Si Si3 0.357622 0.169215 0.669120
Si Si4 0.498673 0.661213 0.413318
Si Si5 0.270150 0.168776 0.417735
Si Si6 0.208222 0.665238 0.812568
Si Si7 0.111078 0.667544 0.816004
Si Si8 0.488647 0.829454 0.069109
O O1 0.790750 0.741650 0.370558
O O2 0.831460 0.771183 0.291050
O O3 0.919283 0.830313 0.505814
O O4 0.813889 0.000000 0.347464
O O5 0.893889 0.242489 0.118818
O O6 0.923027 0.244847 0.019882
O O7 0.894695 0.000000 0.046655
O O8 0.792198 0.182285 0.906383
O O9 0.333230 0.193309 0.556452
O O10 0.301417 0.259848 0.643026
O O11 0.438650 0.203675 0.794250
O O12 0.347291 0.000000 0.670303
O O13 0.500000 0.677819 0.500000
O O14 0.471391 0.500000 0.363281
O O15 0.451666 0.779139 0.315504
O O16 0.260861 0.000000 0.398015
O O17 0.188783 0.500000 0.772299
O O18 0.182836 0.691979 0.860917
O O19 0.105686 0.500000 0.825149
O O20 0.476085 0.000000 0.058764
O O21 0.500000 0.796581 0.000000
#
# Coordination Sequence:
#
# PCOD9207884 Si02
#       8
#     8   8   8   8   8   8   8   8
#     4  11  23  37  60  89 122 162 203 247 301 365
#     4  11  25  43  64  91 124 161 207 257 307 366
#     4   9  20  40  62  87 119 156 199 246 303 362
#     4  10  21  39  59  87 124 161 201 246 300 357
#     4  10  21  37  60  89 122 157 197 247 299 363
#     4  10  23  42  62  90 125 162 207 257 308 361
#     4  11  23  40  65  92 123 164 208 255 308 365
#     4  10  23  43  65  91 123 159 204 255 306 366
#
# _framework density 19.388389
#
# number of rings (size 3 to 8) (size 9 to 14) (size 15 to 20)
#    0.000    1.750    1.250    1.875    3.500    4.000 
#    0.000    0.000    0.000    0.000    0.000    0.000 
#    0.000    0.000    0.000    0.000    0.000    0.000 
#
# Total GULP energy -178751.278917 kJ/mol
# GULP energy per Si atom -5585.977466 kJ/mol
# Density = 1.934426 g / cm^3
# Si number density = 19.388389 Si / 1000 Ang^3
#
#
#
# Elastic Constant Matrix: (Units=GPa)
#
#
# Indices 1 2 3 4 5 6 
#
# 1 101.1266 58.0417 16.2564 0.0000 -9.6634 0.0000
# 2 58.0417 73.4032 39.4309 0.0000 -1.2161 0.0000
# 3 16.2564 39.4309 48.9076 0.0000 3.3842 0.0000
# 4 0.0000 0.0000 0.0000 26.1334 0.0000 1.7710
# 5 -9.6634 -1.2161 3.3842 0.0000 17.5665 0.0000
# 6 0.0000 0.0000 0.0000 1.7710 0.0000 31.3137
#
#
#
# Elastic Compliance Matrix: (Units=1/GPa)
#
#
# Indices 1 2 3 4 5 6 
#
# 1 0.022378 -0.023348 0.010790 0.000000 0.008615 0.000000
# 2 -0.023348 0.048921 -0.031446 0.000000 -0.003399 0.000000
# 3 0.010790 -0.031446 0.042520 0.000000 -0.004433 0.000000
# 4 0.000000 0.000000 0.000000 0.038412 0.000000 -0.002173
# 5 0.008615 -0.003399 -0.004433 0.000000 0.062284 0.000000
# 6 0.000000 0.000000 0.000000 -0.002173 0.000000 0.032058
#
#
# Mechanical properties :
#
#
# Convention : Reuss Voigt Hill
#
# Bulk Modulus (GPa) = 38.74445 50.09950 44.42197
# Shear Modulus (GPa) = 14.56938 22.31662 18.44300
#
# Velocity S-wave (km/s) = 2.74423 3.39636 3.08756
# Velocity P-wave (km/s) = 5.48341 6.42467 5.97261
#
# Compressibility (1/GPa) = 0.02581015
#
# Stress axis : x y z
#
# Youngs Moduli (GPa) = 44.68669 20.44109 23.51851
#
# Poissons Ratio (x) = 0.47726 -0.25375
# Poissons Ratio (y) = 1.04335 0.73956
# Poissons Ratio (z) = -0.48215 0.64279
#
# Static dielectric constant tensor:
#      x y z
#    x 1.667950 0.000000 0.004290 
#    y 0.000000 1.645450 0.000000 
#    z 0.004290 0.000000 1.677110 
# 
# From -- ./inp_files/295833.got.cif
#   From: 2010.05.17/outbox.cif.g08.bks.cpg/sg12_148_cif.got.tgz:295833.got - 2010.06.03 13:09:07.
