data_PCOD9207349
_publ_section_title
;
Structure prediction by ZEFSAII (Michael W. Deem and Ramdas Pophale) SiO2 
 PCOD9207349
Probable space group: C 2/M
;
_chemical_formula_sum "Si O2"
_cell_formula_units_Z 56
_cell_length_a 8.831836
_cell_length_b 14.388801
_cell_length_c 22.205574
_cell_angle_alpha 90.000000
_cell_angle_beta 77.085993
_cell_angle_gamma 90.000000
_cell_volume 2750.499101
_symmetry_space_group_name_H-M "C 2/M"
_symmetry_group_IT_number 12
_symmetry_cell_setting 'monoclinic'
loop_
_space_group_symop_operation_xyz
x,y,z
-x,y,-z
-x,-y,-z
x,-y,z
1/2+x,1/2+y,z
1/2-x,1/2+y,-z
1/2-x,1/2-y,-z
1/2+x,1/2-y,z
loop_
_atom_site_type_symbol
_atom_site_label
_atom_site_fract_x
_atom_site_fract_y
_atom_site_fract_z
Si Si1 0.744911 0.857152 0.944443
Si Si2 0.328115 0.746021 0.368580
Si Si3 0.396134 0.153804 0.924489
Si Si4 0.037349 0.388744 0.425831
Si Si5 0.189403 0.608154 0.203710
Si Si6 0.452903 0.399391 0.820673
Si Si7 0.374628 0.282604 0.720133
O O1 0.575312 0.850950 0.928468
O O2 0.829724 0.757442 0.937204
O O3 0.862550 0.908439 0.890623
O O4 0.708517 0.894776 0.014423
O O5 0.195058 0.674014 0.402932
O O6 0.403534 0.824435 0.405494
O O7 0.470239 0.687906 0.328129
O O8 0.258389 0.796342 0.316144
O O9 0.376457 0.122380 0.857721
O O10 0.047180 0.500000 0.405963
O O11 0.000000 0.390612 0.500000
O O12 0.175166 0.500000 0.220380
O O13 0.372187 0.635296 0.184926
O O14 0.117433 0.674565 0.260642
O O15 0.465602 0.500000 0.790088
O O16 0.359125 0.334109 0.784352
#
# Coordination Sequence:
#
# PCOD9207349 Si02
#       7
#     8   8   8   8   8   8   8
#     4  10  21  37  58  84 110 152 197 264 331 397
#     4  10  23  40  69  98 137 181 218 263 319 383
#     4  10  21  37  59  82 113 147 203 263 331 395
#     4  10  22  44  74 108 143 178 222 272 319 376
#     4  11  24  40  61  86 118 163 210 264 328 387
#     4  11  24  39  58  85 120 159 203 259 322 384
#     4  11  22  41  60  90 129 169 213 261 309 372
#
# _framework density 20.359940000000002
#
# number of rings (size 3 to 8) (size 9 to 14) (size 15 to 20)
#    0.000    1.571    2.857    1.286    2.000    6.286 
#    0.000    5.000    0.000    7.714    0.000    0.000 
#    0.000    0.000    0.000    0.000    0.000    0.000 
#
# Total GULP energy -156011.604800 kJ/mol
# GULP energy per Si atom -5571.843029 kJ/mol
# Density = 2.031360 g / cm^3
# Si number density = 20.359940 Si / 1000 Ang^3
#
#
#
# Elastic Constant Matrix: (Units=GPa)
#
#
# Indices 1 2 3 4 5 6 
#
# 1 91.4688 26.1315 28.7220 0.0000 -2.9764 0.0000
# 2 26.1315 112.3224 35.2422 0.0000 -1.2956 0.0000
# 3 28.7220 35.2422 88.2347 0.0000 8.3553 0.0000
# 4 0.0000 0.0000 0.0000 -13.3848 0.0000 -7.4248
# 5 -2.9764 -1.2956 8.3553 0.0000 30.3555 0.0000
# 6 0.0000 0.0000 0.0000 -7.4248 0.0000 17.9408
#
#
#
# Elastic Compliance Matrix: (Units=1/GPa)
#
#
# Indices 1 2 3 4 5 6 
#
# 1 0.012646 -0.001785 -0.003608 0.000000 0.002157 0.000000
# 2 -0.001785 0.010506 -0.003739 0.000000 0.001302 0.000000
# 3 -0.003608 -0.003739 0.014426 0.000000 -0.004484 0.000000
# 4 0.000000 0.000000 0.000000 -0.060763 0.000000 -0.025146
# 5 0.002157 0.001302 -0.004484 0.000000 0.034444 0.000000
# 6 0.000000 0.000000 0.000000 -0.025146 0.000000 0.045332
#
#
# Mechanical properties :
#
#
# Convention : Reuss Voigt Hill
#
# Bulk Modulus (GPa) = 51.77368 52.46860 52.12114
# Shear Modulus (GPa) = 61.50638 20.44431 40.97535
#
# Velocity S-wave (km/s) = 5.50228 3.17226 4.49101
# Velocity P-wave (km/s) = 8.11487 6.26451 7.24898
#
# Compressibility (1/GPa) = 0.01931483
#
# Stress axis : x y z
#
# Youngs Moduli (GPa) = 79.07834 95.18090 69.32117
#
# Poissons Ratio (x) = 0.16992 0.25008
# Poissons Ratio (y) = 0.14117 0.25916
# Poissons Ratio (z) = 0.28528 0.35584
#
# Static dielectric constant tensor:
#      x y z
#    x 1.765660 0.000000 0.000750 
#    y 0.000000 1.772660 0.000000 
#    z 0.000750 0.000000 1.731530 
# 
# From -- ./inp_files/300166.got.cif
#   From: 2010.05.17/outbox.cif.g08.bks.cpg/sg12_151_cif.got.tgz:300166.got - 2010.06.03 13:09:07.
