data_PCOD9207109
_publ_section_title
;
Structure prediction by ZEFSAII (Michael W. Deem and Ramdas Pophale) SiO2 
 PCOD9207109
Probable space group: C 2/M
;
_chemical_formula_sum "Si O2"
_cell_formula_units_Z 64
_cell_length_a 25.542445
_cell_length_b 15.278724
_cell_length_c 9.239412
_cell_angle_alpha 90.000000
_cell_angle_beta 72.668807
_cell_angle_gamma 90.000000
_cell_volume 3442.030802
_symmetry_space_group_name_H-M "C 2/M"
_symmetry_group_IT_number 12
_symmetry_cell_setting 'monoclinic'
loop_
_space_group_symop_operation_xyz
x,y,z
-x,y,-z
-x,-y,-z
x,-y,z
1/2+x,1/2+y,z
1/2-x,1/2+y,-z
1/2-x,1/2-y,-z
1/2+x,1/2-y,z
loop_
_atom_site_type_symbol
_atom_site_label
_atom_site_fract_x
_atom_site_fract_y
_atom_site_fract_z
Si Si1 0.807413 0.596083 0.638148
Si Si2 0.984237 0.598339 0.678632
Si Si3 0.619162 0.218659 0.250008
Si Si4 0.335499 0.399777 0.734505
Si Si5 0.695789 0.598094 0.912195
Si Si6 0.846243 0.280648 0.094277
Si Si7 0.941625 0.400540 0.129663
Si Si8 0.257818 0.162384 0.397386
O O1 0.830695 0.500000 0.650580
O O2 0.851279 0.669037 0.643055
O O3 0.753938 0.609079 0.784061
O O4 0.787444 0.600709 0.489388
O O5 0.964268 0.500000 0.738966
O O6 0.938408 0.672249 0.736080
O O7 0.000000 0.596004 0.500000
O O8 0.039717 0.614366 0.721757
O O9 0.620104 0.322118 0.282475
O O10 0.655784 0.202772 0.075894
O O11 0.355343 0.500000 0.704826
O O12 0.297194 0.375475 0.629439
O O13 0.301580 0.395915 0.914941
O O14 0.676109 0.500000 0.894022
O O15 0.656457 0.675500 0.890633
O O16 0.899933 0.328802 0.108355
O O17 0.796516 0.316851 0.229768
O O18 0.919927 0.500000 0.130498
O O19 0.000000 0.395678 0.000000
O O20 0.250000 0.250000 0.500000
#
# Coordination Sequence:
#
# PCOD9207109 Si02
#       8
#     8   8   8   8   8   8   8   8
#     4  11  22  35  53  80 116 149 184 232 281 335
#     4  10  22  39  59  83 113 145 182 236 294 343
#     4  11  21  37  59  83 108 150 196 232 276 342
#     4  10  21  37  57  80 113 151 189 229 277 333
#     4   9  19  37  57  80 111 151 191 229 276 335
#     4  11  22  36  60  82 113 153 193 234 282 339
#     4  10  21  38  57  82 113 146 187 235 290 344
#     4  12  22  36  53  84 120 150 189 235 282 338
#
# _framework density 18.593674
#
# number of rings (size 3 to 8) (size 9 to 14) (size 15 to 20)
#    0.000    1.500    3.750    1.500    1.750    3.500 
#    0.000    0.000    0.000    1.500    0.000    0.000 
#    0.000    0.000    0.000    0.000    0.000    0.000 
#
# Total GULP energy -178478.093279 kJ/mol
# GULP energy per Si atom -5577.440415 kJ/mol
# Density = 1.855135 g / cm^3
# Si number density = 18.593674 Si / 1000 Ang^3
#
#
#
# Elastic Constant Matrix: (Units=GPa)
#
#
# Indices 1 2 3 4 5 6 
#
# 1 54.4008 61.6296 7.8389 0.0000 16.7984 0.0000
# 2 61.6296 149.2805 19.5538 0.0000 8.7587 0.0000
# 3 7.8389 19.5538 51.8004 0.0000 12.6797 0.0000
# 4 0.0000 0.0000 0.0000 22.7637 0.0000 5.4808
# 5 16.7984 8.7587 12.6797 0.0000 27.2779 0.0000
# 6 0.0000 0.0000 0.0000 5.4808 0.0000 25.4829
#
#
#
# Elastic Compliance Matrix: (Units=1/GPa)
#
#
# Indices 1 2 3 4 5 6 
#
# 1 0.046137 -0.018366 0.006163 0.000000 -0.025380 0.000000
# 2 -0.018366 0.014391 -0.004841 0.000000 0.008940 0.000000
# 3 0.006163 -0.004841 0.023412 0.000000 -0.013124 0.000000
# 4 0.000000 0.000000 0.000000 0.046329 0.000000 -0.009964
# 5 -0.025380 0.008940 -0.013124 0.000000 0.055519 0.000000
# 6 0.000000 0.000000 0.000000 -0.009964 0.000000 0.041385
#
#
# Mechanical properties :
#
#
# Convention : Reuss Voigt Hill
#
# Bulk Modulus (GPa) = 20.05902 48.16959 34.11430
# Shear Modulus (GPa) = 17.99354 26.20220 22.09787
#
# Velocity S-wave (km/s) = 3.11420 3.75800 3.45115
# Velocity P-wave (km/s) = 4.87263 6.69274 5.85386
#
# Compressibility (1/GPa) = 0.04985289
#
# Stress axis : x y z
#
# Youngs Moduli (GPa) = 21.67448 69.48991 42.71304
#
# Poissons Ratio (x) = 1.27623 -0.26326
# Poissons Ratio (y) = 0.39807 0.20678
# Poissons Ratio (z) = -0.13359 0.33641
#
# Static dielectric constant tensor:
#      x y z
#    x 1.624880 0.000000 0.018230 
#    y 0.000000 1.678780 0.000000 
#    z 0.018230 0.000000 1.692120 
# 
# From -- ./inp_files/104531.got.cif
#   From: 2010.05.17/outbox.cif.g08.bks.cpg/sg12_53_cif.got.tgz:104531.got - 2010.06.03 13:09:07.
