data_PCOD9207901
_publ_section_title
;
Structure prediction by ZEFSAII (Michael W. Deem and Ramdas Pophale) SiO2 
 PCOD9207901
Probable space group: C 2/M
;
_chemical_formula_sum "Si O2"
_cell_formula_units_Z 40
_cell_length_a 30.867791
_cell_length_b 10.956183
_cell_length_c 5.651490
_cell_angle_alpha 90.000000
_cell_angle_beta 61.668604
_cell_angle_gamma 90.000000
_cell_volume 1682.355454
_symmetry_space_group_name_H-M "C 2/M"
_symmetry_group_IT_number 12
_symmetry_cell_setting 'monoclinic'
loop_
_space_group_symop_operation_xyz
x,y,z
-x,y,-z
-x,-y,-z
x,-y,z
1/2+x,1/2+y,z
1/2-x,1/2+y,-z
1/2-x,1/2-y,-z
1/2+x,1/2-y,z
loop_
_atom_site_type_symbol
_atom_site_label
_atom_site_fract_x
_atom_site_fract_y
_atom_site_fract_z
Si Si1 0.441722 0.633710 0.692709
Si Si2 0.530671 0.134759 0.167547
Si Si3 0.787128 0.206169 0.101124
Si Si4 0.639000 0.365655 0.453912
Si Si5 0.310548 0.864815 0.421689
O O1 0.500000 0.626895 0.500000
O O2 0.426507 0.500000 0.822920
O O3 0.434328 0.748529 0.884398
O O4 0.415407 0.653549 0.508771
O O5 0.500000 0.130983 0.500000
O O6 0.554147 0.000000 0.089214
O O7 0.500000 0.149643 0.000000
O O8 0.748749 0.139957 0.374098
O O9 0.812168 0.326080 0.145298
O O10 0.750000 0.250000 0.000000
O O11 0.828822 0.129289 0.870416
O O12 0.643657 0.500000 0.557003
O O13 0.661128 0.248062 0.528379
O O14 0.328353 0.000000 0.433382
#
# Coordination Sequence:
#
# PCOD9207901 Si02
#       5
#     8   8   8   8   8
#     4   9  19  38  61  85 116 156 203 254 305 361
#     4   9  18  35  59  85 115 153 200 254 315 373
#     4   9  20  36  58  85 119 155 191 237 295 365
#     4  10  21  38  60  87 119 157 201 249 303 360
#     4  10  21  37  60  90 121 155 195 244 302 363
#
# _framework density 23.776187
#
# number of rings (size 3 to 8) (size 9 to 14) (size 15 to 20)
#    0.000    2.600    0.000    0.600    0.000   12.400 
#    7.200    0.000    0.000    0.000    0.000    0.000 
#    0.000    0.000    0.000    0.000    0.000    0.000 
#
# Total GULP energy -111394.769233 kJ/mol
# GULP energy per Si atom -5569.738462 kJ/mol
# Density = 2.372207 g / cm^3
# Si number density = 23.776187 Si / 1000 Ang^3
#
#
#
# Elastic Constant Matrix: (Units=GPa)
#
#
# Indices 1 2 3 4 5 6 
#
# 1 111.1995 42.0663 19.4896 0.0000 6.5846 0.0000
# 2 42.0663 260.2549 24.2290 0.0000 39.5018 0.0000
# 3 19.4896 24.2290 73.1976 0.0000 5.7786 0.0000
# 4 0.0000 0.0000 0.0000 14.9285 0.0000 21.1660
# 5 6.5846 39.5018 5.7786 0.0000 35.0704 0.0000
# 6 0.0000 0.0000 0.0000 21.1660 0.0000 16.5321
#
#
#
# Elastic Compliance Matrix: (Units=1/GPa)
#
#
# Indices 1 2 3 4 5 6 
#
# 1 0.009903 -0.001412 -0.002177 0.000000 0.000089 0.000000
# 2 -0.001412 0.004931 -0.000850 0.000000 -0.005149 0.000000
# 3 -0.002177 -0.000850 0.014605 0.000000 -0.001040 0.000000
# 4 0.000000 0.000000 0.000000 -0.082168 0.000000 0.105199
# 5 0.000089 -0.005149 -0.001040 0.000000 0.034469 0.000000
# 6 0.000000 0.000000 0.000000 0.105199 0.000000 -0.074198
#
#
# Mechanical properties :
#
#
# Convention : Reuss Voigt Hill
#
# Bulk Modulus (GPa) = 48.63165 68.46910 58.55038
# Shear Modulus (GPa) = -65.16613 37.23066 -13.96773
#
# Velocity S-wave (km/s) = -5.24096 3.96141 -2.42640
# Velocity P-wave (km/s) = 4.01562 7.05575 4.10234
#
# Compressibility (1/GPa) = 0.02056274
#
# Stress axis : x y z
#
# Youngs Moduli (GPa) = 100.97910 202.78893 68.47134
#
# Poissons Ratio (x) = 0.28625 0.14903
# Poissons Ratio (y) = 0.14254 0.05819
# Poissons Ratio (z) = 0.21979 0.17235
#
# Static dielectric constant tensor:
#      x y z
#    x 1.910290 0.000000 -0.041450 
#    y 0.000000 0.190790 0.000000 
#    z -0.041450 0.000000 2.076020 
# 
# From -- ./inp_files/27466.got.cif
#   From: 2010.05.17/outbox.cif.g08.bks.cpg/sg12_14_cif.got.tgz:27466.got - 2010.06.03 13:09:07.
