data_PCOD9207689
_publ_section_title
;
Structure prediction by ZEFSAII (Michael W. Deem and Ramdas Pophale) SiO2 
 PCOD9207689
Probable space group: C 2/M
;
_chemical_formula_sum "Si O2"
_cell_formula_units_Z 48
_cell_length_a 14.910497
_cell_length_b 8.850484
_cell_length_c 18.875905
_cell_angle_alpha 90.000000
_cell_angle_beta 94.625904
_cell_angle_gamma 90.000000
_cell_volume 2482.846716
_symmetry_space_group_name_H-M "C 2/M"
_symmetry_group_IT_number 12
_symmetry_cell_setting 'monoclinic'
loop_
_space_group_symop_operation_xyz
x,y,z
-x,y,-z
-x,-y,-z
x,-y,z
1/2+x,1/2+y,z
1/2-x,1/2+y,-z
1/2-x,1/2-y,-z
1/2+x,1/2-y,z
loop_
_atom_site_type_symbol
_atom_site_label
_atom_site_fract_x
_atom_site_fract_y
_atom_site_fract_z
Si Si1 0.395198 0.817756 0.497246
Si Si2 0.614156 0.678612 0.124736
Si Si3 0.576477 0.321798 0.834622
Si Si4 0.757620 0.680635 0.610934
Si Si5 0.151185 0.679782 0.983647
Si Si6 0.727809 0.819707 0.759818
O O1 0.500000 0.771492 0.500000
O O2 0.331384 0.744452 0.433713
O O3 0.344262 0.780088 0.567783
O O4 0.392226 0.000000 0.488788
O O5 0.618195 0.500000 0.105919
O O6 0.530571 0.698958 0.172087
O O7 0.704990 0.720741 0.171425
O O8 0.601102 0.773502 0.052692
O O9 0.596279 0.500000 0.834695
O O10 0.608978 0.252879 0.911254
O O11 0.630394 0.241647 0.775607
O O12 0.751914 0.500000 0.614119
O O13 0.761531 0.749096 0.689149
O O14 0.155526 0.500000 0.976032
O O15 0.250000 0.750000 0.000000
O O16 0.726751 0.000000 0.754065
#
# Coordination Sequence:
#
# PCOD9207689 Si02
#       6
#     8   8   8   8   8   8
#     4   9  19  38  63  90 119 153 192 235 281 338
#     4  10  23  41  60  84 116 153 195 245 300 352
#     4  11  23  40  61  86 116 152 195 248 301 353
#     4  10  21  37  59  88 121 154 191 237 286 340
#     4  12  23  37  60  86 114 152 197 247 299 352
#     4  11  23  40  60  83 118 159 196 238 288 350
#
# _framework density 19.332646
#
# number of rings (size 3 to 8) (size 9 to 14) (size 15 to 20)
#    0.000    1.500    1.667    3.500    0.000    6.333 
#    0.000    3.333    0.000    0.000    0.000    0.000 
#    0.000    0.000    0.000    0.000    0.000    0.000 
#
# Total GULP energy -134121.063706 kJ/mol
# GULP energy per Si atom -5588.377654 kJ/mol
# Density = 1.928864 g / cm^3
# Si number density = 19.332646 Si / 1000 Ang^3
#
#
#
# Elastic Constant Matrix: (Units=GPa)
#
#
# Indices 1 2 3 4 5 6 
#
# 1 97.5165 25.6012 16.2175 0.0000 -16.1215 0.0000
# 2 25.6012 43.9001 25.5118 0.0000 -6.6942 0.0000
# 3 16.2175 25.5118 82.1075 0.0000 -18.2561 0.0000
# 4 0.0000 0.0000 0.0000 35.9268 0.0000 -1.1165
# 5 -16.1215 -6.6942 -18.2561 0.0000 17.1558 0.0000
# 6 0.0000 0.0000 0.0000 -1.1165 0.0000 23.9275
#
#
#
# Elastic Compliance Matrix: (Units=1/GPa)
#
#
# Indices 1 2 3 4 5 6 
#
# 1 0.013954 -0.007614 0.002442 0.000000 0.012740 0.000000
# 2 -0.007614 0.032015 -0.009506 0.000000 -0.004778 0.000000
# 3 0.002442 -0.009506 0.018779 0.000000 0.018569 0.000000
# 4 0.000000 0.000000 0.000000 0.027875 0.000000 0.001301
# 5 0.012740 -0.004778 0.018569 0.000000 0.088157 0.000000
# 6 0.000000 0.000000 0.000000 0.001301 0.000000 0.041854
#
#
# Mechanical properties :
#
#
# Convention : Reuss Voigt Hill
#
# Bulk Modulus (GPa) = 28.25443 39.79836 34.02640
# Shear Modulus (GPa) = 18.95476 25.81494 22.38485
#
# Velocity S-wave (km/s) = 3.13462 3.65814 3.40645
# Velocity P-wave (km/s) = 5.26761 6.20270 5.75418
#
# Compressibility (1/GPa) = 0.03539268
#
# Stress axis : x y z
#
# Youngs Moduli (GPa) = 71.66581 31.23552 53.25049
#
# Poissons Ratio (x) = 0.23783 -0.13006
# Poissons Ratio (y) = 0.54566 0.50620
# Poissons Ratio (z) = -0.17504 0.29692
#
# Static dielectric constant tensor:
#      x y z
#    x 1.707440 0.000000 -0.032620 
#    y 0.000000 1.643750 0.000000 
#    z -0.032620 0.000000 1.657010 
# 
# From -- ./inp_files/267629.got.cif
#   From: 2010.05.17/outbox.cif.g08.bks.cpg/sg12_134_cif.got.tgz:267629.got - 2010.06.03 13:09:07.
