data_PCOD9207013
_publ_section_title
;
Structure prediction by ZEFSAII (Michael W. Deem and Ramdas Pophale) SiO2 
 PCOD9207013
Probable space group: C 2/M
;
_chemical_formula_sum "Si O2"
_cell_formula_units_Z 48
_cell_length_a 28.918130
_cell_length_b 19.669765
_cell_length_c 14.476246
_cell_angle_alpha 90.000000
_cell_angle_beta 162.043572
_cell_angle_gamma 90.000000
_cell_volume 2538.574492
_symmetry_space_group_name_H-M "C 2/M"
_symmetry_group_IT_number 12
_symmetry_cell_setting 'monoclinic'
loop_
_space_group_symop_operation_xyz
x,y,z
-x,y,-z
-x,-y,-z
x,-y,z
1/2+x,1/2+y,z
1/2-x,1/2+y,-z
1/2-x,1/2-y,-z
1/2+x,1/2-y,z
loop_
_atom_site_type_symbol
_atom_site_label
_atom_site_fract_x
_atom_site_fract_y
_atom_site_fract_z
Si Si1 0.545465 0.312159 0.277141
Si Si2 0.227677 0.419822 0.214275
Si Si3 0.089751 0.201391 0.790094
Si Si4 0.236800 0.837904 0.900469
Si Si5 0.930955 0.422049 0.766170
Si Si6 0.730993 0.292367 0.369104
O O1 0.648173 0.378295 0.490839
O O2 0.423721 0.312494 0.127859
O O3 0.559976 0.300848 0.011639
O O4 0.665794 0.250790 0.506285
O O5 0.255869 0.500000 0.273838
O O6 0.229055 0.395642 0.109731
O O7 0.065908 0.405537 0.952045
O O8 0.196495 0.151828 0.932072
O O9 0.919962 0.192951 0.433564
O O10 0.142731 0.278200 0.875722
O O11 0.881802 0.500000 0.656755
O O12 0.802175 0.366609 0.514263
O O13 0.000000 0.418434 0.000000
O O14 0.750000 0.250000 0.500000
#
# Coordination Sequence:
#
# PCOD9207013 Si02
#       6
#     8   8   8   8   8   8
#     4  11  21  34  54  79 110 143 183 231 278 331
#     4  10  21  37  56  80 113 152 191 232 282 337
#     4   9  17  30  50  77 103 135 177 224 278 324
#     4   9  17  31  51  77 105 135 178 227 278 332
#     4  10  21  38  58  79 108 147 187 227 278 339
#     4  12  23  36  57  85 114 145 185 234 285 335
#
# _framework density 18.908249999999999
#
# number of rings (size 3 to 8) (size 9 to 14) (size 15 to 20)
#    0.000    1.833    0.000    6.500    0.000    0.667 
#    0.000    6.667    0.000    5.000    0.000   11.667 
#    0.000    0.000    0.000    0.000    0.000    0.000 
#
# Total GULP energy -133768.801430 kJ/mol
# GULP energy per Si atom -5573.700060 kJ/mol
# Density = 1.886521 g / cm^3
# Si number density = 18.908250 Si / 1000 Ang^3
#
#
#
# Elastic Constant Matrix: (Units=GPa)
#
#
# Indices 1 2 3 4 5 6 
#
# 1 96.3304 19.8754 17.0961 0.0000 8.7661 0.0000
# 2 19.8754 79.2517 43.8438 0.0000 4.9770 0.0000
# 3 17.0961 43.8438 54.8982 0.0000 4.7849 0.0000
# 4 0.0000 0.0000 0.0000 32.4109 0.0000 0.0713
# 5 8.7661 4.9770 4.7849 0.0000 24.2866 0.0000
# 6 0.0000 0.0000 0.0000 0.0713 0.0000 31.7677
#
#
#
# Elastic Compliance Matrix: (Units=1/GPa)
#
#
# Indices 1 2 3 4 5 6 
#
# 1 0.011363 -0.001510 -0.002037 0.000000 -0.003390 0.000000
# 2 -0.001510 0.022835 -0.017711 0.000000 -0.000645 0.000000
# 3 -0.002037 -0.017711 0.033184 0.000000 -0.002173 0.000000
# 4 0.000000 0.000000 0.000000 0.030854 0.000000 -0.000069
# 5 -0.003390 -0.000645 -0.002173 0.000000 0.042959 0.000000
# 6 0.000000 0.000000 0.000000 -0.000069 0.000000 0.031479
#
#
# Mechanical properties :
#
#
# Convention : Reuss Voigt Hill
#
# Bulk Modulus (GPa) = 40.21506 43.56787 41.89147
# Shear Modulus (GPa) = 22.37370 27.67070 25.02220
#
# Velocity S-wave (km/s) = 3.44361 3.82962 3.64173
# Velocity P-wave (km/s) = 6.09311 6.53042 6.31555
#
# Compressibility (1/GPa) = 0.02486631
#
# Stress axis : x y z
#
# Youngs Moduli (GPa) = 88.00872 43.79240 30.13527
#
# Poissons Ratio (x) = 0.06611 0.06140
# Poissons Ratio (y) = 0.13285 0.53371
# Poissons Ratio (z) = 0.17930 0.77559
#
# Static dielectric constant tensor:
#      x y z
#    x 1.831280 0.000000 -0.007980 
#    y 0.000000 1.624620 0.000000 
#    z -0.007980 0.000000 1.656040 
# 
# From -- ./inp_files/247139.got.cif
#   From: 2010.05.17/outbox.cif.g08.bks.cpg/sg12_124_cif.got.tgz:247139.got - 2010.06.03 13:09:07.
