data_PCOD9207076
_publ_section_title
;
Structure prediction by ZEFSAII (Michael W. Deem and Ramdas Pophale) SiO2 
 PCOD9207076
Probable space group: C 2/M
;
_chemical_formula_sum "Si O2"
_cell_formula_units_Z 64
_cell_length_a 31.271956
_cell_length_b 9.074107
_cell_length_c 15.193171
_cell_angle_alpha 90.000000
_cell_angle_beta 131.396965
_cell_angle_gamma 90.000000
_cell_volume 3234.098354
_symmetry_space_group_name_H-M "C 2/M"
_symmetry_group_IT_number 12
_symmetry_cell_setting 'monoclinic'
loop_
_space_group_symop_operation_xyz
x,y,z
-x,y,-z
-x,-y,-z
x,-y,z
1/2+x,1/2+y,z
1/2-x,1/2+y,-z
1/2-x,1/2-y,-z
1/2+x,1/2-y,z
loop_
_atom_site_type_symbol
_atom_site_label
_atom_site_fract_x
_atom_site_fract_y
_atom_site_fract_z
Si Si1 0.219093 0.674017 0.190968
Si Si2 0.916975 0.833350 0.825094
Si Si3 0.461090 0.322616 0.578593
Si Si4 0.084201 0.821326 0.667214
Si Si5 0.206189 0.825915 0.875325
Si Si6 0.102212 0.170911 0.992205
Si Si7 0.489691 0.826496 0.788064
Si Si8 0.716737 0.325842 0.375167
O O1 0.208794 0.500000 0.190540
O O2 0.270298 0.691386 0.191840
O O3 0.162764 0.747715 0.071677
O O4 0.230160 0.750906 0.299557
O O5 0.915417 0.824873 0.928489
O O6 0.851670 0.811249 0.706241
O O7 0.958193 0.718744 0.835066
O O8 0.935470 0.000000 0.825812
O O9 0.458352 0.500000 0.586445
O O10 0.525012 0.282478 0.633012
O O11 0.420537 0.280082 0.442187
O O12 0.452448 0.241249 0.658221
O O13 0.141665 0.767175 0.790824
O O14 0.086167 0.000000 0.670665
O O15 0.205510 0.000000 0.894331
O O16 0.250000 0.750000 0.000000
O O17 0.107814 0.000000 0.973183
O O18 0.051487 0.249283 0.871616
O O19 0.495525 0.000000 0.787818
O O20 0.729278 0.500000 0.388257
O O21 0.750000 0.250000 0.500000
#
# Coordination Sequence:
#
# PCOD9207076 Si02
#       8
#     8   8   8   8   8   8   8   8
#     4  10  21  37  56  84 120 152 191 243 297 349
#     4   9  20  38  56  78 108 146 192 233 275 332
#     4   9  18  36  61  83 106 146 194 236 280 336
#     4   8  17  37  61  82 107 144 193 238 279 332
#     4  10  22  38  58  87 119 153 195 243 293 348
#     4  10  21  38  59  79 108 150 193 234 280 341
#     4  12  24  34  52  85 118 145 181 230 287 344
#     4  10  21  38  61  86 115 154 197 239 287 346
#
# _framework density 19.789133
#
# number of rings (size 3 to 8) (size 9 to 14) (size 15 to 20)
#    0.000    2.250    0.000    4.125    1.750    6.500 
#    0.000    4.375    0.000    0.000    0.000    0.000 
#    0.000    0.000    0.000    0.000    0.000    0.000 
#
# Total GULP energy -178737.852182 kJ/mol
# GULP energy per Si atom -5585.557881 kJ/mol
# Density = 1.974409 g / cm^3
# Si number density = 19.789133 Si / 1000 Ang^3
#
#
#
# Elastic Constant Matrix: (Units=GPa)
#
#
# Indices 1 2 3 4 5 6 
#
# 1 24.4109 18.9321 6.8922 0.0000 5.8412 0.0000
# 2 18.9321 84.5688 27.5977 0.0000 3.4082 0.0000
# 3 6.8922 27.5977 100.8372 0.0000 12.0863 0.0000
# 4 0.0000 0.0000 0.0000 26.6353 0.0000 1.0003
# 5 5.8412 3.4082 12.0863 0.0000 15.9983 0.0000
# 6 0.0000 0.0000 0.0000 1.0003 0.0000 22.5960
#
#
#
# Elastic Compliance Matrix: (Units=1/GPa)
#
#
# Indices 1 2 3 4 5 6 
#
# 1 0.054190 -0.011969 0.001801 0.000000 -0.018596 0.000000
# 2 -0.011969 0.015628 -0.003941 0.000000 0.004018 0.000000
# 3 0.001801 -0.003941 0.011931 0.000000 -0.008831 0.000000
# 4 0.000000 0.000000 0.000000 0.037607 0.000000 -0.001665
# 5 -0.018596 0.004018 -0.008831 0.000000 0.075112 0.000000
# 6 0.000000 0.000000 0.000000 -0.001665 0.000000 0.044329
#
#
# Mechanical properties :
#
#
# Convention : Reuss Voigt Hill
#
# Bulk Modulus (GPa) = 18.68096 35.18455 26.93276
# Shear Modulus (GPa) = 17.55254 23.47226 20.51240
#
# Velocity S-wave (km/s) = 2.98145 3.44774 3.22304
# Velocity P-wave (km/s) = 4.61655 5.80238 5.24310
#
# Compressibility (1/GPa) = 0.05353044
#
# Stress axis : x y z
#
# Youngs Moduli (GPa) = 18.45368 63.98646 83.81575
#
# Poissons Ratio (x) = 0.76588 -0.15095
# Poissons Ratio (y) = 0.22088 0.33029
# Poissons Ratio (z) = -0.03323 0.25215
#
# Static dielectric constant tensor:
#      x y z
#    x 1.710220 0.000000 -0.001700 
#    y 0.000000 1.664920 0.000000 
#    z -0.001700 0.000000 1.704740 
# 
# From -- ./inp_files/250100.got.cif
#   From: 2010.05.17/outbox.cif.g08.bks.cpg/sg12_126_cif.got.tgz:250100.got - 2010.06.03 13:09:07.
