data_PCOD9207652
_publ_section_title
;
Structure prediction by ZEFSAII (Michael W. Deem and Ramdas Pophale) SiO2 
 PCOD9207652
Probable space group: C 2/M
;
_chemical_formula_sum "Si O2"
_cell_formula_units_Z 64
_cell_length_a 26.042208
_cell_length_b 8.993439
_cell_length_c 15.470962
_cell_angle_alpha 90.000000
_cell_angle_beta 57.613719
_cell_angle_gamma 90.000000
_cell_volume 3059.835260
_symmetry_space_group_name_H-M "C 2/M"
_symmetry_group_IT_number 12
_symmetry_cell_setting 'monoclinic'
loop_
_space_group_symop_operation_xyz
x,y,z
-x,y,-z
-x,-y,-z
x,-y,z
1/2+x,1/2+y,z
1/2-x,1/2+y,-z
1/2-x,1/2-y,-z
1/2+x,1/2-y,z
loop_
_atom_site_type_symbol
_atom_site_label
_atom_site_fract_x
_atom_site_fract_y
_atom_site_fract_z
Si Si1 0.087818 0.323039 0.040093
Si Si2 0.014155 0.328912 0.583635
Si Si3 0.660365 0.169100 0.464770
Si Si4 0.345017 0.328342 0.357010
Si Si5 0.508328 0.328347 0.765013
Si Si6 0.185012 0.178014 0.082164
Si Si7 0.202923 0.676525 0.241180
Si Si8 0.339407 0.675822 0.169412
O O1 0.092128 0.500000 0.039397
O O2 0.022735 0.266905 0.131899
O O3 0.134523 0.247921 0.065652
O O4 0.108574 0.262844 0.928207
O O5 0.991434 0.500000 0.609303
O O6 0.087128 0.332339 0.526913
O O7 0.000000 0.272001 0.500000
O O8 0.990839 0.236239 0.686439
O O9 0.678647 0.247309 0.536639
O O10 0.682225 0.232056 0.353855
O O11 0.682918 0.000000 0.446745
O O12 0.326778 0.500000 0.378316
O O13 0.418717 0.321675 0.293651
O O14 0.327938 0.270371 0.277597
O O15 0.489243 0.500000 0.789458
O O16 0.174149 0.229902 0.190281
O O17 0.186943 0.000000 0.071858
O O18 0.250000 0.250000 0.000000
O O19 0.187533 0.500000 0.246444
O O20 0.276100 0.688539 0.174882
O O21 0.355031 0.500000 0.160059
#
# Coordination Sequence:
#
# PCOD9207652 Si02
#       8
#     8   8   8   8   8   8   8   8
#     4  12  25  40  60  87 118 153 196 242 296 354
#     4   9  18  33  53  79 112 151 192 238 292 349
#     4   9  19  35  55  83 117 153 193 240 291 343
#     4   9  20  39  61  84 115 156 196 244 297 348
#     4  10  21  38  58  83 115 151 195 243 295 350
#     4  12  24  40  61  87 120 157 194 239 291 345
#     4  10  21  37  59  87 119 157 199 241 288 346
#     4  10  21  39  61  84 115 155 200 244 293 350
#
# _framework density 20.916156999999998
#
# number of rings (size 3 to 8) (size 9 to 14) (size 15 to 20)
#    0.000    1.875    1.250    2.625    1.750    2.750 
#    0.000    2.500    0.000    0.000    0.000    0.000 
#    0.000    0.000    0.000    0.000    0.000    0.000 
#
# Total GULP energy -178829.690436 kJ/mol
# GULP energy per Si atom -5588.427826 kJ/mol
# Density = 2.086855 g / cm^3
# Si number density = 20.916157 Si / 1000 Ang^3
#
#
#
# Elastic Constant Matrix: (Units=GPa)
#
#
# Indices 1 2 3 4 5 6 
#
# 1 41.9818 6.5912 -0.3787 0.0000 18.5947 0.0000
# 2 6.5912 88.4733 34.2364 0.0000 10.4633 -0.0001
# 3 -0.3787 34.2364 105.3133 0.0000 23.1949 0.0000
# 4 0.0000 0.0000 0.0000 37.2990 0.0000 9.0633
# 5 18.5947 10.4633 23.1949 0.0000 37.7670 0.0000
# 6 0.0000 -0.0001 0.0000 9.0633 0.0000 17.7490
#
#
#
# Elastic Compliance Matrix: (Units=1/GPa)
#
#
# Indices 1 2 3 4 5 6 
#
# 1 0.032291 -0.002112 0.004829 0.000000 -0.018279 0.000000
# 2 -0.002112 0.013111 -0.004278 0.000000 0.000035 0.000000
# 3 0.004829 -0.004278 0.012913 0.000000 -0.009123 0.000000
# 4 0.000000 0.000000 0.000000 0.030608 0.000000 -0.015630
# 5 -0.018279 0.000035 -0.009123 0.000000 0.041071 0.000000
# 6 0.000000 0.000000 0.000000 -0.015630 0.000000 0.064322
#
#
# Mechanical properties :
#
#
# Convention : Reuss Voigt Hill
#
# Bulk Modulus (GPa) = 18.11835 35.18514 26.65174
# Shear Modulus (GPa) = 23.16559 31.58428 27.37493
#
# Velocity S-wave (km/s) = 3.33159 3.89014 3.62165
# Velocity P-wave (km/s) = 4.84567 6.08573 5.50076
#
# Compressibility (1/GPa) = 0.05519266
#
# Stress axis : x y z
#
# Youngs Moduli (GPa) = 30.96813 76.26935 77.44300
#
# Poissons Ratio (x) = 0.16112 -0.37395
# Poissons Ratio (y) = 0.06542 0.33127
# Poissons Ratio (z) = -0.14954 0.32625
#
# Static dielectric constant tensor:
#      x y z
#    x 1.762270 0.000000 -0.007840 
#    y 0.000000 1.711290 0.000000 
#    z -0.007840 0.000000 1.776980 
# 
# From -- ./inp_files/249825.got.cif
#   From: 2010.05.17/outbox.cif.g08.bks.cpg/sg12_125_cif.got.tgz:249825.got - 2010.06.03 13:09:07.
