data_PCOD9207734
_publ_section_title
;
Structure prediction by ZEFSAII (Michael W. Deem and Ramdas Pophale) SiO2 
 PCOD9207734
Probable space group: C 2/M
;
_chemical_formula_sum "Si O2"
_cell_formula_units_Z 48
_cell_length_a 12.367808
_cell_length_b 13.752457
_cell_length_c 14.855583
_cell_angle_alpha 90.000000
_cell_angle_beta 122.525646
_cell_angle_gamma 90.000000
_cell_volume 2130.433678
_symmetry_space_group_name_H-M "C 2/M"
_symmetry_group_IT_number 12
_symmetry_cell_setting 'monoclinic'
loop_
_space_group_symop_operation_xyz
x,y,z
-x,y,-z
-x,-y,-z
x,-y,z
1/2+x,1/2+y,z
1/2-x,1/2+y,-z
1/2-x,1/2-y,-z
1/2+x,1/2-y,z
loop_
_atom_site_type_symbol
_atom_site_label
_atom_site_fract_x
_atom_site_fract_y
_atom_site_fract_z
Si Si1 0.916135 0.887717 0.327904
Si Si2 0.909050 0.181210 0.029054
Si Si3 0.902148 0.786022 0.722709
Si Si4 0.708659 0.110869 0.072148
Si Si5 0.150563 0.616081 0.562732
Si Si6 0.728364 0.113408 0.393122
O O1 0.800701 0.883549 0.201962
O O2 0.859452 0.860238 0.399913
O O3 0.029894 0.825356 0.337179
O O4 0.960576 0.000000 0.352108
O O5 0.790722 0.121946 0.016547
O O6 0.000081 0.195424 0.154971
O O7 0.867917 0.286246 0.968168
O O8 0.000000 0.127474 0.000000
O O9 0.761407 0.834072 0.672387
O O10 0.880918 0.672038 0.706144
O O11 0.652841 0.000000 0.049025
O O12 0.153749 0.500000 0.580601
O O13 0.204827 0.635232 0.486689
O O14 0.000000 0.644756 0.500000
O O15 0.714661 0.000000 0.374339
#
# Coordination Sequence:
#
# PCOD9207734 Si02
#       6
#     8   8   8   8   8   8
#     4   9  19  37  62  92 121 156 204 246 294 360
#     4  10  21  37  59  90 121 157 205 242 288 362
#     4  11  22  37  65  88 122 161 203 248 305 349
#     4   9  19  37  58  86 126 159 190 246 302 346
#     4  10  23  43  62  88 124 158 200 253 307 360
#     4  10  22  39  60  89 121 154 200 250 299 362
#
# _framework density 22.530622000000001
#
# number of rings (size 3 to 8) (size 9 to 14) (size 15 to 20)
#    0.000    2.167    0.000    2.000    2.333    2.667 
#    0.000    2.500    0.000    0.000    0.000    0.000 
#    0.000    0.000    0.000    0.000    0.000    0.000 
#
# Total GULP energy -133861.304535 kJ/mol
# GULP energy per Si atom -5577.554356 kJ/mol
# Density = 2.247934 g / cm^3
# Si number density = 22.530622 Si / 1000 Ang^3
#
#
#
# Elastic Constant Matrix: (Units=GPa)
#
#
# Indices 1 2 3 4 5 6 
#
# 1 119.0455 22.5082 16.2190 0.0000 3.6095 0.0000
# 2 22.5082 77.6735 20.0602 0.0000 18.3350 0.0000
# 3 16.2190 20.0602 32.7521 0.0000 9.2189 0.0000
# 4 0.0000 0.0000 0.0000 -63.3471 0.0000 51.5003
# 5 3.6095 18.3350 9.2189 0.0000 29.9576 0.0000
# 6 0.0000 0.0000 0.0000 51.5003 0.0000 -19.1508
#
#
#
# Elastic Compliance Matrix: (Units=1/GPa)
#
#
# Indices 1 2 3 4 5 6 
#
# 1 0.009248 -0.002023 -0.003695 0.000000 0.001261 0.000000
# 2 -0.002023 0.017248 -0.007291 0.000000 -0.008069 0.000000
# 3 -0.003695 -0.007291 0.038808 0.000000 -0.007035 0.000000
# 4 0.000000 0.000000 0.000000 0.013307 0.000000 0.035786
# 5 0.001261 -0.008069 -0.007035 0.000000 0.040332 0.000000
# 6 0.000000 0.000000 0.000000 0.035786 0.000000 0.044018
#
#
# Mechanical properties :
#
#
# Convention : Reuss Voigt Hill
#
# Bulk Modulus (GPa) = 25.45508 38.56064 32.00786
# Shear Modulus (GPa) = 24.74313 0.87084 12.80698
#
# Velocity S-wave (km/s) = 3.31750 0.62238 2.38675
# Velocity P-wave (km/s) = 5.09872 4.20338 4.67255
#
# Compressibility (1/GPa) = 0.03928489
#
# Stress axis : x y z
#
# Youngs Moduli (GPa) = 108.13254 57.97607 25.76765
#
# Poissons Ratio (x) = 0.11730 0.09522
# Poissons Ratio (y) = 0.21877 0.18788
# Poissons Ratio (z) = 0.39960 0.42272
#
# Static dielectric constant tensor:
#      x y z
#    x 1.843310 0.000000 -0.003570 
#    y 0.000000 1.829990 0.000000 
#    z -0.003570 0.000000 1.823880 
# 
# From -- ./inp_files/205149.got.cif
#   From: 2010.05.17/outbox.cif.g08.bks.cpg/sg12_103_cif.got.tgz:205149.got - 2010.06.03 13:09:07.
