data_PCOD9207817
_publ_section_title
;
Structure prediction by ZEFSAII (Michael W. Deem and Ramdas Pophale) SiO2 
 PCOD9207817
Probable space group: C 2/M
;
_chemical_formula_sum "Si O2"
_cell_formula_units_Z 64
_cell_length_a 12.533864
_cell_length_b 19.592599
_cell_length_c 22.471087
_cell_angle_alpha 90.000000
_cell_angle_beta 142.507369
_cell_angle_gamma 90.000000
_cell_volume 3358.732636
_symmetry_space_group_name_H-M "C 2/M"
_symmetry_group_IT_number 12
_symmetry_cell_setting 'monoclinic'
loop_
_space_group_symop_operation_xyz
x,y,z
-x,y,-z
-x,-y,-z
x,-y,z
1/2+x,1/2+y,z
1/2-x,1/2+y,-z
1/2-x,1/2-y,-z
1/2+x,1/2-y,z
loop_
_atom_site_type_symbol
_atom_site_label
_atom_site_fract_x
_atom_site_fract_y
_atom_site_fract_z
Si Si1 0.298386 0.687995 0.841206
Si Si2 0.330613 0.421939 0.384908
Si Si3 0.125634 0.579590 0.607831
Si Si4 0.838081 0.279061 0.098771
Si Si5 0.517564 0.075421 0.692201
Si Si6 0.808014 0.666354 0.780908
Si Si7 0.513654 0.358186 0.184680
Si Si8 0.691870 0.919756 0.103520
O O1 0.304276 0.703708 0.913959
O O2 0.274309 0.757577 0.792108
O O3 0.444308 0.647757 0.867211
O O4 0.132834 0.638100 0.764638
O O5 0.500000 0.410368 0.500000
O O6 0.340484 0.500000 0.363648
O O7 0.166640 0.421572 0.357019
O O8 0.298857 0.363367 0.322030
O O9 0.167602 0.500000 0.612745
O O10 0.309343 0.617107 0.704039
O O11 0.000000 0.606622 0.500000
O O12 0.014544 0.580738 0.619612
O O13 0.984382 0.334367 0.144833
O O14 0.953533 0.217322 0.177540
O O15 0.750000 0.250000 0.000000
O O16 0.596646 0.000000 0.740373
O O17 0.765459 0.616705 0.816237
O O18 0.346268 0.404105 0.125432
O O19 0.677776 0.000000 0.105958
O O20 0.500000 0.892719 0.000000
#
# Coordination Sequence:
#
# PCOD9207817 Si02
#       8
#     8   8   8   8   8   8   8   8
#     4  10  21  39  63  92 121 159 210 258 317 376
#     4  10  21  38  60  87 121 165 215 258 312 381
#     4   9  18  34  60  91 119 156 207 255 309 375
#     4  11  22  39  63  88 121 160 212 259 312 387
#     4   9  18  37  61  85 120 159 200 257 312 364
#     4  11  22  37  62  88 124 161 210 259 318 372
#     4  10  21  37  60  86 124 162 203 258 312 370
#     4  11  23  39  60  91 132 168 208 260 319 384
#
# _framework density 19.054807
#
# number of rings (size 3 to 8) (size 9 to 14) (size 15 to 20)
#    0.000    1.875    2.500    1.500    0.000    3.000 
#    0.000    8.750    0.000    0.750    0.000    8.750 
#    0.000    0.000    0.000    0.000    0.000    0.000 
#
# Total GULP energy -178316.663561 kJ/mol
# GULP energy per Si atom -5572.395736 kJ/mol
# Density = 1.901144 g / cm^3
# Si number density = 19.054807 Si / 1000 Ang^3
#
#
#
# Elastic Constant Matrix: (Units=GPa)
#
#
# Indices 1 2 3 4 5 6 
#
# 1 113.6026 49.4300 59.1913 0.0000 -2.1760 0.0000
# 2 49.4300 63.5994 39.3136 0.0000 -3.0795 0.0000
# 3 59.1913 39.3136 102.0547 0.0004 -7.9238 0.0002
# 4 0.0000 0.0000 0.0004 25.8563 0.0001 5.6242
# 5 -2.1760 -3.0795 -7.9238 0.0001 21.6930 0.0001
# 6 0.0000 0.0000 0.0002 5.6242 0.0001 23.8308
#
#
#
# Elastic Compliance Matrix: (Units=1/GPa)
#
#
# Indices 1 2 3 4 5 6 
#
# 1 0.015538 -0.008540 -0.005862 0.000000 -0.001795 0.000000
# 2 -0.008540 0.025331 -0.004726 0.000000 0.001013 0.000000
# 3 -0.005862 -0.004726 0.015357 0.000000 0.004350 0.000000
# 4 0.000000 0.000000 0.000000 0.040768 0.000000 -0.009621
# 5 -0.001795 0.001013 0.004350 0.000000 0.047651 0.000000
# 6 0.000000 0.000000 0.000000 -0.009621 0.000000 0.044233
#
#
# Mechanical properties :
#
#
# Convention : Reuss Voigt Hill
#
# Bulk Modulus (GPa) = 55.64695 63.90295 59.77495
# Shear Modulus (GPa) = 21.44773 23.03082 22.23928
#
# Velocity S-wave (km/s) = 3.35861 3.48035 3.42002
# Velocity P-wave (km/s) = 6.65638 7.05405 6.85810
#
# Compressibility (1/GPa) = 0.01797044
#
# Stress axis : x y z
#
# Youngs Moduli (GPa) = 64.35715 39.47663 65.11731
#
# Poissons Ratio (x) = 0.33713 0.38170
# Poissons Ratio (y) = 0.54961 0.30777
# Poissons Ratio (z) = 0.37724 0.18658
#
# Static dielectric constant tensor:
#      x y z
#    x 1.707700 0.000000 0.005660 
#    y 0.000000 1.687400 0.000000 
#    z 0.005660 0.000000 1.667320 
# 
# From -- ./inp_files/306802.got.cif
#   From: 2010.05.17/outbox.cif.g08.bks.cpg/sg12_154_cif.got.tgz:306802.got - 2010.06.03 13:09:07.
