data_PCOD9207536
_publ_section_title
;
Structure prediction by ZEFSAII (Michael W. Deem and Ramdas Pophale) SiO2 
 PCOD9207536
Probable space group: C 2/M
;
_chemical_formula_sum "Si O2"
_cell_formula_units_Z 48
_cell_length_a 20.894078
_cell_length_b 21.064187
_cell_length_c 8.883542
_cell_angle_alpha 90.000000
_cell_angle_beta 41.110625
_cell_angle_gamma 90.000000
_cell_volume 2570.749278
_symmetry_space_group_name_H-M "C 2/M"
_symmetry_group_IT_number 12
_symmetry_cell_setting 'monoclinic'
loop_
_space_group_symop_operation_xyz
x,y,z
-x,y,-z
-x,-y,-z
x,-y,z
1/2+x,1/2+y,z
1/2-x,1/2+y,-z
1/2-x,1/2-y,-z
1/2+x,1/2-y,z
loop_
_atom_site_type_symbol
_atom_site_label
_atom_site_fract_x
_atom_site_fract_y
_atom_site_fract_z
Si Si1 0.748700 0.781985 0.165052
Si Si2 0.568951 0.778301 0.671012
Si Si3 0.590391 0.368988 0.247170
Si Si4 0.221191 0.074238 0.286016
Si Si5 0.047594 0.124972 0.754775
Si Si6 0.363997 0.820806 0.119506
O O1 0.640616 0.798940 0.409782
O O2 0.781740 0.730733 0.228584
O O3 0.750000 0.750000 0.000000
O O4 0.834918 0.832176 0.993417
O O5 0.561925 0.701352 0.701837
O O6 0.608845 0.810498 0.754432
O O7 0.458699 0.802482 0.854778
O O8 0.500000 0.335013 0.500000
O O9 0.660362 0.400692 0.247580
O O10 0.523649 0.405711 0.245411
O O11 0.150778 0.091850 0.549855
O O12 0.319279 0.113152 0.143903
O O13 0.237174 0.000000 0.243533
O O14 0.000000 0.117467 0.000000
#
# Coordination Sequence:
#
# PCOD9207536 Si02
#       6
#     8   8   8   8   8   8
#     4  12  20  32  60  94 122 150 196 253 323 370
#     4  11  22  36  60  99 126 150 197 262 329 360
#     4  10  21  37  58  90 122 159 195 257 309 364
#     4  11  25  43  59  83 125 178 214 235 293 375
#     4  11  20  36  64  95 125 151 194 264 322 364
#     4  11  22  38  62  91 122 164 193 259 312 366
#
# _framework density 18.671597999999999
#
# number of rings (size 3 to 8) (size 9 to 14) (size 15 to 20)
#    0.000    1.000    6.667    1.500    2.333    3.333 
#    0.000    1.667    0.000    2.000    0.000    0.000 
#    0.000    0.000    0.000    0.000    0.000    0.000 
#
# Total GULP energy -133689.193615 kJ/mol
# GULP energy per Si atom -5570.383067 kJ/mol
# Density = 1.862910 g / cm^3
# Si number density = 18.671598 Si / 1000 Ang^3
#
#
#
# Elastic Constant Matrix: (Units=GPa)
#
#
# Indices 1 2 3 4 5 6 
#
# 1 71.2530 16.6205 13.1091 0.0000 -3.5510 0.0000
# 2 16.6205 79.2223 8.3183 0.0000 -12.2552 0.0000
# 3 13.1091 8.3183 122.4951 0.0000 -2.1884 0.0000
# 4 0.0000 0.0000 0.0000 9.6632 0.0000 -1.0233
# 5 -3.5510 -12.2552 -2.1884 0.0000 29.5383 0.0000
# 6 0.0000 0.0000 0.0000 -1.0233 0.0000 6.6055
#
#
#
# Elastic Compliance Matrix: (Units=1/GPa)
#
#
# Indices 1 2 3 4 5 6 
#
# 1 0.014998 -0.002925 -0.001398 0.000000 0.000486 0.000000
# 2 -0.002925 0.014141 -0.000549 0.000000 0.005475 0.000000
# 3 -0.001398 -0.000549 0.008354 0.000000 0.000223 0.000000
# 4 0.000000 0.000000 0.000000 0.105212 0.000000 0.016299
# 5 0.000486 0.005475 0.000223 0.000000 0.036201 0.000000
# 6 0.000000 0.000000 0.000000 0.016299 0.000000 0.153913
#
#
# Mechanical properties :
#
#
# Convention : Reuss Voigt Hill
#
# Bulk Modulus (GPa) = 36.03635 38.78515 37.41075
# Shear Modulus (GPa) = 14.21211 24.82290 19.51750
#
# Velocity S-wave (km/s) = 2.76191 3.65011 3.23662
# Velocity P-wave (km/s) = 5.43257 6.21143 5.83501
#
# Compressibility (1/GPa) = 0.02774976
#
# Stress axis : x y z
#
# Youngs Moduli (GPa) = 66.67528 70.71699 119.69638
#
# Poissons Ratio (x) = 0.20682 0.16731
# Poissons Ratio (y) = 0.19500 0.06577
# Poissons Ratio (z) = 0.09320 0.03886
#
# Static dielectric constant tensor:
#      x y z
#    x 1.725100 0.000000 -0.019720 
#    y 0.000000 1.667870 0.000000 
#    z -0.019720 0.000000 1.670720 
# 
# From -- ./inp_files/89410.got.cif
#   From: 2010.05.17/outbox.cif.g08.bks.cpg/sg12_45_cif.got.tgz:89410.got - 2010.06.03 13:09:07.
