data_PCOD9207948
_publ_section_title
;
Structure prediction by ZEFSAII (Michael W. Deem and Ramdas Pophale) SiO2 
 PCOD9207948
Probable space group: C 2/M
;
_chemical_formula_sum "Si O2"
_cell_formula_units_Z 48
_cell_length_a 28.214415
_cell_length_b 14.053786
_cell_length_c 6.203143
_cell_angle_alpha 90.000000
_cell_angle_beta 100.276598
_cell_angle_gamma 90.000000
_cell_volume 2420.208234
_symmetry_space_group_name_H-M "C 2/M"
_symmetry_group_IT_number 12
_symmetry_cell_setting 'monoclinic'
loop_
_space_group_symop_operation_xyz
x,y,z
-x,y,-z
-x,-y,-z
x,-y,z
1/2+x,1/2+y,z
1/2-x,1/2+y,-z
1/2-x,1/2-y,-z
1/2+x,1/2-y,z
loop_
_atom_site_type_symbol
_atom_site_label
_atom_site_fract_x
_atom_site_fract_y
_atom_site_fract_z
Si Si1 0.387811 0.734235 0.216233
Si Si2 0.554683 0.110058 0.469410
Si Si3 0.213243 0.396173 0.466434
Si Si4 0.219235 0.213562 0.774590
Si Si5 0.019260 0.886017 0.767140
Si Si6 0.385684 0.104164 0.870715
O O1 0.411806 0.807632 0.406109
O O2 0.336493 0.689701 0.232178
O O3 0.427110 0.655532 0.194212
O O4 0.378703 0.805911 0.012737
O O5 0.500000 0.125552 0.500000
O O6 0.564907 0.113939 0.222831
O O7 0.567090 0.000000 0.539144
O O8 0.222677 0.500000 0.571727
O O9 0.217048 0.307622 0.625944
O O10 0.251673 0.371864 0.311961
O O11 0.159614 0.397441 0.326607
O O12 0.250000 0.250000 0.000000
O O13 0.000000 0.859183 0.500000
O O14 0.016165 0.000000 0.766586
O O15 0.000000 0.856536 0.000000
O O16 0.385735 0.000000 0.979594
#
# Coordination Sequence:
#
# PCOD9207948 Si02
#       6
#     8   8   8   8   8   8
#     4  12  23  36  67  91 128 165 213 265 327 380
#     4  10  22  38  57  90 130 165 206 252 309 389
#     4  10  22  41  63  86 123 168 208 260 326 387
#     4  11  23  40  60  93 126 157 213 267 314 391
#     4  10  25  48  71  97 131 175 228 281 334 391
#     4  10  21  37  60  92 126 165 206 251 318 397
#
# _framework density 19.833003999999999
#
# number of rings (size 3 to 8) (size 9 to 14) (size 15 to 20)
#    0.000    1.500    3.333    1.000    4.667    2.000 
#    0.000    2.500    0.000    0.000    0.000    0.000 
#    0.000    0.000    0.000    0.000    0.000    0.000 
#
# Total GULP energy -133607.499564 kJ/mol
# GULP energy per Si atom -5566.979148 kJ/mol
# Density = 1.978786 g / cm^3
# Si number density = 19.833004 Si / 1000 Ang^3
#
#
#
# Elastic Constant Matrix: (Units=GPa)
#
#
# Indices 1 2 3 4 5 6 
#
# 1 129.2976 10.5978 24.0643 0.0000 -25.8347 0.0000
# 2 10.5978 28.3166 6.4552 0.0000 -4.3868 0.0000
# 3 24.0643 6.4552 56.9909 0.0000 -2.8452 0.0000
# 4 0.0000 0.0000 0.0000 16.8815 0.0000 0.5986
# 5 -25.8347 -4.3868 -2.8452 0.0000 27.3322 0.0000
# 6 0.0000 0.0000 0.0000 0.5986 0.0000 27.1720
#
#
#
# Elastic Compliance Matrix: (Units=1/GPa)
#
#
# Indices 1 2 3 4 5 6 
#
# 1 0.010398 -0.001615 -0.003750 0.000000 0.009179 0.000000
# 2 -0.001615 0.037318 -0.003340 0.000000 0.004115 0.000000
# 3 -0.003750 -0.003340 0.019405 0.000000 -0.002060 0.000000
# 4 0.000000 0.000000 0.000000 0.059283 0.000000 -0.001306
# 5 0.009179 0.004115 -0.002060 0.000000 0.045709 0.000000
# 6 0.000000 0.000000 0.000000 -0.001306 0.000000 0.036831
#
#
# Mechanical properties :
#
#
# Convention : Reuss Voigt Hill
#
# Bulk Modulus (GPa) = 20.11508 32.98219 26.54863
# Shear Modulus (GPa) = 20.58253 25.84300 23.21277
#
# Velocity S-wave (km/s) = 3.22497 3.61367 3.42484
# Velocity P-wave (km/s) = 4.90219 5.83759 5.39022
#
# Compressibility (1/GPa) = 0.04971395
#
# Stress axis : x y z
#
# Youngs Moduli (GPa) = 96.16885 26.79652 51.53227
#
# Poissons Ratio (x) = 0.04327 0.19322
# Poissons Ratio (y) = 0.15530 0.17210
# Poissons Ratio (z) = 0.36059 0.08949
#
# Static dielectric constant tensor:
#      x y z
#    x 1.674070 0.000000 -0.036760 
#    y 0.000000 1.672100 0.000000 
#    z -0.036760 0.000000 1.807930 
# 
# From -- ./inp_files/28163.got.cif
#   From: 2010.05.17/outbox.cif.g08.bks.cpg/sg12_15_cif.got.tgz:28163.got - 2010.06.03 13:09:07.
