data_PCOD9207989
_publ_section_title
;
Structure prediction by ZEFSAII (Michael W. Deem and Ramdas Pophale) SiO2 
 PCOD9207989
Probable space group: C 2/M
;
_chemical_formula_sum "Si O2"
_cell_formula_units_Z 56
_cell_length_a 9.621316
_cell_length_b 29.585303
_cell_length_c 21.207430
_cell_angle_alpha 90.000000
_cell_angle_beta 27.131222
_cell_angle_gamma 90.000000
_cell_volume 2752.909277
_symmetry_space_group_name_H-M "C 2/M"
_symmetry_group_IT_number 12
_symmetry_cell_setting 'monoclinic'
loop_
_space_group_symop_operation_xyz
x,y,z
-x,y,-z
-x,-y,-z
x,-y,z
1/2+x,1/2+y,z
1/2-x,1/2+y,-z
1/2-x,1/2-y,-z
1/2+x,1/2-y,z
loop_
_atom_site_type_symbol
_atom_site_label
_atom_site_fract_x
_atom_site_fract_y
_atom_site_fract_z
Si Si1 0.838273 0.728435 0.834656
Si Si2 0.007602 0.448558 0.691707
Si Si3 0.839124 0.137094 0.128961
Si Si4 0.683404 0.276544 0.589230
Si Si5 0.966639 0.948846 0.623571
Si Si6 0.356782 0.321556 0.875346
Si Si7 0.141625 0.872162 0.641130
O O1 0.908798 0.675622 0.792105
O O2 0.964594 0.769098 0.827686
O O3 0.922403 0.752959 0.735499
O O4 0.500000 0.723976 0.000000
O O5 0.882064 0.500000 0.740128
O O6 0.202039 0.444833 0.678070
O O7 0.229920 0.443353 0.541874
O O8 0.785530 0.406385 0.784745
O O9 0.069886 0.161243 0.084577
O O10 0.000000 0.121901 0.000000
O O11 0.750000 0.250000 0.500000
O O12 0.604808 0.328714 0.610466
O O13 0.000000 0.276293 0.500000
O O14 0.963645 0.913270 0.681270
O O15 0.962040 0.000000 0.650181
O O16 0.528334 0.352554 0.754121
O O17 0.000000 0.322574 0.000000
O O18 0.500000 0.883784 0.500000
#
# Coordination Sequence:
#
# PCOD9207989 Si02
#       7
#     8   8   8   8   8   8   8
#     4   9  22  40  60  84 122 166 205 246 297 368
#     4   9  20  39  62  91 124 155 203 264 306 362
#     4  11  24  39  65  91 117 166 215 244 308 374
#     4  10  23  38  56  86 122 158 199 252 303 354
#     4   9  19  37  62  91 120 156 204 255 310 371
#     4  10  23  42  60  87 132 162 202 261 301 365
#     4  10  21  37  61  86 121 163 197 251 316 358
#
# _framework density 20.342116000000001
#
# number of rings (size 3 to 8) (size 9 to 14) (size 15 to 20)
#    0.000    2.286    0.000    1.714   10.000    6.857 
#    2.571    0.714    0.000    0.857    0.000    0.000 
#    0.000    0.000    0.000    0.000    0.000    0.000 
#
# Total GULP energy -155984.616931 kJ/mol
# GULP energy per Si atom -5570.879176 kJ/mol
# Density = 2.029582 g / cm^3
# Si number density = 20.342116 Si / 1000 Ang^3
#
#
#
# Elastic Constant Matrix: (Units=GPa)
#
#
# Indices 1 2 3 4 5 6 
#
# 1 62.7897 27.4232 24.0845 -0.0037 2.6814 0.0015
# 2 27.4232 111.8889 13.3646 0.0003 -1.2658 -0.0008
# 3 24.0845 13.3646 43.8411 -0.0065 0.3355 0.0067
# 4 -0.0037 0.0003 -0.0065 21.9733 0.0009 1.9836
# 5 2.6814 -1.2658 0.3355 0.0009 17.8891 -0.0017
# 6 0.0015 -0.0008 0.0067 1.9836 -0.0017 3.5277
#
#
#
# Elastic Compliance Matrix: (Units=1/GPa)
#
#
# Indices 1 2 3 4 5 6 
#
# 1 0.022029 -0.004146 -0.010812 0.000000 -0.003392 0.000008
# 2 -0.004146 0.010065 -0.000801 -0.000002 0.001349 0.000007
# 3 -0.010812 -0.000801 0.028986 0.000012 0.001020 -0.000056
# 4 0.000000 -0.000002 0.000012 0.047943 -0.000005 -0.026957
# 5 -0.003392 0.001349 0.001020 -0.000005 0.056485 0.000030
# 6 0.000008 0.000007 -0.000056 -0.026957 0.000030 0.298627
#
#
# Mechanical properties :
#
#
# Convention : Reuss Voigt Hill
#
# Bulk Modulus (GPa) = 33.82771 38.69604 36.26187
# Shear Modulus (GPa) = 9.89109 18.92119 14.40614
#
# Velocity S-wave (km/s) = 2.20747 3.05314 2.66408
# Velocity P-wave (km/s) = 4.81277 5.61185 5.22760
#
# Compressibility (1/GPa) = 0.02956157
#
# Stress axis : x y z
#
# Youngs Moduli (GPa) = 45.39463 99.35896 34.49987
#
# Poissons Ratio (x) = 0.41195 0.37301
# Poissons Ratio (y) = 0.18821 0.02762
# Poissons Ratio (z) = 0.49081 0.07956
#
# Static dielectric constant tensor:
#      x y z
#    x 1.943240 -0.000020 -0.195780 
#    y -0.000020 1.746130 0.000020 
#    z -0.195780 0.000020 1.876680 
# 
# From -- ./inp_files/303008.got.cif
#   From: 2010.05.17/outbox.cif.g08.bks.cpg/sg12_152_cif.got.tgz:303008.got - 2010.06.03 13:09:07.
