data_PCOD9207344
_publ_section_title
;
Structure prediction by ZEFSAII (Michael W. Deem and Ramdas Pophale) SiO2 
 PCOD9207344
Probable space group: C 2/M
;
_chemical_formula_sum "Si O2"
_cell_formula_units_Z 42
_cell_length_a 10.564621
_cell_length_b 7.779837
_cell_length_c 27.233636
_cell_angle_alpha 90.000000
_cell_angle_beta 124.279788
_cell_angle_gamma 90.000000
_cell_volume 1849.550709
_symmetry_space_group_name_H-M "C 2/M"
_symmetry_group_IT_number 12
_symmetry_cell_setting 'monoclinic'
loop_
_space_group_symop_operation_xyz
x,y,z
-x,y,-z
-x,-y,-z
x,-y,z
1/2+x,1/2+y,z
1/2-x,1/2+y,-z
1/2-x,1/2-y,-z
1/2+x,1/2-y,z
loop_
_atom_site_type_symbol
_atom_site_label
_atom_site_fract_x
_atom_site_fract_y
_atom_site_fract_z
Si Si1 0.127053 0.291647 0.828612
Si Si2 0.500000 0.000000 0.500000
Si Si3 0.780968 0.191738 0.441620
Si Si4 0.425466 0.193583 0.376817
Si Si5 0.726541 0.203367 0.243433
Si Si6 0.825692 0.793088 0.964666
O O1 0.128464 0.500000 0.829063
O O2 0.205242 0.231289 0.795632
O O3 0.222840 0.230402 0.896766
O O4 0.949803 0.238091 0.792943
O O5 0.625310 0.155651 0.513315
O O6 0.600400 0.231394 0.402258
O O7 0.841144 0.193787 0.398616
O O8 0.810274 0.000000 0.467311
O O9 0.328795 0.200820 0.305998
O O10 0.422402 0.000000 0.399831
O O11 0.732025 0.000000 0.256094
O O12 0.831311 0.000000 0.961950
O O13 0.750000 0.750000 0.000000
O O14 0.000000 0.728008 0.000000
#
# Coordination Sequence:
#
# PCOD9207344 Si02
#       6
#     8   2   8   8   8   8
#     4  10  22  39  56  88 124 158 208 261 316 378
#     4  12  26  48  72 100 136 180 214 266 326 374
#     4  11  26  46  69 101 134 172 219 269 316 392
#     4  11  24  45  68  97 131 171 214 264 330 384
#     4  11  23  37  62  91 122 161 206 264 316 381
#     4  10  21  37  58  83 118 163 207 258 315 378
#
# _framework density 22.708217000000001
#
# number of rings (size 3 to 8) (size 9 to 14) (size 15 to 20)
#    0.000    1.333    0.952    3.714    2.667    8.000 
#    0.000    0.000    0.000    0.000    0.000    0.000 
#    0.000    0.000    0.000    0.000    0.000    0.000 
#
# Total GULP energy -117411.132295 kJ/mol
# GULP energy per Si atom -5591.006300 kJ/mol
# Density = 2.265653 g / cm^3
# Si number density = 22.708217 Si / 1000 Ang^3
#
#
#
# Elastic Constant Matrix: (Units=GPa)
#
#
# Indices 1 2 3 4 5 6 
#
# 1 193.4325 38.6482 68.2807 0.0000 21.4016 0.0000
# 2 38.6482 97.0528 47.5915 0.0000 11.7549 0.0000
# 3 68.2807 47.5915 134.7457 0.0000 16.8823 0.0000
# 4 0.0000 0.0000 0.0000 18.7431 0.0000 -13.2573
# 5 21.4016 11.7549 16.8823 0.0000 52.3994 0.0000
# 6 0.0000 0.0000 0.0000 -13.2573 0.0000 32.1786
#
#
#
# Elastic Compliance Matrix: (Units=1/GPa)
#
#
# Indices 1 2 3 4 5 6 
#
# 1 0.006519 -0.001069 -0.002732 0.000000 -0.001542 0.000000
# 2 -0.001069 0.012742 -0.003809 0.000000 -0.001195 0.000000
# 3 -0.002732 -0.003809 0.010321 0.000000 -0.001355 0.000000
# 4 0.000000 0.000000 0.000000 0.075294 0.000000 0.031020
# 5 -0.001542 -0.001195 -0.001355 0.000000 0.020419 0.000000
# 6 0.000000 0.000000 0.000000 0.031020 0.000000 0.043857
#
#
# Mechanical properties :
#
#
# Convention : Reuss Voigt Hill
#
# Bulk Modulus (GPa) = 69.63511 81.58578 75.61044
# Shear Modulus (GPa) = 26.43285 38.71160 32.57222
#
# Velocity S-wave (km/s) = 3.41548 4.13333 3.79143
# Velocity P-wave (km/s) = 6.80336 7.66714 7.24813
#
# Compressibility (1/GPa) = 0.01436057
#
# Stress axis : x y z
#
# Youngs Moduli (GPa) = 153.40918 78.48138 96.88979
#
# Poissons Ratio (x) = 0.08391 0.26474
# Poissons Ratio (y) = 0.16402 0.36905
# Poissons Ratio (z) = 0.41917 0.29893
#
# Static dielectric constant tensor:
#      x y z
#    x 1.800900 0.000000 0.028290 
#    y 0.000000 1.854820 0.000000 
#    z 0.028290 0.000000 1.682060 
# 
# From -- ./inp_files/371816.got.cif
#   From: 2010.05.17/outbox.cif.g08.bks.cpg/sg12_186_cif.got.tgz:371816.got - 2010.06.03 13:09:07.
