data_PCOD9207134
_publ_section_title
;
Structure prediction by ZEFSAII (Michael W. Deem and Ramdas Pophale) SiO2 
 PCOD9207134
Probable space group: C 2/M
;
_chemical_formula_sum "Si O2"
_cell_formula_units_Z 50
_cell_length_a 15.396067
_cell_length_b 8.929547
_cell_length_c 20.865755
_cell_angle_alpha 90.000000
_cell_angle_beta 51.041085
_cell_angle_gamma 90.000000
_cell_volume 2230.631934
_symmetry_space_group_name_H-M "C 2/M"
_symmetry_group_IT_number 12
_symmetry_cell_setting 'monoclinic'
loop_
_space_group_symop_operation_xyz
x,y,z
-x,y,-z
-x,-y,-z
x,-y,z
1/2+x,1/2+y,z
1/2-x,1/2+y,-z
1/2-x,1/2-y,-z
1/2+x,1/2-y,z
loop_
_atom_site_type_symbol
_atom_site_label
_atom_site_fract_x
_atom_site_fract_y
_atom_site_fract_z
Si Si1 0.026421 0.332114 0.170918
Si Si2 0.150827 0.180213 0.292722
Si Si3 0.500000 0.000000 0.500000
Si Si4 0.917516 0.672461 0.358389
Si Si5 0.553839 0.331002 0.044207
Si Si6 0.241688 0.825238 0.113351
Si Si7 0.224181 0.334227 0.388699
O O1 0.073500 0.500000 0.144560
O O2 0.120893 0.210516 0.140664
O O3 0.947173 0.330895 0.268510
O O4 0.983590 0.279226 0.122375
O O5 0.223334 0.223513 0.196041
O O6 0.207912 0.241513 0.330621
O O7 0.026052 0.251080 0.340847
O O8 0.142072 0.000000 0.298089
O O9 0.597384 0.871935 0.467597
O O10 0.909397 0.500000 0.384552
O O11 0.799919 0.758009 0.407949
O O12 0.558146 0.500000 0.066830
O O13 0.673705 0.263185 0.970865
O O14 0.500000 0.335800 0.000000
O O15 0.269756 0.000000 0.099408
O O16 0.274214 0.500000 0.350531
#
# Coordination Sequence:
#
# PCOD9207134 Si02
#       7
#     8   8   2   8   8   8   8
#     4  10  21  37  57  81 113 153 199 250 303 355
#     4  10  21  38  64  97 125 162 211 255 307 368
#     4   8  24  44  66  96 128 164 206 228 312 380
#     4  10  21  38  64  97 125 162 211 255 307 368
#     4  11  24  37  50  75 115 155 206 251 302 357
#     4  10  21  37  57  81 113 153 199 250 303 355
#     4  10  21  41  67  88 132 159 198 248 299 366
#
# _framework density 22.415171999999998
#
# number of rings (size 3 to 8) (size 9 to 14) (size 15 to 20)
#    0.480    1.440    0.000    3.360    2.240    5.120 
#    0.000    2.400    0.000    0.000    0.000    0.000 
#    0.000    0.000    0.000    0.000    0.000    0.000 
#
# Total GULP energy -139222.724151 kJ/mol
# GULP energy per Si atom -5568.908966 kJ/mol
# Density = 2.236415 g / cm^3
# Si number density = 22.415172 Si / 1000 Ang^3
#
#
#
# Elastic Constant Matrix: (Units=GPa)
#
#
# Indices 1 2 3 4 5 6 
#
# 1 93.7079 19.5544 14.0879 0.0000 0.6085 0.0000
# 2 19.5544 57.0904 11.0538 0.0001 16.0311 0.0000
# 3 14.0879 11.0538 54.6322 0.0000 19.2764 0.0000
# 4 0.0000 0.0001 0.0000 110.0588 0.0000 -55.1863
# 5 0.6085 16.0311 19.2764 0.0000 33.4179 0.0000
# 6 0.0000 0.0000 0.0000 -55.1863 0.0000 69.4208
#
#
#
# Elastic Compliance Matrix: (Units=1/GPa)
#
#
# Indices 1 2 3 4 5 6 
#
# 1 0.012154 -0.004606 -0.003646 0.000000 0.004091 0.000000
# 2 -0.004606 0.022019 0.000540 0.000000 -0.010790 0.000000
# 3 -0.003646 0.000540 0.024110 0.000000 -0.014100 0.000000
# 4 0.000000 0.000000 0.000000 0.015108 0.000000 0.012011
# 5 0.004091 -0.010790 -0.014100 0.000000 0.043159 0.000000
# 6 0.000000 0.000000 0.000000 0.012011 0.000000 0.023953
#
#
# Mechanical properties :
#
#
# Convention : Reuss Voigt Hill
#
# Bulk Modulus (GPa) = 23.33191 32.75809 28.04500
# Shear Modulus (GPa) = 29.37479 53.29512 41.33495
#
# Velocity S-wave (km/s) = 3.62399 4.88139 4.29891
# Velocity P-wave (km/s) = 5.28608 6.81297 6.09751
#
# Compressibility (1/GPa) = 0.04285976
#
# Stress axis : x y z
#
# Youngs Moduli (GPa) = 82.27664 45.41513 41.47621
#
# Poissons Ratio (x) = 0.20918 0.15121
# Poissons Ratio (y) = 0.37896 -0.02239
# Poissons Ratio (z) = 0.29996 -0.02452
#
# Static dielectric constant tensor:
#      x y z
#    x 1.940300 0.000000 0.028030 
#    y 0.000000 1.761160 0.000000 
#    z 0.028030 0.000000 1.941140 
# 
# From -- ./inp_files/337818.got.cif
#   From: 2010.05.17/outbox.cif.g08.bks.cpg/sg12_169_cif.got.tgz:337818.got - 2010.06.03 13:09:07.
