data_PCOD9207351
_publ_section_title
;
Structure prediction by ZEFSAII (Michael W. Deem and Ramdas Pophale) SiO2 
 PCOD9207351
Probable space group: C 2/M
;
_chemical_formula_sum "Si O2"
_cell_formula_units_Z 56
_cell_length_a 26.070528
_cell_length_b 10.114799
_cell_length_c 11.122607
_cell_angle_alpha 90.000000
_cell_angle_beta 92.784839
_cell_angle_gamma 90.000000
_cell_volume 2929.547093
_symmetry_space_group_name_H-M "C 2/M"
_symmetry_group_IT_number 12
_symmetry_cell_setting 'monoclinic'
loop_
_space_group_symop_operation_xyz
x,y,z
-x,y,-z
-x,-y,-z
x,-y,z
1/2+x,1/2+y,z
1/2-x,1/2+y,-z
1/2-x,1/2-y,-z
1/2+x,1/2-y,z
loop_
_atom_site_type_symbol
_atom_site_label
_atom_site_fract_x
_atom_site_fract_y
_atom_site_fract_z
Si Si1 0.653664 0.348362 0.977121
Si Si2 0.456351 0.651757 0.900537
Si Si3 0.087051 0.650885 0.286469
Si Si4 0.058671 0.346335 0.547228
Si Si5 0.696941 0.847936 0.165820
Si Si6 0.377813 0.346060 0.295426
Si Si7 0.231373 0.845658 0.603094
O O1 0.672627 0.500000 0.979886
O O2 0.598388 0.346988 0.037446
O O3 0.642440 0.309004 0.839059
O O4 0.690558 0.251203 0.054386
O O5 0.467310 0.500000 0.865375
O O6 0.500000 0.693066 0.000000
O O7 0.449752 0.748345 0.787326
O O8 0.067745 0.500000 0.272002
O O9 0.090291 0.678720 0.428088
O O10 0.142938 0.657512 0.232231
O O11 0.065255 0.500000 0.583108
O O12 0.077830 0.248387 0.651634
O O13 0.000000 0.327096 0.500000
O O14 0.740163 0.813096 0.268082
O O15 0.704794 0.000000 0.127974
O O16 0.394028 0.500000 0.291465
O O17 0.329174 0.335936 0.378884
O O18 0.250000 0.750000 0.500000
O O19 0.243783 0.000000 0.577605
#
# Coordination Sequence:
#
# PCOD9207351 Si02
#       7
#     8   8   8   8   8   8   8
#     4   9  19  35  52  76 111 143 177 223 270 320
#     4   9  18  31  50  74 100 135 177 219 262 313
#     4   9  18  33  51  73 101 134 173 218 267 314
#     4  10  22  38  55  78 109 145 185 228 274 326
#     4   9  18  34  55  78 106 141 179 221 270 323
#     4  10  22  38  56  81 112 144 181 227 277 329
#     4  10  21  37  58  84 112 144 184 227 272 326
#
# _framework density 19.115583000000001
#
# number of rings (size 3 to 8) (size 9 to 14) (size 15 to 20)
#    0.000    2.571    0.000    0.857    2.000    4.571 
#    0.000    2.857    0.000    0.000    0.000    0.000 
#    0.000    0.000    0.000    0.000    0.000    0.000 
#
# Total GULP energy -156296.963364 kJ/mol
# GULP energy per Si atom -5582.034406 kJ/mol
# Density = 1.907208 g / cm^3
# Si number density = 19.115583 Si / 1000 Ang^3
#
#
#
# Elastic Constant Matrix: (Units=GPa)
#
#
# Indices 1 2 3 4 5 6 
#
# 1 34.8630 31.0703 26.3190 0.0000 14.7841 0.0000
# 2 31.0703 90.5725 86.6763 0.0000 22.3604 0.0000
# 3 26.3190 86.6763 110.3613 0.0000 16.9433 0.0000
# 4 0.0000 0.0000 0.0000 41.4024 0.0000 8.1951
# 5 14.7841 22.3604 16.9433 0.0000 33.2943 0.0000
# 6 0.0000 0.0000 0.0000 8.1951 0.0000 15.6197
#
#
#
# Elastic Compliance Matrix: (Units=1/GPa)
#
#
# Indices 1 2 3 4 5 6 
#
# 1 0.045067 -0.016435 0.003838 0.000000 -0.010927 0.000000
# 2 -0.016435 0.056428 -0.038726 0.000000 -0.010891 0.000000
# 3 0.003838 -0.038726 0.037781 0.000000 0.005077 0.000000
# 4 0.000000 0.000000 0.000000 0.026952 0.000000 -0.014141
# 5 -0.010927 -0.010891 0.005077 0.000000 0.039618 0.000000
# 6 0.000000 0.000000 0.000000 -0.014141 0.000000 0.071441
#
#
# Mechanical properties :
#
#
# Convention : Reuss Voigt Hill
#
# Bulk Modulus (GPa) = 27.30019 58.21424 42.75722
# Shear Modulus (GPa) = 12.75038 24.17869 18.46454
#
# Velocity S-wave (km/s) = 2.58547 3.56036 3.11133
# Velocity P-wave (km/s) = 4.81928 6.88632 5.94335
#
# Compressibility (1/GPa) = 0.03662978
#
# Stress axis : x y z
#
# Youngs Moduli (GPa) = 22.18901 17.72169 26.46800
#
# Poissons Ratio (x) = 0.29126 -0.10158
# Poissons Ratio (y) = 0.36468 1.02501
# Poissons Ratio (z) = -0.08516 0.68629
#
# Static dielectric constant tensor:
#      x y z
#    x 1.699870 0.000000 -0.021020 
#    y 0.000000 1.650360 0.000000 
#    z -0.021020 0.000000 1.636000 
# 
# From -- ./inp_files/186398.got.cif
#   From: 2010.05.17/outbox.cif.g08.bks.cpg/sg12_94_cif.got.tgz:186398.got - 2010.06.03 13:09:07.
