data_PCOD9207350
_publ_section_title
;
Structure prediction by ZEFSAII (Michael W. Deem and Ramdas Pophale) SiO2 
 PCOD9207350
Probable space group: C 2/M
;
_chemical_formula_sum "Si O2"
_cell_formula_units_Z 48
_cell_length_a 17.851914
_cell_length_b 28.680111
_cell_length_c 8.909887
_cell_angle_alpha 90.000000
_cell_angle_beta 149.142576
_cell_angle_gamma 90.000000
_cell_volume 2339.771593
_symmetry_space_group_name_H-M "C 2/M"
_symmetry_group_IT_number 12
_symmetry_cell_setting 'monoclinic'
loop_
_space_group_symop_operation_xyz
x,y,z
-x,y,-z
-x,-y,-z
x,-y,z
1/2+x,1/2+y,z
1/2-x,1/2+y,-z
1/2-x,1/2-y,-z
1/2+x,1/2-y,z
loop_
_atom_site_type_symbol
_atom_site_label
_atom_site_fract_x
_atom_site_fract_y
_atom_site_fract_z
Si Si1 0.532810 0.191018 0.889589
Si Si2 0.069912 0.859515 0.956713
Si Si3 0.579866 0.053668 0.788687
Si Si4 0.840774 0.401997 0.557009
Si Si5 0.103667 0.773536 0.810804
Si Si6 0.730207 0.616910 0.694735
O O1 0.425947 0.147169 0.682129
O O2 0.517903 0.231921 0.746686
O O3 0.500000 0.208942 0.000000
O O4 0.693962 0.167725 0.160446
O O5 0.132526 0.814435 0.979739
O O6 0.939926 0.878898 0.629873
O O7 0.194621 0.897014 0.208305
O O8 0.000000 0.846878 0.000000
O O9 0.500000 0.070526 0.500000
O O10 0.452622 0.059329 0.694166
O O11 0.622814 0.000000 0.844095
O O12 0.713399 0.085845 0.071034
O O13 0.798652 0.404515 0.658930
O O14 0.000000 0.791529 0.500000
O O15 0.250000 0.750000 0.000000
#
# Coordination Sequence:
#
# PCOD9207350 Si02
#       6
#     8   8   8   8   8   8
#     4   9  18  35  54  73 102 144 189 228 269 316
#     4  10  21  38  56  78 111 148 184 226 278 325
#     4  10  21  37  58  84 111 140 173 214 271 335
#     4   9  19  35  58  81 103 138 183 226 267 319
#     4  12  24  34  49  78 111 145 189 231 270 316
#     4   9  19  36  58  81 104 139 184 225 270 320
#
# _framework density 20.514823
#
# number of rings (size 3 to 8) (size 9 to 14) (size 15 to 20)
#    0.000    2.167    0.000    4.000    0.000    8.000 
#    0.000    7.500    0.000    5.000    0.000    0.000 
#    0.000    0.000    0.000    0.000    0.000    0.000 
#
# Total GULP energy -134039.443966 kJ/mol
# GULP energy per Si atom -5584.976832 kJ/mol
# Density = 2.046813 g / cm^3
# Si number density = 20.514823 Si / 1000 Ang^3
#
#
#
# Elastic Constant Matrix: (Units=GPa)
#
#
# Indices 1 2 3 4 5 6 
#
# 1 38.7090 18.2074 18.1858 0.0000 -5.3551 0.0000
# 2 18.2074 33.8110 22.6496 0.0000 -14.5659 0.0000
# 3 18.1858 22.6496 135.4893 0.0000 -10.8118 0.0000
# 4 0.0000 0.0000 0.0000 99.9149 0.0000 -26.0448
# 5 -5.3551 -14.5659 -10.8118 0.0000 29.6365 0.0000
# 6 0.0000 0.0000 0.0000 -26.0448 0.0000 27.9903
#
#
#
# Elastic Compliance Matrix: (Units=1/GPa)
#
#
# Indices 1 2 3 4 5 6 
#
# 1 0.035299 -0.019464 -0.001791 0.000000 -0.003841 0.000000
# 2 -0.019464 0.051771 -0.004421 0.000000 0.020315 0.000000
# 3 -0.001791 -0.004421 0.008406 0.000000 0.000570 0.000000
# 4 0.000000 0.000000 0.000000 0.013213 0.000000 0.012295
# 5 -0.003841 0.020315 0.000570 0.000000 0.043240 0.000000
# 6 0.000000 0.000000 0.000000 0.012295 0.000000 0.047167
#
#
# Mechanical properties :
#
#
# Convention : Reuss Voigt Hill
#
# Bulk Modulus (GPa) = 22.66329 36.23278 29.44804
# Shear Modulus (GPa) = 18.85691 41.43945 30.14818
#
# Velocity S-wave (km/s) = 3.03510 4.49929 3.83767
# Velocity P-wave (km/s) = 4.83256 6.68518 5.83289
#
# Compressibility (1/GPa) = 0.04412422
#
# Stress axis : x y z
#
# Youngs Moduli (GPa) = 28.32963 19.31596 118.96915
#
# Poissons Ratio (x) = 0.37596 0.21304
# Poissons Ratio (y) = 0.55140 0.52595
# Poissons Ratio (z) = 0.05073 0.08539
#
# Static dielectric constant tensor:
#      x y z
#    x 1.775540 0.000000 0.003140 
#    y 0.000000 1.689880 0.000000 
#    z 0.003140 0.000000 1.753050 
# 
# From -- ./inp_files/80829.got.cif
#   From: 2010.05.17/outbox.cif.g08.bks.cpg/sg12_41_cif.got.tgz:80829.got - 2010.06.03 13:09:07.
