data_PCOD9207708
_publ_section_title
;
Structure prediction by ZEFSAII (Michael W. Deem and Ramdas Pophale) SiO2 
 PCOD9207708
Probable space group: C 2/M
;
_chemical_formula_sum "Si O2"
_cell_formula_units_Z 48
_cell_length_a 14.012201
_cell_length_b 14.422658
_cell_length_c 19.352396
_cell_angle_alpha 90.000000
_cell_angle_beta 136.778292
_cell_angle_gamma 90.000000
_cell_volume 2678.335018
_symmetry_space_group_name_H-M "C 2/M"
_symmetry_group_IT_number 12
_symmetry_cell_setting 'monoclinic'
loop_
_space_group_symop_operation_xyz
x,y,z
-x,y,-z
-x,-y,-z
x,-y,z
1/2+x,1/2+y,z
1/2-x,1/2+y,-z
1/2-x,1/2-y,-z
1/2+x,1/2-y,z
loop_
_atom_site_type_symbol
_atom_site_label
_atom_site_fract_x
_atom_site_fract_y
_atom_site_fract_z
Si Si1 0.811560 0.500000 0.817073
Si Si2 0.815898 0.801804 0.246861
Si Si3 0.612717 0.790595 0.389477
Si Si4 0.709430 0.000000 0.638326
Si Si5 0.055016 0.500000 0.409355
Si Si6 0.308901 0.674007 0.080078
Si Si7 0.872471 0.500000 0.014731
Si Si8 0.130178 0.189935 0.253980
O O1 0.722286 0.408199 0.753460
O O2 0.851512 0.500000 0.919907
O O3 0.970495 0.500000 0.873040
O O4 0.791629 0.800314 0.151663
O O5 0.711015 0.736972 0.233549
O O6 0.973339 0.764417 0.341881
O O7 0.750000 0.750000 0.500000
O O8 0.628328 0.761729 0.317385
O O9 0.591559 0.901608 0.391177
O O10 0.633866 0.000000 0.524493
O O11 0.605072 0.000000 0.648984
O O12 0.795550 0.094671 0.686020
O O13 0.215267 0.587708 0.010633
O O14 0.472273 0.663268 0.154026
O O15 0.250000 0.750000 0.000000
#
# Coordination Sequence:
#
# PCOD9207708 Si02
#       8
#     4   8   8   4   4   8   4   8
#     4   9  18  34  60  79 115 160 194 253 311 360
#     4  10  22  38  58  90 122 162 211 256 307 378
#     4  11  23  39  61  91 125 158 209 260 306 367
#     4  11  21  38  68  87 120 171 209 245 312 379
#     4  11  22  40  64  91 123 166 206 257 305 376
#     4  10  21  37  59  89 122 160 204 259 308 366
#     4   9  17  34  56  85 110 151 207 245 300 375
#     4  11  22  38  63  91 123 168 207 257 310 369
#
# _framework density 17.921581
#
# number of rings (size 3 to 8) (size 9 to 14) (size 15 to 20)
#    0.000    1.667    3.333    1.500    0.000    6.000 
#    0.000    4.167    0.000    4.000    0.000    0.000 
#    0.000    0.000    0.000    0.000    0.000    0.000 
#
# Total GULP energy -133734.919590 kJ/mol
# GULP energy per Si atom -5572.288316 kJ/mol
# Density = 1.788079 g / cm^3
# Si number density = 17.921581 Si / 1000 Ang^3
#
#
#
# Elastic Constant Matrix: (Units=GPa)
#
#
# Indices 1 2 3 4 5 6 
#
# 1 113.1327 66.5292 41.0321 0.0000 29.2837 0.0000
# 2 66.5292 180.3241 62.3374 0.0000 18.6775 0.0000
# 3 41.0321 62.3374 68.2593 0.0000 28.2860 0.0000
# 4 0.0000 0.0000 0.0000 65.4730 0.0000 2.1654
# 5 29.2837 18.6775 28.2860 0.0000 18.3884 0.0000
# 6 0.0000 0.0000 0.0000 2.1654 0.0000 33.1451
#
#
#
# Elastic Compliance Matrix: (Units=1/GPa)
#
#
# Indices 1 2 3 4 5 6 
#
# 1 0.019829 -0.007237 0.013043 0.000000 -0.044290 0.000000
# 2 -0.007237 0.011283 -0.016496 0.000000 0.025439 0.000000
# 3 0.013043 -0.016496 0.064922 0.000000 -0.103883 0.000000
# 4 0.000000 0.000000 0.000000 0.015307 0.000000 -0.001000
# 5 -0.044290 0.025439 -0.103883 0.000000 0.258874 0.000000
# 6 0.000000 0.000000 0.000000 -0.001000 0.000000 0.030236
#
#
# Mechanical properties :
#
#
# Convention : Reuss Voigt Hill
#
# Bulk Modulus (GPa) = 13.39493 77.94594 45.67044
# Shear Modulus (GPa) = 11.19283 36.18915 23.69099
#
# Velocity S-wave (km/s) = 2.50180 4.49854 3.63977
# Velocity P-wave (km/s) = 3.97942 8.40058 6.57288
#
# Compressibility (1/GPa) = 0.07465509
#
# Stress axis : x y z
#
# Youngs Moduli (GPa) = 50.43202 88.62689 15.40306
#
# Poissons Ratio (x) = 0.64141 -0.20091
# Poissons Ratio (y) = 0.36499 0.25408
# Poissons Ratio (z) = -0.65780 1.46196
#
# Static dielectric constant tensor:
#      x y z
#    x 1.633740 0.000000 0.011850 
#    y 0.000000 1.555220 0.000000 
#    z 0.011850 0.000000 1.584920 
# 
# From -- ./inp_files/183734.got.cif
#   From: 2010.05.17/outbox.cif.g08.bks.cpg/sg12_92_cif.got.tgz:183734.got - 2010.06.03 13:09:07.
