data_PCOD9207179
_publ_section_title
;
Structure prediction by ZEFSAII (Michael W. Deem and Ramdas Pophale) SiO2 
 PCOD9207179
Probable space group: C 2/M
;
_chemical_formula_sum "Si O2"
_cell_formula_units_Z 56
_cell_length_a 24.016397
_cell_length_b 7.491303
_cell_length_c 16.415228
_cell_angle_alpha 90.000000
_cell_angle_beta 122.421874
_cell_angle_gamma 90.000000
_cell_volume 2492.975580
_symmetry_space_group_name_H-M "C 2/M"
_symmetry_group_IT_number 12
_symmetry_cell_setting 'monoclinic'
loop_
_space_group_symop_operation_xyz
x,y,z
-x,y,-z
-x,-y,-z
x,-y,z
1/2+x,1/2+y,z
1/2-x,1/2+y,-z
1/2-x,1/2-y,-z
1/2+x,1/2-y,z
loop_
_atom_site_type_symbol
_atom_site_label
_atom_site_fract_x
_atom_site_fract_y
_atom_site_fract_z
Si Si1 0.152507 0.207273 0.479537
Si Si2 0.448605 0.781401 0.029389
Si Si3 0.488473 0.797143 0.579118
Si Si4 0.551797 0.204981 0.790494
Si Si5 0.809939 0.282155 0.845769
Si Si6 0.797524 0.787614 0.113557
Si Si7 0.796291 0.716092 0.650585
O O1 0.089043 0.301818 0.464717
O O2 0.156448 0.222810 0.384886
O O3 0.222361 0.275568 0.568465
O O4 0.147324 0.000000 0.498105
O O5 0.464480 0.718401 0.133218
O O6 0.448800 0.000000 0.031627
O O7 0.500000 0.727346 0.000000
O O8 0.374929 0.726103 0.945903
O O9 0.500000 0.712465 0.500000
O O10 0.521419 0.712119 0.685015
O O11 0.515840 0.000000 0.595159
O O12 0.630883 0.205349 0.843493
O O13 0.527259 0.000000 0.773321
O O14 0.809633 0.500000 0.846162
O O15 0.743335 0.225447 0.839351
O O16 0.813459 0.225340 0.754838
O O17 0.807321 0.000000 0.127556
O O18 0.750000 0.750000 0.000000
O O19 0.796954 0.500000 0.649555
#
# Coordination Sequence:
#
# PCOD9207179 Si02
#       7
#     8   8   8   8   8   8   8
#     4  10  21  37  57  83 114 146 188 237 286 340
#     4   9  17  30  53  83 109 138 181 227 270 326
#     4  10  23  40  58  82 114 154 196 237 285 342
#     4  10  21  38  58  82 111 147 191 235 281 336
#     4   9  18  32  54  82 109 141 186 229 271 334
#     4  11  21  36  58  83 115 148 185 230 278 332
#     4   9  19  36  59  83 109 146 188 233 285 338
#
# _framework density 22.463115999999999
#
# number of rings (size 3 to 8) (size 9 to 14) (size 15 to 20)
#    0.000    2.286    1.429    0.857    4.000    1.429 
#    0.000    1.429    0.000    0.429    0.000    0.000 
#    0.000    0.000    0.000    0.000    0.000    0.000 
#
# Total GULP energy -156434.728456 kJ/mol
# GULP energy per Si atom -5586.954588 kJ/mol
# Density = 2.241199 g / cm^3
# Si number density = 22.463116 Si / 1000 Ang^3
#
#
#
# Elastic Constant Matrix: (Units=GPa)
#
#
# Indices 1 2 3 4 5 6 
#
# 1 126.2095 -3.7504 54.6638 0.0000 -27.5804 0.0000
# 2 -3.7504 67.2842 3.4091 0.0000 -2.2339 0.0000
# 3 54.6638 3.4091 155.2110 0.0000 -42.6004 0.0000
# 4 0.0000 0.0000 0.0000 4.5397 0.0000 2.9038
# 5 -27.5804 -2.2339 -42.6004 0.0000 34.4279 0.0000
# 6 0.0000 0.0000 0.0000 2.9038 0.0000 17.7132
#
#
#
# Elastic Compliance Matrix: (Units=1/GPa)
#
#
# Indices 1 2 3 4 5 6 
#
# 1 0.010048 0.000849 -0.002019 0.000000 0.005607 0.000000
# 2 0.000849 0.014967 -0.000264 0.000000 0.001324 0.000000
# 3 -0.002019 -0.000264 0.010162 0.000000 0.010940 0.000000
# 4 0.000000 0.000000 0.000000 0.246080 0.000000 -0.040340
# 5 0.005607 0.001324 0.010940 0.000000 0.047161 0.000000
# 6 0.000000 0.000000 0.000000 -0.040340 0.000000 0.063068
#
#
# Mechanical properties :
#
#
# Convention : Reuss Voigt Hill
#
# Bulk Modulus (GPa) = 30.95113 50.81662 40.88387
# Shear Modulus (GPa) = 12.34186 30.96166 21.65176
#
# Velocity S-wave (km/s) = 2.34653 3.71662 3.10801
# Velocity P-wave (km/s) = 4.59893 6.41007 5.57849
#
# Compressibility (1/GPa) = 0.03230900
#
# Stress axis : x y z
#
# Youngs Moduli (GPa) = 99.52128 66.81374 98.40223
#
# Poissons Ratio (x) = -0.05669 0.19863
# Poissons Ratio (y) = -0.08445 0.02600
# Poissons Ratio (z) = 0.20089 0.01765
#
# Static dielectric constant tensor:
#      x y z
#    x 1.781770 0.000000 -0.020390 
#    y 0.000000 1.866610 0.000000 
#    z -0.020390 0.000000 1.826100 
# 
# From -- ./inp_files/238878.got.cif
#   From: 2010.05.17/outbox.cif.g08.bks.cpg/sg12_120_cif.got.tgz:238878.got - 2010.06.03 13:09:07.
