data_PCOD9207742
_publ_section_title
;
Structure prediction by ZEFSAII (Michael W. Deem and Ramdas Pophale) SiO2 
 PCOD9207742
Probable space group: C 2/M
;
_chemical_formula_sum "Si O2"
_cell_formula_units_Z 32
_cell_length_a 13.743638
_cell_length_b 18.889940
_cell_length_c 7.652390
_cell_angle_alpha 90.000000
_cell_angle_beta 42.680088
_cell_angle_gamma 90.000000
_cell_volume 1346.783297
_symmetry_space_group_name_H-M "C 2/M"
_symmetry_group_IT_number 12
_symmetry_cell_setting 'monoclinic'
loop_
_space_group_symop_operation_xyz
x,y,z
-x,y,-z
-x,-y,-z
x,-y,z
1/2+x,1/2+y,z
1/2-x,1/2+y,-z
1/2-x,1/2-y,-z
1/2+x,1/2-y,z
loop_
_atom_site_type_symbol
_atom_site_label
_atom_site_fract_x
_atom_site_fract_y
_atom_site_fract_z
Si Si1 0.337445 0.500000 0.276663
Si Si2 0.367516 0.876449 0.060967
Si Si3 0.827629 0.000000 0.708593
Si Si4 0.536306 0.752655 0.641936
Si Si5 0.203937 0.155919 0.629812
O O1 0.314335 0.500000 0.515727
O O2 0.287401 0.578944 0.293869
O O3 0.500000 0.500000 0.000000
O O4 0.263240 0.932493 0.105003
O O5 0.274413 0.848208 0.343779
O O6 0.500000 0.909852 0.000000
O O7 0.430830 0.814099 0.856219
O O8 0.000000 0.000000 0.500000
O O9 0.500000 0.723169 0.500000
O O10 0.688577 0.792458 0.413997
O O11 0.555274 0.691926 0.763157
#
# Coordination Sequence:
#
# PCOD9207742 Si02
#       5
#     4   8   4   8   8
#     4  10  22  39  61  82 115 158 198 252 307 362
#     4   9  19  38  60  82 119 167 204 247 307 368
#     4  10  21  37  59  90 124 158 202 252 309 368
#     4  10  21  37  61  89 120 161 206 252 301 363
#     4   9  21  39  58  88 120 155 206 255 307 362
#
# _framework density 23.76032
#
# number of rings (size 3 to 8) (size 9 to 14) (size 15 to 20)
#    0.000    2.500    0.000    0.375    0.000   15.000 
#    0.000    1.250    0.000    0.000    0.000    0.000 
#    0.000    0.000    0.000    0.250    0.000    0.000 
#
# Total GULP energy -89099.953738 kJ/mol
# GULP energy per Si atom -5568.747109 kJ/mol
# Density = 2.370624 g / cm^3
# Si number density = 23.760320 Si / 1000 Ang^3
#
#
#
# Elastic Constant Matrix: (Units=GPa)
#
#
# Indices 1 2 3 4 5 6 
#
# 1 85.9864 31.2253 24.0867 0.0000 -3.7182 0.0000
# 2 31.2253 137.2930 35.1406 0.0000 -29.9014 0.0000
# 3 24.0867 35.1406 75.1185 0.0000 -3.0407 0.0000
# 4 0.0000 0.0000 0.0000 18.4702 0.0000 1.6421
# 5 -3.7182 -29.9014 -3.0407 0.0000 27.1681 0.0000
# 6 0.0000 0.0000 0.0000 1.6421 0.0000 -0.2846
#
#
#
# Elastic Compliance Matrix: (Units=1/GPa)
#
#
# Indices 1 2 3 4 5 6 
#
# 1 0.013373 -0.002512 -0.003165 0.000000 -0.001289 0.000000
# 2 -0.002512 0.011477 -0.004085 0.000000 0.011831 0.000000
# 3 -0.003165 -0.004085 0.016111 0.000000 -0.003126 0.000000
# 4 0.000000 0.000000 0.000000 0.035787 0.000000 0.206448
# 5 -0.001289 0.011831 -0.003126 0.000000 0.049303 0.000000
# 6 0.000000 0.000000 0.000000 0.206448 0.000000 -2.322156
#
#
# Mechanical properties :
#
#
# Convention : Reuss Voigt Hill
#
# Bulk Modulus (GPa) = 46.64613 53.25590 49.95101
# Shear Modulus (GPa) = -2.30475 22.93375 10.31450
#
# Velocity S-wave (km/s) = -0.98595 3.11016 2.08578
# Velocity P-wave (km/s) = 4.28701 5.94642 5.18355
#
# Compressibility (1/GPa) = 0.02143800
#
# Stress axis : x y z
#
# Youngs Moduli (GPa) = 74.77844 87.12930 62.06767
#
# Poissons Ratio (x) = 0.21887 0.19644
# Poissons Ratio (y) = 0.18785 0.25353
# Poissons Ratio (z) = 0.23667 0.35589
#
# Static dielectric constant tensor:
#      x y z
#    x 2.041590 0.000000 -0.143540 
#    y 0.000000 2.231960 0.000000 
#    z -0.143540 0.000000 2.008150 
# 
# From -- ./inp_files/63109.got.cif
#   From: 2010.05.17/outbox.cif.g08.bks.cpg/sg12_32_cif.got.tgz:63109.got - 2010.06.03 13:09:07.
