data_PCOD9207877
_publ_section_title
;
Structure prediction by ZEFSAII (Michael W. Deem and Ramdas Pophale) SiO2 
 PCOD9207877
Probable space group: C 2/M
;
_chemical_formula_sum "Si O2"
_cell_formula_units_Z 56
_cell_length_a 20.015637
_cell_length_b 20.157159
_cell_length_c 15.976634
_cell_angle_alpha 90.000000
_cell_angle_beta 26.829306
_cell_angle_gamma 90.000000
_cell_volume 2909.257088
_symmetry_space_group_name_H-M "C 2/M"
_symmetry_group_IT_number 12
_symmetry_cell_setting 'monoclinic'
loop_
_space_group_symop_operation_xyz
x,y,z
-x,y,-z
-x,-y,-z
x,-y,z
1/2+x,1/2+y,z
1/2-x,1/2+y,-z
1/2-x,1/2-y,-z
1/2+x,1/2-y,z
loop_
_atom_site_type_symbol
_atom_site_label
_atom_site_fract_x
_atom_site_fract_y
_atom_site_fract_z
Si Si1 0.236207 0.927125 0.919242
Si Si2 0.026005 0.073247 0.675513
Si Si3 0.123067 0.576824 0.051978
Si Si4 0.697215 0.293839 0.873517
Si Si5 0.845290 0.219324 0.276177
Si Si6 0.876717 0.837130 0.709621
Si Si7 0.193634 0.643012 0.593869
O O1 0.062608 0.927381 0.138327
O O2 0.275333 0.000000 0.840930
O O3 0.313249 0.920307 0.924119
O O4 0.260285 0.863768 0.835183
O O5 0.197324 0.085814 0.496900
O O6 0.962422 0.135640 0.695308
O O7 0.996248 0.000000 0.669791
O O8 0.101946 0.500000 0.054417
O O9 0.971709 0.616743 0.222508
O O10 0.240420 0.610910 0.858194
O O11 0.694448 0.290997 0.776082
O O12 0.797323 0.234391 0.798867
O O13 0.522883 0.286696 0.092389
O O14 0.799674 0.293401 0.353301
O O15 0.756002 0.169260 0.435553
O O16 0.000000 0.839249 0.500000
#
# Coordination Sequence:
#
# PCOD9207877 Si02
#       7
#     8   8   8   8   8   8   8
#     4   9  20  39  61  88 121 156 200 248 299 366
#     4  10  21  37  60  89 120 161 205 245 298 363
#     4  10  22  39  62  90 123 162 203 248 304 367
#     4  11  21  41  61  90 123 159 200 256 307 355
#     4  10  23  36  62  91 122 155 207 256 299 362
#     4  11  23  39  61  89 120 159 205 259 300 356
#     4  11  20  41  61  90 121 163 201 251 305 358
#
# _framework density 19.248901
#
# number of rings (size 3 to 8) (size 9 to 14) (size 15 to 20)
#    0.000    1.714    2.857    2.571    0.000    6.857 
#    0.000    2.857    0.000    4.714    0.000    0.000 
#    0.000    0.000    0.000    0.000    0.000    0.000 
#
# Total GULP energy -156148.947737 kJ/mol
# GULP energy per Si atom -5576.748133 kJ/mol
# Density = 1.920509 g / cm^3
# Si number density = 19.248901 Si / 1000 Ang^3
#
#
#
# Elastic Constant Matrix: (Units=GPa)
#
#
# Indices 1 2 3 4 5 6 
#
# 1 29.5908 50.1019 18.0918 0.0012 -4.8518 -0.0024
# 2 50.1019 158.9641 45.8669 0.0042 3.3014 -0.0026
# 3 18.0918 45.8669 108.2743 0.0071 -10.5504 -0.0030
# 4 0.0012 0.0042 0.0071 18.8210 -0.0040 -11.0852
# 5 -4.8518 3.3014 -10.5504 -0.0040 25.0091 0.0014
# 6 -0.0024 -0.0026 -0.0030 -11.0852 0.0014 17.8113
#
#
#
# Elastic Compliance Matrix: (Units=1/GPa)
#
#
# Indices 1 2 3 4 5 6 
#
# 1 0.080656 -0.025571 -0.000825 0.000013 0.018675 0.000013
# 2 -0.025571 0.015405 -0.003061 -0.000005 -0.008286 -0.000004
# 3 -0.000825 -0.003061 0.011152 -0.000003 0.004949 -0.000001
# 4 0.000013 -0.000005 -0.000003 0.083878 0.000012 0.052203
# 5 0.018675 -0.008286 0.004949 0.000012 0.046790 0.000006
# 6 0.000013 -0.000004 -0.000001 0.052203 0.000006 0.088633
#
#
# Mechanical properties :
#
#
# Convention : Reuss Voigt Hill
#
# Bulk Modulus (GPa) = 20.70360 58.32783 39.51571
# Shear Modulus (GPa) = 12.45242 24.51286 18.48264
#
# Velocity S-wave (km/s) = 2.54621 3.57244 3.10206
# Velocity P-wave (km/s) = 4.40719 6.88361 5.77960
#
# Compressibility (1/GPa) = 0.04830078
#
# Stress axis : x y z
#
# Youngs Moduli (GPa) = 12.39835 64.91308 89.66669
#
# Poissons Ratio (x) = 1.65987 0.07398
# Poissons Ratio (y) = 0.31703 0.27444
# Poissons Ratio (z) = 0.01023 0.19867
#
# Static dielectric constant tensor:
#      x y z
#    x 1.666920 0.000000 -0.013160 
#    y 0.000000 1.668920 0.000000 
#    z -0.013160 0.000000 1.683390 
# 
# From -- ./inp_files/227571.got.cif
#   From: 2010.05.17/outbox.cif.g08.bks.cpg/sg12_114_cif.got.tgz:227571.got - 2010.06.03 13:09:07.
