data_PCOD9207404
_publ_section_title
;
Structure prediction by ZEFSAII (Michael W. Deem and Ramdas Pophale) SiO2 
 PCOD9207404
Probable space group: C 2/M
;
_chemical_formula_sum "Si O2"
_cell_formula_units_Z 56
_cell_length_a 21.974909
_cell_length_b 19.976455
_cell_length_c 16.293488
_cell_angle_alpha 90.000000
_cell_angle_beta 156.366200
_cell_angle_gamma 90.000000
_cell_volume 2867.373727
_symmetry_space_group_name_H-M "C 2/M"
_symmetry_group_IT_number 12
_symmetry_cell_setting 'monoclinic'
loop_
_space_group_symop_operation_xyz
x,y,z
-x,y,-z
-x,-y,-z
x,-y,z
1/2+x,1/2+y,z
1/2-x,1/2+y,-z
1/2-x,1/2-y,-z
1/2+x,1/2-y,z
loop_
_atom_site_type_symbol
_atom_site_label
_atom_site_fract_x
_atom_site_fract_y
_atom_site_fract_z
Si Si1 0.383980 0.816385 0.124637
Si Si2 0.823175 0.833091 0.995853
Si Si3 0.819896 0.852466 0.272435
Si Si4 0.668775 0.076812 0.216421
Si Si5 0.170625 0.224606 0.174689
Si Si6 0.214978 0.316264 0.511539
Si Si7 0.103086 0.080209 0.358590
O O1 0.389422 0.736264 0.116307
O O2 0.543331 0.840992 0.286498
O O3 0.342098 0.835045 0.165928
O O4 0.245993 0.843814 0.899436
O O5 0.931958 0.893426 0.156371
O O6 0.824029 0.823104 0.898853
O O7 0.754432 0.917574 0.235948
O O8 0.740124 0.793382 0.226213
O O9 0.000000 0.848235 0.500000
O O10 0.787001 0.102865 0.430522
O O11 0.645287 0.000000 0.211715
O O12 0.500000 0.107292 0.000000
O O13 0.269478 0.202237 0.374109
O O14 0.000000 0.230748 0.000000
O O15 0.250000 0.250000 0.500000
O O16 0.329407 0.375938 0.632094
O O17 0.108092 0.000000 0.355426
#
# Coordination Sequence:
#
# PCOD9207404 Si02
#       7
#     8   8   8   8   8   8   8
#     4  10  22  36  61  86 122 158 199 250 305 358
#     4  10  21  40  56  87 120 152 203 245 303 360
#     4  11  22  35  56  87 122 153 195 245 301 361
#     4  10  21  37  58  84 120 159 199 243 295 365
#     4  11  22  37  58  86 114 149 201 252 300 356
#     4  12  21  37  63  89 120 158 200 258 299 356
#     4  11  22  39  62  89 122 162 206 251 309 363
#
# _framework density 19.530066999999999
#
# number of rings (size 3 to 8) (size 9 to 14) (size 15 to 20)
#    0.000    1.286    2.857    3.857    6.000    0.286 
#    0.000    2.857    0.000    0.000    0.000    2.000 
#    0.000    0.000    0.000    0.000    0.000    0.000 
#
# Total GULP energy -156194.069503 kJ/mol
# GULP energy per Si atom -5578.359625 kJ/mol
# Density = 1.948562 g / cm^3
# Si number density = 19.530067 Si / 1000 Ang^3
#
#
#
# Elastic Constant Matrix: (Units=GPa)
#
#
# Indices 1 2 3 4 5 6 
#
# 1 119.1814 22.5832 36.5255 0.0000 1.6112 0.0000
# 2 22.5832 56.7572 16.8390 0.0000 -3.8646 0.0000
# 3 36.5255 16.8390 97.3001 0.0000 11.0307 0.0000
# 4 0.0000 0.0000 0.0000 16.8026 0.0000 0.7692
# 5 1.6112 -3.8646 11.0307 0.0000 41.7266 0.0000
# 6 0.0000 0.0000 0.0000 0.7692 0.0000 16.6916
#
#
#
# Elastic Compliance Matrix: (Units=1/GPa)
#
#
# Indices 1 2 3 4 5 6 
#
# 1 0.009946 -0.002983 -0.003240 0.000000 0.000196 0.000000
# 2 -0.002983 0.019756 -0.002598 0.000000 0.002632 0.000000
# 3 -0.003240 -0.002598 0.012326 0.000000 -0.003374 0.000000
# 4 0.000000 0.000000 0.000000 0.059640 0.000000 -0.002748
# 5 0.000196 0.002632 -0.003374 0.000000 0.025094 0.000000
# 6 0.000000 0.000000 0.000000 -0.002748 0.000000 0.060037
#
#
# Mechanical properties :
#
#
# Convention : Reuss Voigt Hill
#
# Bulk Modulus (GPa) = 41.00533 47.23713 44.12123
# Shear Modulus (GPa) = 23.52196 28.19690 25.85943
#
# Velocity S-wave (km/s) = 3.47421 3.80382 3.64274
# Velocity P-wave (km/s) = 6.09386 6.59783 6.35085
#
# Compressibility (1/GPa) = 0.02438707
#
# Stress axis : x y z
#
# Youngs Moduli (GPa) = 100.54300 50.61849 81.13173
#
# Poissons Ratio (x) = 0.15099 0.26284
# Poissons Ratio (y) = 0.29991 0.21074
# Poissons Ratio (z) = 0.32572 0.13148
#
# Static dielectric constant tensor:
#      x y z
#    x 1.741830 0.000000 -0.001110 
#    y 0.000000 1.696340 0.000000 
#    z -0.001110 0.000000 1.737780 
# 
# From -- ./inp_files/227644.got.cif
#   From: 2010.05.17/outbox.cif.g08.bks.cpg/sg12_114_cif.got.tgz:227644.got - 2010.06.03 13:09:07.
