data_PCOD9207089
_publ_section_title
;
Structure prediction by ZEFSAII (Michael W. Deem and Ramdas Pophale) SiO2 
 PCOD9207089
Probable space group: C 2/M
;
_chemical_formula_sum "Si O2"
_cell_formula_units_Z 40
_cell_length_a 14.892474
_cell_length_b 13.177480
_cell_length_c 7.564370
_cell_angle_alpha 90.000000
_cell_angle_beta 98.594520
_cell_angle_gamma 90.000000
_cell_volume 1467.802284
_symmetry_space_group_name_H-M "C 2/M"
_symmetry_group_IT_number 12
_symmetry_cell_setting 'monoclinic'
loop_
_space_group_symop_operation_xyz
x,y,z
-x,y,-z
-x,-y,-z
x,-y,z
1/2+x,1/2+y,z
1/2-x,1/2+y,-z
1/2-x,1/2-y,-z
1/2+x,1/2-y,z
loop_
_atom_site_type_symbol
_atom_site_label
_atom_site_fract_x
_atom_site_fract_y
_atom_site_fract_z
Si Si1 0.121685 0.378958 0.378587
Si Si2 0.290606 0.120393 0.952042
Si Si3 0.731530 0.378340 0.297652
Si Si4 0.046475 0.266974 0.840496
Si Si5 0.394223 0.384742 0.421635
O O1 0.102768 0.500000 0.360088
O O2 0.198347 0.353778 0.251728
O O3 0.170692 0.362258 0.580466
O O4 0.030473 0.318680 0.304735
O O5 0.390328 0.146359 0.058065
O O6 0.104888 0.184894 0.750434
O O7 0.277153 0.000000 0.950579
O O8 0.718746 0.500000 0.285131
O O9 0.727898 0.338837 0.095681
O O10 0.657753 0.344811 0.420071
O O11 0.000000 0.217098 0.000000
O O12 0.500000 0.390758 0.500000
O O13 0.362738 0.500000 0.376246
#
# Coordination Sequence:
#
# PCOD9207089 Si02
#       5
#     8   8   8   8   8
#     4   9  18  35  60  90 121 146 177 228 285 346
#     4   9  18  34  58  90 123 148 177 225 286 348
#     4   9  19  37  60  84 110 149 194 233 282 334
#     4  10  21  37  56  88 117 150 187 225 283 342
#     4  10  23  43  59  76 109 152 199 243 280 325
#
# _framework density 27.251628
#
# number of rings (size 3 to 8) (size 9 to 14) (size 15 to 20)
#    0.000    2.600    0.000    0.600    2.800    3.600 
#    3.600    5.000    0.000    0.000    0.000    0.000 
#    0.000    0.000    0.000    0.000    0.000    0.000 
#
# Total GULP energy -112080.133445 kJ/mol
# GULP energy per Si atom -5604.006672 kJ/mol
# Density = 2.718960 g / cm^3
# Si number density = 27.251628 Si / 1000 Ang^3
#
#
#
# Elastic Constant Matrix: (Units=GPa)
#
#
# Indices 1 2 3 4 5 6 
#
# 1 149.1454 27.9811 62.5242 0.0000 -41.5890 0.0000
# 2 27.9811 111.4475 35.6814 0.0000 -26.8998 0.0000
# 3 62.5242 35.6814 179.2568 0.0000 -30.9193 0.0000
# 4 0.0000 0.0000 0.0000 22.3434 0.0000 -15.3731
# 5 -41.5890 -26.8998 -30.9193 0.0000 67.9664 0.0000
# 6 0.0000 0.0000 0.0000 -15.3731 0.0000 46.0509
#
#
#
# Elastic Compliance Matrix: (Units=1/GPa)
#
#
# Indices 1 2 3 4 5 6 
#
# 1 0.008937 -0.000489 -0.002290 0.000000 0.004233 0.000000
# 2 -0.000489 0.010286 -0.001331 0.000000 0.003166 0.000000
# 3 -0.002290 -0.001331 0.006847 0.000000 0.001187 0.000000
# 4 0.000000 0.000000 0.000000 0.058101 0.000000 0.019396
# 5 0.004233 0.003166 0.001187 0.000000 0.019097 0.000000
# 6 0.000000 0.000000 0.000000 0.019396 0.000000 0.028190
#
#
# Mechanical properties :
#
#
# Convention : Reuss Voigt Hill
#
# Bulk Modulus (GPa) = 56.01895 76.91369 66.46632
# Shear Modulus (GPa) = 34.33447 48.18301 41.25874
#
# Velocity S-wave (km/s) = 3.55336 4.20941 3.89523
# Velocity P-wave (km/s) = 6.11850 7.20488 6.68380
#
# Compressibility (1/GPa) = 0.01785110
#
# Stress axis : x y z
#
# Youngs Moduli (GPa) = 111.89502 97.22037 146.05271
#
# Poissons Ratio (x) = 0.04753 0.33441
# Poissons Ratio (y) = 0.05471 0.19436
# Poissons Ratio (z) = 0.25620 0.12937
#
# Static dielectric constant tensor:
#      x y z
#    x 2.170000 0.000000 -0.018140 
#    y 0.000000 2.123940 0.000000 
#    z -0.018140 0.000000 2.078850 
# 
# From -- ./inp_files/155616.got.cif
#   From: 2010.05.17/outbox.cif.g08.bks.cpg/sg12_78_cif.got.tgz:155616.got - 2010.06.03 13:09:07.
