data_PCOD9207457
_publ_section_title
;
Structure prediction by ZEFSAII (Michael W. Deem and Ramdas Pophale) SiO2 
 PCOD9207457
Probable space group: C 2/M
;
_chemical_formula_sum "Si O2"
_cell_formula_units_Z 48
_cell_length_a 14.664794
_cell_length_b 17.520886
_cell_length_c 11.810862
_cell_angle_alpha 90.000000
_cell_angle_beta 120.933173
_cell_angle_gamma 90.000000
_cell_volume 2603.054008
_symmetry_space_group_name_H-M "C 2/M"
_symmetry_group_IT_number 12
_symmetry_cell_setting 'monoclinic'
loop_
_space_group_symop_operation_xyz
x,y,z
-x,y,-z
-x,-y,-z
x,-y,z
1/2+x,1/2+y,z
1/2-x,1/2+y,-z
1/2-x,1/2-y,-z
1/2+x,1/2-y,z
loop_
_atom_site_type_symbol
_atom_site_label
_atom_site_fract_x
_atom_site_fract_y
_atom_site_fract_z
Si Si1 0.897216 0.314229 0.639431
Si Si2 0.824042 0.089821 0.139388
Si Si3 0.754556 0.187825 0.652276
Si Si4 0.395435 0.090652 0.866603
Si Si5 0.123675 0.090942 0.084334
Si Si6 0.925652 0.219133 0.345862
O O1 0.842130 0.233826 0.636986
O O2 0.829220 0.347052 0.490933
O O3 0.890501 0.367129 0.743961
O O4 0.014708 0.289773 0.676622
O O5 0.709276 0.102105 0.123870
O O6 0.904638 0.147453 0.252045
O O7 0.852491 0.000000 0.172376
O O8 0.825015 0.105584 0.006009
O O9 0.812054 0.132023 0.775582
O O10 0.685404 0.249629 0.677282
O O11 0.405489 0.000000 0.853538
O O12 0.500000 0.117441 0.000000
O O13 0.124145 0.000000 0.104220
O O14 0.000000 0.115911 0.000000
O O15 0.000000 0.197918 0.500000
#
# Coordination Sequence:
#
# PCOD9207457 Si02
#       6
#     8   8   8   8   8   8
#     4  10  21  38  59  84 116 150 190 236 285 340
#     4  10  21  39  60  85 116 149 191 239 287 340
#     4  10  21  38  58  83 115 151 189 238 285 335
#     4  10  22  39  59  85 116 151 191 236 285 338
#     4  10  22  39  58  84 116 151 192 237 287 340
#     4  10  21  37  58  86 117 149 189 237 287 341
#
# _framework density 18.439879000000001
#
# number of rings (size 3 to 8) (size 9 to 14) (size 15 to 20)
#    0.000    2.000    1.667    1.000    2.333    3.667 
#    0.000    0.000    0.000    3.000    0.000    0.000 
#    0.000    0.000    0.000    0.000    0.000    0.000 
#
# Total GULP energy -133932.612984 kJ/mol
# GULP energy per Si atom -5580.525541 kJ/mol
# Density = 1.839791 g / cm^3
# Si number density = 18.439879 Si / 1000 Ang^3
#
#
#
# Elastic Constant Matrix: (Units=GPa)
#
#
# Indices 1 2 3 4 5 6 
#
# 1 62.4400 20.3526 40.3158 0.0000 -6.9851 0.0000
# 2 20.3526 42.6361 73.6960 0.0000 0.0598 0.0000
# 3 40.3158 73.6960 160.0355 0.0000 -7.8542 0.0000
# 4 0.0000 0.0000 0.0000 48.8853 0.0000 -9.8113
# 5 -6.9851 0.0598 -7.8542 0.0000 26.6881 0.0000
# 6 0.0000 0.0000 0.0000 -9.8113 0.0000 23.7262
#
#
#
# Elastic Compliance Matrix: (Units=1/GPa)
#
#
# Indices 1 2 3 4 5 6 
#
# 1 0.019773 -0.006008 -0.001989 0.000000 0.004603 0.000000
# 2 -0.006008 0.123996 -0.056493 0.000000 -0.018476 0.000000
# 3 -0.001989 -0.056493 0.033225 0.000000 0.009384 0.000000
# 4 0.000000 0.000000 0.000000 0.022307 0.000000 0.009225
# 5 0.004603 -0.018476 0.009384 0.000000 0.041478 0.000000
# 6 0.000000 0.000000 0.000000 0.009225 0.000000 0.045962
#
#
# Mechanical properties :
#
#
# Convention : Reuss Voigt Hill
#
# Bulk Modulus (GPa) = 20.82705 59.31559 40.07132
# Shear Modulus (GPa) = 11.58146 28.57639 20.07893
#
# Velocity S-wave (km/s) = 2.50884 3.94090 3.30341
# Velocity P-wave (km/s) = 4.43976 7.27629 6.02727
#
# Compressibility (1/GPa) = 0.04801447
#
# Stress axis : x y z
#
# Youngs Moduli (GPa) = 50.57504 8.06480 30.09777
#
# Poissons Ratio (x) = 0.04845 0.05985
# Poissons Ratio (y) = 0.30385 1.70031
# Poissons Ratio (z) = 0.10057 0.45560
#
# Static dielectric constant tensor:
#      x y z
#    x 1.636360 0.000000 0.002830 
#    y 0.000000 1.605880 0.000000 
#    z 0.002830 0.000000 1.622270 
# 
# From -- ./inp_files/143526.got.cif
#   From: 2010.05.17/outbox.cif.g08.bks.cpg/sg12_72_cif.got.tgz:143526.got - 2010.06.03 13:09:07.
