data_PCOD9207075
_publ_section_title
;
Structure prediction by ZEFSAII (Michael W. Deem and Ramdas Pophale) SiO2 
 PCOD9207075
Probable space group: C 2/M
;
_chemical_formula_sum "Si O2"
_cell_formula_units_Z 32
_cell_length_a 14.038607
_cell_length_b 28.495555
_cell_length_c 11.633473
_cell_angle_alpha 90.000000
_cell_angle_beta 159.387622
_cell_angle_gamma 90.000000
_cell_volume 1638.352323
_symmetry_space_group_name_H-M "C 2/M"
_symmetry_group_IT_number 12
_symmetry_cell_setting 'monoclinic'
loop_
_space_group_symop_operation_xyz
x,y,z
-x,y,-z
-x,-y,-z
x,-y,z
1/2+x,1/2+y,z
1/2-x,1/2+y,-z
1/2-x,1/2-y,-z
1/2+x,1/2-y,z
loop_
_atom_site_type_symbol
_atom_site_label
_atom_site_fract_x
_atom_site_fract_y
_atom_site_fract_z
Si Si1 0.257880 0.759254 0.371020
Si Si2 0.808034 0.646845 0.527551
Si Si3 0.692987 0.052716 0.608797
Si Si4 0.899762 0.172213 0.266411
O O1 0.250000 0.750000 0.500000
O O2 0.278676 0.815557 0.390283
O O3 0.517212 0.727308 0.635426
O O4 0.000000 0.745179 0.000000
O O5 0.838187 0.594505 0.516015
O O6 0.562384 0.652037 0.340366
O O7 0.085225 0.662889 0.900209
O O8 0.500000 0.060616 0.500000
O O9 0.637183 0.000000 0.500844
O O10 0.000000 0.053905 0.000000
O O11 0.000000 0.151378 0.500000
#
# Coordination Sequence:
#
# PCOD9207075 Si02
#       4
#     8   8   8   8
#     4  10  21  37  56  84 119 156 197 239 287 346
#     4  11  22  37  59  85 113 153 196 238 287 350
#     4  10  21  38  60  87 116 145 183 238 300 353
#     4  11  22  38  56  81 117 156 195 236 287 342
#
# _framework density 19.531818000000001
#
# number of rings (size 3 to 8) (size 9 to 14) (size 15 to 20)
#    0.000    1.500    0.000    6.750    0.000    5.000 
#    0.000    0.000    0.000    4.500    0.000    0.000 
#    0.000    0.000    0.000    0.000    0.000    0.000 
#
# Total GULP energy -89275.868654 kJ/mol
# GULP energy per Si atom -5579.741791 kJ/mol
# Density = 1.948736 g / cm^3
# Si number density = 19.531818 Si / 1000 Ang^3
#
#
#
# Elastic Constant Matrix: (Units=GPa)
#
#
# Indices 1 2 3 4 5 6 
#
# 1 60.3170 28.6975 -4.3061 -0.0002 2.2882 0.0000
# 2 28.6975 116.6297 -3.2148 -0.0005 -16.6618 0.0000
# 3 -4.3061 -3.2148 92.1842 -0.0030 -10.8151 0.0000
# 4 -0.0002 -0.0005 -0.0030 20.4668 -0.0002 4.2282
# 5 2.2882 -16.6618 -10.8151 -0.0002 31.1143 0.0000
# 6 0.0000 0.0000 0.0000 4.2282 0.0000 24.4678
#
#
#
# Elastic Compliance Matrix: (Units=1/GPa)
#
#
# Indices 1 2 3 4 5 6 
#
# 1 0.019296 -0.005342 0.000222 0.000000 -0.004203 0.000000
# 2 -0.005342 0.010843 0.000892 0.000000 0.006510 0.000000
# 3 0.000222 0.000892 0.011409 0.000002 0.004427 0.000000
# 4 0.000000 0.000000 0.000002 0.050668 0.000001 -0.008756
# 5 -0.004203 0.006510 0.004427 0.000001 0.037473 0.000000
# 6 0.000000 0.000000 0.000000 -0.008756 0.000000 0.042383
#
#
# Mechanical properties :
#
#
# Convention : Reuss Voigt Hill
#
# Bulk Modulus (GPa) = 30.21863 34.60934 32.41398
# Shear Modulus (GPa) = 26.10158 31.74008 28.92083
#
# Velocity S-wave (km/s) = 3.65959 4.03556 3.85217
# Velocity P-wave (km/s) = 5.77598 6.28269 6.03466
#
# Compressibility (1/GPa) = 0.03309217
#
# Stress axis : x y z
#
# Youngs Moduli (GPa) = 51.82406 92.22372 87.65223
#
# Poissons Ratio (x) = 0.49268 -0.01946
# Poissons Ratio (y) = 0.27685 -0.07821
# Poissons Ratio (z) = -0.01150 -0.08229
#
# Static dielectric constant tensor:
#      x y z
#    x 1.748680 0.000000 0.001760 
#    y 0.000000 1.737970 0.000000 
#    z 0.001760 0.000000 1.690800 
# 
# From -- ./inp_files/3529.got.cif
#   From: 2010.05.17/outbox.cif.g08.bks.cpg/sg12_2_cif.got.tgz:3529.got - 2010.06.03 13:09:07.
