data_PCOD9207396
_publ_section_title
;
Structure prediction by ZEFSAII (Michael W. Deem and Ramdas Pophale) SiO2 
 PCOD9207396
Probable space group: C 2/M
;
_chemical_formula_sum "Si O2"
_cell_formula_units_Z 56
_cell_length_a 13.625741
_cell_length_b 11.735154
_cell_length_c 19.807168
_cell_angle_alpha 90.000000
_cell_angle_beta 64.690750
_cell_angle_gamma 90.000000
_cell_volume 2863.164134
_symmetry_space_group_name_H-M "C 2/M"
_symmetry_group_IT_number 12
_symmetry_cell_setting 'monoclinic'
loop_
_space_group_symop_operation_xyz
x,y,z
-x,y,-z
-x,-y,-z
x,-y,z
1/2+x,1/2+y,z
1/2-x,1/2+y,-z
1/2-x,1/2-y,-z
1/2+x,1/2-y,z
loop_
_atom_site_type_symbol
_atom_site_label
_atom_site_fract_x
_atom_site_fract_y
_atom_site_fract_z
Si Si1 0.930582 0.169370 0.453721
Si Si2 0.778864 0.632745 0.948704
Si Si3 0.423884 0.631638 0.083936
Si Si4 0.287890 0.130582 0.302775
Si Si5 0.503086 0.213572 0.180435
Si Si6 0.686877 0.126546 0.556553
Si Si7 0.083802 0.867279 0.280610
O O1 0.807845 0.121519 0.490486
O O2 0.900544 0.302839 0.459241
O O3 0.000000 0.139910 0.500000
O O4 0.997918 0.137465 0.367532
O O5 0.765918 0.500000 0.981090
O O6 0.696838 0.637168 0.909664
O O7 0.900201 0.648368 0.885619
O O8 0.750000 0.750000 0.000000
O O9 0.452705 0.500000 0.088590
O O10 0.447560 0.703939 0.142308
O O11 0.500000 0.672279 0.000000
O O12 0.406726 0.135843 0.236689
O O13 0.294773 0.183783 0.375169
O O14 0.196732 0.177641 0.279593
O O15 0.251889 0.000000 0.324290
O O16 0.548593 0.289359 0.228671
O O17 0.644858 0.000000 0.579402
O O18 0.095593 0.000000 0.255772
#
# Coordination Sequence:
#
# PCOD9207396 Si02
#       7
#     8   8   8   8   8   8   8
#     4  11  21  37  61  85 115 158 206 249 298 362
#     4  11  24  43  68  97 127 165 211 255 311 376
#     4  10  21  40  64  88 121 163 200 244 308 372
#     4  10  21  38  58  84 121 157 192 247 312 358
#     4  12  22  40  63  90 122 160 202 254 302 369
#     4  10  21  37  58  84 117 158 200 249 303 357
#     4  11  23  37  59  92 121 156 205 253 303 362
#
# _framework density 19.558781
#
# number of rings (size 3 to 8) (size 9 to 14) (size 15 to 20)
#    0.000    1.286    4.286    2.143    0.000    1.429 
#    0.000    2.143    0.000    0.857    0.000    0.000 
#    0.000    0.000    0.000    0.000    0.000    0.000 
#
# Total GULP energy -156080.098149 kJ/mol
# GULP energy per Si atom -5574.289220 kJ/mol
# Density = 1.951426 g / cm^3
# Si number density = 19.558781 Si / 1000 Ang^3
#
#
#
# Elastic Constant Matrix: (Units=GPa)
#
#
# Indices 1 2 3 4 5 6 
#
# 1 80.8460 22.7082 19.0980 0.0000 -6.9875 0.0000
# 2 22.7082 83.2863 20.6062 0.0000 14.8053 0.0000
# 3 19.0980 20.6062 66.6089 0.0000 -6.0045 0.0000
# 4 0.0000 0.0000 0.0000 8.8038 0.0000 6.4170
# 5 -6.9875 14.8053 -6.0045 0.0000 39.0656 0.0000
# 6 0.0000 0.0000 0.0000 6.4170 0.0000 9.6026
#
#
#
# Elastic Compliance Matrix: (Units=1/GPa)
#
#
# Indices 1 2 3 4 5 6 
#
# 1 0.014403 -0.003942 -0.002579 0.000000 0.003674 0.000000
# 2 -0.003942 0.015425 -0.004292 0.000000 -0.007211 0.000000
# 3 -0.002579 -0.004292 0.017427 0.000000 0.003844 0.000000
# 4 0.000000 0.000000 0.000000 0.221456 0.000000 -0.147989
# 5 0.003674 -0.007211 0.003844 0.000000 0.029579 0.000000
# 6 0.000000 0.000000 0.000000 -0.147989 0.000000 0.203032
#
#
# Mechanical properties :
#
#
# Convention : Reuss Voigt Hill
#
# Bulk Modulus (GPa) = 39.01743 39.50732 39.26238
# Shear Modulus (GPa) = 9.40751 22.71632 16.06191
#
# Velocity S-wave (km/s) = 2.19552 3.41169 2.86879
# Velocity P-wave (km/s) = 5.13996 5.98018 5.57592
#
# Compressibility (1/GPa) = 0.02562957
#
# Stress axis : x y z
#
# Youngs Moduli (GPa) = 69.42901 64.82901 57.38351
#
# Poissons Ratio (x) = 0.25556 0.14799
# Poissons Ratio (y) = 0.27369 0.24627
# Poissons Ratio (z) = 0.17905 0.27823
#
# Static dielectric constant tensor:
#      x y z
#    x 1.696710 0.000000 -0.007040 
#    y 0.000000 1.734420 0.000000 
#    z -0.007040 0.000000 1.707040 
# 
# From -- ./inp_files/268842.got.cif
#   From: 2010.05.17/outbox.cif.g08.bks.cpg/sg12_135_cif.got.tgz:268842.got - 2010.06.03 13:09:07.
