data_PCOD9207012
_publ_section_title
;
Structure prediction by ZEFSAII (Michael W. Deem and Ramdas Pophale) SiO2 
 PCOD9207012
Probable space group: C 2/M
;
_chemical_formula_sum "Si O2"
_cell_formula_units_Z 52
_cell_length_a 27.653436
_cell_length_b 20.075813
_cell_length_c 5.085386
_cell_angle_alpha 90.000000
_cell_angle_beta 106.959260
_cell_angle_gamma 90.000000
_cell_volume 2700.453928
_symmetry_space_group_name_H-M "C 2/M"
_symmetry_group_IT_number 12
_symmetry_cell_setting 'monoclinic'
loop_
_space_group_symop_operation_xyz
x,y,z
-x,y,-z
-x,-y,-z
x,-y,z
1/2+x,1/2+y,z
1/2-x,1/2+y,-z
1/2-x,1/2-y,-z
1/2+x,1/2-y,z
loop_
_atom_site_type_symbol
_atom_site_label
_atom_site_fract_x
_atom_site_fract_y
_atom_site_fract_z
Si Si1 0.500000 0.387880 0.000000
Si Si2 0.325653 0.355907 0.013969
Si Si3 0.147279 0.000000 0.915845
Si Si4 0.423177 0.500000 0.694232
Si Si5 0.433852 0.290927 0.225342
Si Si6 0.407175 0.209374 0.671027
Si Si7 0.699093 0.279887 0.535484
Si Si8 0.463721 0.076258 0.690109
O O1 0.542028 0.435559 0.197135
O O2 0.475280 0.340917 0.179720
O O3 0.320425 0.433395 0.059976
O O4 0.383314 0.335476 0.168463
O O5 0.293961 0.311040 0.165541
O O6 0.316838 0.336979 0.697920
O O7 0.102321 0.000000 0.630284
O O8 0.120776 0.000000 0.158138
O O9 0.438545 0.252288 0.506329
O O10 0.423298 0.235758 0.982951
O O11 0.348147 0.228300 0.536834
O O12 0.421293 0.132692 0.650882
O O13 0.750000 0.250000 0.500000
O O14 0.500000 0.089705 0.500000
O O15 0.444505 0.000000 0.637455
O O16 0.500000 0.080101 0.000000
#
# Coordination Sequence:
#
# PCOD9207012 Si02
#       8
#     4   8   4   4   8   8   8   8
#     4  11  24  38  50  82 115 168 208 248 267 330
#     4  10  21  38  58  84 113 148 190 236 288 339
#     4  12  22  41  56  80 120 162 196 244 278 344
#     4  11  26  36  54  74 120 170 214 228 282 319
#     4  10  22  34  53  80 116 145 196 240 277 319
#     4  10  22  37  56  87 111 148 186 242 289 343
#     4  10  21  40  64  88 111 144 190 242 302 352
#     4  10  21  37  56  80 113 152 187 221 282 353
#
# _framework density 19.256022999999999
#
# number of rings (size 3 to 8) (size 9 to 14) (size 15 to 20)
#    0.000    1.692    1.538    2.308    7.538    2.462 
#    0.000    0.000    3.385    0.000    0.000    0.000 
#    0.000    0.000    0.000    0.000    0.000    0.000 
#
# Total GULP energy -145355.929490 kJ/mol
# GULP energy per Si atom -5590.612673 kJ/mol
# Density = 1.921220 g / cm^3
# Si number density = 19.256023 Si / 1000 Ang^3
#
#
#
# Elastic Constant Matrix: (Units=GPa)
#
#
# Indices 1 2 3 4 5 6 
#
# 1 84.8693 56.2214 3.7055 0.0000 -20.7297 0.0000
# 2 56.2214 133.2080 13.0411 0.0000 -3.1777 0.0000
# 3 3.7055 13.0411 60.4593 0.0000 -17.0704 0.0000
# 4 0.0000 0.0000 0.0000 17.9052 0.0000 -2.9271
# 5 -20.7297 -3.1777 -17.0704 0.0000 27.6455 0.0000
# 6 0.0000 0.0000 0.0000 -2.9271 0.0000 14.4643
#
#
#
# Elastic Compliance Matrix: (Units=1/GPa)
#
#
# Indices 1 2 3 4 5 6 
#
# 1 0.022863 -0.009795 0.006339 0.000000 0.019932 0.000000
# 2 -0.009795 0.011866 -0.004418 0.000000 -0.008708 0.000000
# 3 0.006339 -0.004418 0.022168 0.000000 0.017934 0.000000
# 4 0.000000 0.000000 0.000000 0.057760 0.000000 0.011689
# 5 0.019932 -0.008708 0.017934 0.000000 0.061191 0.000000
# 6 0.000000 0.000000 0.000000 0.011689 0.000000 0.071501
#
#
# Mechanical properties :
#
#
# Convention : Reuss Voigt Hill
#
# Bulk Modulus (GPa) = 24.30140 47.16363 35.73252
# Shear Modulus (GPa) = 18.06276 25.70756 21.88516
#
# Velocity S-wave (km/s) = 3.06605 3.65778 3.37491
# Velocity P-wave (km/s) = 5.01815 6.51040 5.81236
#
# Compressibility (1/GPa) = 0.04114990
#
# Stress axis : x y z
#
# Youngs Moduli (GPa) = 43.73888 84.27636 45.11009
#
# Poissons Ratio (x) = 0.82545 -0.28596
# Poissons Ratio (y) = 0.42841 0.19929
# Poissons Ratio (z) = -0.27727 0.37233
#
# Static dielectric constant tensor:
#      x y z
#    x 1.661160 0.000000 0.007130 
#    y 0.000000 1.679150 0.000000 
#    z 0.007130 0.000000 1.672740 
# 
# From -- ./inp_files/28585.got.cif
#   From: 2010.05.17/outbox.cif.g08.bks.cpg/sg12_15_cif.got.tgz:28585.got - 2010.06.03 13:09:07.
