data_PCOD9207793
_publ_section_title
;
Structure prediction by ZEFSAII (Michael W. Deem and Ramdas Pophale) SiO2 
 PCOD9207793
Probable space group: C 2/M
;
_chemical_formula_sum "Si O2"
_cell_formula_units_Z 42
_cell_length_a 10.409119
_cell_length_b 22.403205
_cell_length_c 9.599386
_cell_angle_alpha 90.000000
_cell_angle_beta 62.784085
_cell_angle_gamma 90.000000
_cell_volume 1990.722310
_symmetry_space_group_name_H-M "C 2/M"
_symmetry_group_IT_number 12
_symmetry_cell_setting 'monoclinic'
loop_
_space_group_symop_operation_xyz
x,y,z
-x,y,-z
-x,-y,-z
x,-y,z
1/2+x,1/2+y,z
1/2-x,1/2+y,-z
1/2-x,1/2-y,-z
1/2+x,1/2-y,z
loop_
_atom_site_type_symbol
_atom_site_label
_atom_site_fract_x
_atom_site_fract_y
_atom_site_fract_z
Si Si1 0.963343 0.238938 0.170802
Si Si2 0.868675 0.231007 0.640032
Si Si3 0.211616 0.109006 0.467686
Si Si4 0.000000 0.000000 0.500000
Si Si5 0.504018 0.881289 0.157057
Si Si6 0.848245 0.430895 0.660924
O O1 0.066750 0.213854 0.240979
O O2 0.006331 0.309439 0.152147
O O3 0.789238 0.239226 0.276743
O O4 0.000000 0.214580 0.000000
O O5 0.846779 0.172036 0.557801
O O6 0.000000 0.267284 0.500000
O O7 0.357552 0.100339 0.306797
O O8 0.243539 0.107670 0.616150
O O9 0.114108 0.052672 0.486137
O O10 0.628364 0.905667 0.196269
O O11 0.500000 0.902828 0.000000
O O12 0.802499 0.500000 0.689815
O O13 0.000000 0.429675 0.500000
#
# Coordination Sequence:
#
# PCOD9207793 Si02
#       6
#     8   8   8   2   8   8
#     4  10  22  40  60  86 127 164 196 243 309 365
#     4  11  22  38  60  92 118 155 208 252 294 350
#     4  10  21  37  60  84 113 155 195 239 294 351
#     4  12  20  40  60  74 118 156 198 228 304 346
#     4   9  20  37  59  89 119 149 190 244 295 349
#     4   9  17  32  55  82 108 145 193 240 290 340
#
# _framework density 21.097871000000001
#
# number of rings (size 3 to 8) (size 9 to 14) (size 15 to 20)
#    0.000    2.095    1.905    1.143    1.333    5.714 
#    0.000    0.000    0.000    1.143    0.000    0.000 
#    0.000    0.000    0.000    0.000    0.000    0.000 
#
# Total GULP energy -116980.149576 kJ/mol
# GULP energy per Si atom -5570.483313 kJ/mol
# Density = 2.104985 g / cm^3
# Si number density = 21.097871 Si / 1000 Ang^3
#
#
#
# Elastic Constant Matrix: (Units=GPa)
#
#
# Indices 1 2 3 4 5 6 
#
# 1 123.2380 53.8214 58.6466 0.0000 31.6574 0.0000
# 2 53.8214 76.9030 34.5189 0.0000 15.8207 0.0000
# 3 58.6466 34.5189 104.6835 0.0000 46.7421 0.0000
# 4 0.0000 0.0000 0.0000 12.4952 0.0000 9.9766
# 5 31.6574 15.8207 46.7421 0.0000 42.4412 0.0000
# 6 0.0000 0.0000 0.0000 9.9766 0.0000 24.8567
#
#
#
# Elastic Compliance Matrix: (Units=1/GPa)
#
#
# Indices 1 2 3 4 5 6 
#
# 1 0.014094 -0.007396 -0.003923 0.000000 -0.003435 0.000000
# 2 -0.007396 0.019145 -0.002846 0.000000 0.001514 0.000000
# 3 -0.003923 -0.002846 0.021463 0.000000 -0.019651 0.000000
# 4 0.000000 0.000000 0.000000 0.117773 0.000000 -0.047270
# 5 -0.003435 0.001514 -0.019651 0.000000 0.047202 0.000000
# 6 0.000000 0.000000 0.000000 -0.047270 0.000000 0.059203
#
#
# Mechanical properties :
#
#
# Convention : Reuss Voigt Hill
#
# Bulk Modulus (GPa) = 37.91810 66.53317 52.22564
# Shear Modulus (GPa) = 15.82270 26.48113 21.15192
#
# Velocity S-wave (km/s) = 2.74152 3.54666 3.16976
# Velocity P-wave (km/s) = 5.29460 6.95526 6.18096
#
# Compressibility (1/GPa) = 0.02637263
#
# Stress axis : x y z
#
# Youngs Moduli (GPa) = 70.95332 52.23175 46.59130
#
# Poissons Ratio (x) = 0.38631 0.18278
# Poissons Ratio (y) = 0.52478 0.13258
# Poissons Ratio (z) = 0.27836 0.14864
#
# Static dielectric constant tensor:
#      x y z
#    x 1.818140 0.000000 0.004660 
#    y 0.000000 1.742340 0.000000 
#    z 0.004660 0.000000 1.789030 
# 
# From -- ./inp_files/41574.got.cif
#   From: 2010.05.17/outbox.cif.g08.bks.cpg/sg12_21_cif.got.tgz:41574.got - 2010.06.03 13:09:07.
