data_PCOD9207757
_publ_section_title
;
Structure prediction by ZEFSAII (Michael W. Deem and Ramdas Pophale) SiO2 
 PCOD9207757
Probable space group: C 2/M
;
_chemical_formula_sum "Si O2"
_cell_formula_units_Z 64
_cell_length_a 31.268627
_cell_length_b 22.016744
_cell_length_c 9.130309
_cell_angle_alpha 90.000000
_cell_angle_beta 30.535152
_cell_angle_gamma 90.000000
_cell_volume 3193.509967
_symmetry_space_group_name_H-M "C 2/M"
_symmetry_group_IT_number 12
_symmetry_cell_setting 'monoclinic'
loop_
_space_group_symop_operation_xyz
x,y,z
-x,y,-z
-x,-y,-z
x,-y,z
1/2+x,1/2+y,z
1/2-x,1/2+y,-z
1/2-x,1/2-y,-z
1/2+x,1/2-y,z
loop_
_atom_site_type_symbol
_atom_site_label
_atom_site_fract_x
_atom_site_fract_y
_atom_site_fract_z
Si Si1 0.147267 0.380943 0.242663
Si Si2 0.732025 0.337861 0.851121
Si Si3 0.162205 0.664131 0.747194
Si Si4 0.248964 0.932608 0.323316
Si Si5 0.571747 0.570922 0.689015
Si Si6 0.408677 0.572675 0.700235
Si Si7 0.015930 0.432688 0.125736
Si Si8 0.098019 0.736211 0.203318
O O1 0.213248 0.356191 0.168600
O O2 0.071932 0.416432 0.540818
O O3 0.107926 0.324938 0.268763
O O4 0.192793 0.423623 0.990925
O O5 0.796086 0.320673 0.531396
O O6 0.670917 0.394559 0.991678
O O7 0.664556 0.284188 0.070700
O O8 0.229965 0.623327 0.634407
O O9 0.129539 0.718859 0.946027
O O10 0.083934 0.618515 0.959047
O O11 0.155272 0.928261 0.537958
O O12 0.260795 0.000000 0.353238
O O13 0.547209 0.500000 0.735354
O O14 0.587518 0.594946 0.479885
O O15 0.500000 0.600486 0.000000
O O16 0.500000 0.585550 0.500000
O O17 0.395797 0.500000 0.742887
O O18 0.044368 0.500000 0.088481
O O19 0.000000 0.433257 0.000000
O O20 0.000000 0.755543 0.500000
#
# Coordination Sequence:
#
# PCOD9207757 Si02
#       8
#     8   8   8   8   8   8   8   8
#     4  11  22  41  65  90 125 164 211 265 316 382
#     4  12  24  41  66  93 124 164 218 261 323 381
#     4  11  24  41  63  93 128 163 211 267 317 380
#     4  10  21  37  59  91 126 165 206 249 314 388
#     4   9  18  34  55  79 119 164 198 242 299 363
#     4  10  22  38  59  90 126 162 202 256 318 379
#     4  11  22  38  64  99 135 169 203 257 328 389
#     4  11  24  45  67  87 121 166 214 269 322 374
#
# _framework density 20.040645000000001
#
# number of rings (size 3 to 8) (size 9 to 14) (size 15 to 20)
#    0.000    1.375    3.750    1.875    1.750    1.500 
#    0.000    1.875    0.000    0.750    0.000    0.000 
#    0.000    0.000    0.000    0.000    0.000    0.000 
#
# Total GULP energy -178697.417717 kJ/mol
# GULP energy per Si atom -5584.294304 kJ/mol
# Density = 1.999503 g / cm^3
# Si number density = 20.040645 Si / 1000 Ang^3
#
#
#
# Elastic Constant Matrix: (Units=GPa)
#
#
# Indices 1 2 3 4 5 6 
#
# 1 38.8818 -11.4976 -7.6600 0.0000 -6.2467 0.0000
# 2 -11.4976 30.8548 -4.6273 0.0000 -7.3947 0.0000
# 3 -7.6600 -4.6273 84.0118 0.0000 -4.3183 0.0000
# 4 0.0000 0.0000 0.0000 7136.1220 0.0000 1512.0156
# 5 -6.2467 -7.3947 -4.3183 0.0000 30.4300 0.0000
# 6 0.0000 0.0000 0.0000 1512.0156 0.0000 336.7054
#
#
#
# Elastic Compliance Matrix: (Units=1/GPa)
#
#
# Indices 1 2 3 4 5 6 
#
# 1 0.033030 0.015664 0.004451 0.000000 0.011219 0.000000
# 2 0.015664 0.042307 0.004485 0.000000 0.014133 0.000000
# 3 0.004451 0.004485 0.012752 0.000000 0.003813 0.000000
# 4 0.000000 0.000000 0.000000 0.002888 0.000000 -0.012970
# 5 0.011219 0.014133 0.003813 0.000000 0.039141 0.000000
# 6 0.000000 0.000000 0.000000 -0.012970 0.000000 0.061212
#
#
# Mechanical properties :
#
#
# Convention : Reuss Voigt Hill
#
# Bulk Modulus (GPa) = 7.28387 11.79764 9.54076
# Shear Modulus (GPa) = 26.61092 1512.48703 769.54897
#
# Velocity S-wave (km/s) = 3.64792 27.50178 19.61703
# Velocity P-wave (km/s) = 4.62445 31.84908 22.75686
#
# Compressibility (1/GPa) = 0.13728968
#
# Stress axis : x y z
#
# Youngs Moduli (GPa) = 30.27522 23.63697 78.41935
#
# Poissons Ratio (x) = -0.37026 -0.34905
# Poissons Ratio (y) = -0.47424 -0.35170
# Poissons Ratio (z) = -0.13476 -0.10601
#
# Static dielectric constant tensor:
#      x y z
#    x 1.713690 0.000000 0.013890 
#    y 0.000000 1.702790 0.000000 
#    z 0.013890 0.000000 1.714470 
# 
# From -- ./inp_files/113605.got.cif
#   From: 2010.05.17/outbox.cif.g08.bks.cpg/sg12_57_cif.got.tgz:113605.got - 2010.06.03 13:09:07.
