data_PCOD9207752
_publ_section_title
;
Structure prediction by ZEFSAII (Michael W. Deem and Ramdas Pophale) SiO2 
 PCOD9207752
Probable space group: C 2/M
;
_chemical_formula_sum "Si O2"
_cell_formula_units_Z 40
_cell_length_a 9.628353
_cell_length_b 17.948959
_cell_length_c 12.332691
_cell_angle_alpha 90.000000
_cell_angle_beta 84.730504
_cell_angle_gamma 90.000000
_cell_volume 2122.314723
_symmetry_space_group_name_H-M "C 2/M"
_symmetry_group_IT_number 12
_symmetry_cell_setting 'monoclinic'
loop_
_space_group_symop_operation_xyz
x,y,z
-x,y,-z
-x,-y,-z
x,-y,z
1/2+x,1/2+y,z
1/2-x,1/2+y,-z
1/2-x,1/2-y,-z
1/2+x,1/2-y,z
loop_
_atom_site_type_symbol
_atom_site_label
_atom_site_fract_x
_atom_site_fract_y
_atom_site_fract_z
Si Si1 0.276580 0.800370 0.102725
Si Si2 0.276754 0.089321 0.718387
Si Si3 0.132462 0.197937 0.566216
Si Si4 0.846559 0.088433 0.035652
Si Si5 0.970116 0.717776 0.765049
O O1 0.160604 0.771353 0.196588
O O2 0.429699 0.792387 0.139529
O O3 0.250000 0.750000 0.000000
O O4 0.250340 0.881007 0.053065
O O5 0.200831 0.126284 0.620345
O O6 0.195318 0.106202 0.837677
O O7 0.415247 0.138195 0.726799
O O8 0.293446 0.000000 0.707849
O O9 0.250000 0.250000 0.500000
O O10 0.000000 0.178493 0.500000
O O11 0.064036 0.245843 0.666635
O O12 0.849466 0.000000 0.029114
O O13 0.000000 0.119354 0.000000
#
# Coordination Sequence:
#
# PCOD9207752 Si02
#       5
#     8   8   8   8   8
#     4  12  21  35  62  92 126 165 214 248 305 382
#     4  11  24  42  64  97 133 165 210 272 326 377
#     4  12  23  43  69  91 121 166 218 270 324 380
#     4  10  21  37  59  90 133 171 203 253 315 380
#     4  12  23  40  62  95 126 168 212 266 310 376
#
# _framework density 18.847346999999999
#
# number of rings (size 3 to 8) (size 9 to 14) (size 15 to 20)
#    0.000    0.600    6.000    3.000    0.000    1.200 
#    0.000    4.000    0.000    4.800    0.000    0.000 
#    0.000    0.000    0.000    0.000    0.000    0.000 
#
# Total GULP energy -111632.125592 kJ/mol
# GULP energy per Si atom -5581.606280 kJ/mol
# Density = 1.880445 g / cm^3
# Si number density = 18.847347 Si / 1000 Ang^3
#
#
#
# Elastic Constant Matrix: (Units=GPa)
#
#
# Indices 1 2 3 4 5 6 
#
# 1 95.3840 30.2194 28.6772 0.0000 38.1406 0.0000
# 2 30.2194 89.9562 42.4059 0.0000 13.1060 0.0000
# 3 28.6772 42.4059 75.4173 0.0000 11.8299 0.0000
# 4 0.0000 0.0000 0.0000 32.6761 0.0000 10.8773
# 5 38.1406 13.1060 11.8299 0.0000 50.1310 0.0000
# 6 0.0000 0.0000 0.0000 10.8773 0.0000 28.1083
#
#
#
# Elastic Compliance Matrix: (Units=1/GPa)
#
#
# Indices 1 2 3 4 5 6 
#
# 1 0.016772 -0.002467 -0.003209 0.000000 -0.011358 0.000000
# 2 -0.002467 0.015689 -0.007824 0.000000 -0.000378 0.000000
# 3 -0.003209 -0.007824 0.018874 0.000000 0.000033 0.000000
# 4 0.000000 0.000000 0.000000 0.035129 0.000000 -0.013594
# 5 -0.011358 -0.000378 0.000033 0.000000 0.028680 0.000000
# 6 0.000000 0.000000 0.000000 -0.013594 0.000000 0.040837
#
#
# Mechanical properties :
#
#
# Convention : Reuss Voigt Hill
#
# Bulk Modulus (GPa) = 41.09291 51.48470 46.28881
# Shear Modulus (GPa) = 26.16539 32.81341 29.48940
#
# Velocity S-wave (km/s) = 3.73000 4.17707 3.95985
# Velocity P-wave (km/s) = 6.35617 7.11617 6.74688
#
# Compressibility (1/GPa) = 0.02433510
#
# Stress axis : x y z
#
# Youngs Moduli (GPa) = 59.62335 63.74019 52.98324
#
# Poissons Ratio (x) = 0.15724 0.17001
# Poissons Ratio (y) = 0.14708 0.41455
# Poissons Ratio (z) = 0.19132 0.49871
#
# Static dielectric constant tensor:
#      x y z
#    x 1.741570 0.000000 0.024650 
#    y 0.000000 1.813070 0.000000 
#    z 0.024650 0.000000 1.680490 
# 
# From -- ./inp_files/118888.got.cif
#   From: 2010.05.17/outbox.cif.g08.bks.cpg/sg12_60_cif.got.tgz:118888.got - 2010.06.03 13:09:07.
