data_PCOD9207328
_publ_section_title
;
Structure prediction by ZEFSAII (Michael W. Deem and Ramdas Pophale) SiO2 
 PCOD9207328
Probable space group: C 2/M
;
_chemical_formula_sum "Si O2"
_cell_formula_units_Z 40
_cell_length_a 7.315363
_cell_length_b 24.805362
_cell_length_c 14.163348
_cell_angle_alpha 90.000000
_cell_angle_beta 38.336944
_cell_angle_gamma 90.000000
_cell_volume 1594.184571
_symmetry_space_group_name_H-M "C 2/M"
_symmetry_group_IT_number 12
_symmetry_cell_setting 'monoclinic'
loop_
_space_group_symop_operation_xyz
x,y,z
-x,y,-z
-x,-y,-z
x,-y,z
1/2+x,1/2+y,z
1/2-x,1/2+y,-z
1/2-x,1/2-y,-z
1/2+x,1/2-y,z
loop_
_atom_site_type_symbol
_atom_site_label
_atom_site_fract_x
_atom_site_fract_y
_atom_site_fract_z
Si Si1 0.760797 0.441622 0.751635
Si Si2 0.291366 0.326200 0.289212
Si Si3 0.581516 0.942215 0.094608
Si Si4 0.904003 0.211721 0.641308
Si Si5 0.610887 0.176534 0.050495
O O1 0.839443 0.500000 0.677133
O O2 0.829775 0.386872 0.668799
O O3 0.900842 0.439156 0.799427
O O4 0.410612 0.443432 0.917552
O O5 0.067671 0.276692 0.366860
O O6 0.446519 0.315430 0.327836
O O7 0.540159 0.324834 0.104920
O O8 0.472903 0.884027 0.107416
O O9 0.436603 0.000000 0.129393
O O10 0.550295 0.203904 0.797686
O O11 0.000000 0.191258 0.500000
O O12 0.500000 0.204670 0.000000
#
# Coordination Sequence:
#
# PCOD9207328 Si02
#       5
#     8   8   8   8   8
#     4   8  15  30  54  82 108 137 178 225 273 317
#     4  10  21  37  58  83 108 144 182 228 269 321
#     4   8  14  27  51  82 110 139 176 225 272 315
#     4  11  23  38  54  80 112 149 182 221 274 327
#     4   9  19  34  53  81 114 141 182 225 270 323
#
# _framework density 25.091199
#
# number of rings (size 3 to 8) (size 9 to 14) (size 15 to 20)
#    0.000    2.800    0.000    2.400    2.800    0.400 
#    7.200    3.000    0.000    3.000    0.000    0.000 
#    0.000    0.000    0.000    0.000    0.000    0.000 
#
# Total GULP energy -111663.643552 kJ/mol
# GULP energy per Si atom -5583.182178 kJ/mol
# Density = 2.503409 g / cm^3
# Si number density = 25.091199 Si / 1000 Ang^3
#
#
#
# Elastic Constant Matrix: (Units=GPa)
#
#
# Indices 1 2 3 4 5 6 
#
# 1 85.5283 39.4199 20.5466 0.0000 33.4182 0.0000
# 2 39.4199 205.3921 28.0459 0.0000 28.8426 0.0000
# 3 20.5466 28.0459 134.1114 0.0000 25.9783 0.0000
# 4 0.0000 0.0000 0.0000 4.4382 0.0000 7.5502
# 5 33.4182 28.8426 25.9783 0.0000 29.0774 0.0000
# 6 0.0000 0.0000 0.0000 7.5502 0.0000 29.8033
#
#
#
# Elastic Compliance Matrix: (Units=1/GPa)
#
#
# Indices 1 2 3 4 5 6 
#
# 1 0.021690 -0.000793 0.001837 0.000000 -0.025783 0.000000
# 2 -0.000793 0.005687 -0.000183 0.000000 -0.004566 0.000000
# 3 0.001837 -0.000183 0.009175 0.000000 -0.010127 0.000000
# 4 0.000000 0.000000 0.000000 0.395969 0.000000 -0.100312
# 5 -0.025783 -0.004566 -0.010127 0.000000 0.077599 0.000000
# 6 0.000000 0.000000 0.000000 -0.100312 0.000000 0.058966
#
#
# Mechanical properties :
#
#
# Convention : Reuss Voigt Hill
#
# Bulk Modulus (GPa) = 26.12766 66.78407 46.45587
# Shear Modulus (GPa) = 8.61887 35.13173 21.87530
#
# Velocity S-wave (km/s) = 1.85539 3.74593 2.95588
# Velocity P-wave (km/s) = 3.87629 6.73674 5.49588
#
# Compressibility (1/GPa) = 0.03827361
#
# Stress axis : x y z
#
# Youngs Moduli (GPa) = 46.10358 175.83429 108.99219
#
# Poissons Ratio (x) = 0.13946 -0.20023
# Poissons Ratio (y) = 0.03657 0.01999
# Poissons Ratio (z) = -0.08470 0.03224
#
# Static dielectric constant tensor:
#      x y z
#    x 2.004030 0.000000 -0.019100 
#    y 0.000000 2.054970 0.000000 
#    z -0.019100 0.000000 1.998710 
# 
# From -- ./inp_files/199214.got.cif
#   From: 2010.05.17/outbox.cif.g08.bks.cpg/sg12_100_cif.got.tgz:199214.got - 2010.06.03 13:09:07.
