data_PCOD9207150
_publ_section_title
;
Structure prediction by ZEFSAII (Michael W. Deem and Ramdas Pophale) SiO2 
 PCOD9207150
Probable space group: C 2/M
;
_chemical_formula_sum "Si O2"
_cell_formula_units_Z 48
_cell_length_a 20.396731
_cell_length_b 8.739434
_cell_length_c 21.556907
_cell_angle_alpha 90.000000
_cell_angle_beta 135.009092
_cell_angle_gamma 90.000000
_cell_volume 2716.729499
_symmetry_space_group_name_H-M "C 2/M"
_symmetry_group_IT_number 12
_symmetry_cell_setting 'monoclinic'
loop_
_space_group_symop_operation_xyz
x,y,z
-x,y,-z
-x,-y,-z
x,-y,z
1/2+x,1/2+y,z
1/2-x,1/2+y,-z
1/2-x,1/2-y,-z
1/2+x,1/2-y,z
loop_
_atom_site_type_symbol
_atom_site_label
_atom_site_fract_x
_atom_site_fract_y
_atom_site_fract_z
Si Si1 0.501903 0.183443 0.573812
Si Si2 0.999558 0.817340 0.230406
Si Si3 0.352544 0.683317 0.565371
Si Si4 0.650628 0.316793 0.765990
Si Si5 0.001618 0.682141 0.095898
Si Si6 0.855693 0.182907 0.904011
O O1 0.500000 0.222434 0.500000
O O2 0.411121 0.245529 0.548190
O O3 0.589459 0.256650 0.667654
O O4 0.506094 0.000000 0.582813
O O5 0.088447 0.781605 0.332927
O O6 0.000285 0.729087 0.166564
O O7 0.910124 0.781908 0.213177
O O8 0.999617 0.000000 0.218415
O O9 0.350471 0.500000 0.557429
O O10 0.250000 0.750000 0.500000
O O11 0.659864 0.500000 0.768070
O O12 0.750479 0.239435 0.834581
O O13 0.002544 0.500000 0.089130
O O14 0.090332 0.753118 0.120051
O O15 0.912785 0.750635 0.000568
O O16 0.860750 0.000000 0.907868
#
# Coordination Sequence:
#
# PCOD9207150 Si02
#       6
#     8   8   8   8   8   8
#     4  10  21  37  57  82 113 147 183 225 274 328
#     4   9  20  38  57  80 111 145 181 224 275 326
#     4  10  21  37  58  82 111 146 185 230 274 324
#     4  10  21  38  59  83 112 144 183 229 272 322
#     4  11  22  37  58  83 111 143 183 228 272 323
#     4  11  22  38  59  81 111 147 182 224 274 326
#
# _framework density 17.668303999999999
#
# number of rings (size 3 to 8) (size 9 to 14) (size 15 to 20)
#    0.000    1.833    0.000    6.500    0.000    7.333 
#    0.000    1.667    0.000    0.000    0.000    0.000 
#    0.000    0.000    0.000    0.000    0.000    0.000 
#
# Total GULP energy -134083.715866 kJ/mol
# GULP energy per Si atom -5586.821494 kJ/mol
# Density = 1.762809 g / cm^3
# Si number density = 17.668304 Si / 1000 Ang^3
#
#
#
# Elastic Constant Matrix: (Units=GPa)
#
#
# Indices 1 2 3 4 5 6 
#
# 1 134.3794 89.5703 122.0077 0.0000 4.4761 0.0000
# 2 89.5703 132.4819 85.2529 0.0000 -4.3685 0.0000
# 3 122.0077 85.2529 122.8816 0.0000 6.3324 0.0000
# 4 0.0000 0.0000 0.0000 34.0970 0.0000 2.3390
# 5 4.4761 -4.3685 6.3324 0.0000 43.1772 0.0000
# 6 0.0000 0.0000 0.0000 2.3390 0.0000 33.3102
#
#
#
# Elastic Compliance Matrix: (Units=1/GPa)
#
#
# Indices 1 2 3 4 5 6 
#
# 1 0.077682 -0.004944 -0.073817 0.000000 0.002273 0.000000
# 2 -0.004944 0.014292 -0.005147 0.000000 0.002713 0.000000
# 3 -0.073817 -0.005147 0.085278 0.000000 -0.005375 0.000000
# 4 0.000000 0.000000 0.000000 0.029470 0.000000 -0.002069
# 5 0.002273 0.002713 -0.005375 0.000000 0.023988 0.000000
# 6 0.000000 0.000000 0.000000 -0.002069 0.000000 0.030166
#
#
# Mechanical properties :
#
#
# Convention : Reuss Voigt Hill
#
# Bulk Modulus (GPa) = 105.96712 109.26718 107.61715
# Shear Modulus (GPa) = 11.57845 28.31102 19.94474
#
# Velocity S-wave (km/s) = 2.56271 4.00729 3.36347
# Velocity P-wave (km/s) = 8.29835 9.13176 8.72501
#
# Compressibility (1/GPa) = 0.00943689
#
# Stress axis : x y z
#
# Youngs Moduli (GPa) = 12.87295 69.96845 11.72641
#
# Poissons Ratio (x) = 0.34592 0.86561
# Poissons Ratio (y) = 0.06364 0.06035
# Poissons Ratio (z) = 0.95024 0.36011
#
# Static dielectric constant tensor:
#      x y z
#    x 1.576690 0.000000 -0.002080 
#    y 0.000000 1.589860 0.000000 
#    z -0.002080 0.000000 1.576090 
# 
# From -- ./inp_files/320311.got.cif
#   From: 2010.05.17/outbox.cif.g08.bks.cpg/sg12_161_cif.got.tgz:320311.got - 2010.06.03 13:09:07.
