data_PCOD9207450
_publ_section_title
;
Structure prediction by ZEFSAII (Michael W. Deem and Ramdas Pophale) SiO2 
 PCOD9207450
Probable space group: C 2/M
;
_chemical_formula_sum "Si O2"
_cell_formula_units_Z 64
_cell_length_a 9.223689
_cell_length_b 18.589639
_cell_length_c 28.782127
_cell_angle_alpha 90.000000
_cell_angle_beta 43.892292
_cell_angle_gamma 90.000000
_cell_volume 3421.548918
_symmetry_space_group_name_H-M "C 2/M"
_symmetry_group_IT_number 12
_symmetry_cell_setting 'monoclinic'
loop_
_space_group_symop_operation_xyz
x,y,z
-x,y,-z
-x,-y,-z
x,-y,z
1/2+x,1/2+y,z
1/2-x,1/2+y,-z
1/2-x,1/2-y,-z
1/2+x,1/2-y,z
loop_
_atom_site_type_symbol
_atom_site_label
_atom_site_fract_x
_atom_site_fract_y
_atom_site_fract_z
Si Si1 0.765583 0.412261 0.568725
Si Si2 0.063255 0.912420 0.434147
Si Si3 0.620801 0.823014 0.019833
Si Si4 0.967801 0.413383 0.700568
Si Si5 0.006812 0.081699 0.942695
Si Si6 0.296147 0.824529 0.177924
Si Si7 0.619553 0.172217 0.186255
Si Si8 0.616061 0.413235 0.706462
O O1 0.767563 0.500000 0.568460
O O2 0.596999 0.388928 0.568990
O O3 0.693995 0.390253 0.637013
O O4 0.000000 0.389531 0.500000
O O5 0.301571 0.891990 0.369504
O O6 0.000000 0.887741 0.500000
O O7 0.055434 0.000000 0.436064
O O8 0.459450 0.840385 0.098565
O O9 0.500000 0.811930 0.000000
O O10 0.750000 0.750000 0.000000
O O11 0.787691 0.886770 0.976079
O O12 0.962592 0.500000 0.705727
O O13 0.932998 0.377823 0.758159
O O14 0.789535 0.392491 0.704732
O O15 0.189013 0.134372 0.884430
O O16 0.043254 0.000000 0.918222
O O17 0.000000 0.082037 0.000000
O O18 0.429681 0.819929 0.194234
O O19 0.192865 0.748827 0.188335
O O20 0.107847 0.880466 0.228555
O O21 0.601815 0.500000 0.709360
#
# Coordination Sequence:
#
# PCOD9207450 Si02
#       8
#     8   8   8   8   8   8   8   8
#     4   9  16  29  52  82 120 161 200 248 300 354
#     4   9  16  28  50  81 115 156 203 244 294 355
#     4  12  24  42  67  90 120 158 204 250 301 362
#     4  10  21  37  58  85 122 160 196 250 304 355
#     4  11  24  43  65  93 123 154 195 246 302 360
#     4  12  25  40  64  88 117 158 200 249 304 361
#     4  12  24  41  62  87 116 157 201 245 297 365
#     4  10  22  38  57  89 125 157 202 253 306 360
#
# _framework density 18.704979000000002
#
# number of rings (size 3 to 8) (size 9 to 14) (size 15 to 20)
#    0.000    1.375    2.500    3.750    1.750    5.750 
#    0.000    0.000    0.000    0.750    0.000    5.250 
#    0.000    0.000    0.000    0.000    0.000    0.000 
#
# Total GULP energy -178781.287291 kJ/mol
# GULP energy per Si atom -5586.915228 kJ/mol
# Density = 1.866241 g / cm^3
# Si number density = 18.704979 Si / 1000 Ang^3
#
#
#
# Elastic Constant Matrix: (Units=GPa)
#
#
# Indices 1 2 3 4 5 6 
#
# 1 206.9175 39.4752 80.0852 -0.0004 -6.4464 0.0015
# 2 39.4752 36.7751 24.2134 0.0005 -4.4471 -0.0002
# 3 80.0852 24.2134 141.6938 -0.0084 -6.6160 0.0021
# 4 -0.0004 0.0005 -0.0084 83.5908 -0.0018 0.9117
# 5 -6.4464 -4.4471 -6.6160 -0.0018 36.1283 -0.0012
# 6 0.0015 -0.0002 0.0021 0.9117 -0.0012 17.7927
#
#
#
# Elastic Compliance Matrix: (Units=1/GPa)
#
#
# Indices 1 2 3 4 5 6 
#
# 1 0.007078 -0.005592 -0.003044 0.000000 0.000017 0.000000
# 2 -0.005592 0.035348 -0.002747 0.000000 0.002850 0.000001
# 3 -0.003044 -0.002747 0.009286 0.000001 0.000819 -0.000001
# 4 0.000000 0.000000 0.000001 0.011970 0.000001 -0.000613
# 5 0.000017 0.002850 0.000819 0.000001 0.028183 0.000002
# 6 0.000000 0.000001 -0.000001 -0.000613 0.000002 0.056234
#
#
# Mechanical properties :
#
#
# Convention : Reuss Voigt Hill
#
# Bulk Modulus (GPa) = 34.54695 74.77046 54.65871
# Shear Modulus (GPa) = 27.69876 43.60987 35.65431
#
# Velocity S-wave (km/s) = 3.85232 4.83376 4.37067
# Velocity P-wave (km/s) = 6.18843 8.43883 7.39968
#
# Compressibility (1/GPa) = 0.02894612
#
# Stress axis : x y z
#
# Youngs Moduli (GPa) = 141.27430 28.29033 107.69094
#
# Poissons Ratio (x) = 0.15819 0.32785
# Poissons Ratio (y) = 0.78994 0.29583
# Poissons Ratio (z) = 0.43010 0.07771
#
# Static dielectric constant tensor:
#      x y z
#    x 1.632640 0.000000 -0.002770 
#    y 0.000000 1.638450 0.000010 
#    z -0.002770 0.000010 1.533630 
# 
# From -- ./inp_files/372929.got.cif
#   From: 2010.05.17/outbox.cif.g08.bks.cpg/sg12_187_cif.got.tgz:372929.got - 2010.06.03 13:09:07.
