data_PCOD9207612
_publ_section_title
;
Structure prediction by ZEFSAII (Michael W. Deem and Ramdas Pophale) SiO2 
 PCOD9207612
Probable space group: C 2/M
;
_chemical_formula_sum "Si O2"
_cell_formula_units_Z 64
_cell_length_a 24.976405
_cell_length_b 8.519920
_cell_length_c 15.710567
_cell_angle_alpha 90.000000
_cell_angle_beta 89.304989
_cell_angle_gamma 90.000000
_cell_volume 3342.915136
_symmetry_space_group_name_H-M "C 2/M"
_symmetry_group_IT_number 12
_symmetry_cell_setting 'monoclinic'
loop_
_space_group_symop_operation_xyz
x,y,z
-x,y,-z
-x,-y,-z
x,-y,z
1/2+x,1/2+y,z
1/2-x,1/2+y,-z
1/2-x,1/2-y,-z
1/2+x,1/2-y,z
loop_
_atom_site_type_symbol
_atom_site_label
_atom_site_fract_x
_atom_site_fract_y
_atom_site_fract_z
Si Si1 0.127839 0.820042 0.645808
Si Si2 0.487369 0.189763 0.403120
Si Si3 0.121751 0.182078 0.848694
Si Si4 0.809070 0.689321 0.747977
Si Si5 0.739253 0.183387 0.593333
Si Si6 0.432635 0.189661 0.750168
Si Si7 0.005525 0.810015 0.900383
Si Si8 0.235234 0.809131 0.907506
O O1 0.070344 0.757637 0.619118
O O2 0.129039 0.818175 0.747781
O O3 0.177185 0.717635 0.613630
O O4 0.135401 0.000000 0.617057
O O5 0.500000 0.235683 0.500000
O O6 0.531444 0.240838 0.331969
O O7 0.485225 0.000000 0.400025
O O8 0.064062 0.251191 0.871288
O O9 0.175459 0.250591 0.887477
O O10 0.119132 0.000000 0.877816
O O11 0.809996 0.500000 0.749618
O O12 0.775985 0.738893 0.665360
O O13 0.870875 0.743955 0.745800
O O14 0.776632 0.741885 0.832904
O O15 0.750000 0.250000 0.500000
O O16 0.750080 0.000000 0.594378
O O17 0.461294 0.244427 0.836462
O O18 0.432180 0.000000 0.749541
O O19 0.003685 0.000000 0.892283
O O20 0.000000 0.771254 0.000000
O O21 0.234697 0.000000 0.905862
O O22 0.250000 0.750000 0.000000
#
# Coordination Sequence:
#
# PCOD9207612 Si02
#       8
#     8   8   8   8   8   8   8   8
#     4  11  21  40  66  90 120 159 204 254 306 359
#     4  10  22  39  59  89 123 159 201 248 303 360
#     4   9  18  36  59  83 115 154 196 250 305 352
#     4  10  22  42  62  85 123 166 203 249 308 366
#     4  12  26  43  65  94 124 159 204 252 305 366
#     4  10  22  39  59  85 122 160 196 246 306 361
#     4  10  21  37  59  86 117 158 205 252 304 360
#     4  10  21  38  59  85 118 155 201 250 304 360
#
# _framework density 19.144967999999999
#
# number of rings (size 3 to 8) (size 9 to 14) (size 15 to 20)
#    0.000    1.750    2.500    1.500    3.500    1.500 
#    0.000    0.625    0.000    0.000    0.000    0.000 
#    0.000    0.000    0.000    0.000    0.000    0.000 
#
# Total GULP energy -178650.947614 kJ/mol
# GULP energy per Si atom -5582.842113 kJ/mol
# Density = 1.910139 g / cm^3
# Si number density = 19.144968 Si / 1000 Ang^3
#
#
#
# Elastic Constant Matrix: (Units=GPa)
#
#
# Indices 1 2 3 4 5 6 
#
# 1 144.6498 15.9991 59.7981 0.0000 12.3092 0.0000
# 2 15.9991 9.5024 17.4614 0.0000 0.4824 0.0000
# 3 59.7981 17.4614 123.7870 0.0000 9.9382 0.0000
# 4 0.0000 0.0000 0.0000 17.0286 0.0000 9.5129
# 5 12.3092 0.4824 9.9382 0.0000 35.1304 0.0000
# 6 0.0000 0.0000 0.0000 9.5129 0.0000 18.5196
#
#
#
# Elastic Compliance Matrix: (Units=1/GPa)
#
#
# Indices 1 2 3 4 5 6 
#
# 1 0.009476 -0.010490 -0.002909 0.000000 -0.002353 0.000000
# 2 -0.010490 0.154172 -0.017196 0.000000 0.006423 0.000000
# 3 -0.002909 -0.017196 0.012083 0.000000 -0.002163 0.000000
# 4 0.000000 0.000000 0.000000 0.082358 0.000000 -0.042305
# 5 -0.002353 0.006423 -0.002163 0.000000 0.029814 0.000000
# 6 0.000000 0.000000 0.000000 -0.042305 0.000000 0.075727
#
#
# Mechanical properties :
#
#
# Convention : Reuss Voigt Hill
#
# Bulk Modulus (GPa) = 8.73048 51.60629 30.16838
# Shear Modulus (GPa) = 10.79912 26.44775 18.62343
#
# Velocity S-wave (km/s) = 2.37759 3.72081 3.12229
# Velocity P-wave (km/s) = 3.47956 6.74339 5.36566
#
# Compressibility (1/GPa) = 0.11454129
#
# Stress axis : x y z
#
# Youngs Moduli (GPa) = 105.52507 6.48626 82.76118
#
# Poissons Ratio (x) = 0.06804 0.24076
# Poissons Ratio (y) = 1.10699 1.42313
# Poissons Ratio (z) = 0.30698 0.11154
#
# Static dielectric constant tensor:
#      x y z
#    x 1.631310 0.000000 -0.000370 
#    y 0.000000 1.685580 0.000000 
#    z -0.000370 0.000000 1.649160 
# 
# From -- ./inp_files/238584.got.cif
#   From: 2010.05.17/outbox.cif.g08.bks.cpg/sg12_120_cif.got.tgz:238584.got - 2010.06.03 13:09:07.
