data_PCOD9207015
_publ_section_title
;
Structure prediction by ZEFSAII (Michael W. Deem and Ramdas Pophale) SiO2 
 PCOD9207015
Probable space group: C 2/M
;
_chemical_formula_sum "Si O2"
_cell_formula_units_Z 48
_cell_length_a 31.297608
_cell_length_b 14.867673
_cell_length_c 14.985093
_cell_angle_alpha 90.000000
_cell_angle_beta 17.546662
_cell_angle_gamma 90.000000
_cell_volume 2102.207452
_symmetry_space_group_name_H-M "C 2/M"
_symmetry_group_IT_number 12
_symmetry_cell_setting 'monoclinic'
loop_
_space_group_symop_operation_xyz
x,y,z
-x,y,-z
-x,-y,-z
x,-y,z
1/2+x,1/2+y,z
1/2-x,1/2+y,-z
1/2-x,1/2-y,-z
1/2+x,1/2-y,z
loop_
_atom_site_type_symbol
_atom_site_label
_atom_site_fract_x
_atom_site_fract_y
_atom_site_fract_z
Si Si1 0.805876 0.900607 0.079998
Si Si2 0.418229 0.603188 0.253963
Si Si3 0.047220 0.243056 0.131768
Si Si4 0.403569 0.789806 0.604271
Si Si5 0.586914 0.897404 0.913054
Si Si6 0.595342 0.405002 0.398637
O O1 0.809620 0.817279 0.140546
O O2 0.970557 0.904246 0.721212
O O3 0.764894 0.000000 0.192617
O O4 0.707508 0.868630 0.194179
O O5 0.458416 0.500000 0.200865
O O6 0.449673 0.674529 0.268944
O O7 0.252903 0.602744 0.561453
O O8 0.500000 0.625464 0.000000
O O9 0.997419 0.278042 0.327892
O O10 0.065611 0.330787 0.036494
O O11 0.500000 0.800985 0.500000
O O12 0.327985 0.690852 0.757923
O O13 0.543721 0.000000 0.020352
O O14 0.500000 0.867252 0.000000
O O15 0.500000 0.407709 0.500000
O O16 0.675739 0.500000 0.246693
#
# Coordination Sequence:
#
# PCOD9207015 Si02
#       6
#     8   8   8   8   8   8
#     4  10  21  37  56  80 113 154 201 254 308 361
#     4  10  22  41  66  96 128 164 208 256 309 376
#     4  11  22  38  63  90 122 164 208 255 306 366
#     4  10  22  37  57  85 120 160 209 261 311 364
#     4  10  23  43  66  96 132 165 201 251 314 379
#     4   8  16  32  53  75 101 140 191 244 298 354
#
# _framework density 22.833141000000001
#
# number of rings (size 3 to 8) (size 9 to 14) (size 15 to 20)
#    0.000    2.167    0.000    2.000    0.000   11.667 
#    0.000    2.500    0.000    7.000    0.000    0.000 
#    0.000    0.000    0.000    0.000    0.000    0.000 
#
# Total GULP energy -133966.644320 kJ/mol
# GULP energy per Si atom -5581.943513 kJ/mol
# Density = 2.278117 g / cm^3
# Si number density = 22.833141 Si / 1000 Ang^3
#
#
#
# Elastic Constant Matrix: (Units=GPa)
#
#
# Indices 1 2 3 4 5 6 
#
# 1 146.5026 54.8043 45.2659 0.0000 6.6019 0.0000
# 2 54.8043 97.6504 20.5022 0.0000 4.9798 0.0001
# 3 45.2659 20.5022 41.4794 0.0000 -2.1942 0.0001
# 4 0.0000 0.0000 0.0000 15.4272 0.0000 -17.9874
# 5 6.6019 4.9798 -2.1942 0.0000 31.4580 0.0000
# 6 0.0000 0.0001 0.0001 -17.9874 0.0000 33.7041
#
#
#
# Elastic Compliance Matrix: (Units=1/GPa)
#
#
# Indices 1 2 3 4 5 6 
#
# 1 0.011960 -0.004251 -0.011088 0.000000 -0.002610 0.000000
# 2 -0.004251 0.013093 -0.001902 0.000000 -0.001313 0.000000
# 3 -0.011088 -0.001902 0.037426 0.000000 0.005239 0.000000
# 4 0.000000 0.000000 0.000000 0.171596 0.000000 0.091578
# 5 -0.002610 -0.001313 0.005239 0.000000 0.032909 0.000000
# 6 0.000000 0.000000 0.000000 0.091578 0.000000 0.078544
#
#
# Mechanical properties :
#
#
# Convention : Reuss Voigt Hill
#
# Bulk Modulus (GPa) = 35.71930 58.53080 47.12505
# Shear Modulus (GPa) = 12.84216 27.12187 19.98202
#
# Velocity S-wave (km/s) = 2.37414 3.45023 2.96147
# Velocity P-wave (km/s) = 4.81591 6.44685 5.69012
#
# Compressibility (1/GPa) = 0.02799607
#
# Stress axis : x y z
#
# Youngs Moduli (GPa) = 83.61394 76.37881 26.71934
#
# Poissons Ratio (x) = 0.32468 0.29628
# Poissons Ratio (y) = 0.35544 0.05082
# Poissons Ratio (z) = 0.92715 0.14526
#
# Static dielectric constant tensor:
#      x y z
#    x 1.867140 0.000000 0.024900 
#    y 0.000000 1.946680 0.000000 
#    z 0.024900 0.000000 1.882920 
# 
# From -- ./inp_files/251408.got.cif
#   From: 2010.05.17/outbox.cif.g08.bks.cpg/sg12_126_cif.got.tgz:251408.got - 2010.06.03 13:09:07.
