data_PCOD9207476
_publ_section_title
;
Structure prediction by ZEFSAII (Michael W. Deem and Ramdas Pophale) SiO2 
 PCOD9207476
Probable space group: C 2/M
;
_chemical_formula_sum "Si O2"
_cell_formula_units_Z 48
_cell_length_a 25.610130
_cell_length_b 14.376341
_cell_length_c 22.964762
_cell_angle_alpha 90.000000
_cell_angle_beta 162.427660
_cell_angle_gamma 90.000000
_cell_volume 2552.696347
_symmetry_space_group_name_H-M "C 2/M"
_symmetry_group_IT_number 12
_symmetry_cell_setting 'monoclinic'
loop_
_space_group_symop_operation_xyz
x,y,z
-x,y,-z
-x,-y,-z
x,-y,z
1/2+x,1/2+y,z
1/2-x,1/2+y,-z
1/2-x,1/2-y,-z
1/2+x,1/2-y,z
loop_
_atom_site_type_symbol
_atom_site_label
_atom_site_fract_x
_atom_site_fract_y
_atom_site_fract_z
Si Si1 0.225518 0.209719 0.598306
Si Si2 0.051142 0.393327 0.385929
Si Si3 0.083300 0.234159 0.029689
Si Si4 0.167927 0.890503 0.014789
Si Si5 0.312480 0.396644 0.328734
Si Si6 0.173394 0.891490 0.422404
O O1 0.133749 0.309404 0.510494
O O2 0.164620 0.134692 0.580412
O O3 0.191018 0.172734 0.497191
O O4 0.426497 0.224128 0.825432
O O5 0.080433 0.500000 0.438367
O O6 0.155702 0.386836 0.436350
O O7 0.844818 0.378049 0.166281
O O8 0.199508 0.318350 0.176771
O O9 0.177606 0.164907 0.085752
O O10 0.000000 0.190175 0.000000
O O11 0.995369 0.864789 0.795158
O O12 0.150828 0.000000 0.009483
O O13 0.500000 0.398328 0.500000
O O14 0.234808 0.500000 0.242159
O O15 0.151572 0.000000 0.416259
#
# Coordination Sequence:
#
# PCOD9207476 Si02
#       6
#     8   8   8   8   8   8
#     4  11  21  37  62  86 116 154 195 240 292 346
#     4  10  21  37  58  86 121 155 190 237 290 345
#     4  10  22  37  60  86 113 153 197 239 289 346
#     4  10  21  39  60  85 120 155 192 241 292 343
#     4  10  22  41  60  84 118 153 195 244 287 339
#     4  10  21  38  59  86 120 153 192 239 292 349
#
# _framework density 18.803647000000002
#
# number of rings (size 3 to 8) (size 9 to 14) (size 15 to 20)
#    0.000    1.833    1.667    2.000    0.000    4.667 
#    3.000    2.500    0.000    9.000    0.000    0.000 
#    0.000    0.000    0.000    0.000    0.000    0.000 
#
# Total GULP energy -133847.576077 kJ/mol
# GULP energy per Si atom -5576.982337 kJ/mol
# Density = 1.876085 g / cm^3
# Si number density = 18.803647 Si / 1000 Ang^3
#
#
#
# Elastic Constant Matrix: (Units=GPa)
#
#
# Indices 1 2 3 4 5 6 
#
# 1 90.3582 57.7109 72.4767 0.0040 5.5219 0.0071
# 2 57.7109 80.6734 48.6825 0.0034 -7.1759 0.0062
# 3 72.4767 48.6825 83.9586 0.0075 2.8063 0.0073
# 4 0.0040 0.0034 0.0075 20.4428 0.0054 -7.3386
# 5 5.5219 -7.1759 2.8063 0.0054 30.5668 0.0043
# 6 0.0071 0.0062 0.0073 -7.3386 0.0043 23.8336
#
#
#
# Elastic Compliance Matrix: (Units=1/GPa)
#
#
# Indices 1 2 3 4 5 6 
#
# 1 0.045520 -0.015125 -0.030224 0.000008 -0.008999 0.000004
# 2 -0.015125 0.025065 -0.001770 -0.000004 0.008779 -0.000004
# 3 -0.030224 -0.001770 0.038979 -0.000011 0.001466 -0.000006
# 4 0.000008 -0.000004 -0.000011 0.054996 -0.000014 0.016934
# 5 -0.008999 0.008779 0.001466 -0.000014 0.036267 -0.000011
# 6 0.000004 -0.000004 -0.000006 0.016934 -0.000011 0.047172
#
#
# Mechanical properties :
#
#
# Convention : Reuss Voigt Hill
#
# Bulk Modulus (GPa) = 65.25361 68.08114 66.66737
# Shear Modulus (GPa) = 14.39485 20.04331 17.21908
#
# Velocity S-wave (km/s) = 2.76983 3.26840 3.02939
# Velocity P-wave (km/s) = 6.70875 7.10832 6.91142
#
# Compressibility (1/GPa) = 0.01532482
#
# Stress axis : x y z
#
# Youngs Moduli (GPa) = 21.96825 39.89635 25.65497
#
# Poissons Ratio (x) = 0.60344 0.77540
# Poissons Ratio (y) = 0.33228 0.04542
# Poissons Ratio (z) = 0.66397 0.07063
#
# Static dielectric constant tensor:
#      x y z
#    x 1.658800 0.000000 0.021990 
#    y 0.000000 1.683110 0.000000 
#    z 0.021990 0.000000 1.634310 
# 
# From -- ./inp_files/325723.got.cif
#   From: 2010.05.17/outbox.cif.g08.bks.cpg/sg12_163_cif.got.tgz:325723.got - 2010.06.03 13:09:07.
