data_PCOD9207809
_publ_section_title
;
Structure prediction by ZEFSAII (Michael W. Deem and Ramdas Pophale) SiO2 
 PCOD9207809
Probable space group: C 2/M
;
_chemical_formula_sum "Si O2"
_cell_formula_units_Z 64
_cell_length_a 19.094439
_cell_length_b 19.848956
_cell_length_c 15.383240
_cell_angle_alpha 90.000000
_cell_angle_beta 148.676814
_cell_angle_gamma 90.000000
_cell_volume 3030.978375
_symmetry_space_group_name_H-M "C 2/M"
_symmetry_group_IT_number 12
_symmetry_cell_setting 'monoclinic'
loop_
_space_group_symop_operation_xyz
x,y,z
-x,y,-z
-x,-y,-z
x,-y,z
1/2+x,1/2+y,z
1/2-x,1/2+y,-z
1/2-x,1/2-y,-z
1/2+x,1/2-y,z
loop_
_atom_site_type_symbol
_atom_site_label
_atom_site_fract_x
_atom_site_fract_y
_atom_site_fract_z
Si Si1 0.060267 0.579794 0.770952
Si Si2 0.355418 0.424698 0.334381
Si Si3 0.971910 0.221831 0.255699
Si Si4 0.655803 0.730918 0.195913
Si Si5 0.576784 0.918286 0.990889
Si Si6 0.748699 0.189010 0.887565
Si Si7 0.698094 0.360669 0.562749
Si Si8 0.183851 0.657910 0.494256
O O1 0.079103 0.500000 0.785811
O O2 0.036005 0.598334 0.848237
O O3 0.183339 0.620829 0.858021
O O4 0.923859 0.606067 0.580288
O O5 0.500000 0.391405 0.500000
O O6 0.377446 0.500000 0.322969
O O7 0.297551 0.424741 0.370984
O O8 0.231461 0.392144 0.153544
O O9 0.857738 0.255094 0.193718
O O10 0.045356 0.160790 0.380379
O O11 0.092625 0.276215 0.374038
O O12 0.893088 0.202573 0.085276
O O13 0.733160 0.699569 0.195199
O O14 0.723278 0.800667 0.302347
O O15 0.693819 0.680408 0.314756
O O16 0.500000 0.738468 0.000000
O O17 0.580120 0.000000 0.998951
O O18 0.500000 0.897639 0.000000
O O19 0.759162 0.371148 0.533854
#
# Coordination Sequence:
#
# PCOD9207809 Si02
#       8
#     8   8   8   8   8   8   8   8
#     4  10  22  39  62  89 120 161 205 246 298 358
#     4  10  23  37  52  85 127 160 193 236 288 357
#     4   9  20  36  55  84 120 148 197 241 297 352
#     4  11  23  40  62  87 118 151 202 254 311 358
#     4   9  18  35  57  81 115 156 200 241 282 346
#     4  10  21  37  60  86 117 157 195 252 303 351
#     4  11  22  34  61  85 117 156 195 239 298 358
#     4  10  21  39  59  89 120 153 195 252 301 353
#
# _framework density 21.115293999999999
#
# number of rings (size 3 to 8) (size 9 to 14) (size 15 to 20)
#    0.000    2.000    0.000    3.750    3.500    9.000 
#    0.000    1.250    0.000    3.000    0.000    0.000 
#    0.000    0.000    0.000    0.000    0.000    0.000 
#
# Total GULP energy -178318.484191 kJ/mol
# GULP energy per Si atom -5572.452631 kJ/mol
# Density = 2.106723 g / cm^3
# Si number density = 21.115294 Si / 1000 Ang^3
#
#
#
# Elastic Constant Matrix: (Units=GPa)
#
#
# Indices 1 2 3 4 5 6 
#
# 1 84.9100 10.8083 18.3666 0.0000 -2.9003 0.0000
# 2 10.8083 33.0957 8.6972 0.0000 1.6268 0.0000
# 3 18.3666 8.6972 142.9003 0.0000 17.5266 0.0000
# 4 0.0000 0.0000 0.0000 16.4230 0.0000 -3.3674
# 5 -2.9003 1.6268 17.5266 0.0000 23.4852 0.0000
# 6 0.0000 0.0000 0.0000 -3.3674 0.0000 20.3698
#
#
#
# Elastic Compliance Matrix: (Units=1/GPa)
#
#
# Indices 1 2 3 4 5 6 
#
# 1 0.012765 -0.003853 -0.001797 0.000000 0.003184 0.000000
# 2 -0.003853 0.031883 -0.001228 0.000000 -0.001768 0.000000
# 3 -0.001797 -0.001228 0.008058 0.000000 -0.006150 0.000000
# 4 0.000000 0.000000 0.000000 0.063027 0.000000 0.010419
# 5 0.003184 -0.001768 -0.006150 0.000000 0.047686 0.000000
# 6 0.000000 0.000000 0.000000 0.010419 0.000000 0.050815
#
#
# Mechanical properties :
#
#
# Convention : Reuss Voigt Hill
#
# Bulk Modulus (GPa) = 25.67404 37.40556 31.53980
# Shear Modulus (GPa) = 20.74920 26.92452 23.83686
#
# Velocity S-wave (km/s) = 3.13814 3.57475 3.36354
# Velocity P-wave (km/s) = 5.03150 5.89846 5.48215
#
# Compressibility (1/GPa) = 0.03894985
#
# Stress axis : x y z
#
# Youngs Moduli (GPa) = 78.33888 31.36425 124.10180
#
# Poissons Ratio (x) = 0.12085 0.22297
# Poissons Ratio (y) = 0.30185 0.15245
# Poissons Ratio (z) = 0.14075 0.03853
#
# Static dielectric constant tensor:
#      x y z
#    x 1.795730 0.000000 0.021610 
#    y 0.000000 1.790090 0.000000 
#    z 0.021610 0.000000 1.821090 
# 
# From -- ./inp_files/228168.got.cif
#   From: 2010.05.17/outbox.cif.g08.bks.cpg/sg12_115_cif.got.tgz:228168.got - 2010.06.03 13:09:07.
