data_PCOD9207113
_publ_section_title
;
Structure prediction by ZEFSAII (Michael W. Deem and Ramdas Pophale) SiO2 
 PCOD9207113
Probable space group: C 2/M
;
_chemical_formula_sum "Si O2"
_cell_formula_units_Z 36
_cell_length_a 7.824599
_cell_length_b 12.941987
_cell_length_c 17.019870
_cell_angle_alpha 90.000000
_cell_angle_beta 61.367456
_cell_angle_gamma 90.000000
_cell_volume 1512.762665
_symmetry_space_group_name_H-M "C 2/M"
_symmetry_group_IT_number 12
_symmetry_cell_setting 'monoclinic'
loop_
_space_group_symop_operation_xyz
x,y,z
-x,y,-z
-x,-y,-z
x,-y,z
1/2+x,1/2+y,z
1/2-x,1/2+y,-z
1/2-x,1/2-y,-z
1/2+x,1/2-y,z
loop_
_atom_site_type_symbol
_atom_site_label
_atom_site_fract_x
_atom_site_fract_y
_atom_site_fract_z
Si Si1 0.598087 0.308708 0.633387
Si Si2 0.665022 0.169415 0.896477
Si Si3 0.061656 0.110000 0.895233
Si Si4 0.177974 0.612169 0.727442
Si Si5 0.500000 0.819620 0.500000
O O1 0.410122 0.376324 0.692669
O O2 0.622232 0.213536 0.689540
O O3 0.553816 0.253607 0.560698
O O4 0.800106 0.370025 0.574797
O O5 0.864579 0.128344 0.889177
O O6 0.690767 0.288067 0.862550
O O7 0.592186 0.114175 0.834121
O O8 0.500000 0.165348 0.000000
O O9 0.150109 0.000000 0.852380
O O10 0.000000 0.104779 0.000000
O O11 0.139876 0.500000 0.697880
#
# Coordination Sequence:
#
# PCOD9207113 Si02
#       5
#     8   8   8   8   4
#     4   9  19  39  63  90 122 154 189 241 297 361
#     4  11  22  39  59  83 120 164 208 250 292 345
#     4  10  21  37  57  81 109 147 200 256 301 342
#     4  11  23  39  59  87 123 159 199 249 297 341
#     4   8  16  38  66  88 122 154 182 236 302 364
#
# _framework density 23.797521
#
# number of rings (size 3 to 8) (size 9 to 14) (size 15 to 20)
#    0.000    2.000    0.000    4.667    0.000    1.778 
#    0.000   33.333    0.000    0.667    0.000    0.000 
#    0.000    0.000    0.000    0.000    0.000    0.000 
#
# Total GULP energy -100488.315867 kJ/mol
# GULP energy per Si atom -5582.684215 kJ/mol
# Density = 2.374336 g / cm^3
# Si number density = 23.797521 Si / 1000 Ang^3
#
#
#
# Elastic Constant Matrix: (Units=GPa)
#
#
# Indices 1 2 3 4 5 6 
#
# 1 86.6443 11.3522 33.4775 0.0000 6.3826 0.0000
# 2 11.3522 140.8565 14.0930 0.0000 6.8392 0.0000
# 3 33.4775 14.0930 109.8655 0.0000 12.0961 0.0000
# 4 0.0000 0.0000 0.0000 13.7520 0.0000 -4.8614
# 5 6.3826 6.8392 12.0961 0.0000 48.0775 0.0000
# 6 0.0000 0.0000 0.0000 -4.8614 0.0000 11.6445
#
#
#
# Elastic Compliance Matrix: (Units=1/GPa)
#
#
# Indices 1 2 3 4 5 6 
#
# 1 0.013165 -0.000642 -0.003854 0.000000 -0.000687 0.000000
# 2 -0.000642 0.007254 -0.000649 0.000000 -0.000784 0.000000
# 3 -0.003854 -0.000649 0.010586 0.000000 -0.002060 0.000000
# 4 0.000000 0.000000 0.000000 0.085306 0.000000 0.035614
# 5 -0.000687 -0.000784 -0.002060 0.000000 0.021521 0.000000
# 6 0.000000 0.000000 0.000000 0.035614 0.000000 0.100745
#
#
# Mechanical properties :
#
#
# Convention : Reuss Voigt Hill
#
# Bulk Modulus (GPa) = 48.26991 50.57907 49.42449
# Shear Modulus (GPa) = 19.54866 33.25772 26.40319
#
# Velocity S-wave (km/s) = 2.86922 3.74241 3.33452
# Velocity P-wave (km/s) = 5.59501 6.32252 5.96986
#
# Compressibility (1/GPa) = 0.02071684
#
# Stress axis : x y z
#
# Youngs Moduli (GPa) = 75.95828 137.85290 94.46223
#
# Poissons Ratio (x) = 0.08852 0.36402
# Poissons Ratio (y) = 0.04877 0.06127
# Poissons Ratio (z) = 0.29271 0.08941
#
# Static dielectric constant tensor:
#      x y z
#    x 1.950910 0.000000 -0.064040 
#    y 0.000000 1.985240 0.000000 
#    z -0.064040 0.000000 1.916720 
# 
# From -- ./inp_files/254981.got.cif
#   From: 2010.05.17/outbox.cif.g08.bks.cpg/sg12_128_cif.got.tgz:254981.got - 2010.06.03 13:09:07.
