data_PCOD9207146
_publ_section_title
;
Structure prediction by ZEFSAII (Michael W. Deem and Ramdas Pophale) SiO2 
 PCOD9207146
Probable space group: C 2/M
;
_chemical_formula_sum "Si O2"
_cell_formula_units_Z 60
_cell_length_a 25.933060
_cell_length_b 9.627945
_cell_length_c 13.104097
_cell_angle_alpha 90.000000
_cell_angle_beta 123.393685
_cell_angle_gamma 90.000000
_cell_volume 2731.702268
_symmetry_space_group_name_H-M "C 2/M"
_symmetry_group_IT_number 12
_symmetry_cell_setting 'monoclinic'
loop_
_space_group_symop_operation_xyz
x,y,z
-x,y,-z
-x,-y,-z
x,-y,z
1/2+x,1/2+y,z
1/2-x,1/2+y,-z
1/2-x,1/2-y,-z
1/2+x,1/2-y,z
loop_
_atom_site_type_symbol
_atom_site_label
_atom_site_fract_x
_atom_site_fract_y
_atom_site_fract_z
Si Si1 0.985543 0.649219 0.269959
Si Si2 0.500000 0.261698 0.500000
Si Si3 0.812779 0.158594 0.683698
Si Si4 0.163371 0.660415 0.866888
Si Si5 0.833406 0.160256 0.937354
Si Si6 0.517764 0.658061 0.910528
Si Si7 0.137733 0.159386 0.646000
Si Si8 0.167192 0.340797 0.480161
O O1 0.002734 0.500000 0.246753
O O2 0.911150 0.653765 0.198472
O O3 0.009744 0.671158 0.409748
O O4 0.006770 0.765356 0.215266
O O5 0.436262 0.343063 0.413045
O O6 0.814464 0.205159 0.803263
O O7 0.844804 0.264080 0.640367
O O8 0.741375 0.150365 0.573475
O O9 0.838200 0.000000 0.707098
O O10 0.184017 0.500000 0.880721
O O11 0.169838 0.750999 0.770948
O O12 0.187521 0.741879 0.992824
O O13 0.908079 0.158820 0.017243
O O14 0.813728 0.000000 0.931294
O O15 0.495493 0.500000 0.886194
O O16 0.500000 0.722138 0.000000
O O17 0.146354 0.242034 0.550004
O O18 0.159858 0.000000 0.665591
O O19 0.143988 0.500000 0.460993
#
# Coordination Sequence:
#
# PCOD9207146 Si02
#       8
#     8   4   8   8   8   8   8   8
#     4   9  18  32  50  71 100 137 172 211 260 313
#     4  10  22  36  54  80 108 140 180 224 266 320
#     4   9  19  37  59  82 110 145 185 227 271 323
#     4   9  18  33  52  76 106 137 171 214 265 317
#     4   9  17  32  54  76 101 138 181 221 263 314
#     4   9  18  31  47  71 104 138 173 216 263 311
#     4  11  22  37  57  80 108 143 183 224 271 327
#     4  10  21  37  57  82 112 144 180 226 278 325
#
# _framework density 21.964326
#
# number of rings (size 3 to 8) (size 9 to 14) (size 15 to 20)
#    0.000    2.533    0.000    1.600    0.000    7.733 
#    0.000    2.000    0.000    0.000    0.000    0.000 
#    0.000    0.000    0.000    0.000    0.000    0.000 
#
# Total GULP energy -167534.446700 kJ/mol
# GULP energy per Si atom -5584.481557 kJ/mol
# Density = 2.191433 g / cm^3
# Si number density = 21.964326 Si / 1000 Ang^3
#
#
#
# Elastic Constant Matrix: (Units=GPa)
#
#
# Indices 1 2 3 4 5 6 
#
# 1 68.7633 29.8315 23.6143 0.0000 -12.0136 0.0000
# 2 29.8315 162.9206 82.6716 0.0000 -43.8563 0.0000
# 3 23.6143 82.6716 160.3643 0.0000 -37.5159 0.0000
# 4 0.0000 0.0000 0.0000 19.0056 0.0000 -6.9991
# 5 -12.0136 -43.8563 -37.5159 0.0000 37.3422 0.0000
# 6 0.0000 0.0000 0.0000 -6.9991 0.0000 11.4211
#
#
#
# Elastic Compliance Matrix: (Units=1/GPa)
#
#
# Indices 1 2 3 4 5 6 
#
# 1 0.016041 -0.001954 -0.000895 0.000000 0.001967 0.000000
# 2 -0.001954 0.010312 -0.003062 0.000000 0.008407 0.000000
# 3 -0.000895 -0.003062 0.009200 0.000000 0.005359 0.000000
# 4 0.000000 0.000000 0.000000 0.067951 0.000000 0.041642
# 5 0.001967 0.008407 0.005359 0.000000 0.042669 0.000000
# 6 0.000000 0.000000 0.000000 0.041642 0.000000 0.113076
#
#
# Mechanical properties :
#
#
# Convention : Reuss Voigt Hill
#
# Bulk Modulus (GPa) = 42.13605 73.80920 57.97263
# Shear Modulus (GPa) = 17.92238 30.61584 24.26911
#
# Velocity S-wave (km/s) = 2.85963 3.73753 3.32766
# Velocity P-wave (km/s) = 5.48897 7.23206 6.41995
#
# Compressibility (1/GPa) = 0.02373264
#
# Stress axis : x y z
#
# Youngs Moduli (GPa) = 62.33962 96.97107 108.69993
#
# Poissons Ratio (x) = 0.18944 0.09726
# Poissons Ratio (y) = 0.12179 0.33283
# Poissons Ratio (z) = 0.05578 0.29692
#
# Static dielectric constant tensor:
#      x y z
#    x 1.837240 0.000000 0.041720 
#    y 0.000000 1.780720 0.000000 
#    z 0.041720 0.000000 1.777930 
# 
# From -- ./inp_files/187668.got.cif
#   From: 2010.05.17/outbox.cif.g08.bks.cpg/sg12_94_cif.got.tgz:187668.got - 2010.06.03 13:09:07.
