data_PCOD9207655
_publ_section_title
;
Structure prediction by ZEFSAII (Michael W. Deem and Ramdas Pophale) SiO2 
 PCOD9207655
Probable space group: C 2/M
;
_chemical_formula_sum "Si O2"
_cell_formula_units_Z 56
_cell_length_a 16.585841
_cell_length_b 8.052224
_cell_length_c 23.392028
_cell_angle_alpha 90.000000
_cell_angle_beta 58.383452
_cell_angle_gamma 90.000000
_cell_volume 2660.384511
_symmetry_space_group_name_H-M "C 2/M"
_symmetry_group_IT_number 12
_symmetry_cell_setting 'monoclinic'
loop_
_space_group_symop_operation_xyz
x,y,z
-x,y,-z
-x,-y,-z
x,-y,z
1/2+x,1/2+y,z
1/2-x,1/2+y,-z
1/2-x,1/2-y,-z
1/2+x,1/2-y,z
loop_
_atom_site_type_symbol
_atom_site_label
_atom_site_fract_x
_atom_site_fract_y
_atom_site_fract_z
Si Si1 0.155402 0.804946 0.067445
Si Si2 0.194879 0.802523 0.786290
Si Si3 0.526053 0.808692 0.928577
Si Si4 0.283148 0.700579 0.348295
Si Si5 0.629833 0.200127 0.205768
Si Si6 0.462656 0.300592 0.344833
Si Si7 0.935607 0.799261 0.577156
O O1 0.158118 0.769563 0.133713
O O2 0.067803 0.705121 0.074090
O O3 0.139417 0.000000 0.063740
O O4 0.250000 0.750000 0.000000
O O5 0.110565 0.770575 0.861541
O O6 0.180690 0.738056 0.727450
O O7 0.292243 0.739138 0.777484
O O8 0.205110 0.000000 0.777157
O O9 0.553369 0.000000 0.928159
O O10 0.500000 0.733293 0.000000
O O11 0.287996 0.500000 0.347642
O O12 0.356438 0.760327 0.369744
O O13 0.172954 0.747018 0.391904
O O14 0.528613 0.258477 0.266178
O O15 0.631402 0.000000 0.202459
O O16 0.458389 0.500000 0.352202
O O17 0.516039 0.236605 0.381838
O O18 0.000000 0.745513 0.500000
O O19 0.936198 0.000000 0.578887
#
# Coordination Sequence:
#
# PCOD9207655 Si02
#       7
#     8   8   8   8   8   8   8
#     4  12  25  41  60  84 118 159 203 252 310 371
#     4  10  21  37  59  87 120 156 198 255 316 372
#     4  11  24  40  59  86 118 156 205 256 308 369
#     4  10  21  39  61  89 121 159 208 258 311 375
#     4  11  22  38  62  91 121 156 203 256 310 372
#     4  10  21  38  62  90 124 166 209 256 314 376
#     4  10  22  40  61  90 128 166 207 257 314 377
#
# _framework density 21.049586999999999
#
# number of rings (size 3 to 8) (size 9 to 14) (size 15 to 20)
#    0.000    1.429    1.429    3.857    0.000    7.714 
#    0.000    0.000    0.000    0.000    0.000    0.000 
#    0.000    0.000    0.000    0.000    0.000    0.000 
#
# Total GULP energy -156451.235626 kJ/mol
# GULP energy per Si atom -5587.544129 kJ/mol
# Density = 2.100168 g / cm^3
# Si number density = 21.049587 Si / 1000 Ang^3
#
#
#
# Elastic Constant Matrix: (Units=GPa)
#
#
# Indices 1 2 3 4 5 6 
#
# 1 153.7120 1.8024 64.8649 0.0000 -15.2859 -0.0001
# 2 1.8024 14.3758 -1.9842 -0.0001 5.4098 -0.0001
# 3 64.8649 -1.9842 119.6224 0.0000 -6.0640 0.0000
# 4 0.0000 -0.0001 0.0000 28.6485 0.0000 10.9365
# 5 -15.2859 5.4098 -6.0640 0.0000 26.6011 0.0000
# 6 -0.0001 -0.0001 0.0000 10.9365 0.0000 83.9546
#
#
#
# Elastic Compliance Matrix: (Units=1/GPa)
#
#
# Indices 1 2 3 4 5 6 
#
# 1 0.009013 -0.003600 -0.004702 0.000000 0.004840 0.000000
# 2 -0.003600 0.076791 0.002357 0.000000 -0.017148 0.000000
# 3 -0.004702 0.002357 0.010913 0.000000 -0.000693 0.000000
# 4 0.000000 0.000000 0.000000 0.036732 0.000000 -0.004785
# 5 0.004840 -0.017148 -0.000693 0.000000 0.043703 0.000000
# 6 0.000000 0.000000 0.000000 -0.004785 0.000000 0.012535
#
#
# Mechanical properties :
#
#
# Convention : Reuss Voigt Hill
#
# Bulk Modulus (GPa) = 11.78871 46.34181 29.06526
# Shear Modulus (GPa) = 21.75294 42.70932 32.23113
#
# Velocity S-wave (km/s) = 3.21816 4.50931 3.91730
# Velocity P-wave (km/s) = 4.40697 7.01250 5.85647
#
# Compressibility (1/GPa) = 0.08482692
#
# Stress axis : x y z
#
# Youngs Moduli (GPa) = 110.94738 13.02231 91.63284
#
# Poissons Ratio (x) = 0.04688 0.43084
# Poissons Ratio (y) = 0.39944 -0.21595
# Poissons Ratio (z) = 0.52165 -0.03069
#
# Static dielectric constant tensor:
#      x y z
#    x 1.770600 0.000000 0.030960 
#    y 0.000000 1.744420 0.000000 
#    z 0.030960 0.000000 1.758820 
# 
# From -- ./inp_files/338468.got.cif
#   From: 2010.05.17/outbox.cif.g08.bks.cpg/sg12_170_cif.got.tgz:338468.got - 2010.06.03 13:09:07.
