data_PCOD9207913
_publ_section_title
;
Structure prediction by ZEFSAII (Michael W. Deem and Ramdas Pophale) SiO2 
 PCOD9207913
Probable space group: C 2/M
;
_chemical_formula_sum "Si O2"
_cell_formula_units_Z 56
_cell_length_a 33.436878
_cell_length_b 20.877394
_cell_length_c 9.248909
_cell_angle_alpha 90.000000
_cell_angle_beta 23.807280
_cell_angle_gamma 90.000000
_cell_volume 2606.212933
_symmetry_space_group_name_H-M "C 2/M"
_symmetry_group_IT_number 12
_symmetry_cell_setting 'monoclinic'
loop_
_space_group_symop_operation_xyz
x,y,z
-x,y,-z
-x,-y,-z
x,-y,z
1/2+x,1/2+y,z
1/2-x,1/2+y,-z
1/2-x,1/2-y,-z
1/2+x,1/2-y,z
loop_
_atom_site_type_symbol
_atom_site_label
_atom_site_fract_x
_atom_site_fract_y
_atom_site_fract_z
Si Si1 0.245191 0.208514 0.165528
Si Si2 0.685829 0.930553 0.495382
Si Si3 0.396307 0.392850 0.908095
Si Si4 0.419007 0.795769 0.140644
Si Si5 0.855445 0.250742 0.062945
Si Si6 0.006021 0.074946 0.141288
Si Si7 0.216654 0.071597 0.129342
O O1 0.156220 0.244054 0.542288
O O2 0.335288 0.210610 0.982672
O O3 0.230043 0.134162 0.180109
O O4 0.250000 0.250000 0.000000
O O5 0.628055 0.866377 0.725137
O O6 0.640039 0.000000 0.681331
O O7 0.795440 0.928054 0.202981
O O8 0.706074 0.927123 0.256683
O O9 0.500000 0.418632 0.500000
O O10 0.415815 0.392542 0.014836
O O11 0.380320 0.319417 0.920859
O O12 0.434763 0.772063 0.922632
O O13 0.500000 0.801526 0.000000
O O14 0.750000 0.250000 0.500000
O O15 0.894085 0.078627 0.569934
O O16 0.032500 0.000000 0.045178
O O17 0.000000 0.101582 0.000000
O O18 0.219138 0.000000 0.188942
#
# Coordination Sequence:
#
# PCOD9207913 Si02
#       7
#     8   8   8   8   8   8   8
#     4  11  21  40  65  89 124 165 207 255 314 377
#     4  11  22  41  64  90 124 164 210 259 309 375
#     4  12  22  37  62  91 122 165 199 247 314 378
#     4  11  25  42  64  93 122 167 211 263 315 356
#     4  10  23  40  59  88 127 155 209 262 305 368
#     4  10  23  35  51  88 129 159 193 237 303 382
#     4  10  21  37  60  90 125 161 199 248 311 380
#
# _framework density 21.487117000000001
#
# number of rings (size 3 to 8) (size 9 to 14) (size 15 to 20)
#    0.000    1.286    5.714    0.429    6.000    0.857 
#    0.000    0.714    0.000    0.000    0.000    2.000 
#    0.000    0.000    0.000    0.000    0.000    0.000 
#
# Total GULP energy -156163.869235 kJ/mol
# GULP energy per Si atom -5577.281044 kJ/mol
# Density = 2.143821 g / cm^3
# Si number density = 21.487117 Si / 1000 Ang^3
#
#
#
# Elastic Constant Matrix: (Units=GPa)
#
#
# Indices 1 2 3 4 5 6 
#
# 1 150.4873 43.5383 3.6444 0.0000 -14.8038 0.0000
# 2 43.5383 160.5631 -0.0162 0.0000 -6.6035 0.0000
# 3 3.6444 -0.0162 21.7835 0.0000 -1.0701 0.0000
# 4 0.0000 0.0000 0.0000 4.3065 0.0000 -11.2275
# 5 -14.8038 -6.6035 -1.0701 0.0000 22.9861 0.0000
# 6 0.0000 0.0000 0.0000 -11.2275 0.0000 8.8026
#
#
#
# Elastic Compliance Matrix: (Units=1/GPa)
#
#
# Indices 1 2 3 4 5 6 
#
# 1 0.007645 -0.001895 -0.001068 0.000000 0.004330 0.000000
# 2 -0.001895 0.006773 0.000359 0.000000 0.000742 0.000000
# 3 -0.001068 0.000359 0.046162 0.000000 0.001564 0.000000
# 4 0.000000 0.000000 0.000000 -0.099862 0.000000 -0.127372
# 5 0.004330 0.000742 0.001564 0.000000 0.046579 0.000000
# 6 0.000000 0.000000 0.000000 -0.127372 0.000000 -0.048856
#
#
# Mechanical properties :
#
#
# Convention : Reuss Voigt Hill
#
# Bulk Modulus (GPa) = 18.06001 47.46300 32.76150
# Shear Modulus (GPa) = -279.42503 26.26353 -126.58075
#
# Velocity S-wave (km/s) = -11.41601 3.49992 -7.68362
# Velocity P-wave (km/s) = 12.85861 6.20239 7.96474
#
# Compressibility (1/GPa) = 0.05537097
#
# Stress axis : x y z
#
# Youngs Moduli (GPa) = 130.80226 147.65590 21.66282
#
# Poissons Ratio (x) = 0.27982 0.02313
# Poissons Ratio (y) = 0.24788 -0.00777
# Poissons Ratio (z) = 0.13967 -0.05294
#
# Static dielectric constant tensor:
#      x y z
#    x 1.906760 0.000000 -0.011260 
#    y 0.000000 1.768190 0.000000 
#    z -0.011260 0.000000 1.850190 
# 
# From -- ./inp_files/113352.got.cif
#   From: 2010.05.17/outbox.cif.g08.bks.cpg/sg12_57_cif.got.tgz:113352.got - 2010.06.03 13:09:07.
