data_PCOD9207646
_publ_section_title
;
Structure prediction by ZEFSAII (Michael W. Deem and Ramdas Pophale) SiO2 
 PCOD9207646
Probable space group: C 2/M
;
_chemical_formula_sum "Si O2"
_cell_formula_units_Z 56
_cell_length_a 20.265478
_cell_length_b 7.908588
_cell_length_c 14.951894
_cell_angle_alpha 90.000000
_cell_angle_beta 87.563651
_cell_angle_gamma 90.000000
_cell_volume 2394.193571
_symmetry_space_group_name_H-M "C 2/M"
_symmetry_group_IT_number 12
_symmetry_cell_setting 'monoclinic'
loop_
_space_group_symop_operation_xyz
x,y,z
-x,y,-z
-x,-y,-z
x,-y,z
1/2+x,1/2+y,z
1/2-x,1/2+y,-z
1/2-x,1/2-y,-z
1/2+x,1/2-y,z
loop_
_atom_site_type_symbol
_atom_site_label
_atom_site_fract_x
_atom_site_fract_y
_atom_site_fract_z
Si Si1 0.335330 0.800729 0.940479
Si Si2 0.732748 0.696345 0.674065
Si Si3 0.300448 0.805889 0.133517
Si Si4 0.882459 0.302796 0.435429
Si Si5 0.016148 0.704508 0.718252
Si Si6 0.619714 0.207152 0.361820
Si Si7 0.022392 0.799333 0.095288
O O1 0.275643 0.706663 0.895643
O O2 0.405501 0.777976 0.890745
O O3 0.318027 0.000000 0.942743
O O4 0.339290 0.740952 0.043848
O O5 0.735091 0.500000 0.648912
O O6 0.697622 0.714656 0.772017
O O7 0.690507 0.788085 0.600922
O O8 0.808080 0.759390 0.676702
O O9 0.319478 0.000000 0.148334
O O10 0.900123 0.500000 0.443173
O O11 0.887208 0.233703 0.535058
O O12 0.931466 0.230579 0.357458
O O13 0.018253 0.500000 0.717620
O O14 0.943646 0.762369 0.690391
O O15 0.025528 0.758737 0.819863
O O16 0.618946 0.000000 0.359978
O O17 0.030132 0.000000 0.088511
O O18 0.000000 0.732683 0.000000
#
# Coordination Sequence:
#
# PCOD9207646 Si02
#       7
#     8   8   8   8   8   8   8
#     4  10  21  38  60  85 114 152 200 247 295 353
#     4  11  22  35  57  87 123 161 199 243 295 356
#     4  10  21  37  59  87 118 154 196 244 296 352
#     4  10  21  38  61  89 121 155 197 250 306 360
#     4  10  21  39  65  90 114 153 204 254 302 357
#     4   9  19  38  62  88 117 154 201 248 298 357
#     4  11  25  41  58  84 120 160 198 245 300 353
#
# _framework density 23.389921000000001
#
# number of rings (size 3 to 8) (size 9 to 14) (size 15 to 20)
#    0.000    1.857    0.000    3.429    2.000    6.286 
#    0.000    2.143    0.000    1.714    0.000    0.000 
#    0.000    0.000    0.000    0.000    0.000    0.000 
#
# Total GULP energy -156589.571427 kJ/mol
# GULP energy per Si atom -5592.484694 kJ/mol
# Density = 2.333668 g / cm^3
# Si number density = 23.389921 Si / 1000 Ang^3
#
#
#
# Elastic Constant Matrix: (Units=GPa)
#
#
# Indices 1 2 3 4 5 6 
#
# 1 64.6248 -6.1622 15.0399 0.0000 -9.3224 0.0000
# 2 -6.1622 28.1516 3.5709 0.0000 -3.4949 0.0000
# 3 15.0399 3.5709 131.0459 0.0000 -6.9596 0.0000
# 4 0.0000 0.0000 0.0000 16.5030 0.0000 7.5888
# 5 -9.3224 -3.4949 -6.9596 0.0000 36.6535 0.0000
# 6 0.0000 0.0000 0.0000 7.5888 0.0000 8.5525
#
#
#
# Elastic Compliance Matrix: (Units=1/GPa)
#
#
# Indices 1 2 3 4 5 6 
#
# 1 0.016963 0.004492 -0.001836 0.000000 0.004394 0.000000
# 2 0.004492 0.037221 -0.001294 0.000000 0.004446 0.000000
# 3 -0.001836 -0.001294 0.007925 0.000000 0.000915 0.000000
# 4 0.000000 0.000000 0.000000 0.102360 0.000000 -0.090825
# 5 0.004394 0.004446 0.000915 0.000000 0.028998 0.000000
# 6 0.000000 0.000000 0.000000 -0.090825 0.000000 0.197515
#
#
# Mechanical properties :
#
#
# Convention : Reuss Voigt Hill
#
# Bulk Modulus (GPa) = 15.42403 27.63553 21.52978
# Shear Modulus (GPa) = 12.19899 26.43338 19.31618
#
# Velocity S-wave (km/s) = 2.28622 3.36537 2.87685
# Velocity P-wave (km/s) = 3.68479 5.19054 4.50108
#
# Compressibility (1/GPa) = 0.06483391
#
# Stress axis : x y z
#
# Youngs Moduli (GPa) = 58.95070 26.86644 126.17598
#
# Poissons Ratio (x) = -0.12067 0.23164
# Poissons Ratio (y) = -0.26478 0.16323
# Poissons Ratio (z) = 0.10823 0.03476
#
# Static dielectric constant tensor:
#      x y z
#    x 1.865070 0.000000 -0.009700 
#    y 0.000000 1.844360 0.000000 
#    z -0.009700 0.000000 1.878360 
# 
# From -- ./inp_files/231010.got.cif
#   From: 2010.05.17/outbox.cif.g08.bks.cpg/sg12_116_cif.got.tgz:231010.got - 2010.06.03 13:09:07.
