data_PCOD9207425
_publ_section_title
;
Structure prediction by ZEFSAII (Michael W. Deem and Ramdas Pophale) SiO2 
 PCOD9207425
Probable space group: C 2/M
;
_chemical_formula_sum "Si O2"
_cell_formula_units_Z 64
_cell_length_a 10.535366
_cell_length_b 8.780465
_cell_length_c 36.546046
_cell_angle_alpha 90.000000
_cell_angle_beta 90.000086
_cell_angle_gamma 90.000000
_cell_volume 3380.707058
_symmetry_space_group_name_H-M "C 2/M"
_symmetry_group_IT_number 12
_symmetry_cell_setting 'monoclinic'
loop_
_space_group_symop_operation_xyz
x,y,z
-x,y,-z
-x,-y,-z
x,-y,z
1/2+x,1/2+y,z
1/2-x,1/2+y,-z
1/2-x,1/2-y,-z
1/2+x,1/2-y,z
loop_
_atom_site_type_symbol
_atom_site_label
_atom_site_fract_x
_atom_site_fract_y
_atom_site_fract_z
Si Si1 0.888720 0.683833 0.105442
Si Si2 0.128732 0.683720 0.979447
Si Si3 0.374541 0.316349 0.355608
Si Si4 0.870108 0.182611 0.852740
Si Si5 0.620009 0.683680 0.729665
Si Si6 0.115789 0.317342 0.397495
Si Si7 0.621449 0.182658 0.228535
Si Si8 0.370280 0.682640 0.521287
O O1 0.901160 0.500000 0.106712
O O2 0.875855 0.729908 0.063056
O O3 0.761669 0.726048 0.127533
O O4 0.011467 0.756699 0.123997
O O5 0.135752 0.500000 0.980595
O O6 0.250000 0.750000 0.000000
O O7 0.000000 0.731074 0.000000
O O8 0.386578 0.500000 0.357647
O O9 0.375631 0.272171 0.312969
O O10 0.241471 0.274725 0.374549
O O11 0.491312 0.242271 0.376920
O O12 0.875524 0.250317 0.812145
O O13 0.875688 0.000000 0.850814
O O14 0.608916 0.500000 0.731487
O O15 0.500657 0.756802 0.749897
O O16 0.750505 0.726785 0.749875
O O17 0.111442 0.500000 0.400133
O O18 0.124097 0.247342 0.437828
O O19 0.616253 0.000000 0.226614
O O20 0.500000 0.722367 0.500000
O O21 0.360251 0.500000 0.522414
O O22 0.250000 0.750000 0.500000
#
# Coordination Sequence:
#
# PCOD9207425 Si02
#       8
#     8   8   8   8   8   8   8   8
#     4  10  22  39  58  84 116 149 190 237 282 336
#     4  10  21  37  58  85 116 150 189 233 283 338
#     4  10  22  40  60  86 120 153 190 238 286 338
#     4  11  23  38  58  84 113 149 192 235 284 341
#     4  10  22  40  61  86 117 153 192 234 284 341
#     4  11  23  39  61  89 119 153 195 239 286 343
#     4  11  23  39  60  86 116 150 190 237 287 340
#     4  11  24  41  61  87 119 155 196 242 291 343
#
# _framework density 18.930952000000001
#
# number of rings (size 3 to 8) (size 9 to 14) (size 15 to 20)
#    0.000    1.500    0.000    4.500    0.000   11.250 
#    0.000    0.000    0.000    0.000    0.000    0.000 
#    0.000    0.000    0.000    0.000    0.000    0.000 
#
# Total GULP energy -178982.898622 kJ/mol
# GULP energy per Si atom -5593.215582 kJ/mol
# Density = 1.888786 g / cm^3
# Si number density = 18.930952 Si / 1000 Ang^3
#
#
#
# Elastic Constant Matrix: (Units=GPa)
#
#
# Indices 1 2 3 4 5 6 
#
# 1 157.7052 47.2547 69.9318 0.0000 1.8015 0.0000
# 2 47.2547 28.2032 41.7097 0.0000 -1.7746 0.0000
# 3 69.9318 41.7097 162.7000 0.0000 0.1456 0.0000
# 4 0.0000 0.0000 0.0000 19.3161 0.0000 12.6471
# 5 1.8015 -1.7746 0.1456 0.0000 45.3677 0.0000
# 6 0.0000 0.0000 0.0000 12.6471 0.0000 30.8032
#
#
#
# Elastic Compliance Matrix: (Units=1/GPa)
#
#
# Indices 1 2 3 4 5 6 
#
# 1 0.012816 -0.021605 0.000031 0.000000 -0.001354 0.000000
# 2 -0.021605 0.093767 -0.014756 0.000000 0.004573 0.000000
# 3 0.000031 -0.014756 0.009916 0.000000 -0.000610 0.000000
# 4 0.000000 0.000000 0.000000 0.070804 0.000000 -0.029070
# 5 -0.001354 0.004573 -0.000610 0.000000 0.022277 0.000000
# 6 0.000000 0.000000 0.000000 -0.029070 0.000000 0.044400
#
#
# Mechanical properties :
#
#
# Convention : Reuss Voigt Hill
#
# Bulk Modulus (GPa) = 22.81040 74.04452 48.42746
# Shear Modulus (GPa) = 14.65192 31.74489 23.19840
#
# Velocity S-wave (km/s) = 2.78504 4.09941 3.50440
# Velocity P-wave (km/s) = 4.73470 7.84887 6.48159
#
# Compressibility (1/GPa) = 0.04383966
#
# Stress axis : x y z
#
# Youngs Moduli (GPa) = 78.02525 10.66479 100.84534
#
# Poissons Ratio (x) = 0.23042 -0.00314
# Poissons Ratio (y) = 1.68575 1.48804
# Poissons Ratio (z) = -0.00243 0.15737
#
# Static dielectric constant tensor:
#      x y z
#    x 1.615030 0.000000 -0.011100 
#    y 0.000000 1.636920 0.000000 
#    z -0.011100 0.000000 1.624240 
# 
# From -- ./inp_files/373612.got.cif
#   From: 2010.05.17/outbox.cif.g08.bks.cpg/sg12_187_cif.got.tgz:373612.got - 2010.06.03 13:09:07.
