data_PCOD9207102
_publ_section_title
;
Structure prediction by ZEFSAII (Michael W. Deem and Ramdas Pophale) SiO2 
 PCOD9207102
Probable space group: C 2/M
;
_chemical_formula_sum "Si O2"
_cell_formula_units_Z 48
_cell_length_a 28.933490
_cell_length_b 9.397311
_cell_length_c 8.121902
_cell_angle_alpha 90.000000
_cell_angle_beta 100.166379
_cell_angle_gamma 90.000000
_cell_volume 2173.648750
_symmetry_space_group_name_H-M "C 2/M"
_symmetry_group_IT_number 12
_symmetry_cell_setting 'monoclinic'
loop_
_space_group_symop_operation_xyz
x,y,z
-x,y,-z
-x,-y,-z
x,-y,z
1/2+x,1/2+y,z
1/2-x,1/2+y,-z
1/2-x,1/2-y,-z
1/2+x,1/2-y,z
loop_
_atom_site_type_symbol
_atom_site_label
_atom_site_fract_x
_atom_site_fract_y
_atom_site_fract_z
Si Si1 0.312376 0.838787 0.864468
Si Si2 0.853659 0.338216 0.257703
Si Si3 0.558643 0.164649 0.897013
Si Si4 0.468362 0.832923 0.633258
Si Si5 0.105229 0.168932 0.222538
Si Si6 0.278307 0.335399 0.380083
O O1 0.342734 0.729489 0.775991
O O2 0.257246 0.824744 0.798175
O O3 0.325242 0.000000 0.819540
O O4 0.327755 0.825753 0.063383
O O5 0.847603 0.500000 0.313583
O O6 0.907865 0.316728 0.242412
O O7 0.827778 0.231979 0.362738
O O8 0.505075 0.177451 0.808590
O O9 0.566675 0.000000 0.957982
O O10 0.577055 0.274426 0.043182
O O11 0.500000 0.785086 0.500000
O O12 0.422640 0.742866 0.646075
O O13 0.456781 0.000000 0.603381
O O14 0.104799 0.000000 0.234302
O O15 0.283336 0.500000 0.428605
O O16 0.250000 0.250000 0.500000
#
# Coordination Sequence:
#
# PCOD9207102 Si02
#       6
#     8   8   8   8   8   8
#     4   9  20  39  60  80 106 144 186 223 265 324
#     4   9  18  35  58  82 107 138 182 231 272 314
#     4   9  19  37  59  81 108 145 185 222 265 324
#     4  10  21  37  57  80 109 148 188 222 264 324
#     4  11  22  35  56  85 112 139 178 230 279 319
#     4  11  23  37  55  81 113 148 182 219 268 325
#
# _framework density 22.082685999999999
#
# number of rings (size 3 to 8) (size 9 to 14) (size 15 to 20)
#    0.000    2.167    0.000    4.000    0.000    8.333 
#    0.000    3.333    0.000    0.000    0.000    0.000 
#    0.000    0.000    0.000    0.000    0.000    0.000 
#
# Total GULP energy -134206.414676 kJ/mol
# GULP energy per Si atom -5591.933945 kJ/mol
# Density = 2.203243 g / cm^3
# Si number density = 22.082686 Si / 1000 Ang^3
#
#
#
# Elastic Constant Matrix: (Units=GPa)
#
#
# Indices 1 2 3 4 5 6 
#
# 1 110.9704 66.3970 6.9515 0.0000 -14.8183 0.0000
# 2 66.3970 139.9995 25.1417 0.0000 -39.2604 0.0000
# 3 6.9515 25.1417 42.8248 0.0000 -9.6099 0.0000
# 4 0.0000 0.0000 0.0000 21.2585 0.0000 -13.6499
# 5 -14.8183 -39.2604 -9.6099 0.0000 44.3527 0.0000
# 6 0.0000 0.0000 0.0000 -13.6499 0.0000 29.5164
#
#
#
# Elastic Compliance Matrix: (Units=1/GPa)
#
#
# Indices 1 2 3 4 5 6 
#
# 1 0.012743 -0.006699 0.001565 0.000000 -0.001333 0.000000
# 2 -0.006699 0.013678 -0.004970 0.000000 0.008793 0.000000
# 3 0.001565 -0.004970 0.026430 0.000000 0.001850 0.000000
# 4 0.000000 0.000000 0.000000 0.066907 0.000000 0.030941
# 5 -0.001333 0.008793 0.001850 0.000000 0.030285 0.000000
# 6 0.000000 0.000000 0.000000 0.030941 0.000000 0.048188
#
#
# Mechanical properties :
#
#
# Convention : Reuss Voigt Hill
#
# Bulk Modulus (GPa) = 30.63294 54.53058 42.58176
# Shear Modulus (GPa) = 21.80359 32.04581 26.92470
#
# Velocity S-wave (km/s) = 3.14564 3.81356 3.49559
# Velocity P-wave (km/s) = 5.20533 6.64367 5.96799
#
# Compressibility (1/GPa) = 0.03264459
#
# Stress axis : x y z
#
# Youngs Moduli (GPa) = 78.47224 73.10972 37.83611
#
# Poissons Ratio (x) = 0.48973 -0.05921
# Poissons Ratio (y) = 0.52565 0.18804
# Poissons Ratio (z) = -0.12281 0.36334
#
# Static dielectric constant tensor:
#      x y z
#    x 1.807400 0.000000 0.029180 
#    y 0.000000 1.734050 0.000000 
#    z 0.029180 0.000000 1.879110 
# 
# From -- ./inp_files/108633.got.cif
#   From: 2010.05.17/outbox.cif.g08.bks.cpg/sg12_55_cif.got.tgz:108633.got - 2010.06.03 13:09:07.
