data_PCOD9207405
_publ_section_title
;
Structure prediction by ZEFSAII (Michael W. Deem and Ramdas Pophale) SiO2 
 PCOD9207405
Probable space group: C 2/M
;
_chemical_formula_sum "Si O2"
_cell_formula_units_Z 56
_cell_length_a 22.737787
_cell_length_b 14.672931
_cell_length_c 9.521319
_cell_angle_alpha 90.000000
_cell_angle_beta 59.221419
_cell_angle_gamma 90.000000
_cell_volume 2729.177699
_symmetry_space_group_name_H-M "C 2/M"
_symmetry_group_IT_number 12
_symmetry_cell_setting 'monoclinic'
loop_
_space_group_symop_operation_xyz
x,y,z
-x,y,-z
-x,-y,-z
x,-y,z
1/2+x,1/2+y,z
1/2-x,1/2+y,-z
1/2-x,1/2-y,-z
1/2+x,1/2-y,z
loop_
_atom_site_type_symbol
_atom_site_label
_atom_site_fract_x
_atom_site_fract_y
_atom_site_fract_z
Si Si1 0.436013 0.713620 0.478743
Si Si2 0.264099 0.652503 0.413779
Si Si3 0.868626 0.606781 0.613111
Si Si4 0.285447 0.109962 0.975894
Si Si5 0.343556 0.610021 0.053988
Si Si6 0.995752 0.105488 0.837207
Si Si7 0.200366 0.897750 0.327634
O O1 0.500000 0.690368 0.500000
O O2 0.424105 0.821827 0.491293
O O3 0.453998 0.671193 0.306175
O O4 0.364488 0.667543 0.612061
O O5 0.250000 0.750000 0.500000
O O6 0.198678 0.618128 0.404133
O O7 0.325764 0.651230 0.226987
O O8 0.282021 0.596382 0.530222
O O9 0.887639 0.500000 0.590129
O O10 0.846921 0.638012 0.798208
O O11 0.216536 0.136941 0.977660
O O12 0.291252 0.000000 0.967066
O O13 0.266931 0.135770 0.157866
O O14 0.341352 0.500000 0.074843
O O15 0.417330 0.632152 0.902848
O O16 0.008156 0.000000 0.779279
O O17 0.000000 0.109016 0.000000
O O18 0.182636 0.000000 0.298012
#
# Coordination Sequence:
#
# PCOD9207405 Si02
#       7
#     8   8   8   8   8   8   8
#     4  12  25  39  57  90 120 161 208 245 288 344
#     4  11  20  36  60  95 118 148 192 247 304 354
#     4  10  22  43  63  82 117 161 206 248 295 354
#     4   8  17  34  57  83 111 147 187 235 299 358
#     4   9  17  33  55  79 113 155 188 226 291 359
#     4  10  21  37  58  84 120 160 194 237 294 361
#     4  11  21  36  60  92 125 148 183 247 313 363
#
# _framework density 20.518999999999998
#
# number of rings (size 3 to 8) (size 9 to 14) (size 15 to 20)
#    0.000    1.857    1.429    4.286    0.000    4.286 
#    2.571    0.000    0.000    0.429    0.000    0.000 
#    0.000    0.000    0.000    0.000    0.000    0.000 
#
# Total GULP energy -156290.724772 kJ/mol
# GULP energy per Si atom -5581.811599 kJ/mol
# Density = 2.047230 g / cm^3
# Si number density = 20.519000 Si / 1000 Ang^3
#
#
#
# Elastic Constant Matrix: (Units=GPa)
#
#
# Indices 1 2 3 4 5 6 
#
# 1 30.6160 -2.4834 6.5644 0.0000 8.7481 0.0000
# 2 -2.4834 96.9614 43.7774 0.0000 -13.6773 0.0000
# 3 6.5644 43.7774 128.0499 0.0000 -1.7688 0.0000
# 4 0.0000 0.0000 0.0000 28.6999 0.0000 -8.4929
# 5 8.7481 -13.6773 -1.7688 0.0000 22.6028 0.0000
# 6 0.0000 0.0000 0.0000 -8.4929 0.0000 20.4722
#
#
#
# Elastic Compliance Matrix: (Units=1/GPa)
#
#
# Indices 1 2 3 4 5 6 
#
# 1 0.037289 -0.000195 -0.002048 0.000000 -0.014711 0.000000
# 2 -0.000195 0.013437 -0.004475 0.000000 0.007856 0.000000
# 3 -0.002048 -0.004475 0.009428 0.000000 -0.001178 0.000000
# 4 0.000000 0.000000 0.000000 0.039719 0.000000 0.016478
# 5 -0.014711 0.007856 -0.001178 0.000000 0.054598 0.000000
# 6 0.000000 0.000000 0.000000 0.016478 0.000000 0.055683
#
#
# Mechanical properties :
#
#
# Convention : Reuss Voigt Hill
#
# Bulk Modulus (GPa) = 21.40533 39.03821 30.22177
# Shear Modulus (GPa) = 20.90610 28.20623 24.55617
#
# Velocity S-wave (km/s) = 3.19543 3.71164 3.46316
# Velocity P-wave (km/s) = 4.90601 6.11842 5.54545
#
# Compressibility (1/GPa) = 0.04671734
#
# Stress axis : x y z
#
# Youngs Moduli (GPa) = 26.81727 74.42026 106.06476
#
# Poissons Ratio (x) = 0.01454 0.21722
# Poissons Ratio (y) = 0.00524 0.47468
# Poissons Ratio (z) = 0.05492 0.33306
#
# Static dielectric constant tensor:
#      x y z
#    x 1.752230 0.000000 0.009940 
#    y 0.000000 1.800350 0.000000 
#    z 0.009940 0.000000 1.760170 
# 
# From -- ./inp_files/96770.got.cif
#   From: 2010.05.17/outbox.cif.g08.bks.cpg/sg12_49_cif.got.tgz:96770.got - 2010.06.03 13:09:07.
