data_PCOD9207172
_publ_section_title
;
Structure prediction by ZEFSAII (Michael W. Deem and Ramdas Pophale) SiO2 
 PCOD9207172
Probable space group: C 2/M
;
_chemical_formula_sum "Si O2"
_cell_formula_units_Z 56
_cell_length_a 17.604092
_cell_length_b 13.652886
_cell_length_c 13.193755
_cell_angle_alpha 90.000000
_cell_angle_beta 124.550708
_cell_angle_gamma 90.000000
_cell_volume 2611.775298
_symmetry_space_group_name_H-M "C 2/M"
_symmetry_group_IT_number 12
_symmetry_cell_setting 'monoclinic'
loop_
_space_group_symop_operation_xyz
x,y,z
-x,y,-z
-x,-y,-z
x,-y,z
1/2+x,1/2+y,z
1/2-x,1/2+y,-z
1/2-x,1/2-y,-z
1/2+x,1/2-y,z
loop_
_atom_site_type_symbol
_atom_site_label
_atom_site_fract_x
_atom_site_fract_y
_atom_site_fract_z
Si Si1 0.132843 0.218559 0.495055
Si Si2 0.408610 0.890540 0.001133
Si Si3 0.476411 0.392484 0.298612
Si Si4 0.240770 0.108673 0.166940
Si Si5 0.211072 0.823504 0.771772
Si Si6 0.445078 0.321968 0.064294
Si Si7 0.254084 0.611075 0.592186
O O1 0.183658 0.176490 0.632787
O O2 0.156213 0.333036 0.513528
O O3 0.179659 0.170803 0.431525
O O4 0.027543 0.187491 0.405502
O O5 0.313859 0.864047 0.869386
O O6 0.398101 0.000000 0.038347
O O7 0.500000 0.895090 0.000000
O O8 0.425448 0.791809 0.078468
O O9 0.509679 0.500000 0.353874
O O10 0.367229 0.383862 0.230709
O O11 0.495365 0.373231 0.195009
O O12 0.295200 0.210477 0.194639
O O13 0.215086 0.113068 0.267269
O O14 0.281368 0.000000 0.180124
O O15 0.150089 0.122804 0.031037
O O16 0.500000 0.322687 0.000000
O O17 0.248300 0.500000 0.553875
#
# Coordination Sequence:
#
# PCOD9207172 Si02
#       7
#     8   8   8   8   8   8   8
#     4  10  21  37  57  84 118 153 192 236 282 338
#     4   9  19  37  61  86 113 148 189 233 284 340
#     4  12  25  38  56  84 116 152 193 235 286 347
#     4   9  18  35  58  81 108 144 185 234 288 335
#     4  10  22  39  57  82 118 153 190 237 286 342
#     4  10  21  37  57  83 113 144 186 239 287 338
#     4   9  18  34  58  85 111 145 193 244 288 332
#
# _framework density 21.441352999999999
#
# number of rings (size 3 to 8) (size 9 to 14) (size 15 to 20)
#    0.000    2.143    0.000    2.571    0.000   10.857 
#    0.000    5.000    0.000    3.429    0.000    0.000 
#    0.000    0.000    0.000    0.000    0.000    0.000 
#
# Total GULP energy -156198.339982 kJ/mol
# GULP energy per Si atom -5578.512142 kJ/mol
# Density = 2.139255 g / cm^3
# Si number density = 21.441353 Si / 1000 Ang^3
#
#
#
# Elastic Constant Matrix: (Units=GPa)
#
#
# Indices 1 2 3 4 5 6 
#
# 1 59.9810 2.3105 19.5203 0.0000 10.9795 0.0000
# 2 2.3105 104.6324 2.0059 0.0000 7.4045 0.0000
# 3 19.5203 2.0059 50.0484 0.0000 15.2197 0.0000
# 4 0.0000 0.0000 0.0000 10.5562 0.0000 -0.3298
# 5 10.9795 7.4045 15.2197 0.0000 31.1486 0.0000
# 6 0.0000 0.0000 0.0000 -0.3298 0.0000 15.2300
#
#
#
# Elastic Compliance Matrix: (Units=1/GPa)
#
#
# Indices 1 2 3 4 5 6 
#
# 1 0.019452 -0.000045 -0.006464 0.000000 -0.003688 0.000000
# 2 -0.000045 0.009727 0.000383 0.000000 -0.002483 0.000000
# 3 -0.006464 0.000383 0.025629 0.000000 -0.010336 0.000000
# 4 0.000000 0.000000 0.000000 0.094795 0.000000 0.002052
# 5 -0.003688 -0.002483 -0.010336 0.000000 0.039045 0.000000
# 6 0.000000 0.000000 0.000000 0.002052 0.000000 0.065705
#
#
# Mechanical properties :
#
#
# Convention : Reuss Voigt Hill
#
# Bulk Modulus (GPa) = 23.49777 29.14836 26.32307
# Shear Modulus (GPa) = 17.80694 24.10862 20.95778
#
# Velocity S-wave (km/s) = 2.88496 3.35684 3.12981
# Velocity P-wave (km/s) = 4.69896 5.35243 5.03630
#
# Compressibility (1/GPa) = 0.04255723
#
# Stress axis : x y z
#
# Youngs Moduli (GPa) = 51.40782 102.81017 39.01779
#
# Poissons Ratio (x) = 0.00459 0.25220
# Poissons Ratio (y) = 0.00230 -0.01494
# Poissons Ratio (z) = 0.33228 -0.03936
#
# Static dielectric constant tensor:
#      x y z
#    x 1.815030 0.000000 -0.003780 
#    y 0.000000 1.801890 0.000000 
#    z -0.003780 0.000000 1.750500 
# 
# From -- ./inp_files/156762.got.cif
#   From: 2010.05.17/outbox.cif.g08.bks.cpg/sg12_79_cif.got.tgz:156762.got - 2010.06.03 13:09:07.
