data_PCOD9207099
_publ_section_title
;
Structure prediction by ZEFSAII (Michael W. Deem and Ramdas Pophale) SiO2 
 PCOD9207099
Probable space group: C 2/M
;
_chemical_formula_sum "Si O2"
_cell_formula_units_Z 64
_cell_length_a 8.689183
_cell_length_b 14.404737
_cell_length_c 28.149292
_cell_angle_alpha 90.000000
_cell_angle_beta 55.025410
_cell_angle_gamma 90.000000
_cell_volume 2887.028507
_symmetry_space_group_name_H-M "C 2/M"
_symmetry_group_IT_number 12
_symmetry_cell_setting 'monoclinic'
loop_
_space_group_symop_operation_xyz
x,y,z
-x,y,-z
-x,-y,-z
x,-y,z
1/2+x,1/2+y,z
1/2-x,1/2+y,-z
1/2-x,1/2-y,-z
1/2+x,1/2-y,z
loop_
_atom_site_type_symbol
_atom_site_label
_atom_site_fract_x
_atom_site_fract_y
_atom_site_fract_z
Si Si1 0.609630 0.208108 0.876724
Si Si2 0.128757 0.611634 0.317980
Si Si3 0.067907 0.103755 0.664473
Si Si4 0.689341 0.111413 0.772042
Si Si5 0.844752 0.139699 0.455453
Si Si6 0.201092 0.789787 0.957213
Si Si7 0.750018 0.336486 0.431212
Si Si8 0.776285 0.388726 0.807497
O O1 0.729271 0.151200 0.817459
O O2 0.399946 0.165594 0.908493
O O3 0.666280 0.213491 0.921892
O O4 0.629263 0.316515 0.856786
O O5 0.102862 0.500000 0.327252
O O6 0.272132 0.649961 0.332115
O O7 0.211097 0.626858 0.251199
O O8 0.924779 0.651946 0.365676
O O9 0.129915 0.092881 0.599657
O O10 0.859565 0.143701 0.708065
O O11 0.052790 0.000000 0.688103
O O12 0.483385 0.139489 0.790171
O O13 0.679944 0.000000 0.774441
O O14 0.751529 0.234163 0.452938
O O15 0.734963 0.105253 0.521874
O O16 0.056368 0.147453 0.438424
O O17 0.250000 0.750000 0.000000
O O18 0.000000 0.840046 0.000000
O O19 0.743685 0.500000 0.821946
#
# Coordination Sequence:
#
# PCOD9207099 Si02
#       8
#     8   8   8   8   8   8   8   8
#     4  11  20  38  66  94 118 169 203 238 310 351
#     4  10  22  38  56  82 116 152 192 246 303 356
#     4  10  22  38  56  82 116 152 191 247 304 354
#     4  10  22  39  60  89 126 162 206 257 302 363
#     4  10  21  37  57  80 108 148 196 247 299 357
#     4   9  20  38  64  94 129 161 202 246 289 351
#     4  10  21  37  57  80 108 148 196 247 298 359
#     4  10  22  39  60  89 125 163 207 255 301 365
#
# _framework density 22.168122
#
# number of rings (size 3 to 8) (size 9 to 14) (size 15 to 20)
#    0.000    2.000    1.250    1.500    3.500    3.500 
#    0.000    2.500    0.000   15.000    0.000    0.000 
#    0.000    0.000    0.000    0.000    0.000    0.000 
#
# Total GULP energy -178243.449889 kJ/mol
# GULP energy per Si atom -5570.107809 kJ/mol
# Density = 2.211767 g / cm^3
# Si number density = 22.168122 Si / 1000 Ang^3
#
#
#
# Elastic Constant Matrix: (Units=GPa)
#
#
# Indices 1 2 3 4 5 6 
#
# 1 90.5648 4.0952 27.5860 0.0000 19.4399 0.0000
# 2 4.0952 36.5844 8.9869 0.0000 -0.1846 0.0000
# 3 27.5860 8.9869 94.0644 0.0000 12.2327 0.0000
# 4 0.0000 0.0000 0.0000 32.9984 0.0000 8.9609
# 5 19.4399 -0.1846 12.2327 0.0000 42.7651 0.0000
# 6 0.0000 0.0000 0.0000 8.9609 0.0000 14.9435
#
#
#
# Elastic Compliance Matrix: (Units=1/GPa)
#
#
# Indices 1 2 3 4 5 6 
#
# 1 0.013113 -0.000728 -0.003116 0.000000 -0.005072 0.000000
# 2 -0.000728 0.028066 -0.002624 0.000000 0.001203 0.000000
# 3 -0.003116 -0.002624 0.012062 0.000000 -0.002045 0.000000
# 4 0.000000 0.000000 0.000000 0.036199 0.000000 -0.021707
# 5 -0.005072 0.001203 -0.002045 0.000000 0.026279 0.000000
# 6 0.000000 0.000000 0.000000 -0.021707 0.000000 0.079935
#
#
# Mechanical properties :
#
#
# Convention : Reuss Voigt Hill
#
# Bulk Modulus (GPa) = 24.81181 33.61664 29.21422
# Shear Modulus (GPa) = 22.51988 30.17777 26.34882
#
# Velocity S-wave (km/s) = 3.19073 3.69360 3.45133
# Velocity P-wave (km/s) = 4.97907 5.77820 5.39346
#
# Compressibility (1/GPa) = 0.04030339
#
# Stress axis : x y z
#
# Youngs Moduli (GPa) = 76.26143 35.62993 82.90772
#
# Poissons Ratio (x) = 0.02594 0.25837
# Poissons Ratio (y) = 0.05551 0.21758
# Poissons Ratio (z) = 0.23766 0.09351
#
# Static dielectric constant tensor:
#      x y z
#    x 1.838670 0.000000 -0.029630 
#    y 0.000000 1.938020 0.000000 
#    z -0.029630 0.000000 1.871550 
# 
# From -- ./inp_files/372555.got.cif
#   From: 2010.05.17/outbox.cif.g08.bks.cpg/sg12_187_cif.got.tgz:372555.got - 2010.06.03 13:09:07.
