data_PCOD9207615
_publ_section_title
;
Structure prediction by ZEFSAII (Michael W. Deem and Ramdas Pophale) SiO2 
 PCOD9207615
Probable space group: C 2/M
;
_chemical_formula_sum "Si O2"
_cell_formula_units_Z 56
_cell_length_a 27.844742
_cell_length_b 9.089831
_cell_length_c 18.813130
_cell_angle_alpha 90.000000
_cell_angle_beta 37.050215
_cell_angle_gamma 90.000000
_cell_volume 2868.981397
_symmetry_space_group_name_H-M "C 2/M"
_symmetry_group_IT_number 12
_symmetry_cell_setting 'monoclinic'
loop_
_space_group_symop_operation_xyz
x,y,z
-x,y,-z
-x,-y,-z
x,-y,z
1/2+x,1/2+y,z
1/2-x,1/2+y,-z
1/2-x,1/2-y,-z
1/2+x,1/2-y,z
loop_
_atom_site_type_symbol
_atom_site_label
_atom_site_fract_x
_atom_site_fract_y
_atom_site_fract_z
Si Si1 0.504862 0.175369 0.296532
Si Si2 0.436319 0.324629 0.514937
Si Si3 0.260240 0.674025 0.704951
Si Si4 0.371860 0.329312 0.046748
Si Si5 0.459896 0.325820 0.203887
Si Si6 0.168951 0.827610 0.072346
Si Si7 0.222965 0.826361 0.604754
O O1 0.456342 0.236148 0.420435
O O2 0.467005 0.234772 0.268013
O O3 0.593195 0.245292 0.195212
O O4 0.508450 0.000000 0.291897
O O5 0.500000 0.285619 0.500000
O O6 0.443951 0.500000 0.491665
O O7 0.344572 0.296773 0.644187
O O8 0.252861 0.500000 0.703406
O O9 0.185811 0.734371 0.836807
O O10 0.262784 0.752009 0.625607
O O11 0.366299 0.500000 0.075917
O O12 0.465150 0.285948 0.934423
O O13 0.343251 0.318870 0.998521
O O14 0.470697 0.500000 0.208562
O O15 0.372671 0.307652 0.274736
O O16 0.168850 0.000000 0.092160
O O17 0.250000 0.750000 0.000000
O O18 0.250000 0.750000 0.500000
O O19 0.240434 0.000000 0.581171
#
# Coordination Sequence:
#
# PCOD9207615 Si02
#       7
#     8   8   8   8   8   8   8
#     4  11  22  36  58  89 118 150 194 248 302 353
#     4  10  23  42  60  80 112 160 203 243 301 364
#     4  11  24  40  60  89 122 156 199 249 305 362
#     4   9  20  39  60  84 118 157 198 244 295 351
#     4   9  20  40  63  86 117 161 201 239 293 363
#     4  10  21  37  59  86 118 158 201 248 299 356
#     4  11  23  40  64  91 121 158 201 247 301 360
#
# _framework density 19.519121999999999
#
# number of rings (size 3 to 8) (size 9 to 14) (size 15 to 20)
#    0.000    1.857    0.000    4.286    2.000    9.429 
#    0.000    2.857    0.000    0.000    0.000    0.000 
#    0.000    0.000    0.000    0.000    0.000    0.000 
#
# Total GULP energy -156496.599820 kJ/mol
# GULP energy per Si atom -5589.164279 kJ/mol
# Density = 1.947470 g / cm^3
# Si number density = 19.519122 Si / 1000 Ang^3
#
#
#
# Elastic Constant Matrix: (Units=GPa)
#
#
# Indices 1 2 3 4 5 6 
#
# 1 71.4119 45.2977 38.2076 0.0007 -19.7910 -0.0002
# 2 45.2977 85.8177 56.7188 0.0013 -6.4871 -0.0004
# 3 38.2076 56.7188 106.5041 0.0018 -5.2415 -0.0002
# 4 0.0007 0.0013 0.0018 35.8758 0.0001 0.8233
# 5 -19.7910 -6.4871 -5.2415 0.0001 21.5511 -0.0008
# 6 -0.0002 -0.0004 -0.0002 0.8233 -0.0008 28.9348
#
#
#
# Elastic Compliance Matrix: (Units=1/GPa)
#
#
# Indices 1 2 3 4 5 6 
#
# 1 0.029445 -0.011700 -0.003214 0.000000 0.022737 0.000001
# 2 -0.011700 0.022840 -0.008256 0.000000 -0.005877 0.000000
# 3 -0.003214 -0.008256 0.014849 0.000000 -0.001825 0.000000
# 4 0.000000 0.000000 0.000000 0.027892 0.000000 -0.000794
# 5 0.022737 -0.005877 -0.001825 0.000000 0.065069 0.000002
# 6 0.000001 0.000000 0.000000 -0.000794 0.000002 0.034583
#
#
# Mechanical properties :
#
#
# Convention : Reuss Voigt Hill
#
# Bulk Modulus (GPa) = 48.08477 60.46467 54.27472
# Shear Modulus (GPa) = 20.16552 25.50631 22.83591
#
# Velocity S-wave (km/s) = 3.21770 3.61880 3.42413
# Velocity P-wave (km/s) = 6.20427 6.96458 6.59539
#
# Compressibility (1/GPa) = 0.02079661
#
# Stress axis : x y z
#
# Youngs Moduli (GPa) = 33.96137 43.78258 67.34494
#
# Poissons Ratio (x) = 0.51224 0.21643
# Poissons Ratio (y) = 0.39733 0.55597
# Poissons Ratio (z) = 0.10914 0.36145
#
# Static dielectric constant tensor:
#      x y z
#    x 1.683020 0.000000 -0.029640 
#    y 0.000000 1.649140 0.000000 
#    z -0.029640 0.000000 1.682660 
# 
# From -- ./inp_files/292420.got.cif
#   From: 2010.05.17/outbox.cif.g08.bks.cpg/sg12_147_cif.got.tgz:292420.got - 2010.06.03 13:09:07.
