data_PCOD9207972
_publ_section_title
;
Structure prediction by ZEFSAII (Michael W. Deem and Ramdas Pophale) SiO2 
 PCOD9207972
Probable space group: C 2/M
;
_chemical_formula_sum "Si O2"
_cell_formula_units_Z 56
_cell_length_a 15.111313
_cell_length_b 17.820328
_cell_length_c 20.088974
_cell_angle_alpha 90.000000
_cell_angle_beta 30.831116
_cell_angle_gamma 90.000000
_cell_volume 2772.537167
_symmetry_space_group_name_H-M "C 2/M"
_symmetry_group_IT_number 12
_symmetry_cell_setting 'monoclinic'
loop_
_space_group_symop_operation_xyz
x,y,z
-x,y,-z
-x,-y,-z
x,-y,z
1/2+x,1/2+y,z
1/2-x,1/2+y,-z
1/2-x,1/2-y,-z
1/2+x,1/2-y,z
loop_
_atom_site_type_symbol
_atom_site_label
_atom_site_fract_x
_atom_site_fract_y
_atom_site_fract_z
Si Si1 0.751174 0.412980 0.262236
Si Si2 0.010504 0.418529 0.761546
Si Si3 0.825358 0.760260 0.639564
Si Si4 0.355692 0.417723 0.937589
Si Si5 0.746017 0.335451 0.126179
Si Si6 0.977295 0.205315 0.086012
Si Si7 0.103159 0.736409 0.649597
O O1 0.691340 0.500000 0.297270
O O2 0.629770 0.345847 0.367496
O O3 0.798214 0.381728 0.158687
O O4 0.898512 0.410771 0.224331
O O5 0.064696 0.500000 0.700292
O O6 0.050955 0.350912 0.686356
O O7 0.809095 0.418001 0.907652
O O8 0.718206 0.729002 0.771512
O O9 0.691713 0.754694 0.664847
O O10 0.000000 0.723544 0.500000
O O11 0.437157 0.500000 0.885481
O O12 0.289004 0.396354 0.908016
O O13 0.470425 0.350601 0.890041
O O14 0.565346 0.288855 0.250294
O O15 0.891791 0.276577 0.005494
O O16 0.000000 0.166765 0.000000
O O17 0.250000 0.750000 0.500000
#
# Coordination Sequence:
#
# PCOD9207972 Si02
#       7
#     8   8   8   8   8   8   8
#     4  10  21  37  60  95 132 165 198 247 320 385
#     4   9  20  39  61  90 130 164 204 258 314 376
#     4  11  23  41  60  91 126 164 212 258 310 370
#     4  11  23  39  62  91 125 161 204 265 320 369
#     4  12  21  38  62  96 128 159 209 256 314 377
#     4  12  24  41  68  92 124 165 214 262 310 371
#     4  11  22  37  63  91 125 171 213 255 309 375
#
# _framework density 20.198105999999999
#
# number of rings (size 3 to 8) (size 9 to 14) (size 15 to 20)
#    0.000    1.143    4.286    3.429    0.000    0.571 
#    0.000    7.857    0.000    0.429    0.000    0.000 
#    0.000    0.143    0.000    0.000    0.000    0.000 
#
# Total GULP energy -156132.336527 kJ/mol
# GULP energy per Si atom -5576.154876 kJ/mol
# Density = 2.015213 g / cm^3
# Si number density = 20.198106 Si / 1000 Ang^3
#
#
#
# Elastic Constant Matrix: (Units=GPa)
#
#
# Indices 1 2 3 4 5 6 
#
# 1 47.6065 24.4142 6.0358 -0.0006 12.7037 0.0003
# 2 24.4142 108.7148 48.0896 0.0055 15.5825 -0.0013
# 3 6.0358 48.0896 125.2255 0.0053 11.5646 -0.0014
# 4 -0.0006 0.0055 0.0053 14.6544 -0.0015 8.3296
# 5 12.7037 15.5825 11.5646 -0.0015 24.8197 0.0001
# 6 0.0003 -0.0013 -0.0014 8.3296 0.0001 21.7623
#
#
#
# Elastic Compliance Matrix: (Units=1/GPa)
#
#
# Indices 1 2 3 4 5 6 
#
# 1 0.026357 -0.005084 0.001706 0.000002 -0.011094 -0.000001
# 2 -0.005084 0.012742 -0.004336 -0.000005 -0.003377 0.000003
# 3 0.001706 -0.004336 0.009820 -0.000003 -0.002727 0.000002
# 4 0.000002 -0.000005 -0.000003 0.087213 0.000009 -0.033381
# 5 -0.011094 -0.003377 -0.002727 0.000009 0.049360 -0.000004
# 6 -0.000001 0.000003 0.000002 -0.033381 -0.000004 0.058728
#
#
# Mechanical properties :
#
#
# Convention : Reuss Voigt Hill
#
# Bulk Modulus (GPa) = 29.85786 48.73623 39.29704
# Shear Modulus (GPa) = 18.46307 25.78109 22.12208
#
# Velocity S-wave (km/s) = 3.02669 3.57657 3.31305
# Velocity P-wave (km/s) = 5.19895 6.42162 5.84236
#
# Compressibility (1/GPa) = 0.03349202
#
# Stress axis : x y z
#
# Youngs Moduli (GPa) = 37.94115 78.47862 101.82842
#
# Poissons Ratio (x) = 0.39896 -0.17376
# Poissons Ratio (y) = 0.19288 0.44157
# Poissons Ratio (z) = -0.06474 0.34032
#
# Static dielectric constant tensor:
#      x y z
#    x 1.765270 0.000000 -0.014180 
#    y 0.000000 1.754780 0.000000 
#    z -0.014180 0.000000 1.721550 
# 
# From -- ./inp_files/311658.got.cif
#   From: 2010.05.17/outbox.cif.g08.bks.cpg/sg12_156_cif.got.tgz:311658.got - 2010.06.03 13:09:07.
