data_PCOD9207682
_publ_section_title
;
Structure prediction by ZEFSAII (Michael W. Deem and Ramdas Pophale) SiO2 
 PCOD9207682
Probable space group: C 2/M
;
_chemical_formula_sum "Si O2"
_cell_formula_units_Z 64
_cell_length_a 29.164932
_cell_length_b 8.976803
_cell_length_c 17.255300
_cell_angle_alpha 90.000000
_cell_angle_beta 43.763482
_cell_angle_gamma 90.000000
_cell_volume 3124.728488
_symmetry_space_group_name_H-M "C 2/M"
_symmetry_group_IT_number 12
_symmetry_cell_setting 'monoclinic'
loop_
_space_group_symop_operation_xyz
x,y,z
-x,y,-z
-x,-y,-z
x,-y,z
1/2+x,1/2+y,z
1/2-x,1/2+y,-z
1/2-x,1/2-y,-z
1/2+x,1/2-y,z
loop_
_atom_site_type_symbol
_atom_site_label
_atom_site_fract_x
_atom_site_fract_y
_atom_site_fract_z
Si Si1 0.791124 0.323307 0.331621
Si Si2 0.652011 0.820340 0.453154
Si Si3 0.996371 0.825411 0.915524
Si Si4 0.077356 0.678324 0.387544
Si Si5 0.793384 0.667755 0.053248
Si Si6 0.896499 0.678934 0.324633
Si Si7 0.353652 0.669877 0.839795
Si Si8 0.347929 0.328864 0.121305
O O1 0.780683 0.500000 0.346391
O O2 0.723539 0.244506 0.388202
O O3 0.827259 0.275639 0.367095
O O4 0.842725 0.276636 0.201573
O O5 0.621539 0.773351 0.407948
O O6 0.605302 0.778275 0.583048
O O7 0.656873 0.000000 0.445722
O O8 0.043258 0.744614 0.797864
O O9 0.015773 0.000000 0.893371
O O10 0.000000 0.770299 0.000000
O O11 0.918555 0.814858 0.993055
O O12 0.086830 0.500000 0.365693
O O13 0.099490 0.761786 0.282890
O O14 0.000000 0.703634 0.500000
O O15 0.810810 0.500000 0.056820
O O16 0.844043 0.727493 0.926641
O O17 0.720241 0.665319 0.106644
O O18 0.794123 0.778113 0.124826
O O19 0.899509 0.500000 0.316353
O O20 0.372125 0.500000 0.837890
O O21 0.339503 0.500000 0.155982
#
# Coordination Sequence:
#
# PCOD9207682 Si02
#       8
#     8   8   8   8   8   8   8   8
#     4  11  22  36  57  86 118 152 195 244 293 343
#     4  10  22  40  60  84 114 151 195 241 292 349
#     4  10  21  38  57  80 113 154 195 233 281 339
#     4  10  22  40  61  84 114 153 195 240 293 351
#     4  10  21  37  59  88 119 151 190 238 290 345
#     4  10  22  38  58  85 117 154 197 244 291 343
#     4  10  21  38  60  86 117 150 189 238 293 349
#     4  11  22  36  57  85 118 156 196 237 286 343
#
# _framework density 20.481779
#
# number of rings (size 3 to 8) (size 9 to 14) (size 15 to 20)
#    0.000    1.750    1.250    2.625    0.000    7.500 
#    0.000    1.250    0.000    0.000    0.000    0.000 
#    0.000    0.000    0.000    0.000    0.000    0.000 
#
# Total GULP energy -178716.988476 kJ/mol
# GULP energy per Si atom -5584.905890 kJ/mol
# Density = 2.043516 g / cm^3
# Si number density = 20.481779 Si / 1000 Ang^3
#
#
#
# Elastic Constant Matrix: (Units=GPa)
#
#
# Indices 1 2 3 4 5 6 
#
# 1 28.7078 0.5550 -14.1354 0.0023 4.1790 -0.0004
# 2 0.5550 20.0958 13.3244 0.0042 -7.9476 -0.0043
# 3 -14.1354 13.3244 89.5563 0.0003 1.2362 -0.0033
# 4 0.0023 0.0042 0.0003 33.9642 -0.0008 -4.1071
# 5 4.1790 -7.9476 1.2362 -0.0008 19.0463 0.0002
# 6 -0.0004 -0.0043 -0.0033 -4.1071 0.0002 17.0841
#
#
#
# Elastic Compliance Matrix: (Units=1/GPa)
#
#
# Indices 1 2 3 4 5 6 
#
# 1 0.041544 -0.012848 0.008676 -0.000002 -0.015039 -0.000001
# 2 -0.012848 0.072286 -0.013250 -0.000005 0.033842 0.000014
# 3 0.008676 -0.013250 0.014623 0.000001 -0.008382 0.000000
# 4 -0.000002 -0.000005 0.000001 0.030324 -0.000001 0.007290
# 5 -0.015039 0.033842 -0.008382 -0.000001 0.070469 0.000005
# 6 -0.000001 0.000014 0.000000 0.007290 0.000005 0.060287
#
#
# Mechanical properties :
#
#
# Convention : Reuss Voigt Hill
#
# Bulk Modulus (GPa) = 10.68274 15.31642 12.99958
# Shear Modulus (GPa) = 14.06163 23.25999 18.66081
#
# Velocity S-wave (km/s) = 2.62304 3.37359 3.02171
# Velocity P-wave (km/s) = 3.79484 4.76121 4.30522
#
# Compressibility (1/GPa) = 0.09360892
#
# Stress axis : x y z
#
# Youngs Moduli (GPa) = 24.07113 13.83401 68.38705
#
# Poissons Ratio (x) = 0.17774 -0.59335
# Poissons Ratio (y) = 0.30926 0.90612
# Poissons Ratio (z) = -0.20885 0.18330
#
# Static dielectric constant tensor:
#      x y z
#    x 1.767260 0.000000 -0.005280 
#    y 0.000000 1.702000 0.000000 
#    z -0.005280 0.000000 1.724450 
# 
# From -- ./inp_files/295630.got.cif
#   From: 2010.05.17/outbox.cif.g08.bks.cpg/sg12_148_cif.got.tgz:295630.got - 2010.06.03 13:09:07.
