data_PCOD9207914
_publ_section_title
;
Structure prediction by ZEFSAII (Michael W. Deem and Ramdas Pophale) SiO2 
 PCOD9207914
Probable space group: C 2/M
;
_chemical_formula_sum "Si O2"
_cell_formula_units_Z 56
_cell_length_a 9.222210
_cell_length_b 19.614039
_cell_length_c 17.305521
_cell_angle_alpha 90.000000
_cell_angle_beta 118.890243
_cell_angle_gamma 90.000000
_cell_volume 2740.728982
_symmetry_space_group_name_H-M "C 2/M"
_symmetry_group_IT_number 12
_symmetry_cell_setting 'monoclinic'
loop_
_space_group_symop_operation_xyz
x,y,z
-x,y,-z
-x,-y,-z
x,-y,z
1/2+x,1/2+y,z
1/2-x,1/2+y,-z
1/2-x,1/2-y,-z
1/2+x,1/2-y,z
loop_
_atom_site_type_symbol
_atom_site_label
_atom_site_fract_x
_atom_site_fract_y
_atom_site_fract_z
Si Si1 0.713701 0.419353 0.728626
Si Si2 0.896652 0.921219 0.552203
Si Si3 0.636750 0.192245 0.318210
Si Si4 0.518659 0.306405 0.917211
Si Si5 0.355337 0.839511 0.912647
Si Si6 0.772816 0.310693 0.260228
Si Si7 0.187591 0.691725 0.559871
O O1 0.739018 0.500000 0.736993
O O2 0.521758 0.407018 0.656313
O O3 0.807142 0.384459 0.679920
O O4 0.781054 0.385407 0.824646
O O5 0.751840 0.866729 0.520669
O O6 0.000000 0.911840 0.500000
O O7 0.844010 0.000000 0.541750
O O8 0.731382 0.233509 0.275509
O O9 0.441340 0.193253 0.256980
O O10 0.690698 0.242468 0.402257
O O11 0.454034 0.227957 0.907923
O O12 0.699558 0.315395 0.926018
O O13 0.381882 0.339561 0.825580
O O14 0.500000 0.333346 0.000000
O O15 0.500000 0.875847 0.000000
O O16 0.806951 0.342468 0.352712
O O17 0.000000 0.714523 0.500000
#
# Coordination Sequence:
#
# PCOD9207914 Si02
#       7
#     8   8   8   8   8   8   8
#     4  11  24  42  65  85 119 169 211 254 311 371
#     4  10  23  43  65  90 127 170 208 244 295 372
#     4  10  22  38  61  91 122 155 205 262 303 360
#     4  11  21  34  61  98 126 159 193 251 319 366
#     4  11  22  37  62  95 125 158 204 251 309 375
#     4  10  21  37  60  90 126 159 200 254 305 364
#     4  10  23  39  61  99 123 162 201 257 313 357
#
# _framework density 20.432521000000001
#
# number of rings (size 3 to 8) (size 9 to 14) (size 15 to 20)
#    0.857    0.714    1.429    4.286    4.000    1.714 
#    0.000    0.714    0.000    1.286    0.000    0.000 
#    0.000    0.000    0.000    0.000    0.000    0.000 
#
# Total GULP energy -156025.405466 kJ/mol
# GULP energy per Si atom -5572.335910 kJ/mol
# Density = 2.038602 g / cm^3
# Si number density = 20.432521 Si / 1000 Ang^3
#
#
#
# Elastic Constant Matrix: (Units=GPa)
#
#
# Indices 1 2 3 4 5 6 
#
# 1 117.0670 58.2602 24.9233 0.0000 23.2336 0.0000
# 2 58.2602 48.9261 25.5337 0.0000 -6.3593 0.0000
# 3 24.9233 25.5337 109.3368 0.0000 7.7554 0.0000
# 4 0.0000 0.0000 0.0000 24.6280 0.0000 0.1998
# 5 23.2336 -6.3593 7.7554 0.0000 31.3246 0.0000
# 6 0.0000 0.0000 0.0000 0.1998 0.0000 21.7282
#
#
#
# Elastic Compliance Matrix: (Units=1/GPa)
#
#
# Indices 1 2 3 4 5 6 
#
# 1 0.073777 -0.105146 0.013368 0.000000 -0.079376 0.000000
# 2 -0.105146 0.174366 -0.025238 0.000000 0.119634 0.000000
# 3 0.013368 -0.025238 0.013293 0.000000 -0.018330 0.000000
# 4 0.000000 0.000000 0.000000 0.040607 0.000000 -0.000373
# 5 -0.079376 0.119634 -0.018330 0.000000 0.119623 0.000000
# 6 0.000000 0.000000 0.000000 -0.000373 0.000000 0.046027
#
#
# Mechanical properties :
#
#
# Convention : Reuss Voigt Hill
#
# Bulk Modulus (GPa) = 36.49140 54.75160 45.62150
# Shear Modulus (GPa) = 7.03375 26.64368 16.83872
#
# Velocity S-wave (km/s) = 1.85739 3.61499 2.87385
# Velocity P-wave (km/s) = 4.74322 6.65422 5.77827
#
# Compressibility (1/GPa) = 0.02740372
#
# Stress axis : x y z
#
# Youngs Moduli (GPa) = 13.55438 5.73507 75.22826
#
# Poissons Ratio (x) = 0.60302 -1.00563
# Poissons Ratio (y) = 1.42519 1.89860
# Poissons Ratio (z) = -0.18119 0.14474
#
# Static dielectric constant tensor:
#      x y z
#    x 1.739790 0.000000 -0.051110 
#    y 0.000000 1.688750 0.000000 
#    z -0.051110 0.000000 1.914650 
# 
# From -- ./inp_files/258246.got.cif
#   From: 2010.05.17/outbox.cif.g08.bks.cpg/sg12_130_cif.got.tgz:258246.got - 2010.06.03 13:09:07.
