data_PCOD9207361
_publ_section_title
;
Structure prediction by ZEFSAII (Michael W. Deem and Ramdas Pophale) SiO2 
 PCOD9207361
Probable space group: C 2/M
;
_chemical_formula_sum "Si O2"
_cell_formula_units_Z 48
_cell_length_a 21.216470
_cell_length_b 8.480452
_cell_length_c 27.543509
_cell_angle_alpha 90.000000
_cell_angle_beta 149.985692
_cell_angle_gamma 90.000000
_cell_volume 2478.958131
_symmetry_space_group_name_H-M "C 2/M"
_symmetry_group_IT_number 12
_symmetry_cell_setting 'monoclinic'
loop_
_space_group_symop_operation_xyz
x,y,z
-x,y,-z
-x,-y,-z
x,-y,z
1/2+x,1/2+y,z
1/2-x,1/2+y,-z
1/2-x,1/2-y,-z
1/2+x,1/2-y,z
loop_
_atom_site_type_symbol
_atom_site_label
_atom_site_fract_x
_atom_site_fract_y
_atom_site_fract_z
Si Si1 0.372921 0.189212 0.554113
Si Si2 0.375571 0.692438 0.888189
Si Si3 0.371762 0.311006 0.109768
Si Si4 0.372965 0.690982 0.774304
Si Si5 0.624988 0.689086 0.554441
Si Si6 0.125460 0.309167 0.778580
O O1 0.250000 0.250000 0.500000
O O2 0.375624 0.248346 0.500786
O O3 0.498683 0.241640 0.666430
O O4 0.370822 0.000000 0.552462
O O5 0.376569 0.500000 0.888849
O O6 0.376155 0.742595 0.832565
O O7 0.249077 0.742589 0.831429
O O8 0.500000 0.744356 0.000000
O O9 0.369989 0.500000 0.108004
O O10 0.500067 0.258267 0.168588
O O11 0.371148 0.252086 0.164479
O O12 0.250000 0.250000 0.000000
O O13 0.369227 0.500000 0.771148
O O14 0.249453 0.752945 0.665036
O O15 0.500000 0.742481 0.500000
O O16 0.625156 0.500000 0.553318
O O17 0.126302 0.500000 0.780505
#
# Coordination Sequence:
#
# PCOD9207361 Si02
#       6
#     8   8   8   8   8   8
#     4  11  23  39  61  87 117 154 196 243 294 349
#     4   9  17  33  58  84 109 140 183 232 279 333
#     4  11  23  38  59  86 116 151 190 235 286 343
#     4  10  21  38  61  86 112 150 199 243 286 341
#     4  11  24  40  59  86 121 158 196 242 295 351
#     4  10  21  37  58  84 113 146 185 233 287 340
#
# _framework density 19.362974999999999
#
# number of rings (size 3 to 8) (size 9 to 14) (size 15 to 20)
#    0.000    1.667    0.000    4.500    0.000   10.667 
#    0.000    0.833    0.000    2.000    0.000    0.000 
#    0.000    0.000    0.000    0.000    0.000    0.000 
#
# Total GULP energy -134193.094754 kJ/mol
# GULP energy per Si atom -5591.378948 kJ/mol
# Density = 1.931890 g / cm^3
# Si number density = 19.362975 Si / 1000 Ang^3
#
#
#
# Elastic Constant Matrix: (Units=GPa)
#
#
# Indices 1 2 3 4 5 6 
#
# 1 210.1755 23.5005 116.7176 0.0000 -0.5922 0.0000
# 2 23.5005 16.3230 23.6840 0.0001 1.5252 0.0001
# 3 116.7176 23.6840 211.4186 0.0000 -1.0208 0.0000
# 4 0.0000 0.0001 0.0000 27.1241 0.0000 -1.4440
# 5 -0.5922 1.5252 -1.0208 0.0000 46.9664 0.0000
# 6 0.0000 0.0001 0.0000 -1.4440 0.0000 31.0187
#
#
#
# Elastic Compliance Matrix: (Units=1/GPa)
#
#
# Indices 1 2 3 4 5 6 
#
# 1 0.007259 -0.005560 -0.003384 0.000000 0.000199 0.000000
# 2 -0.005560 0.077720 -0.005650 0.000000 -0.002717 0.000000
# 3 -0.003384 -0.005650 0.007232 0.000000 0.000298 0.000000
# 4 0.000000 0.000000 0.000000 0.036959 0.000000 0.001721
# 5 0.000199 -0.002717 0.000298 0.000000 0.021389 0.000000
# 6 0.000000 0.000000 0.000000 0.001721 0.000000 0.032319
#
#
# Mechanical properties :
#
#
# Convention : Reuss Voigt Hill
#
# Bulk Modulus (GPa) = 15.86702 85.08013 50.47357
# Shear Modulus (GPa) = 21.45233 39.28950 30.37092
#
# Velocity S-wave (km/s) = 3.33213 4.50945 3.96473
# Velocity P-wave (km/s) = 4.79755 8.43495 6.86166
#
# Compressibility (1/GPa) = 0.06302380
#
# Stress axis : x y z
#
# Youngs Moduli (GPa) = 137.75352 12.86668 138.26592
#
# Poissons Ratio (x) = 0.07154 0.46787
# Poissons Ratio (y) = 0.76593 0.78121
# Poissons Ratio (z) = 0.46613 0.07270
#
# Static dielectric constant tensor:
#      x y z
#    x 1.644010 0.000000 0.014030 
#    y 0.000000 1.672620 0.000000 
#    z 0.014030 0.000000 1.636490 
# 
# From -- ./inp_files/365554.got.cif
#   From: 2010.05.17/outbox.cif.g08.bks.cpg/sg12_183_cif.got.tgz:365554.got - 2010.06.03 13:09:07.
