data_PCOD9207882
_publ_section_title
;
Structure prediction by ZEFSAII (Michael W. Deem and Ramdas Pophale) SiO2 
 PCOD9207882
Probable space group: C 2/M
;
_chemical_formula_sum "Si O2"
_cell_formula_units_Z 64
_cell_length_a 19.576134
_cell_length_b 19.766510
_cell_length_c 12.687687
_cell_angle_alpha 90.000000
_cell_angle_beta 41.833266
_cell_angle_gamma 90.000000
_cell_volume 3274.481527
_symmetry_space_group_name_H-M "C 2/M"
_symmetry_group_IT_number 12
_symmetry_cell_setting 'monoclinic'
loop_
_space_group_symop_operation_xyz
x,y,z
-x,y,-z
-x,-y,-z
x,-y,z
1/2+x,1/2+y,z
1/2-x,1/2+y,-z
1/2-x,1/2-y,-z
1/2+x,1/2-y,z
loop_
_atom_site_type_symbol
_atom_site_label
_atom_site_fract_x
_atom_site_fract_y
_atom_site_fract_z
Si Si1 0.131378 0.310576 0.694889
Si Si2 0.569154 0.189310 0.199565
Si Si3 0.848510 0.148634 0.362413
Si Si4 0.907527 0.821621 0.682951
Si Si5 0.446813 0.419881 0.814182
Si Si6 0.895109 0.422625 0.680456
Si Si7 0.685355 0.619113 0.830915
Si Si8 0.693373 0.779975 0.848101
O O1 0.131037 0.229204 0.673736
O O2 0.234447 0.348845 0.540663
O O3 0.131746 0.313024 0.821633
O O4 0.037537 0.333729 0.730519
O O5 0.563156 0.253510 0.285185
O O6 0.617311 0.128414 0.209355
O O7 0.638710 0.209641 0.021619
O O8 0.850568 0.110932 0.247408
O O9 0.940203 0.113701 0.319852
O O10 0.886267 0.880020 0.792652
O O11 0.807977 0.807288 0.727016
O O12 0.000000 0.839991 0.500000
O O13 0.449847 0.500000 0.794845
O O14 0.393467 0.404384 0.988336
O O15 0.904916 0.500000 0.703609
O O16 0.795007 0.414916 0.723735
O O17 0.000000 0.403504 0.500000
O O18 0.699507 0.699792 0.823914
#
# Coordination Sequence:
#
# PCOD9207882 Si02
#       8
#     8   8   8   8   8   8   8   8
#     4  10  21  37  64  92 118 154 197 259 303 356
#     4  12  21  39  65  90 121 161 201 257 303 359
#     4  10  21  37  60  89 122 155 202 246 303 363
#     4  12  24  39  63  90 122 164 208 258 310 360
#     4  12  25  41  59  88 128 169 207 250 310 375
#     4  11  24  39  58  89 125 160 204 256 309 363
#     4  11  21  37  61  91 124 164 201 253 309 371
#     4  11  22  37  63  95 127 151 208 258 307 354
#
# _framework density 19.545079000000001
#
# number of rings (size 3 to 8) (size 9 to 14) (size 15 to 20)
#    0.000    0.875    3.750    4.125    3.500    3.750 
#    0.000    0.625    0.000    3.000    0.000    0.000 
#    0.000    0.000    0.000    0.000    0.000    0.000 
#
# Total GULP energy -178779.542059 kJ/mol
# GULP energy per Si atom -5586.860689 kJ/mol
# Density = 1.950059 g / cm^3
# Si number density = 19.545079 Si / 1000 Ang^3
#
#
#
# Elastic Constant Matrix: (Units=GPa)
#
#
# Indices 1 2 3 4 5 6 
#
# 1 54.4551 -4.9233 -13.3360 0.0000 -6.7505 0.0000
# 2 -4.9233 50.3850 0.7958 0.0000 4.5596 0.0000
# 3 -13.3360 0.7958 43.4700 0.0000 1.0715 0.0000
# 4 0.0000 0.0000 0.0000 12.4072 0.0000 -6.6760
# 5 -6.7505 4.5596 1.0715 0.0000 37.3711 0.0000
# 6 0.0000 0.0000 0.0000 -6.6760 0.0000 9.7286
#
#
#
# Elastic Compliance Matrix: (Units=1/GPa)
#
#
# Indices 1 2 3 4 5 6 
#
# 1 0.020427 0.001598 0.006156 0.000000 0.003318 0.000000
# 2 0.001598 0.020198 0.000174 0.000000 -0.002181 0.000000
# 3 0.006156 0.000174 0.024880 0.000000 0.000377 0.000000
# 4 0.000000 0.000000 0.000000 0.127781 0.000000 0.087687
# 5 0.003318 -0.002181 0.000377 0.000000 0.027613 0.000000
# 6 0.000000 0.000000 0.000000 0.087687 0.000000 0.162962
#
#
# Mechanical properties :
#
#
# Convention : Reuss Voigt Hill
#
# Bulk Modulus (GPa) = 12.29063 12.59811 12.44437
# Shear Modulus (GPa) = 12.65420 22.95295 17.80357
#
# Velocity S-wave (km/s) = 2.54724 3.43061 3.02138
# Velocity P-wave (km/s) = 3.86694 4.70657 4.30726
#
# Compressibility (1/GPa) = 0.08136278
#
# Stress axis : x y z
#
# Youngs Moduli (GPa) = 48.95438 49.51000 40.19227
#
# Poissons Ratio (x) = -0.07914 -0.24741
# Poissons Ratio (y) = -0.07825 -0.00701
# Poissons Ratio (z) = -0.30135 -0.00863
#
# Static dielectric constant tensor:
#      x y z
#    x 1.740380 0.000000 0.009430 
#    y 0.000000 1.651410 0.000000 
#    z 0.009430 0.000000 1.703350 
# 
# From -- ./inp_files/159547.got.cif
#   From: 2010.05.17/outbox.cif.g08.bks.cpg/sg12_80_cif.got.tgz:159547.got - 2010.06.03 13:09:07.
