data_PCOD9207385
_publ_section_title
;
Structure prediction by ZEFSAII (Michael W. Deem and Ramdas Pophale) SiO2 
 PCOD9207385
Probable space group: C 2/M
;
_chemical_formula_sum "Si O2"
_cell_formula_units_Z 48
_cell_length_a 23.594271
_cell_length_b 24.538218
_cell_length_c 5.398995
_cell_angle_alpha 90.000000
_cell_angle_beta 51.532437
_cell_angle_gamma 90.000000
_cell_volume 2447.385248
_symmetry_space_group_name_H-M "C 2/M"
_symmetry_group_IT_number 12
_symmetry_cell_setting 'monoclinic'
loop_
_space_group_symop_operation_xyz
x,y,z
-x,y,-z
-x,-y,-z
x,-y,z
1/2+x,1/2+y,z
1/2-x,1/2+y,-z
1/2-x,1/2-y,-z
1/2+x,1/2-y,z
loop_
_atom_site_type_symbol
_atom_site_label
_atom_site_fract_x
_atom_site_fract_y
_atom_site_fract_z
Si Si1 0.210531 0.658027 0.264151
Si Si2 0.221546 0.937600 0.642044
Si Si3 0.375873 0.752580 0.247249
Si Si4 0.074857 0.698359 0.390405
Si Si5 0.581322 0.439849 0.375548
Si Si6 0.665132 0.643738 0.422591
O O1 0.223923 0.599645 0.349551
O O2 0.189725 0.704961 0.517733
O O3 0.142413 0.658817 0.262272
O O4 0.284482 0.671644 0.920661
O O5 0.211043 0.905248 0.416448
O O6 0.243232 0.000000 0.554397
O O7 0.143438 0.936724 0.995142
O O8 0.427671 0.768184 0.342892
O O9 0.354620 0.690130 0.331901
O O10 0.405090 0.763958 0.896332
O O11 0.000000 0.672184 0.500000
O O12 0.500000 0.438380 0.500000
O O13 0.591492 0.500000 0.470729
O O14 0.596302 0.387608 0.502669
#
# Coordination Sequence:
#
# PCOD9207385 Si02
#       6
#     8   8   8   8   8   8
#     4   9  22  37  61  85 116 162 195 244 298 353
#     4  10  21  37  58  84 115 153 205 252 296 349
#     4  10  23  37  62  89 121 156 198 238 296 361
#     4  10  22  41  59  89 124 159 193 241 299 360
#     4   9  20  38  54  77 114 161 210 253 296 344
#     4  11  21  36  57  86 119 158 199 249 297 351
#
# _framework density 19.612770000000001
#
# number of rings (size 3 to 8) (size 9 to 14) (size 15 to 20)
#    1.000    1.167    0.000    2.500    4.667    3.333 
#    3.000    2.500    0.000    0.500    0.000    2.333 
#    0.000    0.000    0.000    0.000    0.000    0.000 
#
# Total GULP energy -133761.260765 kJ/mol
# GULP energy per Si atom -5573.385865 kJ/mol
# Density = 1.956813 g / cm^3
# Si number density = 19.612770 Si / 1000 Ang^3
#
#
#
# Elastic Constant Matrix: (Units=GPa)
#
#
# Indices 1 2 3 4 5 6 
#
# 1 90.5158 29.1195 22.1426 0.0000 -9.5111 0.0000
# 2 29.1195 91.0940 32.2249 0.0000 -10.0753 0.0000
# 3 22.1426 32.2249 48.6054 0.0000 6.1957 0.0000
# 4 0.0000 0.0000 0.0000 7.7697 0.0000 6.0305
# 5 -9.5111 -10.0753 6.1957 0.0000 30.6870 0.0000
# 6 0.0000 0.0000 0.0000 6.0305 0.0000 26.7954
#
#
#
# Elastic Compliance Matrix: (Units=1/GPa)
#
#
# Indices 1 2 3 4 5 6 
#
# 1 0.013483 -0.001838 -0.005521 0.000000 0.004690 0.000000
# 2 -0.001838 0.016123 -0.010731 0.000000 0.006891 0.000000
# 3 -0.005521 -0.010731 0.031686 0.000000 -0.011632 0.000000
# 4 0.000000 0.000000 0.000000 0.155946 0.000000 -0.035096
# 5 0.004690 0.006891 -0.011632 0.000000 0.038652 0.000000
# 6 0.000000 0.000000 0.000000 -0.035096 0.000000 0.045218
#
#
# Mechanical properties :
#
#
# Convention : Reuss Voigt Hill
#
# Bulk Modulus (GPa) = 39.82145 44.13214 41.97679
# Shear Modulus (GPa) = 14.46515 22.83230 18.64873
#
# Velocity S-wave (km/s) = 2.71871 3.41567 3.08692
# Velocity P-wave (km/s) = 5.49573 6.17303 5.84420
#
# Compressibility (1/GPa) = 0.02511210
#
# Stress axis : x y z
#
# Youngs Moduli (GPa) = 74.16976 62.02198 31.55946
#
# Poissons Ratio (x) = 0.11399 0.17425
# Poissons Ratio (y) = 0.13632 0.33865
# Poissons Ratio (z) = 0.40952 0.66554
#
# Static dielectric constant tensor:
#      x y z
#    x 1.754330 0.000000 0.017650 
#    y 0.000000 1.657730 0.000000 
#    z 0.017650 0.000000 1.728790 
# 
# From -- ./inp_files/21795.got.cif
#   From: 2010.05.17/outbox.cif.g08.bks.cpg/sg12_11_cif.got.tgz:21795.got - 2010.06.03 13:09:07.
