data_PCOD9207343
_publ_section_title
;
Structure prediction by ZEFSAII (Michael W. Deem and Ramdas Pophale) SiO2 
 PCOD9207343
Probable space group: C 2/M
;
_chemical_formula_sum "Si O2"
_cell_formula_units_Z 58
_cell_length_a 14.548924
_cell_length_b 9.207774
_cell_length_c 22.698596
_cell_angle_alpha 90.000000
_cell_angle_beta 99.305699
_cell_angle_gamma 90.000000
_cell_volume 3000.758926
_symmetry_space_group_name_H-M "C 2/M"
_symmetry_group_IT_number 12
_symmetry_cell_setting 'monoclinic'
loop_
_space_group_symop_operation_xyz
x,y,z
-x,y,-z
-x,-y,-z
x,-y,z
1/2+x,1/2+y,z
1/2-x,1/2+y,-z
1/2-x,1/2-y,-z
1/2+x,1/2-y,z
loop_
_atom_site_type_symbol
_atom_site_label
_atom_site_fract_x
_atom_site_fract_y
_atom_site_fract_z
Si Si1 0.923155 0.327950 0.242011
Si Si2 0.110120 0.835010 0.646181
Si Si3 0.264556 0.671436 0.838312
Si Si4 0.297451 0.828862 0.607669
Si Si5 0.881339 0.172828 0.731652
Si Si6 0.563975 0.668089 0.453935
Si Si7 0.690649 0.840296 0.040715
Si Si8 0.000000 0.500000 0.000000
O O1 0.942775 0.500000 0.243619
O O2 0.882168 0.280392 0.301154
O O3 0.844085 0.296592 0.185657
O O4 0.016439 0.235625 0.244922
O O5 0.186553 0.809897 0.603361
O O6 0.007340 0.830561 0.608578
O O7 0.126861 0.000000 0.670385
O O8 0.271920 0.500000 0.852095
O O9 0.319026 0.698207 0.783027
O O10 0.304837 0.762107 0.895998
O O11 0.339378 0.756093 0.671088
O O12 0.345827 0.754520 0.556971
O O13 0.318136 0.000000 0.609402
O O14 0.884362 0.000000 0.720043
O O15 0.500000 0.727384 0.500000
O O16 0.587301 0.500000 0.470292
O O17 0.735317 0.000000 0.051222
O O18 0.584143 0.875504 0.011520
O O19 0.750000 0.750000 0.000000
#
# Coordination Sequence:
#
# PCOD9207343 Si02
#       8
#     8   8   8   8   8   8   8   2
#     4  11  22  37  59  91 124 162 202 250 312 372
#     4  10  21  37  58  83 118 157 200 247 306 375
#     4  10  23  41  62  96 133 163 210 261 308 378
#     4  11  22  36  58  85 117 156 200 252 309 363
#     4  11  22  38  58  87 128 163 202 249 313 379
#     4  10  22  40  60  82 112 156 204 252 309 374
#     4  10  22  44  71  96 135 175 222 272 325 379
#     4   8  24  44  70 102 132 176 230 272 324 386
#
# _framework density 19.328444000000001
#
# number of rings (size 3 to 8) (size 9 to 14) (size 15 to 20)
#    0.414    1.241    2.759    1.655    0.000    4.690 
#    2.483    2.759    0.000    0.000    0.000    0.000 
#    0.000    0.000    0.000    0.000    0.000    0.000 
#
# Total GULP energy -161612.735464 kJ/mol
# GULP energy per Si atom -5572.852947 kJ/mol
# Density = 1.928445 g / cm^3
# Si number density = 19.328444 Si / 1000 Ang^3
#
#
#
# Elastic Constant Matrix: (Units=GPa)
#
#
# Indices 1 2 3 4 5 6 
#
# 1 88.1005 26.6919 7.4398 0.0000 -6.8962 0.0000
# 2 26.6919 55.1804 24.0677 0.0000 -8.9726 0.0000
# 3 7.4398 24.0677 45.6583 0.0000 -2.4217 0.0000
# 4 0.0000 0.0000 0.0000 27.6172 0.0000 -4.5930
# 5 -6.8962 -8.9726 -2.4217 0.0000 17.0961 0.0000
# 6 0.0000 0.0000 0.0000 -4.5930 0.0000 29.5448
#
#
#
# Elastic Compliance Matrix: (Units=1/GPa)
#
#
# Indices 1 2 3 4 5 6 
#
# 1 0.013455 -0.006838 0.001521 0.000000 0.002054 0.000000
# 2 -0.006838 0.029114 -0.013671 0.000000 0.010585 0.000000
# 3 0.001521 -0.013671 0.028728 0.000000 -0.002492 0.000000
# 4 0.000000 0.000000 0.000000 0.037170 0.000000 0.005778
# 5 0.002054 0.010585 -0.002492 0.000000 0.064524 0.000000
# 6 0.000000 0.000000 0.000000 0.005778 0.000000 0.034745
#
#
# Mechanical properties :
#
#
# Convention : Reuss Voigt Hill
#
# Bulk Modulus (GPa) = 30.01107 33.92645 31.96876
# Shear Modulus (GPa) = 19.46898 23.56761 21.51830
#
# Velocity S-wave (km/s) = 3.17720 3.49567 3.34023
# Velocity P-wave (km/s) = 5.38702 5.82097 5.60819
#
# Compressibility (1/GPa) = 0.03332104
#
# Stress axis : x y z
#
# Youngs Moduli (GPa) = 74.32377 34.34783 34.80896
#
# Poissons Ratio (x) = 0.23486 -0.05294
# Poissons Ratio (y) = 0.50820 0.47588
# Poissons Ratio (z) = -0.11304 0.46957
#
# Static dielectric constant tensor:
#      x y z
#    x 1.699010 0.000000 -0.033810 
#    y 0.000000 1.651480 0.000000 
#    z -0.033810 0.000000 1.708260 
# 
# From -- ./inp_files/337946.got.cif
#   From: 2010.05.17/outbox.cif.g08.bks.cpg/sg12_169_cif.got.tgz:337946.got - 2010.06.03 13:09:07.
