data_PCOD9207706
_publ_section_title
;
Structure prediction by ZEFSAII (Michael W. Deem and Ramdas Pophale) SiO2 
 PCOD9207706
Probable space group: C 2/M
;
_chemical_formula_sum "Si O2"
_cell_formula_units_Z 64
_cell_length_a 14.311794
_cell_length_b 9.769757
_cell_length_c 23.405741
_cell_angle_alpha 90.000000
_cell_angle_beta 94.391132
_cell_angle_gamma 90.000000
_cell_volume 3263.048559
_symmetry_space_group_name_H-M "C 2/M"
_symmetry_group_IT_number 12
_symmetry_cell_setting 'monoclinic'
loop_
_space_group_symop_operation_xyz
x,y,z
-x,y,-z
-x,-y,-z
x,-y,z
1/2+x,1/2+y,z
1/2-x,1/2+y,-z
1/2-x,1/2-y,-z
1/2+x,1/2-y,z
loop_
_atom_site_type_symbol
_atom_site_label
_atom_site_fract_x
_atom_site_fract_y
_atom_site_fract_z
Si Si1 0.673960 0.846311 0.786604
Si Si2 0.829560 0.756358 0.088153
Si Si3 0.636829 0.853762 0.032809
Si Si4 0.777465 0.661481 0.701774
Si Si5 0.047740 0.345264 0.216810
Si Si6 0.462091 0.345328 0.889704
Si Si7 0.729851 0.339025 0.411334
Si Si8 0.107328 0.341367 0.487657
O O1 0.691858 0.823806 0.854676
O O2 0.721346 0.728585 0.751697
O O3 0.561689 0.836769 0.773678
O O4 0.704264 0.000000 0.771088
O O5 0.739475 0.842863 0.065786
O O6 0.925059 0.838910 0.103446
O O7 0.850598 0.662573 0.034209
O O8 0.577483 0.731797 0.056952
O O9 0.593285 0.000000 0.044939
O O10 0.756723 0.500000 0.693133
O O11 0.885968 0.674873 0.725848
O O12 0.757474 0.751779 0.645357
O O13 0.065854 0.500000 0.196000
O O14 0.068885 0.238921 0.167559
O O15 0.428923 0.500000 0.886262
O O16 0.710887 0.500000 0.399842
O O17 0.823360 0.330934 0.454695
O O18 0.647525 0.264965 0.443477
O O19 0.113892 0.500000 0.467048
O O20 0.000000 0.315615 0.500000
#
# Coordination Sequence:
#
# PCOD9207706 Si02
#       8
#     8   8   8   8   8   8   8   8
#     4  10  21  39  60  81 107 143 190 238 283 335
#     4  10  23  39  58  81 110 143 182 230 285 344
#     4  11  23  38  58  82 109 143 182 225 281 349
#     4  11  23  39  59  84 117 155 192 233 283 336
#     4   9  21  40  59  79 108 149 191 231 282 345
#     4  11  23  38  58  83 111 142 180 232 289 342
#     4  10  21  37  59  89 122 155 195 240 279 322
#     4   9  19  38  63  89 121 161 197 231 278 331
#
# _framework density 19.613561000000001
#
# number of rings (size 3 to 8) (size 9 to 14) (size 15 to 20)
#    0.000    1.875    0.000    3.000    0.000   12.750 
#    0.000    5.000    0.000    0.000    0.000    0.000 
#    0.000    0.000    0.000    0.000    0.000    0.000 
#
# Total GULP energy -178767.362880 kJ/mol
# GULP energy per Si atom -5586.480090 kJ/mol
# Density = 1.956892 g / cm^3
# Si number density = 19.613561 Si / 1000 Ang^3
#
#
#
# Elastic Constant Matrix: (Units=GPa)
#
#
# Indices 1 2 3 4 5 6 
#
# 1 64.2440 38.3454 21.3699 0.0000 -4.4652 0.0000
# 2 38.3454 149.3643 53.4696 0.0000 0.0710 0.0000
# 3 21.3699 53.4696 79.4914 0.0000 -2.0838 0.0000
# 4 0.0000 0.0000 0.0000 -5.8968 0.0000 -21.7874
# 5 -4.4652 0.0710 -2.0838 0.0000 12.1739 0.0000
# 6 0.0000 0.0000 0.0000 -21.7874 0.0000 10.9201
#
#
#
# Elastic Compliance Matrix: (Units=1/GPa)
#
#
# Indices 1 2 3 4 5 6 
#
# 1 0.019245 -0.004155 -0.002203 0.000000 0.006706 0.000000
# 2 -0.004155 0.009730 -0.005494 0.000000 -0.002521 0.000000
# 3 -0.002203 -0.005494 0.016923 0.000000 0.002121 0.000000
# 4 0.000000 0.000000 0.000000 -0.020257 0.000000 -0.040416
# 5 0.006706 -0.002521 0.002121 0.000000 0.084981 0.000000
# 6 0.000000 0.000000 0.000000 -0.040416 0.000000 0.010939
#
#
# Mechanical properties :
#
#
# Convention : Reuss Voigt Hill
#
# Bulk Modulus (GPa) = 45.05728 57.71885 51.38806
# Shear Modulus (GPa) = 32.75234 15.43374 24.09304
#
# Velocity S-wave (km/s) = 4.09085 2.80820 3.50864
# Velocity P-wave (km/s) = 6.73319 6.32508 6.53232
#
# Compressibility (1/GPa) = 0.02219397
#
# Stress axis : x y z
#
# Youngs Moduli (GPa) = 51.96267 102.77927 59.09108
#
# Poissons Ratio (x) = 0.42707 0.13017
# Poissons Ratio (y) = 0.21591 0.32462
# Poissons Ratio (z) = 0.11446 0.56463
#
# Static dielectric constant tensor:
#      x y z
#    x 1.694770 0.000000 0.012010 
#    y 0.000000 1.682870 0.000000 
#    z 0.012010 0.000000 1.666550 
# 
# From -- ./inp_files/338795.got.cif
#   From: 2010.05.17/outbox.cif.g08.bks.cpg/sg12_170_cif.got.tgz:338795.got - 2010.06.03 13:09:07.
