data_PCOD9207955
_publ_section_title
;
Structure prediction by ZEFSAII (Michael W. Deem and Ramdas Pophale) SiO2 
 PCOD9207955
Probable space group: C 2/M
;
_chemical_formula_sum "Si O2"
_cell_formula_units_Z 44
_cell_length_a 8.986828
_cell_length_b 15.394565
_cell_length_c 15.533680
_cell_angle_alpha 90.000000
_cell_angle_beta 88.413435
_cell_angle_gamma 90.000000
_cell_volume 2148.234467
_symmetry_space_group_name_H-M "C 2/M"
_symmetry_group_IT_number 12
_symmetry_cell_setting 'monoclinic'
loop_
_space_group_symop_operation_xyz
x,y,z
-x,y,-z
-x,-y,-z
x,-y,z
1/2+x,1/2+y,z
1/2-x,1/2+y,-z
1/2-x,1/2-y,-z
1/2+x,1/2-y,z
loop_
_atom_site_type_symbol
_atom_site_label
_atom_site_fract_x
_atom_site_fract_y
_atom_site_fract_z
Si Si1 0.000000 0.253805 0.500000
Si Si2 0.790881 0.350269 0.080848
Si Si3 0.142612 0.093648 0.245841
Si Si4 0.857022 0.660875 0.893387
Si Si5 0.292510 0.601066 0.280189
Si Si6 0.740521 0.221760 0.621979
O O1 0.875583 0.202191 0.554775
O O2 0.908111 0.301910 0.427251
O O3 0.701850 0.408611 0.148455
O O4 0.706853 0.258107 0.093789
O O5 0.963868 0.339596 0.105148
O O6 0.795605 0.382515 0.982262
O O7 0.233559 0.167389 0.293352
O O8 0.967151 0.112028 0.253896
O O9 0.168410 0.000000 0.287488
O O10 0.800281 0.621074 0.805096
O O11 0.269097 0.500000 0.306651
O O12 0.259959 0.676261 0.351139
#
# Coordination Sequence:
#
# PCOD9207955 Si02
#       6
#     4   8   8   8   8   8
#     4  10  24  42  74  88 124 160 204 252 332 374
#     4  10  21  37  60  92 129 171 215 259 305 360
#     4  11  24  41  65  95 130 170 209 256 312 373
#     4  10  21  37  60  92 129 171 215 259 305 360
#     4  11  24  41  65  95 130 170 209 256 312 373
#     4  11  22  46  65  98 120 164 201 262 312 387
#
# _framework density 20.481936000000001
#
# number of rings (size 3 to 8) (size 9 to 14) (size 15 to 20)
#    0.000    1.455    3.636    1.091    2.545    3.636 
#    0.000    9.091    0.000    0.000    0.000    0.000 
#    0.000    0.000    0.000    0.000    0.000    0.000 
#
# Total GULP energy -122723.443312 kJ/mol
# GULP energy per Si atom -5578.338332 kJ/mol
# Density = 2.043532 g / cm^3
# Si number density = 20.481936 Si / 1000 Ang^3
#
#
#
# Elastic Constant Matrix: (Units=GPa)
#
#
# Indices 1 2 3 4 5 6 
#
# 1 71.8571 14.2926 25.4333 0.0000 2.6325 0.0000
# 2 14.2926 86.4019 28.8774 0.0000 0.4456 0.0000
# 3 25.4333 28.8774 91.5839 0.0000 4.3783 0.0000
# 4 0.0000 0.0000 0.0000 -6.8699 0.0000 -5.9843
# 5 2.6325 0.4456 4.3783 0.0000 40.9921 0.0000
# 6 0.0000 0.0000 0.0000 -5.9843 0.0000 -96.6045
#
#
#
# Elastic Compliance Matrix: (Units=1/GPa)
#
#
# Indices 1 2 3 4 5 6 
#
# 1 0.015569 -0.001270 -0.003896 0.000000 -0.000570 0.000000
# 2 -0.001270 0.013044 -0.003777 0.000000 0.000343 0.000000
# 3 -0.003896 -0.003777 0.013245 0.000000 -0.001123 0.000000
# 4 0.000000 0.000000 0.000000 -0.153866 0.000000 0.009531
# 5 -0.000570 0.000343 -0.001123 0.000000 0.024548 0.000000
# 6 0.000000 0.000000 0.000000 0.009531 0.000000 -0.010942
#
#
# Mechanical properties :
#
#
# Convention : Reuss Voigt Hill
#
# Bulk Modulus (GPa) = 41.71347 43.00551 42.35949
# Shear Modulus (GPa) = -68.94254 -0.41382 -34.67818
#
# Velocity S-wave (km/s) = -5.80803 -0.44998 -4.11921
# Velocity P-wave (km/s) = 4.95656 4.55768 1.37751
#
# Compressibility (1/GPa) = 0.02397307
#
# Stress axis : x y z
#
# Youngs Moduli (GPa) = 64.23038 76.66098 75.49824
#
# Poissons Ratio (x) = 0.09739 0.29412
# Poissons Ratio (y) = 0.08160 0.28513
# Poissons Ratio (z) = 0.25023 0.28952
#
# Static dielectric constant tensor:
#      x y z
#    x 1.718010 0.000000 0.020340 
#    y 0.000000 1.805680 0.000000 
#    z 0.020340 0.000000 1.746360 
# 
# From -- ./inp_files/195517.got.cif
#   From: 2010.05.17/outbox.cif.g08.bks.cpg/sg12_98_cif.got.tgz:195517.got - 2010.06.03 13:09:07.
