data_PCOD9207500
_publ_section_title
;
Structure prediction by ZEFSAII (Michael W. Deem and Ramdas Pophale) SiO2 
 PCOD9207500
Probable space group: C 2/M
;
_chemical_formula_sum "Si O2"
_cell_formula_units_Z 64
_cell_length_a 14.654478
_cell_length_b 8.903612
_cell_length_c 32.399905
_cell_angle_alpha 90.000000
_cell_angle_beta 127.376253
_cell_angle_gamma 90.000000
_cell_volume 3359.426202
_symmetry_space_group_name_H-M "C 2/M"
_symmetry_group_IT_number 12
_symmetry_cell_setting 'monoclinic'
loop_
_space_group_symop_operation_xyz
x,y,z
-x,y,-z
-x,-y,-z
x,-y,z
1/2+x,1/2+y,z
1/2-x,1/2+y,-z
1/2-x,1/2-y,-z
1/2+x,1/2-y,z
loop_
_atom_site_type_symbol
_atom_site_label
_atom_site_fract_x
_atom_site_fract_y
_atom_site_fract_z
Si Si1 0.256891 0.676093 0.621282
Si Si2 0.910450 0.179159 0.938606
Si Si3 0.693197 0.321520 0.778877
Si Si4 0.982239 0.323057 0.410399
Si Si5 0.668809 0.678622 0.512600
Si Si6 0.955268 0.680908 0.862115
Si Si7 0.486328 0.178833 0.674487
Si Si8 0.335499 0.320341 0.131809
O O1 0.274316 0.500000 0.618098
O O2 0.154609 0.693107 0.625820
O O3 0.207992 0.753142 0.566602
O O4 0.376567 0.749696 0.666557
O O5 0.955180 0.254340 0.908595
O O6 0.786196 0.249189 0.914968
O O7 0.898449 0.000000 0.929110
O O8 0.000000 0.205360 0.000000
O O9 0.682211 0.500000 0.768980
O O10 0.827274 0.281009 0.810162
O O11 0.604892 0.236142 0.725639
O O12 0.660024 0.291838 0.817611
O O13 0.008978 0.500000 0.424584
O O14 0.043077 0.228372 0.462744
O O15 0.024320 0.277897 0.376701
O O16 0.679526 0.500000 0.516544
O O17 0.750000 0.750000 0.500000
O O18 0.964280 0.500000 0.865914
O O19 0.057421 0.749326 0.862948
O O20 0.481161 0.000000 0.675216
O O21 0.333438 0.500000 0.125119
#
# Coordination Sequence:
#
# PCOD9207500 Si02
#       8
#     8   8   8   8   8   8   8   8
#     4  11  23  40  61  84 114 151 185 231 284 337
#     4  10  21  37  58  87 123 161 201 246 294 347
#     4   9  21  40  59  82 114 150 191 241 294 345
#     4  10  23  41  59  83 115 148 185 228 281 340
#     4  12  23  37  60  86 113 148 186 228 280 339
#     4  10  21  38  61  88 118 156 200 247 295 349
#     4  11  23  39  60  85 114 149 189 236 285 343
#     4  10  21  38  61  87 117 157 201 246 295 350
#
# _framework density 19.050871999999998
#
# number of rings (size 3 to 8) (size 9 to 14) (size 15 to 20)
#    0.000    1.625    1.250    4.125    0.000    8.500 
#    0.000    3.750    0.000    0.000    0.000    0.000 
#    0.000    0.000    0.000    0.000    0.000    0.000 
#
# Total GULP energy -178791.689019 kJ/mol
# GULP energy per Si atom -5587.240282 kJ/mol
# Density = 1.900751 g / cm^3
# Si number density = 19.050872 Si / 1000 Ang^3
#
#
#
# Elastic Constant Matrix: (Units=GPa)
#
#
# Indices 1 2 3 4 5 6 
#
# 1 126.1877 46.7647 33.5107 0.0000 20.9852 0.0000
# 2 46.7647 74.5686 48.4634 0.0000 13.3304 0.0000
# 3 33.5107 48.4634 81.9691 0.0000 24.3633 0.0000
# 4 0.0000 0.0000 0.0000 34.5414 0.0000 4.8356
# 5 20.9852 13.3304 24.3633 0.0000 16.8175 0.0000
# 6 0.0000 0.0000 0.0000 4.8356 0.0000 30.7691
#
#
#
# Elastic Compliance Matrix: (Units=1/GPa)
#
#
# Indices 1 2 3 4 5 6 
#
# 1 0.012130 -0.007466 0.003855 0.000000 -0.014802 0.000000
# 2 -0.007466 0.026432 -0.016012 0.000000 0.011561 0.000000
# 3 0.003855 -0.016012 0.031169 0.000000 -0.037273 0.000000
# 4 0.000000 0.000000 0.000000 0.029602 0.000000 -0.004652
# 5 -0.014802 0.011561 -0.037273 0.000000 0.122765 0.000000
# 6 0.000000 0.000000 0.000000 -0.004652 0.000000 0.033231
#
#
# Mechanical properties :
#
#
# Convention : Reuss Voigt Hill
#
# Bulk Modulus (GPa) = 32.80295 60.02258 46.41276
# Shear Modulus (GPa) = 16.40761 26.69136 21.54948
#
# Velocity S-wave (km/s) = 2.93789 3.74713 3.36691
# Velocity P-wave (km/s) = 5.36323 7.09198 6.28731
#
# Compressibility (1/GPa) = 0.03048506
#
# Stress axis : x y z
#
# Youngs Moduli (GPa) = 82.44334 37.83231 32.08337
#
# Poissons Ratio (x) = 0.28247 -0.12369
# Poissons Ratio (y) = 0.61554 0.51371
# Poissons Ratio (z) = -0.31783 0.60576
#
# Static dielectric constant tensor:
#      x y z
#    x 1.683980 0.000000 0.021190 
#    y 0.000000 1.636830 0.000000 
#    z 0.021190 0.000000 1.643850 
# 
# From -- ./inp_files/375578.got.cif
#   From: 2010.05.17/outbox.cif.g08.bks.cpg/sg12_188_cif.got.tgz:375578.got - 2010.06.03 13:09:07.
