data_PCOD9207947
_publ_section_title
;
Structure prediction by ZEFSAII (Michael W. Deem and Ramdas Pophale) SiO2 
 PCOD9207947
Probable space group: C 2/M
;
_chemical_formula_sum "Si O2"
_cell_formula_units_Z 56
_cell_length_a 23.443408
_cell_length_b 13.786575
_cell_length_c 9.506548
_cell_angle_alpha 90.000000
_cell_angle_beta 65.677081
_cell_angle_gamma 90.000000
_cell_volume 2799.832715
_symmetry_space_group_name_H-M "C 2/M"
_symmetry_group_IT_number 12
_symmetry_cell_setting 'monoclinic'
loop_
_space_group_symop_operation_xyz
x,y,z
-x,y,-z
-x,-y,-z
x,-y,z
1/2+x,1/2+y,z
1/2-x,1/2+y,-z
1/2-x,1/2-y,-z
1/2+x,1/2-y,z
loop_
_atom_site_type_symbol
_atom_site_label
_atom_site_fract_x
_atom_site_fract_y
_atom_site_fract_z
Si Si1 0.143307 0.384011 0.060680
Si Si2 0.143994 0.246651 0.556587
Si Si3 0.226679 0.882976 0.941545
Si Si4 0.930268 0.732884 0.089951
Si Si5 0.584219 0.385554 0.125808
Si Si6 0.243289 0.884357 0.600878
Si Si7 0.936109 0.268270 0.635013
O O1 0.141920 0.500000 0.051375
O O2 0.213632 0.350774 0.029248
O O3 0.097697 0.346690 0.231153
O O4 0.118370 0.333959 0.945261
O O5 0.091446 0.257297 0.729124
O O6 0.189469 0.158974 0.556080
O O7 0.190138 0.339341 0.508630
O O8 0.111515 0.237934 0.439362
O O9 0.230158 0.850446 0.775305
O O10 0.231910 0.000000 0.928953
O O11 0.158319 0.864521 0.073408
O O12 0.930174 0.836438 0.009482
O O13 0.000000 0.692306 0.000000
O O14 0.573059 0.500000 0.139418
O O15 0.549379 0.324159 0.280362
O O16 0.243797 0.000000 0.595703
O O17 0.000000 0.304429 0.500000
#
# Coordination Sequence:
#
# PCOD9207947 Si02
#       7
#     8   8   8   8   8   8   8
#     4  10  22  41  65  89 117 158 201 247 298 352
#     4  11  22  38  62  92 124 159 190 248 314 343
#     4   9  17  36  64  90 113 147 199 245 295 360
#     4  11  24  41  60  88 124 160 205 244 286 357
#     4  10  22  41  65  89 117 158 201 247 298 352
#     4  10  21  37  60  92 124 154 194 246 306 366
#     4  11  24  41  60  88 124 160 205 244 286 357
#
# _framework density 20.001194000000002
#
# number of rings (size 3 to 8) (size 9 to 14) (size 15 to 20)
#    0.000    1.714    2.857    1.714    0.000    6.857 
#    0.000    4.286    0.000    0.000    0.000    0.000 
#    0.000    0.000    0.000    0.000    0.000    0.000 
#
# Total GULP energy -156451.865877 kJ/mol
# GULP energy per Si atom -5587.566638 kJ/mol
# Density = 1.995567 g / cm^3
# Si number density = 20.001194 Si / 1000 Ang^3
#
#
#
# Elastic Constant Matrix: (Units=GPa)
#
#
# Indices 1 2 3 4 5 6 
#
# 1 61.7720 8.4055 -6.2860 0.0000 0.6375 0.0000
# 2 8.4055 85.0109 9.1234 0.0000 10.6222 0.0000
# 3 -6.2860 9.1234 71.1085 0.0000 3.2317 0.0000
# 4 0.0000 0.0000 0.0000 18.4459 0.0000 0.1868
# 5 0.6375 10.6222 3.2317 0.0000 32.4737 0.0000
# 6 0.0000 0.0000 0.0000 0.1868 0.0000 18.4127
#
#
#
# Elastic Compliance Matrix: (Units=1/GPa)
#
#
# Indices 1 2 3 4 5 6 
#
# 1 0.016610 -0.001838 0.001699 0.000000 0.000106 0.000000
# 2 -0.001838 0.012608 -0.001602 0.000000 -0.003929 0.000000
# 3 0.001699 -0.001602 0.014462 0.000000 -0.000949 0.000000
# 4 0.000000 0.000000 0.000000 0.054218 0.000000 -0.000550
# 5 0.000106 -0.003929 -0.000949 0.000000 0.032172 0.000000
# 6 0.000000 0.000000 0.000000 -0.000550 0.000000 0.054316
#
#
# Mechanical properties :
#
#
# Convention : Reuss Voigt Hill
#
# Bulk Modulus (GPa) = 24.87579 26.70857 25.79218
# Shear Modulus (GPa) = 24.84276 27.64303 26.24289
#
# Velocity S-wave (km/s) = 3.52812 3.72165 3.62618
# Velocity P-wave (km/s) = 5.39082 5.64359 5.51865
#
# Compressibility (1/GPa) = 0.04019973
#
# Stress axis : x y z
#
# Youngs Moduli (GPa) = 60.20290 79.31672 69.14749
#
# Poissons Ratio (x) = 0.14578 -0.11751
# Poissons Ratio (y) = 0.11065 0.11074
# Poissons Ratio (z) = -0.10231 0.12703
#
# Static dielectric constant tensor:
#      x y z
#    x 1.721450 0.000000 -0.011860 
#    y 0.000000 1.694570 0.000000 
#    z -0.011860 0.000000 1.693850 
# 
# From -- ./inp_files/96289.got.cif
#   From: 2010.05.17/outbox.cif.g08.bks.cpg/sg12_49_cif.got.tgz:96289.got - 2010.06.03 13:09:07.
