data_PCOD9207674
_publ_section_title
;
Structure prediction by ZEFSAII (Michael W. Deem and Ramdas Pophale) SiO2 
 PCOD9207674
Probable space group: C 2/M
;
_chemical_formula_sum "Si O2"
_cell_formula_units_Z 64
_cell_length_a 20.062121
_cell_length_b 18.698414
_cell_length_c 8.272182
_cell_angle_alpha 90.000000
_cell_angle_beta 82.117029
_cell_angle_gamma 90.000000
_cell_volume 3073.818486
_symmetry_space_group_name_H-M "C 2/M"
_symmetry_group_IT_number 12
_symmetry_cell_setting 'monoclinic'
loop_
_space_group_symop_operation_xyz
x,y,z
-x,y,-z
-x,-y,-z
x,-y,z
1/2+x,1/2+y,z
1/2-x,1/2+y,-z
1/2-x,1/2-y,-z
1/2+x,1/2-y,z
loop_
_atom_site_type_symbol
_atom_site_label
_atom_site_fract_x
_atom_site_fract_y
_atom_site_fract_z
Si Si1 0.510090 0.225504 0.692145
Si Si2 0.639901 0.079979 0.387897
Si Si3 0.630171 0.780432 0.169032
Si Si4 0.655008 0.294990 0.669652
Si Si5 0.776094 0.078406 0.206702
Si Si6 0.272222 0.680751 0.664603
Si Si7 0.313734 0.889115 0.072622
Si Si8 0.435487 0.923311 0.244320
O O1 0.500000 0.220739 0.500000
O O2 0.442643 0.255644 0.797582
O O3 0.578747 0.268860 0.699250
O O4 0.520158 0.147305 0.769391
O O5 0.621238 0.148606 0.286429
O O6 0.720847 0.084047 0.369111
O O7 0.604890 0.083628 0.572714
O O8 0.624150 0.000000 0.327432
O O9 0.686649 0.730657 0.225687
O O10 0.658757 0.810957 0.992524
O O11 0.676770 0.352476 0.797620
O O12 0.675093 0.333319 0.494644
O O13 0.705486 0.226931 0.641805
O O14 0.808558 0.000000 0.201089
O O15 0.726711 0.081926 0.067706
O O16 0.240903 0.614439 0.768142
O O17 0.381029 0.923651 0.119388
O O18 0.471547 0.000000 0.232933
#
# Coordination Sequence:
#
# PCOD9207674 Si02
#       8
#     8   8   8   8   8   8   8   8
#     4  12  23  39  58  86 119 153 199 240 291 343
#     4   9  17  32  55  80 110 154 200 234 276 332
#     4  11  22  37  56  84 119 155 190 241 291 351
#     4  11  21  37  65  87 116 150 200 248 290 339
#     4  10  21  37  59  88 117 151 192 243 300 349
#     4  11  20  36  61  89 114 151 195 250 291 333
#     4  11  22  36  58  87 122 153 193 239 291 348
#     4  11  22  36  55  81 119 164 202 235 274 338
#
# _framework density 20.821010000000001
#
# number of rings (size 3 to 8) (size 9 to 14) (size 15 to 20)
#    0.000    1.250    6.250    1.500    0.000    1.750 
#    0.000    1.250    0.000    0.375    0.000    0.875 
#    0.000    0.000    0.000    0.000    0.000    0.000 
#
# Total GULP energy -178579.647181 kJ/mol
# GULP energy per Si atom -5580.613974 kJ/mol
# Density = 2.077362 g / cm^3
# Si number density = 20.821010 Si / 1000 Ang^3
#
#
#
# Elastic Constant Matrix: (Units=GPa)
#
#
# Indices 1 2 3 4 5 6 
#
# 1 114.1874 23.3645 2.6525 0.0000 6.8753 0.0000
# 2 23.3645 47.0394 -10.9923 0.0000 16.8291 0.0000
# 3 2.6525 -10.9923 40.9102 0.0000 2.7324 0.0000
# 4 0.0000 0.0000 0.0000 4.7783 0.0000 -5.5310
# 5 6.8753 16.8291 2.7324 0.0000 27.7478 0.0000
# 6 0.0000 0.0000 0.0000 -5.5310 0.0000 0.2489
#
#
#
# Elastic Compliance Matrix: (Units=1/GPa)
#
#
# Indices 1 2 3 4 5 6 
#
# 1 0.009954 -0.005994 -0.002350 0.000000 0.001401 0.000000
# 2 -0.005994 0.034009 0.010877 0.000000 -0.020212 0.000000
# 3 -0.002350 0.010877 0.028105 0.000000 -0.008782 0.000000
# 4 0.000000 0.000000 0.000000 -0.008464 0.000000 -0.188111
# 5 0.001401 -0.020212 -0.008782 0.000000 0.048816 0.000000
# 6 0.000000 0.000000 0.000000 -0.188111 0.000000 -0.162510
#
#
# Mechanical properties :
#
#
# Convention : Reuss Voigt Hill
#
# Bulk Modulus (GPa) = 12.96446 25.79850 19.38148
# Shear Modulus (GPa) = -169.81785 19.02914 -75.39436
#
# Velocity S-wave (km/s) = -9.04090 3.02642 -6.02406
# Velocity P-wave (km/s) = 10.13626 4.96284 6.24955
#
# Compressibility (1/GPa) = 0.07713393
#
# Stress axis : x y z
#
# Youngs Moduli (GPa) = 100.45860 29.40376 35.58066
#
# Poissons Ratio (x) = 0.17626 0.08360
# Poissons Ratio (y) = 0.60220 -0.38700
# Poissons Ratio (z) = 0.23604 -0.31982
#
# Static dielectric constant tensor:
#      x y z
#    x 1.740670 0.000000 0.009230 
#    y 0.000000 1.800300 0.000000 
#    z 0.009230 0.000000 1.861750 
# 
# From -- ./inp_files/87976.got.cif
#   From: 2010.05.17/outbox.cif.g08.bks.cpg/sg12_44_cif.got.tgz:87976.got - 2010.06.03 13:09:07.
