data_PCOD9207711
_publ_section_title
;
Structure prediction by ZEFSAII (Michael W. Deem and Ramdas Pophale) SiO2 
 PCOD9207711
Probable space group: C 2/M
;
_chemical_formula_sum "Si O2"
_cell_formula_units_Z 64
_cell_length_a 33.672380
_cell_length_b 16.187183
_cell_length_c 9.750231
_cell_angle_alpha 90.000000
_cell_angle_beta 143.045068
_cell_angle_gamma 90.000000
_cell_volume 3194.988637
_symmetry_space_group_name_H-M "C 2/M"
_symmetry_group_IT_number 12
_symmetry_cell_setting 'monoclinic'
loop_
_space_group_symop_operation_xyz
x,y,z
-x,y,-z
-x,-y,-z
x,-y,z
1/2+x,1/2+y,z
1/2-x,1/2+y,-z
1/2-x,1/2-y,-z
1/2+x,1/2-y,z
loop_
_atom_site_type_symbol
_atom_site_label
_atom_site_fract_x
_atom_site_fract_y
_atom_site_fract_z
Si Si1 0.958955 0.592143 0.246923
Si Si2 0.427655 0.405589 0.229635
Si Si3 0.260610 0.682271 0.193838
Si Si4 0.208998 0.860579 0.008135
Si Si5 0.812186 0.593453 0.775862
Si Si6 0.336879 0.095321 0.533946
Si Si7 0.536845 0.732320 0.887153
Si Si8 0.404554 0.749244 0.650741
O O1 0.974638 0.500000 0.231353
O O2 0.967385 0.673886 0.179932
O O3 0.000000 0.600757 0.500000
O O4 0.879975 0.591592 0.049481
O O5 0.500000 0.400706 0.500000
O O6 0.421457 0.500000 0.157902
O O7 0.363875 0.390609 0.151480
O O8 0.429595 0.332244 0.123098
O O9 0.265783 0.622398 0.076916
O O10 0.238305 0.644031 0.274521
O O11 0.334172 0.714431 0.417660
O O12 0.213366 0.760484 0.031944
O O13 0.265672 0.894757 0.265446
O O14 0.788245 0.500000 0.691130
O O15 0.827965 0.625096 0.666845
O O16 0.391696 0.152005 0.612594
O O17 0.356624 0.000000 0.590760
O O18 0.460176 0.713095 0.705314
O O19 0.573201 0.729693 0.133357
#
# Coordination Sequence:
#
# PCOD9207711 Si02
#       8
#     8   8   8   8   8   8   8   8
#     4  10  21  37  61  93 126 162 202 247 307 379
#     4  11  24  41  63  87 118 163 213 262 309 362
#     4  10  22  40  59  90 123 159 200 256 315 366
#     4  10  22  38  63  90 120 157 207 258 310 369
#     4  10  21  37  59  89 123 160 200 245 306 371
#     4  10  21  38  61  92 126 159 201 251 304 378
#     4  11  22  40  61  89 122 162 208 257 307 372
#     4  10  23  38  61  88 119 160 206 250 313 370
#
# _framework density 20.031371
#
# number of rings (size 3 to 8) (size 9 to 14) (size 15 to 20)
#    0.000    1.750    1.250    2.250    1.750    5.500 
#    0.000    4.375    0.000    0.000    0.000    0.000 
#    0.000    0.000    0.000    0.000    0.000    0.000 
#
# Total GULP energy -178458.518443 kJ/mol
# GULP energy per Si atom -5576.828701 kJ/mol
# Density = 1.998578 g / cm^3
# Si number density = 20.031371 Si / 1000 Ang^3
#
#
#
# Elastic Constant Matrix: (Units=GPa)
#
#
# Indices 1 2 3 4 5 6 
#
# 1 50.5268 26.2331 5.6569 0.0000 4.3781 0.0000
# 2 26.2331 58.3276 6.8408 0.0000 -3.2519 0.0000
# 3 5.6569 6.8408 76.9232 0.0000 4.3244 0.0000
# 4 0.0000 0.0000 0.0000 16.1679 0.0000 3.6670
# 5 4.3781 -3.2519 4.3244 0.0000 23.5021 0.0000
# 6 0.0000 0.0000 0.0000 3.6670 0.0000 8.2361
#
#
#
# Elastic Compliance Matrix: (Units=1/GPa)
#
#
# Indices 1 2 3 4 5 6 
#
# 1 0.026853 -0.012388 -0.000501 0.000000 -0.006624 0.000000
# 2 -0.012388 0.023212 -0.001479 0.000000 0.005792 0.000000
# 3 -0.000501 -0.001479 0.013312 0.000000 -0.002561 0.000000
# 4 0.000000 0.000000 0.000000 0.068798 0.000000 -0.030631
# 5 -0.006624 0.005792 -0.002561 0.000000 0.045056 0.000000
# 6 0.000000 0.000000 0.000000 -0.030631 0.000000 0.135054
#
#
# Mechanical properties :
#
#
# Convention : Reuss Voigt Hill
#
# Bulk Modulus (GPa) = 28.86596 29.24879 29.05737
# Shear Modulus (GPa) = 14.18161 19.38434 16.78297
#
# Velocity S-wave (km/s) = 2.66366 3.11416 2.89768
# Velocity P-wave (km/s) = 4.88894 5.25013 5.07275
#
# Compressibility (1/GPa) = 0.03464288
#
# Stress axis : x y z
#
# Youngs Moduli (GPa) = 37.23934 43.08031 75.11859
#
# Poissons Ratio (x) = 0.53368 0.03761
# Poissons Ratio (y) = 0.46132 0.11109
# Poissons Ratio (z) = 0.01865 0.06371
#
# Static dielectric constant tensor:
#      x y z
#    x 1.721930 0.000000 -0.005590 
#    y 0.000000 1.743280 0.000000 
#    z -0.005590 0.000000 1.709450 
# 
# From -- ./inp_files/112900.got.cif
#   From: 2010.05.17/outbox.cif.g08.bks.cpg/sg12_57_cif.got.tgz:112900.got - 2010.06.03 13:09:07.
