data_PCOD9207054
_publ_section_title
;
Structure prediction by ZEFSAII (Michael W. Deem and Ramdas Pophale) SiO2 
 PCOD9207054
Probable space group: C 2/M
;
_chemical_formula_sum "Si O2"
_cell_formula_units_Z 48
_cell_length_a 18.431306
_cell_length_b 10.741816
_cell_length_c 12.435341
_cell_angle_alpha 90.000000
_cell_angle_beta 76.237035
_cell_angle_gamma 90.000000
_cell_volume 2391.330798
_symmetry_space_group_name_H-M "C 2/M"
_symmetry_group_IT_number 12
_symmetry_cell_setting 'monoclinic'
loop_
_space_group_symop_operation_xyz
x,y,z
-x,y,-z
-x,-y,-z
x,-y,z
1/2+x,1/2+y,z
1/2-x,1/2+y,-z
1/2-x,1/2-y,-z
1/2+x,1/2-y,z
loop_
_atom_site_type_symbol
_atom_site_label
_atom_site_fract_x
_atom_site_fract_y
_atom_site_fract_z
Si Si1 0.536316 0.142063 0.092802
Si Si2 0.204512 0.351054 0.085317
Si Si3 0.875141 0.359228 0.559164
Si Si4 0.457003 0.367421 0.628256
Si Si5 0.278335 0.642079 0.293571
Si Si6 0.075576 0.278380 0.693753
O O1 0.617112 0.186825 0.104849
O O2 0.473847 0.143289 0.206969
O O3 0.552795 0.000000 0.056328
O O4 0.500000 0.205460 0.000000
O O5 0.213290 0.500000 0.052642
O O6 0.235750 0.342574 0.195582
O O7 0.250000 0.250000 0.000000
O O8 0.892682 0.500000 0.590194
O O9 0.907161 0.254201 0.627048
O O10 0.785788 0.345118 0.593339
O O11 0.908548 0.339199 0.428429
O O12 0.500000 0.377174 0.500000
O O13 0.418343 0.500000 0.662370
O O14 0.521505 0.339336 0.690652
O O15 0.306776 0.500000 0.289062
O O16 0.345981 0.735888 0.285548
#
# Coordination Sequence:
#
# PCOD9207054 Si02
#       6
#     8   8   8   8   8   8
#     4  10  21  37  58  85 117 151 189 237 292 342
#     4  10  21  40  63  85 114 152 191 235 288 343
#     4  10  21  37  59  86 116 152 195 238 281 337
#     4   9  19  34  53  78 110 148 186 229 283 336
#     4  10  21  37  56  82 118 157 191 232 289 342
#     4  11  20  34  58  84 114 151 195 238 281 338
#
# _framework density 20.072505
#
# number of rings (size 3 to 8) (size 9 to 14) (size 15 to 20)
#    0.000    2.000    0.000    3.500    0.000    5.667 
#    0.000    6.667    0.000    4.500    0.000    0.000 
#    0.000    0.000    0.000    0.000    0.000    0.000 
#
# Total GULP energy -133746.467402 kJ/mol
# GULP energy per Si atom -5572.769475 kJ/mol
# Density = 2.002682 g / cm^3
# Si number density = 20.072505 Si / 1000 Ang^3
#
#
#
# Elastic Constant Matrix: (Units=GPa)
#
#
# Indices 1 2 3 4 5 6 
#
# 1 132.0650 57.7242 31.4554 0.0000 1.2806 0.0000
# 2 57.7242 112.0340 22.4609 0.0000 1.0642 0.0000
# 3 31.4554 22.4609 72.0592 0.0000 -4.3557 0.0000
# 4 0.0000 0.0000 0.0000 280.0663 0.0000 18.0050
# 5 1.2806 1.0642 -4.3557 0.0000 31.9417 0.0000
# 6 0.0000 0.0000 0.0000 18.0050 0.0000 27.2251
#
#
#
# Elastic Compliance Matrix: (Units=1/GPa)
#
#
# Indices 1 2 3 4 5 6 
#
# 1 0.010380 -0.004720 -0.003101 0.000000 -0.000682 0.000000
# 2 -0.004720 0.011684 -0.001607 0.000000 -0.000419 0.000000
# 3 -0.003101 -0.001607 0.015874 0.000000 0.002342 0.000000
# 4 0.000000 0.000000 0.000000 0.003729 0.000000 -0.002466
# 5 -0.000682 -0.000419 0.002342 0.000000 0.031668 0.000000
# 6 0.000000 0.000000 0.000000 -0.002466 0.000000 0.038362
#
#
# Mechanical properties :
#
#
# Convention : Reuss Voigt Hill
#
# Bulk Modulus (GPa) = 52.40613 59.93768 56.17191
# Shear Modulus (GPa) = 36.51935 81.48115 59.00025
#
# Velocity S-wave (km/s) = 4.27004 6.37821 5.42746
# Velocity P-wave (km/s) = 7.10465 9.17428 8.20498
#
# Compressibility (1/GPa) = 0.01908174
#
# Stress axis : x y z
#
# Youngs Moduli (GPa) = 96.33518 85.58728 62.99743
#
# Poissons Ratio (x) = 0.40399 0.19537
# Poissons Ratio (y) = 0.45472 0.10122
# Poissons Ratio (z) = 0.29876 0.13752
#
# Static dielectric constant tensor:
#      x y z
#    x 1.724750 0.000000 0.019000 
#    y 0.000000 1.747260 0.000000 
#    z 0.019000 0.000000 1.726510 
# 
# From -- ./inp_files/153528.got.cif
#   From: 2010.05.17/outbox.cif.g08.bks.cpg/sg12_77_cif.got.tgz:153528.got - 2010.06.03 13:09:07.
