data_PCOD9207851
_publ_section_title
;
Structure prediction by ZEFSAII (Michael W. Deem and Ramdas Pophale) SiO2 
 PCOD9207851
Probable space group: C 2/M
;
_chemical_formula_sum "Si O2"
_cell_formula_units_Z 56
_cell_length_a 25.798217
_cell_length_b 8.832784
_cell_length_c 12.443182
_cell_angle_alpha 90.000000
_cell_angle_beta 93.357572
_cell_angle_gamma 90.000000
_cell_volume 2830.561762
_symmetry_space_group_name_H-M "C 2/M"
_symmetry_group_IT_number 12
_symmetry_cell_setting 'monoclinic'
loop_
_space_group_symop_operation_xyz
x,y,z
-x,y,-z
-x,-y,-z
x,-y,z
1/2+x,1/2+y,z
1/2-x,1/2+y,-z
1/2-x,1/2-y,-z
1/2+x,1/2-y,z
loop_
_atom_site_type_symbol
_atom_site_label
_atom_site_fract_x
_atom_site_fract_y
_atom_site_fract_z
Si Si1 0.556150 0.681439 0.755423
Si Si2 0.551464 0.181657 0.297782
Si Si3 0.199618 0.678120 0.548199
Si Si4 0.149985 0.681887 0.169662
Si Si5 0.261860 0.177807 0.206890
Si Si6 0.643028 0.183429 0.921540
Si Si7 0.088779 0.180604 0.515815
O O1 0.554763 0.500000 0.763157
O O2 0.499251 0.750742 0.764788
O O3 0.597900 0.747466 0.843132
O O4 0.572684 0.721778 0.635168
O O5 0.603974 0.231849 0.243014
O O6 0.554709 0.241866 0.419770
O O7 0.549059 0.000000 0.296809
O O8 0.195420 0.500000 0.521240
O O9 0.250000 0.750000 0.500000
O O10 0.207710 0.693541 0.677087
O O11 0.147717 0.763549 0.507480
O O12 0.151243 0.500000 0.173550
O O13 0.206882 0.740512 0.206348
O O14 0.138342 0.726920 0.045308
O O15 0.300953 0.232343 0.118868
O O16 0.251663 0.000000 0.188600
O O17 0.640833 0.000000 0.912888
O O18 0.084971 0.000000 0.504207
#
# Coordination Sequence:
#
# PCOD9207851 Si02
#       7
#     8   8   8   8   8   8   8
#     4  11  24  41  63  91 120 156 202 253 304 355
#     4  11  24  41  62  89 121 161 202 246 303 363
#     4  11  22  36  57  88 123 161 201 242 298 358
#     4  10  23  40  61  89 121 158 200 247 299 355
#     4  10  21  37  60  88 119 156 199 244 294 355
#     4  10  21  41  64  88 120 158 201 247 297 358
#     4  11  23  40  61  88 121 156 200 251 301 356
#
# _framework density 19.784058999999999
#
# number of rings (size 3 to 8) (size 9 to 14) (size 15 to 20)
#    0.000    1.429    1.429    3.429    0.000    9.714 
#    0.000    2.857    0.000    0.000    0.000    0.000 
#    0.000    0.000    0.000    0.000    0.000    0.000 
#
# Total GULP energy -156584.798434 kJ/mol
# GULP energy per Si atom -5592.314230 kJ/mol
# Density = 1.973903 g / cm^3
# Si number density = 19.784059 Si / 1000 Ang^3
#
#
#
# Elastic Constant Matrix: (Units=GPa)
#
#
# Indices 1 2 3 4 5 6 
#
# 1 104.6966 16.2044 14.4334 0.0000 15.8697 0.0000
# 2 16.2044 20.2746 10.9490 0.0000 -3.7323 0.0000
# 3 14.4334 10.9490 32.5980 0.0000 -4.3769 0.0000
# 4 0.0000 0.0000 0.0000 26.2774 0.0000 4.0080
# 5 15.8697 -3.7323 -4.3769 0.0000 27.2745 0.0000
# 6 0.0000 0.0000 0.0000 4.0080 0.0000 29.4037
#
#
#
# Elastic Compliance Matrix: (Units=1/GPa)
#
#
# Indices 1 2 3 4 5 6 
#
# 1 0.013101 -0.010274 -0.003640 0.000000 -0.009613 0.000000
# 2 -0.010274 0.069013 -0.016925 0.000000 0.012706 0.000000
# 3 -0.003640 -0.016925 0.038782 0.000000 0.006026 0.000000
# 4 0.000000 0.000000 0.000000 0.038864 0.000000 -0.005297
# 5 -0.009613 0.012706 0.006026 0.000000 0.044963 0.000000
# 6 0.000000 0.000000 0.000000 -0.005297 0.000000 0.034731
#
#
# Mechanical properties :
#
#
# Convention : Reuss Voigt Hill
#
# Bulk Modulus (GPa) = 16.88699 26.74920 21.81809
# Shear Modulus (GPa) = 15.58250 24.32327 19.95288
#
# Velocity S-wave (km/s) = 2.80952 3.51014 3.17919
# Velocity P-wave (km/s) = 4.36792 5.47522 4.95261
#
# Compressibility (1/GPa) = 0.05921718
#
# Stress axis : x y z
#
# Youngs Moduli (GPa) = 76.33292 14.48993 25.78487
#
# Poissons Ratio (x) = 0.14887 0.09386
# Poissons Ratio (y) = 0.78426 0.43641
# Poissons Ratio (z) = 0.27787 0.24524
#
# Static dielectric constant tensor:
#      x y z
#    x 1.688100 0.000000 -0.019540 
#    y 0.000000 1.664320 0.000000 
#    z -0.019540 0.000000 1.691500 
# 
# From -- ./inp_files/181090.got.cif
#   From: 2010.05.17/outbox.cif.g08.bks.cpg/sg12_91_cif.got.tgz:181090.got - 2010.06.03 13:09:07.
