data_PCOD9207244
_publ_section_title
;
Structure prediction by ZEFSAII (Michael W. Deem and Ramdas Pophale) SiO2 
 PCOD9207244
Probable space group: C 2/M
;
_chemical_formula_sum "Si O2"
_cell_formula_units_Z 48
_cell_length_a 12.291547
_cell_length_b 13.791577
_cell_length_c 23.066789
_cell_angle_alpha 90.000000
_cell_angle_beta 37.025570
_cell_angle_gamma 90.000000
_cell_volume 2354.657403
_symmetry_space_group_name_H-M "C 2/M"
_symmetry_group_IT_number 12
_symmetry_cell_setting 'monoclinic'
loop_
_space_group_symop_operation_xyz
x,y,z
-x,y,-z
-x,-y,-z
x,-y,z
1/2+x,1/2+y,z
1/2-x,1/2+y,-z
1/2-x,1/2-y,-z
1/2+x,1/2-y,z
loop_
_atom_site_type_symbol
_atom_site_label
_atom_site_fract_x
_atom_site_fract_y
_atom_site_fract_z
Si Si1 0.160908 0.883015 0.475925
Si Si2 0.839773 0.388091 0.613250
Si Si3 0.968015 0.386754 0.260981
Si Si4 0.015654 0.886074 0.662088
Si Si5 0.393717 0.610886 0.104530
Si Si6 0.299508 0.244668 0.234319
O O1 0.347592 0.852266 0.366931
O O2 0.116065 0.852794 0.560113
O O3 0.000000 0.856521 0.500000
O O4 0.166053 0.000000 0.476190
O O5 0.867148 0.500000 0.620734
O O6 0.654402 0.380831 0.655870
O O7 0.819941 0.317637 0.675632
O O8 0.000000 0.365906 0.500000
O O9 0.920562 0.500000 0.270514
O O10 0.908532 0.323522 0.231786
O O11 0.179346 0.382609 0.183526
O O12 0.836684 0.822638 0.744064
O O13 0.968048 0.000000 0.674644
O O14 0.434050 0.500000 0.105927
O O15 0.426195 0.689708 0.140197
O O16 0.500000 0.629286 0.000000
#
# Coordination Sequence:
#
# PCOD9207244 Si02
#       6
#     8   8   8   8   8   8
#     4   9  16  30  53  84 120 157 191 224 270 335
#     4  10  24  39  50  78 124 165 195 231 286 348
#     4  10  21  37  60  90 119 151 195 242 290 342
#     4  10  21  37  57  84 125 163 191 233 284 344
#     4  10  24  45  64  83 111 151 201 252 297 343
#     4  12  22  36  63  89 113 151 195 244 290 352
#
# _framework density 20.385133
#
# number of rings (size 3 to 8) (size 9 to 14) (size 15 to 20)
#    0.000    1.833    1.667    2.000    4.667    1.333 
#    0.000    0.000    0.000    2.000    0.000    0.000 
#    0.000    0.000    0.000    0.000    0.000    0.000 
#
# Total GULP energy -134263.846739 kJ/mol
# GULP energy per Si atom -5594.326947 kJ/mol
# Density = 2.033874 g / cm^3
# Si number density = 20.385133 Si / 1000 Ang^3
#
#
#
# Elastic Constant Matrix: (Units=GPa)
#
#
# Indices 1 2 3 4 5 6 
#
# 1 39.0694 17.1306 1.8508 0.0000 4.9829 0.0000
# 2 17.1306 110.2373 29.4949 0.0001 22.8605 0.0000
# 3 1.8508 29.4949 78.5342 0.0002 9.4275 0.0000
# 4 0.0000 0.0001 0.0002 22.9965 0.0000 12.5336
# 5 4.9829 22.8605 9.4275 0.0000 17.5888 0.0000
# 6 0.0000 0.0000 0.0000 12.5336 0.0000 26.5617
#
#
#
# Elastic Compliance Matrix: (Units=1/GPa)
#
#
# Indices 1 2 3 4 5 6 
#
# 1 0.027693 -0.003928 0.001231 0.000000 -0.003400 0.000000
# 2 -0.003928 0.013632 -0.003243 0.000000 -0.014868 0.000000
# 3 0.001231 -0.003243 0.014384 0.000000 -0.003844 0.000000
# 4 0.000000 0.000000 0.000000 0.058540 0.000000 -0.027623
# 5 -0.003400 -0.014868 -0.003844 0.000000 0.079202 0.000000
# 6 0.000000 0.000000 0.000000 -0.027623 0.000000 0.050683
#
#
# Mechanical properties :
#
#
# Convention : Reuss Voigt Hill
#
# Bulk Modulus (GPa) = 22.81552 36.08818 29.45185
# Shear Modulus (GPa) = 18.47594 25.38704 21.93149
#
# Velocity S-wave (km/s) = 3.01382 3.53281 3.28358
# Velocity P-wave (km/s) = 4.82984 5.86367 5.37168
#
# Compressibility (1/GPa) = 0.04382982
#
# Stress axis : x y z
#
# Youngs Moduli (GPa) = 36.11027 73.35435 69.52403
#
# Poissons Ratio (x) = 0.28810 -0.08556
# Poissons Ratio (y) = 0.14183 0.22544
# Poissons Ratio (z) = -0.04444 0.23786
#
# Static dielectric constant tensor:
#      x y z
#    x 1.714080 0.000000 0.001390 
#    y 0.000000 1.779260 0.000000 
#    z 0.001390 0.000000 1.687550 
# 
# From -- ./inp_files/204286.got.cif
#   From: 2010.05.17/outbox.cif.g08.bks.cpg/sg12_103_cif.got.tgz:204286.got - 2010.06.03 13:09:07.
