data_PCOD9207608
_publ_section_title
;
Structure prediction by ZEFSAII (Michael W. Deem and Ramdas Pophale) SiO2 
 PCOD9207608
Probable space group: C 2/M
;
_chemical_formula_sum "Si O2"
_cell_formula_units_Z 48
_cell_length_a 23.012404
_cell_length_b 11.146957
_cell_length_c 12.862580
_cell_angle_alpha 90.000000
_cell_angle_beta 123.982537
_cell_angle_gamma 90.000000
_cell_volume 2735.960805
_symmetry_space_group_name_H-M "C 2/M"
_symmetry_group_IT_number 12
_symmetry_cell_setting 'monoclinic'
loop_
_space_group_symop_operation_xyz
x,y,z
-x,y,-z
-x,-y,-z
x,-y,z
1/2+x,1/2+y,z
1/2-x,1/2+y,-z
1/2-x,1/2-y,-z
1/2+x,1/2-y,z
loop_
_atom_site_type_symbol
_atom_site_label
_atom_site_fract_x
_atom_site_fract_y
_atom_site_fract_z
Si Si1 0.415929 0.500000 0.294419
Si Si2 0.629975 0.268124 0.886307
Si Si3 0.415929 0.500000 0.537438
Si Si4 0.237186 0.642078 0.853022
Si Si5 0.500000 0.144853 0.874741
Si Si6 0.870024 0.768124 0.626355
Si Si7 0.262814 0.142078 0.378650
O O1 0.392490 0.382525 0.206023
O O2 0.391215 0.500000 0.391215
O O3 0.500000 0.500000 0.381396
O O4 0.668464 0.175444 0.848722
O O5 0.567018 0.207401 0.887081
O O6 0.692295 0.307869 0.025312
O O7 0.392490 0.382525 0.578958
O O8 0.244135 0.500000 0.856906
O O9 0.230113 0.691357 0.730113
O O10 0.432982 0.207402 0.753045
O O11 0.499999 0.000000 0.858479
O O12 0.500000 0.165222 0.000000
O O13 0.807704 0.807869 0.640720
O O14 0.831537 0.675444 0.511795
O O15 0.255865 0.000000 0.368636
#
# Coordination Sequence:
#
# PCOD9207608 Si02
#       7
#     4   8   4   8   8   8   8
#     4  11  22  38  60  88 120 155 194 239 292 346
#     4  11  21  39  60  86 118 157 192 242 289 347
#     4  11  22  38  60  88 120 155 194 239 292 346
#     4  10  21  37  59  86 117 153 194 239 287 343
#     4  11  24  41  61  86 116 153 196 244 296 350
#     4  11  21  39  60  86 118 157 192 242 289 347
#     4  10  21  37  59  86 117 153 194 239 287 343
#
# _framework density 17.54411
#
# number of rings (size 3 to 8) (size 9 to 14) (size 15 to 20)
#    0.000    1.333    3.333    3.000    0.000    0.000 
#    0.000    0.833    0.000    4.000    0.000    0.000 
#    0.000    0.000    0.000    0.000    0.000    0.000 
#
# Total GULP energy -133892.240706 kJ/mol
# GULP energy per Si atom -5578.843363 kJ/mol
# Density = 1.750418 g / cm^3
# Si number density = 17.544110 Si / 1000 Ang^3
#
#
#
# Elastic Constant Matrix: (Units=GPa)
#
#
# Indices 1 2 3 4 5 6 
#
# 1 119.6598 33.6647 84.2927 0.0000 -7.0017 0.0000
# 2 33.6647 65.3258 42.7932 0.0000 -12.0041 0.0000
# 3 84.2927 42.7932 136.8251 0.0000 -15.5652 0.0000
# 4 0.0000 0.0000 0.0000 -6.5546 0.0000 9.5302
# 5 -7.0017 -12.0041 -15.5652 0.0000 31.6061 0.0000
# 6 0.0000 0.0000 0.0000 9.5302 0.0000 0.6913
#
#
#
# Elastic Compliance Matrix: (Units=1/GPa)
#
#
# Indices 1 2 3 4 5 6 
#
# 1 0.015093 -0.002380 -0.008767 0.000000 -0.001878 0.000000
# 2 -0.002380 0.020282 -0.004302 0.000000 0.005057 0.000000
# 3 -0.008767 -0.004302 0.014459 0.000000 0.003544 0.000000
# 4 0.000000 0.000000 0.000000 -0.007249 0.000000 0.099943
# 5 -0.001878 0.005057 0.003544 0.000000 0.034890 0.000000
# 6 0.000000 0.000000 0.000000 0.099943 0.000000 0.068738
#
#
# Mechanical properties :
#
#
# Convention : Reuss Voigt Hill
#
# Bulk Modulus (GPa) = 52.81260 71.47910 62.14585
# Shear Modulus (GPa) = 27.25969 15.88589 21.57279
#
# Velocity S-wave (km/s) = 3.94608 3.01239 3.51041
# Velocity P-wave (km/s) = 7.13654 7.27532 7.20626
#
# Compressibility (1/GPa) = 0.01893488
#
# Stress axis : x y z
#
# Youngs Moduli (GPa) = 66.25715 49.30582 69.16317
#
# Poissons Ratio (x) = 0.11733 0.60638
# Poissons Ratio (y) = 0.15767 0.29754
# Poissons Ratio (z) = 0.58091 0.21211
#
# Static dielectric constant tensor:
#      x y z
#    x 1.573450 0.000000 -0.028150 
#    y 0.000000 1.581540 0.000000 
#    z -0.028150 0.000000 1.594850 
# 
# From -- ./inp_files/174888.got.cif
#   From: 2010.05.17/outbox.cif.g08.bks.cpg/sg12_88_cif.got.tgz:174888.got - 2010.06.03 13:09:07.
