data_PCOD9207878
_publ_section_title
;
Structure prediction by ZEFSAII (Michael W. Deem and Ramdas Pophale) SiO2 
 PCOD9207878
Probable space group: C 2/M
;
_chemical_formula_sum "Si O2"
_cell_formula_units_Z 36
_cell_length_a 32.508496
_cell_length_b 10.693126
_cell_length_c 5.165803
_cell_angle_alpha 90.000000
_cell_angle_beta 107.135492
_cell_angle_gamma 90.000000
_cell_volume 1716.012314
_symmetry_space_group_name_H-M "C 2/M"
_symmetry_group_IT_number 12
_symmetry_cell_setting 'monoclinic'
loop_
_space_group_symop_operation_xyz
x,y,z
-x,y,-z
-x,-y,-z
x,-y,z
1/2+x,1/2+y,z
1/2-x,1/2+y,-z
1/2-x,1/2-y,-z
1/2+x,1/2-y,z
loop_
_atom_site_type_symbol
_atom_site_label
_atom_site_fract_x
_atom_site_fract_y
_atom_site_fract_z
Si Si1 0.770856 0.500000 0.343604
Si Si2 0.378169 0.142446 0.932466
Si Si3 0.030128 0.000000 0.805279
Si Si4 0.030456 0.725167 0.805984
Si Si5 0.712729 0.500000 0.735103
Si Si6 0.833684 0.265293 0.361871
O O1 0.750051 0.500000 0.588415
O O2 0.798532 0.373897 0.351579
O O3 0.733697 0.500000 0.057993
O O4 0.370236 0.210406 0.645330
O O5 0.362139 0.000000 0.881710
O O6 0.428318 0.138926 0.097978
O O7 0.352330 0.210540 0.111888
O O8 0.051686 0.134899 0.840836
O O9 0.000000 0.000000 0.500000
O O10 0.000000 0.000000 0.000000
O O11 0.000000 0.708204 0.500000
O O12 0.000000 0.714151 0.000000
O O13 0.685634 0.627135 0.650778
#
# Coordination Sequence:
#
# PCOD9207878 Si02
#       6
#     4   8   4   8   4   8
#     4  12  22  46  69  96 136 168 208 262 326 390
#     4  12  24  43  65  90 132 179 212 263 328 384
#     4   8  16  32  52  78 112 148 194 252 318 364
#     4  10  21  37  60  89 120 163 216 266 311 373
#     4  12  26  42  71 106 124 164 222 268 310 384
#     4  12  25  44  67  97 134 171 213 261 329 388
#
# _framework density 20.978870000000001
#
# number of rings (size 3 to 8) (size 9 to 14) (size 15 to 20)
#    0.000    0.889    2.222    5.333    0.000    2.667 
#    0.000    2.222    0.000    0.000    0.000    0.000 
#    0.000    0.000    0.000    0.000    0.000    0.000 
#
# Total GULP energy -100617.670946 kJ/mol
# GULP energy per Si atom -5589.870608 kJ/mol
# Density = 2.093112 g / cm^3
# Si number density = 20.978870 Si / 1000 Ang^3
#
#
#
# Elastic Constant Matrix: (Units=GPa)
#
#
# Indices 1 2 3 4 5 6 
#
# 1 38.7565 30.1778 -8.5887 0.0000 7.0968 0.0000
# 2 30.1778 150.4617 13.8736 0.0000 14.7285 0.0000
# 3 -8.5887 13.8736 98.6603 0.0000 6.3148 0.0000
# 4 0.0000 0.0000 0.0000 -42.7271 0.0000 -48.8859
# 5 7.0968 14.7285 6.3148 0.0000 36.8271 0.0000
# 6 0.0000 0.0000 0.0000 -48.8859 0.0000 -22.0035
#
#
#
# Elastic Compliance Matrix: (Units=1/GPa)
#
#
# Indices 1 2 3 4 5 6 
#
# 1 0.032529 -0.006467 0.004021 0.000000 -0.004372 0.000000
# 2 -0.006467 0.008266 -0.001611 0.000000 -0.001784 0.000000
# 3 0.004021 -0.001611 0.010840 0.000000 -0.001989 0.000000
# 4 0.000000 0.000000 0.000000 0.015178 0.000000 -0.033722
# 5 -0.004372 -0.001784 -0.001989 0.000000 0.029051 0.000000
# 6 0.000000 0.000000 0.000000 -0.033722 0.000000 0.029473
#
#
# Mechanical properties :
#
#
# Convention : Reuss Voigt Hill
#
# Bulk Modulus (GPa) = 22.97757 39.86709 31.42233
# Shear Modulus (GPa) = 33.79301 11.24700 22.52000
#
# Velocity S-wave (km/s) = 4.01785 2.31792 3.27993
# Velocity P-wave (km/s) = 5.70093 5.11941 5.41798
#
# Compressibility (1/GPa) = 0.04352071
#
# Stress axis : x y z
#
# Youngs Moduli (GPa) = 30.74146 120.97055 92.25322
#
# Poissons Ratio (x) = 0.78234 -0.37095
# Poissons Ratio (y) = 0.19881 0.14864
# Poissons Ratio (z) = -0.12361 0.19492
#
# Static dielectric constant tensor:
#      x y z
#    x 1.699150 0.000000 0.012320 
#    y 0.000000 1.795670 0.000000 
#    z 0.012320 0.000000 1.725540 
# 
# From -- ./inp_files/30693.got.cif
#   From: 2010.05.17/outbox.cif.g08.bks.cpg/sg12_16_cif.got.tgz:30693.got - 2010.06.03 13:09:07.
