data_PCOD9207827
_publ_section_title
;
Structure prediction by ZEFSAII (Michael W. Deem and Ramdas Pophale) SiO2 
 PCOD9207827
Probable space group: C 2/M
;
_chemical_formula_sum "Si O2"
_cell_formula_units_Z 58
_cell_length_a 16.468186
_cell_length_b 9.168483
_cell_length_c 16.666495
_cell_angle_alpha 90.000000
_cell_angle_beta 84.596714
_cell_angle_gamma 90.000000
_cell_volume 2505.263810
_symmetry_space_group_name_H-M "C 2/M"
_symmetry_group_IT_number 12
_symmetry_cell_setting 'monoclinic'
loop_
_space_group_symop_operation_xyz
x,y,z
-x,y,-z
-x,-y,-z
x,-y,z
1/2+x,1/2+y,z
1/2-x,1/2+y,-z
1/2-x,1/2-y,-z
1/2+x,1/2-y,z
loop_
_atom_site_type_symbol
_atom_site_label
_atom_site_fract_x
_atom_site_fract_y
_atom_site_fract_z
Si Si1 0.121228 0.329884 0.524171
Si Si2 0.017346 0.822149 0.660311
Si Si3 0.602206 0.335292 0.808178
Si Si4 0.643351 0.175396 0.249794
Si Si5 0.066325 0.231371 0.096285
Si Si6 0.500000 0.000000 0.000000
Si Si7 0.812871 0.837711 0.046987
Si Si8 0.219464 0.169656 0.377622
O O1 0.102683 0.500000 0.508998
O O2 0.048658 0.244139 0.574459
O O3 0.154657 0.246488 0.443238
O O4 0.196736 0.326958 0.580353
O O5 0.083814 0.775552 0.722239
O O6 0.934874 0.745986 0.697784
O O7 0.011701 0.000000 0.659664
O O8 0.632762 0.500000 0.794867
O O9 0.511392 0.342390 0.855256
O O10 0.658629 0.266197 0.871858
O O11 0.632015 0.231466 0.159920
O O12 0.717845 0.241263 0.294405
O O13 0.642401 0.000000 0.252300
O O14 0.108981 0.152103 0.018448
O O15 0.031247 0.375985 0.060180
O O16 0.780838 0.000000 0.065253
O O17 0.750000 0.750000 0.000000
O O18 0.198553 0.000000 0.364791
#
# Coordination Sequence:
#
# PCOD9207827 Si02
#       8
#     8   8   8   8   8   2   8   8
#     4  10  21  40  63  89 117 156 199 240 292 354
#     4  10  21  37  60  87 118 151 193 243 295 352
#     4   9  19  38  59  80 108 149 195 241 292 350
#     4  11  23  38  59  91 121 153 194 247 298 345
#     4  11  22  38  62  86 115 155 200 244 296 350
#     4  12  20  36  66  88 112 158 204 248 288 366
#     4  11  24  38  57  83 117 154 195 244 296 350
#     4  10  22  40  63  87 120 158 198 241 293 356
#
# _framework density 23.151254000000002
#
# number of rings (size 3 to 8) (size 9 to 14) (size 15 to 20)
#    0.000    1.655    2.069    2.069    0.966    6.069 
#    0.000    5.517    0.000    0.000    0.000    0.000 
#    0.000    0.000    0.000    0.000    0.000    0.000 
#
# Total GULP energy -161793.962681 kJ/mol
# GULP energy per Si atom -5579.102161 kJ/mol
# Density = 2.309856 g / cm^3
# Si number density = 23.151254 Si / 1000 Ang^3
#
#
#
# Elastic Constant Matrix: (Units=GPa)
#
#
# Indices 1 2 3 4 5 6 
#
# 1 51.2175 9.2399 21.7647 0.0000 13.4387 0.0000
# 2 9.2399 120.1747 29.9421 0.0000 6.7807 0.0000
# 3 21.7647 29.9421 135.6848 0.0000 23.3876 0.0000
# 4 0.0000 0.0000 0.0000 22.2336 0.0000 -4.1047
# 5 13.4387 6.7807 23.3876 0.0000 57.2326 0.0000
# 6 0.0000 0.0000 0.0000 -4.1047 0.0000 36.3265
#
#
#
# Elastic Compliance Matrix: (Units=1/GPa)
#
#
# Indices 1 2 3 4 5 6 
#
# 1 0.021829 -0.000796 -0.002645 0.000000 -0.003950 0.000000
# 2 -0.000796 0.008838 -0.001801 0.000000 -0.000124 0.000000
# 3 -0.002645 -0.001801 0.008658 0.000000 -0.002703 0.000000
# 4 0.000000 0.000000 0.000000 0.045935 0.000000 0.005190
# 5 -0.003950 -0.000124 -0.002703 0.000000 0.019520 0.000000
# 6 0.000000 0.000000 0.000000 0.005190 0.000000 0.028115
#
#
# Mechanical properties :
#
#
# Convention : Reuss Voigt Hill
#
# Bulk Modulus (GPa) = 34.67447 47.66341 41.16894
# Shear Modulus (GPa) = 32.68139 39.56723 36.12431
#
# Velocity S-wave (km/s) = 3.76126 4.13858 3.95443
# Velocity P-wave (km/s) = 5.82003 6.59315 6.21862
#
# Compressibility (1/GPa) = 0.02883966
#
# Stress axis : x y z
#
# Youngs Moduli (GPa) = 45.81132 113.14467 115.50366
#
# Poissons Ratio (x) = 0.09012 0.30548
# Poissons Ratio (y) = 0.03649 0.20805
# Poissons Ratio (z) = 0.12116 0.20380
#
# Static dielectric constant tensor:
#      x y z
#    x 1.965320 0.000000 0.024660 
#    y 0.000000 1.812850 0.000000 
#    z 0.024660 0.000000 1.862120 
# 
# From -- ./inp_files/275412.got.cif
#   From: 2010.05.17/outbox.cif.g08.bks.cpg/sg12_138_cif.got.tgz:275412.got - 2010.06.03 13:09:07.
