data_PCOD9207888
_publ_section_title
;
Structure prediction by ZEFSAII (Michael W. Deem and Ramdas Pophale) SiO2 
 PCOD9207888
Probable space group: C 2/M
;
_chemical_formula_sum "Si O2"
_cell_formula_units_Z 64
_cell_length_a 31.164214
_cell_length_b 9.782101
_cell_length_c 15.438558
_cell_angle_alpha 90.000000
_cell_angle_beta 45.527631
_cell_angle_gamma 90.000000
_cell_volume 3358.480448
_symmetry_space_group_name_H-M "C 2/M"
_symmetry_group_IT_number 12
_symmetry_cell_setting 'monoclinic'
loop_
_space_group_symop_operation_xyz
x,y,z
-x,y,-z
-x,-y,-z
x,-y,z
1/2+x,1/2+y,z
1/2-x,1/2+y,-z
1/2-x,1/2-y,-z
1/2+x,1/2-y,z
loop_
_atom_site_type_symbol
_atom_site_label
_atom_site_fract_x
_atom_site_fract_y
_atom_site_fract_z
Si Si1 0.104826 0.345265 0.706909
Si Si2 0.946329 0.341595 0.509101
Si Si3 0.115069 0.155229 0.033868
Si Si4 0.174169 0.838231 0.334223
Si Si5 0.220618 0.277244 0.444398
Si Si6 0.990017 0.343205 0.766140
Si Si7 0.150836 0.846559 0.791850
Si Si8 0.749527 0.338978 0.912907
O O1 0.097350 0.500000 0.747508
O O2 0.157493 0.345616 0.559803
O O3 0.126808 0.251845 0.752720
O O4 0.041860 0.295131 0.758375
O O5 0.926095 0.500000 0.555570
O O6 0.890949 0.235847 0.583301
O O7 0.000000 0.307317 0.500000
O O8 0.978338 0.341465 0.371126
O O9 0.068319 0.251771 0.146584
O O10 0.091758 0.000000 0.065567
O O11 0.127554 0.199677 0.917703
O O12 0.179856 0.154286 0.985706
O O13 0.199157 0.827491 0.398706
O O14 0.215454 0.747518 0.210742
O O15 0.172482 0.000000 0.313648
O O16 0.250000 0.250000 0.500000
O O17 0.276586 0.348798 0.317753
O O18 0.974624 0.500000 0.808844
O O19 0.129397 0.000000 0.806521
O O20 0.770298 0.500000 0.891152
O O21 0.750000 0.250000 0.000000
#
# Coordination Sequence:
#
# PCOD9207888 Si02
#       8
#     8   8   8   8   8   8   8   8
#     4  10  21  37  60  89 123 162 205 257 315 374
#     4  10  23  44  67  92 126 170 214 260 321 384
#     4  10  23  42  62  87 121 162 205 258 315 370
#     4  12  25  42  69 104 134 169 217 269 328 390
#     4  10  21  39  61  92 133 167 208 256 318 382
#     4  10  22  40  61  88 121 163 210 257 312 376
#     4  10  21  38  61  88 121 164 208 253 314 378
#     4  11  25  46  68  94 129 169 213 266 325 384
#
# _framework density 19.056236999999999
#
# number of rings (size 3 to 8) (size 9 to 14) (size 15 to 20)
#    0.000    1.625    2.500    1.125    1.750    8.250 
#    0.000    2.500    0.000    0.000    0.000    0.000 
#    0.000    0.000    0.000    0.000    0.000    0.000 
#
# Total GULP energy -178239.524158 kJ/mol
# GULP energy per Si atom -5569.985130 kJ/mol
# Density = 1.901286 g / cm^3
# Si number density = 19.056237 Si / 1000 Ang^3
#
#
#
# Elastic Constant Matrix: (Units=GPa)
#
#
# Indices 1 2 3 4 5 6 
#
# 1 87.9643 53.0249 28.0334 0.0000 2.0320 0.0000
# 2 53.0249 105.6069 47.3201 0.0000 -3.4115 -0.0001
# 3 28.0334 47.3201 67.7423 0.0000 -8.1287 0.0000
# 4 0.0000 0.0000 0.0000 24.1580 0.0000 3.4517
# 5 2.0320 -3.4115 -8.1287 0.0000 31.7551 0.0000
# 6 0.0000 -0.0001 0.0000 3.4517 0.0000 43.1299
#
#
#
# Elastic Compliance Matrix: (Units=1/GPa)
#
#
# Indices 1 2 3 4 5 6 
#
# 1 0.016575 -0.007567 -0.001855 0.000000 -0.002348 0.000000
# 2 -0.007567 0.017269 -0.008925 0.000000 0.000055 0.000000
# 3 -0.001855 -0.008925 0.022350 0.000000 0.004881 0.000000
# 4 0.000000 0.000000 0.000000 0.041873 0.000000 -0.003351
# 5 -0.002348 0.000055 0.004881 0.000000 0.032897 0.000000
# 6 0.000000 0.000000 0.000000 -0.003351 0.000000 0.023454
#
#
# Mechanical properties :
#
#
# Convention : Reuss Voigt Hill
#
# Bulk Modulus (GPa) = 51.28342 57.56337 54.42339
# Shear Modulus (GPa) = 25.30205 28.67094 26.98650
#
# Velocity S-wave (km/s) = 3.64779 3.88305 3.76726
# Velocity P-wave (km/s) = 6.68670 7.09766 6.89524
#
# Compressibility (1/GPa) = 0.01949948
#
# Stress axis : x y z
#
# Youngs Moduli (GPa) = 60.33156 57.90604 44.74306
#
# Poissons Ratio (x) = 0.43817 0.08301
# Poissons Ratio (y) = 0.45652 0.39934
# Poissons Ratio (z) = 0.11193 0.51683
#
# Static dielectric constant tensor:
#      x y z
#    x 1.717410 0.000000 0.035880 
#    y 0.000000 1.722540 0.000000 
#    z 0.035880 0.000000 1.662000 
# 
# From -- ./inp_files/249860.got.cif
#   From: 2010.05.17/outbox.cif.g08.bks.cpg/sg12_125_cif.got.tgz:249860.got - 2010.06.03 13:09:07.
