data_PCOD9207504
_publ_section_title
;
Structure prediction by ZEFSAII (Michael W. Deem and Ramdas Pophale) SiO2 
 PCOD9207504
Probable space group: C 2/M
;
_chemical_formula_sum "Si O2"
_cell_formula_units_Z 64
_cell_length_a 29.728955
_cell_length_b 8.969883
_cell_length_c 12.033125
_cell_angle_alpha 90.000000
_cell_angle_beta 85.819444
_cell_angle_gamma 90.000000
_cell_volume 3200.278482
_symmetry_space_group_name_H-M "C 2/M"
_symmetry_group_IT_number 12
_symmetry_cell_setting 'monoclinic'
loop_
_space_group_symop_operation_xyz
x,y,z
-x,y,-z
-x,-y,-z
x,-y,z
1/2+x,1/2+y,z
1/2-x,1/2+y,-z
1/2-x,1/2-y,-z
1/2+x,1/2-y,z
loop_
_atom_site_type_symbol
_atom_site_label
_atom_site_fract_x
_atom_site_fract_y
_atom_site_fract_z
Si Si1 0.404252 0.827648 0.562868
Si Si2 0.661153 0.177011 0.789408
Si Si3 0.540698 0.322661 0.078517
Si Si4 0.247339 0.678492 0.622671
Si Si5 0.854942 0.822402 0.980465
Si Si6 0.509406 0.175463 0.308574
Si Si7 0.674396 0.824223 0.244442
Si Si8 0.913143 0.825307 0.339983
O O1 0.454307 0.801448 0.600536
O O2 0.370007 0.810102 0.670635
O O3 0.393665 0.719188 0.463766
O O4 0.401179 0.000000 0.524089
O O5 0.700161 0.211199 0.693089
O O6 0.614740 0.237422 0.747144
O O7 0.659480 0.000000 0.805158
O O8 0.668170 0.255298 0.906263
O O9 0.538775 0.500000 0.105698
O O10 0.590942 0.291893 0.024207
O O11 0.532362 0.226911 0.189915
O O12 0.500000 0.292448 0.000000
O O13 0.251832 0.500000 0.612227
O O14 0.250000 0.750000 0.500000
O O15 0.285990 0.744642 0.694819
O O16 0.835453 0.749780 0.872219
O O17 0.849111 0.000000 0.977759
O O18 0.464484 0.270321 0.331027
O O19 0.498465 0.000000 0.307491
O O20 0.684028 0.000000 0.229643
O O21 0.910252 0.000000 0.319429
#
# Coordination Sequence:
#
# PCOD9207504 Si02
#       8
#     8   8   8   8   8   8   8   8
#     4  10  22  40  61  89 125 166 213 260 313 379
#     4  11  25  45  67  92 127 167 210 260 317 383
#     4  10  21  37  58  87 125 166 211 266 319 372
#     4  11  25  45  70 101 131 165 211 264 324 387
#     4  11  23  40  65  96 132 169 212 266 321 377
#     4  11  22  38  60  87 122 166 213 260 313 379
#     4  11  23  42  68  96 130 172 216 264 319 383
#     4  12  25  39  60  91 126 165 212 265 322 379
#
# _framework density 19.998259999999998
#
# number of rings (size 3 to 8) (size 9 to 14) (size 15 to 20)
#    0.000    1.125    1.250    4.875    0.000   10.750 
#    0.000    0.000    0.000    0.000    0.000    0.000 
#    0.000    0.000    0.000    0.000    0.000    0.000 
#
# Total GULP energy -179051.002641 kJ/mol
# GULP energy per Si atom -5595.343833 kJ/mol
# Density = 1.995274 g / cm^3
# Si number density = 19.998260 Si / 1000 Ang^3
#
#
#
# Elastic Constant Matrix: (Units=GPa)
#
#
# Indices 1 2 3 4 5 6 
#
# 1 65.8606 39.0115 21.4655 0.0000 6.6396 0.0000
# 2 39.0115 64.2040 53.5422 0.0000 -8.8878 0.0000
# 3 21.4655 53.5422 115.9908 0.0000 -5.2548 0.0000
# 4 0.0000 0.0000 0.0000 37.6054 0.0000 3.8249
# 5 6.6396 -8.8878 -5.2548 0.0000 27.7203 0.0000
# 6 0.0000 0.0000 0.0000 3.8249 0.0000 26.7866
#
#
#
# Elastic Compliance Matrix: (Units=1/GPa)
#
#
# Indices 1 2 3 4 5 6 
#
# 1 0.028865 -0.023485 0.004887 0.000000 -0.013517 0.000000
# 2 -0.023485 0.045445 -0.015853 0.000000 0.017191 0.000000
# 3 0.004887 -0.015853 0.014879 0.000000 -0.003433 0.000000
# 4 0.000000 0.000000 0.000000 0.026984 0.000000 -0.003853
# 5 -0.013517 0.017191 -0.003433 0.000000 0.044173 0.000000
# 6 0.000000 0.000000 0.000000 -0.003853 0.000000 0.037882
#
#
# Mechanical properties :
#
#
# Convention : Reuss Voigt Hill
#
# Bulk Modulus (GPa) = 49.29303 52.67709 50.98506
# Shear Modulus (GPa) = 18.25525 27.22487 22.74006
#
# Velocity S-wave (km/s) = 3.02460 3.69367 3.37575
# Velocity P-wave (km/s) = 6.07452 6.67749 6.38313
#
# Compressibility (1/GPa) = 0.02028684
#
# Stress axis : x y z
#
# Youngs Moduli (GPa) = 34.64447 22.00441 67.20734
#
# Poissons Ratio (x) = 0.51678 -0.32843
# Poissons Ratio (y) = 0.81363 1.06543
# Poissons Ratio (z) = -0.16930 0.34883
#
# Static dielectric constant tensor:
#      x y z
#    x 1.711700 0.000000 -0.018410 
#    y 0.000000 1.662120 0.000000 
#    z -0.018410 0.000000 1.688290 
# 
# From -- ./inp_files/187587.got.cif
#   From: 2010.05.17/outbox.cif.g08.bks.cpg/sg12_94_cif.got.tgz:187587.got - 2010.06.03 13:09:07.
