data_PCOD9207050
_publ_section_title
;
Structure prediction by ZEFSAII (Michael W. Deem and Ramdas Pophale) SiO2 
 PCOD9207050
Probable space group: C 2/M
;
_chemical_formula_sum "Si O2"
_cell_formula_units_Z 40
_cell_length_a 5.205215
_cell_length_b 24.846037
_cell_length_c 16.853602
_cell_angle_alpha 90.000000
_cell_angle_beta 118.947855
_cell_angle_gamma 90.000000
_cell_volume 1907.333557
_symmetry_space_group_name_H-M "C 2/M"
_symmetry_group_IT_number 12
_symmetry_cell_setting 'monoclinic'
loop_
_space_group_symop_operation_xyz
x,y,z
-x,y,-z
-x,-y,-z
x,-y,z
1/2+x,1/2+y,z
1/2-x,1/2+y,-z
1/2-x,1/2-y,-z
1/2+x,1/2-y,z
loop_
_atom_site_type_symbol
_atom_site_label
_atom_site_fract_x
_atom_site_fract_y
_atom_site_fract_z
Si Si1 0.685175 0.373194 0.238528
Si Si2 0.186060 0.782478 0.107873
Si Si3 0.176271 0.714595 0.608318
Si Si4 0.723641 0.938924 0.251263
Si Si5 0.183983 0.938061 0.460854
O O1 0.682994 0.333736 0.163315
O O2 0.764852 0.336839 0.327266
O O3 0.369995 0.401393 0.206210
O O4 0.942661 0.415669 0.255870
O O5 0.508581 0.763422 0.129972
O O6 0.000000 0.791820 0.000000
O O7 0.479901 0.743070 0.628794
O O8 0.000000 0.704355 0.500000
O O9 0.991345 0.940758 0.354283
O O10 0.665008 0.000000 0.215832
O O11 0.500000 0.913749 0.500000
O O12 0.000000 0.908291 0.500000
O O13 0.239395 0.000000 0.497415
#
# Coordination Sequence:
#
# PCOD9207050 Si02
#       5
#     8   8   8   8   8
#     4  12  22  37  62  85 115 157 198 237 291 355
#     4  10  21  39  65  96 123 144 179 239 304 361
#     4  10  21  37  56  82 116 149 186 234 288 353
#     4  11  24  38  54  81 117 158 202 248 288 330
#     4   9  17  31  49  68  97 140 190 243 288 318
#
# _framework density 20.971684
#
# number of rings (size 3 to 8) (size 9 to 14) (size 15 to 20)
#    0.000    1.600    0.000    5.400    0.000    5.600 
#    0.000    0.000    0.000    4.200    0.000    0.000 
#    0.000    0.000    0.000    0.000    0.000    0.000 
#
# Total GULP energy -111781.710188 kJ/mol
# GULP energy per Si atom -5589.085509 kJ/mol
# Density = 2.092395 g / cm^3
# Si number density = 20.971684 Si / 1000 Ang^3
#
#
#
# Elastic Constant Matrix: (Units=GPa)
#
#
# Indices 1 2 3 4 5 6 
#
# 1 111.0434 22.9819 18.0410 0.0000 -27.1911 0.0000
# 2 22.9819 106.0895 37.1153 0.0000 -18.5696 0.0000
# 3 18.0410 37.1153 47.8548 0.0000 -23.0797 0.0000
# 4 0.0000 0.0000 0.0000 14.9427 0.0000 -2.0102
# 5 -27.1911 -18.5696 -23.0797 0.0000 25.1075 0.0000
# 6 0.0000 0.0000 0.0000 -2.0102 0.0000 -91.1971
#
#
#
# Elastic Compliance Matrix: (Units=1/GPa)
#
#
# Indices 1 2 3 4 5 6 
#
# 1 0.012669 -0.001329 0.004307 0.000000 0.016697 0.000000
# 2 -0.001329 0.013081 -0.010190 0.000000 -0.001131 0.000000
# 3 0.004307 -0.010190 0.046331 0.000000 0.039717 0.000000
# 4 0.000000 0.000000 0.000000 0.066724 0.000000 -0.001471
# 5 0.016697 -0.001131 0.039717 0.000000 0.093584 0.000000
# 6 0.000000 0.000000 0.000000 -0.001471 0.000000 -0.010933
#
#
# Mechanical properties :
#
#
# Convention : Reuss Voigt Hill
#
# Bulk Modulus (GPa) = 17.34366 46.80713 32.07539
# Shear Modulus (GPa) = 19.60023 2.22724 10.91373
#
# Velocity S-wave (km/s) = 3.06045 1.03166 2.28371
# Velocity P-wave (km/s) = 4.55812 4.87717 4.72034
#
# Compressibility (1/GPa) = 0.05765796
#
# Stress axis : x y z
#
# Youngs Moduli (GPa) = 78.93048 76.44828 21.58388
#
# Poissons Ratio (x) = 0.10158 -0.09296
# Poissons Ratio (y) = 0.10488 0.21994
# Poissons Ratio (z) = -0.33996 0.77900
#
# Static dielectric constant tensor:
#      x y z
#    x 1.778650 0.000000 -0.022730 
#    y 0.000000 1.786540 0.000000 
#    z -0.022730 0.000000 1.733160 
# 
# From -- ./inp_files/191549.got.cif
#   From: 2010.05.17/outbox.cif.g08.bks.cpg/sg12_96_cif.got.tgz:191549.got - 2010.06.03 13:09:07.
