data_PCOD9207557
_publ_section_title
;
Structure prediction by ZEFSAII (Michael W. Deem and Ramdas Pophale) SiO2 
 PCOD9207557
Probable space group: C 2/M
;
_chemical_formula_sum "Si O2"
_cell_formula_units_Z 56
_cell_length_a 17.868358
_cell_length_b 13.626675
_cell_length_c 9.397134
_cell_angle_alpha 90.000000
_cell_angle_beta 101.320555
_cell_angle_gamma 90.000000
_cell_volume 2243.557384
_symmetry_space_group_name_H-M "C 2/M"
_symmetry_group_IT_number 12
_symmetry_cell_setting 'monoclinic'
loop_
_space_group_symop_operation_xyz
x,y,z
-x,y,-z
-x,-y,-z
x,-y,z
1/2+x,1/2+y,z
1/2-x,1/2+y,-z
1/2-x,1/2-y,-z
1/2+x,1/2-y,z
loop_
_atom_site_type_symbol
_atom_site_label
_atom_site_fract_x
_atom_site_fract_y
_atom_site_fract_z
Si Si1 0.547479 0.393259 0.870076
Si Si2 0.730747 0.618053 0.227911
Si Si3 0.795176 0.610750 0.964904
Si Si4 0.624261 0.195196 0.557811
Si Si5 0.439416 0.179560 0.173086
Si Si6 0.892733 0.383733 0.759783
Si Si7 0.593865 0.609142 0.387754
O O1 0.587144 0.500000 0.883344
O O2 0.588902 0.289935 0.870608
O O3 0.489073 0.390383 0.714869
O O4 0.500000 0.390953 0.000000
O O5 0.748656 0.500000 0.237290
O O6 0.739220 0.649200 0.066608
O O7 0.793578 0.675085 0.342818
O O8 0.650285 0.627649 0.275439
O O9 0.769752 0.500000 0.924845
O O10 0.878212 0.611003 0.074421
O O11 0.820074 0.654703 0.822762
O O12 0.566267 0.163552 0.659844
O O13 0.618830 0.136163 0.409989
O O14 0.607922 0.307063 0.507282
O O15 0.527530 0.166277 0.165118
O O16 0.900553 0.500000 0.786499
O O17 0.609220 0.500000 0.450351
#
# Coordination Sequence:
#
# PCOD9207557 Si02
#       7
#     8   8   8   8   8   8   8
#     4  10  21  37  59  84 111 145 189 240 286 327
#     4   9  19  38  61  83 113 150 188 229 277 334
#     4   9  19  35  57  84 112 148 187 227 282 342
#     4  11  22  35  55  85 116 150 187 228 276 333
#     4  11  21  34  55  80 115 151 185 229 278 339
#     4  11  21  33  53  83 116 148 184 231 282 335
#     4  10  21  38  61  82 109 151 192 232 281 331
#
# _framework density 24.960362
#
# number of rings (size 3 to 8) (size 9 to 14) (size 15 to 20)
#    0.000    1.857    1.429    3.000    0.000    4.000 
#    0.000    2.143    3.143    0.000    0.000    0.000 
#    0.000    0.000    0.000    0.000    0.000    0.000 
#
# Total GULP energy -156697.574347 kJ/mol
# GULP energy per Si atom -5596.341941 kJ/mol
# Density = 2.490355 g / cm^3
# Si number density = 24.960362 Si / 1000 Ang^3
#
#
#
# Elastic Constant Matrix: (Units=GPa)
#
#
# Indices 1 2 3 4 5 6 
#
# 1 85.9700 14.8465 25.8979 0.0000 -3.8537 0.0000
# 2 14.8465 119.1850 27.7450 0.0000 9.4805 0.0000
# 3 25.8979 27.7450 121.1583 0.0000 -15.5383 0.0000
# 4 0.0000 0.0000 0.0000 29.7242 0.0000 -0.1030
# 5 -3.8537 9.4805 -15.5383 0.0000 34.3448 0.0000
# 6 0.0000 0.0000 0.0000 -0.1030 0.0000 11.9383
#
#
#
# Elastic Compliance Matrix: (Units=1/GPa)
#
#
# Indices 1 2 3 4 5 6 
#
# 1 0.012555 -0.001066 -0.002358 0.000000 0.000636 0.000000
# 2 -0.001066 0.009386 -0.002409 0.000000 -0.003800 0.000000
# 3 -0.002358 -0.002409 0.009937 0.000000 0.004896 0.000000
# 4 0.000000 0.000000 0.000000 0.033644 0.000000 0.000290
# 5 0.000636 -0.003800 0.004896 0.000000 0.032452 0.000000
# 6 0.000000 0.000000 0.000000 0.000290 0.000000 0.083767
#
#
# Mechanical properties :
#
#
# Convention : Reuss Voigt Hill
#
# Bulk Modulus (GPa) = 49.47318 51.47690 50.47504
# Shear Modulus (GPa) = 24.98205 32.38971 28.68588
#
# Velocity S-wave (km/s) = 3.16708 3.60619 3.39375
# Velocity P-wave (km/s) = 5.76521 6.16504 5.96847
#
# Compressibility (1/GPa) = 0.02021297
#
# Stress axis : x y z
#
# Youngs Moduli (GPa) = 79.65055 106.53993 100.63099
#
# Poissons Ratio (x) = 0.11353 0.23729
# Poissons Ratio (y) = 0.08487 0.24242
# Poissons Ratio (z) = 0.18782 0.25666
#
# Static dielectric constant tensor:
#      x y z
#    x 1.934760 0.000000 -0.038470 
#    y 0.000000 2.016070 0.000000 
#    z -0.038470 0.000000 1.961140 
# 
# From -- ./inp_files/86325.got.cif
#   From: 2010.05.17/outbox.cif.g08.bks.cpg/sg12_44_cif.got.tgz:86325.got - 2010.06.03 13:09:07.
