data_PCOD9207850
_publ_section_title
;
Structure prediction by ZEFSAII (Michael W. Deem and Ramdas Pophale) SiO2 
 PCOD9207850
Probable space group: C 2/M
;
_chemical_formula_sum "Si O2"
_cell_formula_units_Z 64
_cell_length_a 31.408432
_cell_length_b 8.288594
_cell_length_c 16.775536
_cell_angle_alpha 90.000000
_cell_angle_beta 133.668302
_cell_angle_gamma 90.000000
_cell_volume 3159.014118
_symmetry_space_group_name_H-M "C 2/M"
_symmetry_group_IT_number 12
_symmetry_cell_setting 'monoclinic'
loop_
_space_group_symop_operation_xyz
x,y,z
-x,y,-z
-x,-y,-z
x,-y,z
1/2+x,1/2+y,z
1/2-x,1/2+y,-z
1/2-x,1/2-y,-z
1/2+x,1/2-y,z
loop_
_atom_site_type_symbol
_atom_site_label
_atom_site_fract_x
_atom_site_fract_y
_atom_site_fract_z
Si Si1 0.183818 0.692907 0.210267
Si Si2 0.717319 0.304906 0.538032
Si Si3 0.522489 0.189509 0.410747
Si Si4 0.059440 0.695747 0.124265
Si Si5 0.180389 0.686499 0.872870
Si Si6 0.087733 0.812635 0.637852
Si Si7 0.417871 0.306117 0.666508
Si Si8 0.299658 0.690194 0.945914
O O1 0.183586 0.500000 0.219088
O O2 0.240872 0.752036 0.334513
O O3 0.120810 0.751647 0.162637
O O4 0.187615 0.732579 0.121978
O O5 0.715960 0.500000 0.539116
O O6 0.750000 0.250000 0.500000
O O7 0.649081 0.251589 0.442572
O O8 0.577014 0.240819 0.536852
O O9 0.470509 0.292416 0.383356
O O10 0.537759 0.232224 0.340585
O O11 0.509600 0.000000 0.403587
O O12 0.059102 0.500000 0.123729
O O13 0.063859 0.754098 0.221071
O O14 0.000000 0.747385 0.000000
O O15 0.189609 0.500000 0.904610
O O16 0.134064 0.706380 0.743802
O O17 0.239360 0.755129 0.907664
O O18 0.158316 0.774459 0.924491
O O19 0.104462 0.000000 0.654700
O O20 0.419357 0.500000 0.663015
O O21 0.294379 0.500000 0.926904
#
# Coordination Sequence:
#
# PCOD9207850 Si02
#       8
#     8   8   8   8   8   8   8   8
#     4  10  21  38  59  86 119 156 198 249 307 365
#     4  10  21  37  60  88 119 156 197 246 305 360
#     4  11  23  40  61  87 120 158 199 240 291 356
#     4  10  22  41  63  86 116 158 204 247 297 359
#     4  10  21  39  60  85 118 158 200 244 298 358
#     4  11  22  39  62  88 120 155 196 248 298 347
#     4  11  23  39  60  91 123 156 199 249 304 358
#     4  10  22  38  58  87 118 154 201 249 297 352
#
# _framework density 20.259485999999999
#
# number of rings (size 3 to 8) (size 9 to 14) (size 15 to 20)
#    0.000    1.625    1.250    4.125    1.750    4.250 
#    0.000    3.750    0.000    0.000    0.000    0.000 
#    0.000    0.000    0.000    0.000    0.000    0.000 
#
# Total GULP energy -178541.958086 kJ/mol
# GULP energy per Si atom -5579.436190 kJ/mol
# Density = 2.021337 g / cm^3
# Si number density = 20.259486 Si / 1000 Ang^3
#
#
#
# Elastic Constant Matrix: (Units=GPa)
#
#
# Indices 1 2 3 4 5 6 
#
# 1 75.9775 5.4083 33.4768 0.0000 -29.9336 0.0000
# 2 5.4083 36.1319 12.6947 0.0000 2.5129 0.0000
# 3 33.4768 12.6947 98.9524 0.0000 -15.9677 0.0000
# 4 0.0000 0.0000 0.0000 27.2208 0.0000 -7.5131
# 5 -29.9336 2.5129 -15.9677 0.0000 35.0306 0.0000
# 6 0.0000 0.0000 0.0000 -7.5131 0.0000 24.7800
#
#
#
# Elastic Compliance Matrix: (Units=1/GPa)
#
#
# Indices 1 2 3 4 5 6 
#
# 1 0.021981 -0.002961 -0.004308 0.000000 0.017031 0.000000
# 2 -0.002961 0.029930 -0.003878 0.000000 -0.006445 0.000000
# 3 -0.004308 -0.003878 0.012426 0.000000 0.002261 0.000000
# 4 0.000000 0.000000 0.000000 0.040092 0.000000 0.012155
# 5 0.017031 -0.006445 0.002261 0.000000 0.044592 0.000000
# 6 0.000000 0.000000 0.000000 0.012155 0.000000 0.044040
#
#
# Mechanical properties :
#
#
# Convention : Reuss Voigt Hill
#
# Bulk Modulus (GPa) = 23.78554 34.91350 29.34952
# Shear Modulus (GPa) = 21.79887 28.03841 24.91864
#
# Velocity S-wave (km/s) = 3.28378 3.72420 3.51090
# Velocity P-wave (km/s) = 5.11307 5.98026 5.56359
#
# Compressibility (1/GPa) = 0.04204235
#
# Stress axis : x y z
#
# Youngs Moduli (GPa) = 45.49439 33.41096 80.47819
#
# Poissons Ratio (x) = 0.09893 0.34672
# Poissons Ratio (y) = 0.13470 0.31210
# Poissons Ratio (z) = 0.19600 0.12957
#
# Static dielectric constant tensor:
#      x y z
#    x 1.760350 0.000000 0.167220 
#    y 0.000000 1.709880 0.000000 
#    z 0.167220 0.000000 2.056810 
# 
# From -- ./inp_files/250002.got.cif
#   From: 2010.05.17/outbox.cif.g08.bks.cpg/sg12_126_cif.got.tgz:250002.got - 2010.06.03 13:09:07.
