data_PCOD9207946
_publ_section_title
;
Structure prediction by ZEFSAII (Michael W. Deem and Ramdas Pophale) SiO2 
 PCOD9207946
Probable space group: C 2/M
;
_chemical_formula_sum "Si O2"
_cell_formula_units_Z 56
_cell_length_a 16.802551
_cell_length_b 15.262208
_cell_length_c 24.860455
_cell_angle_alpha 90.000000
_cell_angle_beta 27.915100
_cell_angle_gamma 90.000000
_cell_volume 2984.684852
_symmetry_space_group_name_H-M "C 2/M"
_symmetry_group_IT_number 12
_symmetry_cell_setting 'monoclinic'
loop_
_space_group_symop_operation_xyz
x,y,z
-x,y,-z
-x,-y,-z
x,-y,z
1/2+x,1/2+y,z
1/2-x,1/2+y,-z
1/2-x,1/2-y,-z
1/2+x,1/2-y,z
loop_
_atom_site_type_symbol
_atom_site_label
_atom_site_fract_x
_atom_site_fract_y
_atom_site_fract_z
Si Si1 0.907403 0.720144 0.665793
Si Si2 0.989328 0.897152 0.742258
Si Si3 0.525221 0.598915 0.548847
Si Si4 0.407285 0.405015 0.996848
Si Si5 0.695419 0.237090 0.894966
Si Si6 0.178248 0.899667 0.737920
Si Si7 0.787569 0.600661 0.476980
O O1 0.931555 0.818597 0.630680
O O2 0.772854 0.723005 0.794287
O O3 0.832612 0.661220 0.662877
O O4 0.074984 0.672642 0.588774
O O5 0.087230 0.870052 0.737899
O O6 0.122368 0.887174 0.613772
O O7 0.820251 0.841198 0.835682
O O8 0.948571 0.000000 0.771215
O O9 0.500000 0.603384 0.500000
O O10 0.470101 0.500000 0.598847
O O11 0.716539 0.607795 0.458534
O O12 0.317618 0.500000 0.045732
O O13 0.302108 0.315517 0.062760
O O14 0.500000 0.406107 0.000000
O O15 0.541476 0.400124 0.868222
O O16 0.500000 0.211056 0.000000
O O17 0.235872 0.000000 0.695847
O O18 0.850018 0.500000 0.447856
#
# Coordination Sequence:
#
# PCOD9207946 Si02
#       7
#     8   8   8   8   8   8   8
#     4  12  22  36  65  91 121 157 202 249 301 360
#     4  10  23  41  60  85 125 159 194 251 306 359
#     4  10  23  41  61  85 121 162 201 243 295 356
#     4   9  17  34  56  81 119 156 192 240 296 349
#     4  11  22  38  60  90 115 159 209 244 300 358
#     4  10  21  37  60  92 123 157 196 248 309 358
#     4  10  22  40  62  92 122 157 198 247 306 364
#
# _framework density 18.762450000000001
#
# number of rings (size 3 to 8) (size 9 to 14) (size 15 to 20)
#    0.000    1.714    4.286    0.857    2.000    1.429 
#    0.000    2.143    0.000    0.857    0.000    0.000 
#    0.000    0.000    0.000    0.000    0.000    0.000 
#
# Total GULP energy -156138.343536 kJ/mol
# GULP energy per Si atom -5576.369412 kJ/mol
# Density = 1.871975 g / cm^3
# Si number density = 18.762450 Si / 1000 Ang^3
#
#
#
# Elastic Constant Matrix: (Units=GPa)
#
#
# Indices 1 2 3 4 5 6 
#
# 1 122.9406 48.6829 30.3557 -0.0007 -11.6429 -0.0001
# 2 48.6829 107.5718 42.5043 0.0026 -23.7718 -0.0008
# 3 30.3557 42.5043 56.0775 -0.0040 -15.8327 0.0017
# 4 -0.0007 0.0026 -0.0040 22.9905 0.0005 -6.5463
# 5 -11.6429 -23.7718 -15.8327 0.0005 25.0291 -0.0004
# 6 -0.0001 -0.0008 0.0017 -6.5463 -0.0004 24.8802
#
#
#
# Elastic Compliance Matrix: (Units=1/GPa)
#
#
# Indices 1 2 3 4 5 6 
#
# 1 0.010234 -0.003567 -0.002981 0.000000 -0.000513 0.000000
# 2 -0.003567 0.015817 -0.007651 -0.000003 0.008523 0.000000
# 3 -0.002981 -0.007651 0.027760 0.000005 0.008907 -0.000001
# 4 0.000000 -0.000003 0.000005 0.047019 0.000000 0.012371
# 5 -0.000513 0.008523 0.008907 0.000000 0.053444 0.000000
# 6 0.000000 0.000000 -0.000001 0.012371 0.000000 0.043448
#
#
# Mechanical properties :
#
#
# Convention : Reuss Voigt Hill
#
# Bulk Modulus (GPa) = 39.35067 58.85284 49.10175
# Shear Modulus (GPa) = 21.31363 25.58309 23.44836
#
# Velocity S-wave (km/s) = 3.37408 3.69660 3.53901
# Velocity P-wave (km/s) = 6.01646 7.04665 6.55183
#
# Compressibility (1/GPa) = 0.02541253
#
# Stress axis : x y z
#
# Youngs Moduli (GPa) = 97.71388 63.22235 36.02271
#
# Poissons Ratio (x) = 0.22551 0.10738
# Poissons Ratio (y) = 0.34854 0.27563
# Poissons Ratio (z) = 0.29129 0.48374
#
# Static dielectric constant tensor:
#      x y z
#    x 1.662520 0.000000 0.005270 
#    y 0.000000 1.695730 0.000000 
#    z 0.005270 0.000000 1.631210 
# 
# From -- ./inp_files/340295.got.cif
#   From: 2010.05.17/outbox.cif.g08.bks.cpg/sg12_171_cif.got.tgz:340295.got - 2010.06.03 13:09:07.
