data_PCOD9207173
_publ_section_title
;
Structure prediction by ZEFSAII (Michael W. Deem and Ramdas Pophale) SiO2 
 PCOD9207173
Probable space group: C 2/M
;
_chemical_formula_sum "Si O2"
_cell_formula_units_Z 48
_cell_length_a 18.829498
_cell_length_b 8.850642
_cell_length_c 32.340738
_cell_angle_alpha 90.000000
_cell_angle_beta 29.329352
_cell_angle_gamma 90.000000
_cell_volume 2640.025119
_symmetry_space_group_name_H-M "C 2/M"
_symmetry_group_IT_number 12
_symmetry_cell_setting 'monoclinic'
loop_
_space_group_symop_operation_xyz
x,y,z
-x,y,-z
-x,-y,-z
x,-y,z
1/2+x,1/2+y,z
1/2-x,1/2+y,-z
1/2-x,1/2-y,-z
1/2+x,1/2-y,z
loop_
_atom_site_type_symbol
_atom_site_label
_atom_site_fract_x
_atom_site_fract_y
_atom_site_fract_z
Si Si1 0.895127 0.682128 0.266552
Si Si2 0.421812 0.819167 0.583266
Si Si3 0.439603 0.319702 0.738955
Si Si4 0.909401 0.181054 0.424715
Si Si5 0.823962 0.680026 0.922731
Si Si6 0.167200 0.818551 0.916162
O O1 0.888831 0.500000 0.271191
O O2 0.738839 0.750500 0.337020
O O3 0.960297 0.741506 0.276908
O O4 0.012425 0.727647 0.171898
O O5 0.500000 0.785471 0.500000
O O6 0.512464 0.749657 0.574942
O O7 0.414588 0.000000 0.591499
O O8 0.445542 0.500000 0.742038
O O9 0.499111 0.285031 0.663223
O O10 0.276354 0.261066 0.829060
O O11 0.750000 0.250000 0.500000
O O12 0.899428 0.000000 0.433922
O O13 0.825622 0.500000 0.926857
O O14 0.730539 0.715045 0.929347
O O15 0.750000 0.750000 0.000000
O O16 0.174991 0.000000 0.905788
O O17 0.000000 0.772069 0.000000
#
# Coordination Sequence:
#
# PCOD9207173 Si02
#       6
#     8   8   8   8   8   8
#     4  10  21  38  59  83 112 147 187 229 277 332
#     4  11  24  40  59  85 114 145 185 230 275 328
#     4  10  21  37  57  83 113 145 186 232 276 327
#     4  11  24  40  59  85 115 147 185 228 275 330
#     4   9  19  34  53  79 109 142 181 225 272 325
#     4   9  19  36  56  79 108 144 187 230 274 327
#
# _framework density 18.181646000000001
#
# number of rings (size 3 to 8) (size 9 to 14) (size 15 to 20)
#    0.000    2.000    0.000    4.000    0.000   13.000 
#    0.000    3.333    0.000    0.000    0.000    0.000 
#    0.000    0.000    0.000    0.000    0.000    0.000 
#
# Total GULP energy -134041.104304 kJ/mol
# GULP energy per Si atom -5585.046013 kJ/mol
# Density = 1.814026 g / cm^3
# Si number density = 18.181646 Si / 1000 Ang^3
#
#
#
# Elastic Constant Matrix: (Units=GPa)
#
#
# Indices 1 2 3 4 5 6 
#
# 1 122.2230 63.3363 119.5247 0.0001 -6.4568 -0.0034
# 2 63.3363 61.5846 88.4347 0.0038 6.7024 -0.0036
# 3 119.5247 88.4347 213.5711 0.0001 -5.5732 0.0000
# 4 0.0001 0.0038 0.0001 38.7434 -0.0004 -0.4089
# 5 -6.4568 6.7024 -5.5732 -0.0004 40.7776 0.0001
# 6 -0.0034 -0.0036 0.0000 -0.4089 0.0001 30.6993
#
#
#
# Elastic Compliance Matrix: (Units=1/GPa)
#
#
# Indices 1 2 3 4 5 6 
#
# 1 0.021836 -0.013865 -0.006352 0.000001 0.004868 0.000001
# 2 -0.013865 0.052343 -0.014247 -0.000005 -0.012746 0.000005
# 3 -0.006352 -0.014247 0.014222 0.000001 0.003280 -0.000002
# 4 0.000001 -0.000005 0.000001 0.025814 0.000002 0.000344
# 5 0.004868 -0.012746 0.003280 0.000002 0.027837 -0.000001
# 6 0.000001 0.000005 -0.000002 0.000344 -0.000001 0.032579
#
#
# Mechanical properties :
#
#
# Convention : Reuss Voigt Hill
#
# Bulk Modulus (GPa) = 51.35456 104.44112 77.89784
# Shear Modulus (GPa) = 19.99593 30.44959 25.22276
#
# Velocity S-wave (km/s) = 3.31990 4.09680 3.72864
# Velocity P-wave (km/s) = 6.55761 8.94127 7.84055
#
# Compressibility (1/GPa) = 0.01947247
#
# Stress axis : x y z
#
# Youngs Moduli (GPa) = 45.79640 19.10468 70.31304
#
# Poissons Ratio (x) = 0.26489 0.44663
# Poissons Ratio (y) = 0.63498 1.00175
# Poissons Ratio (z) = 0.29090 0.27218
#
# Static dielectric constant tensor:
#      x y z
#    x 1.592180 0.000000 0.002480 
#    y 0.000000 1.612440 0.000000 
#    z 0.002480 0.000000 1.620130 
# 
# From -- ./inp_files/274043.got.cif
#   From: 2010.05.17/outbox.cif.g08.bks.cpg/sg12_138_cif.got.tgz:274043.got - 2010.06.03 13:09:07.
