data_PCOD9207750
_publ_section_title
;
Structure prediction by ZEFSAII (Michael W. Deem and Ramdas Pophale) SiO2 
 PCOD9207750
Probable space group: C 2/M
;
_chemical_formula_sum "Si O2"
_cell_formula_units_Z 64
_cell_length_a 18.344310
_cell_length_b 15.109301
_cell_length_c 17.708849
_cell_angle_alpha 90.000000
_cell_angle_beta 139.678363
_cell_angle_gamma 90.000000
_cell_volume 3176.088185
_symmetry_space_group_name_H-M "C 2/M"
_symmetry_group_IT_number 12
_symmetry_cell_setting 'monoclinic'
loop_
_space_group_symop_operation_xyz
x,y,z
-x,y,-z
-x,-y,-z
x,-y,z
1/2+x,1/2+y,z
1/2-x,1/2+y,-z
1/2-x,1/2-y,-z
1/2+x,1/2-y,z
loop_
_atom_site_type_symbol
_atom_site_label
_atom_site_fract_x
_atom_site_fract_y
_atom_site_fract_z
Si Si1 0.042968 0.798913 0.454429
Si Si2 0.455013 0.400335 0.238858
Si Si3 0.290076 0.399072 0.850716
Si Si4 0.219297 0.731824 0.388935
Si Si5 0.240672 0.353489 0.984376
Si Si6 0.872057 0.105409 0.759863
Si Si7 0.015478 0.598902 0.229864
Si Si8 0.975168 0.598693 0.377205
O O1 0.174121 0.821594 0.555866
O O2 0.026960 0.691926 0.443580
O O3 0.000000 0.834817 0.500000
O O4 0.985801 0.835115 0.332079
O O5 0.485811 0.500000 0.286610
O O6 0.522191 0.382092 0.213261
O O7 0.325947 0.395506 0.111552
O O8 0.325601 0.500000 0.887857
O O9 0.280279 0.368063 0.929033
O O10 0.371158 0.365436 0.847392
O O11 0.160439 0.395216 0.718586
O O12 0.250000 0.750000 0.500000
O O13 0.214962 0.827564 0.346723
O O14 0.105680 0.676070 0.285371
O O15 0.112456 0.383113 0.897191
O O16 0.250000 0.250000 0.000000
O O17 0.845068 0.000000 0.736888
O O18 0.051541 0.500000 0.233871
O O19 0.001009 0.597550 0.308729
O O20 0.012996 0.500000 0.433400
#
# Coordination Sequence:
#
# PCOD9207750 Si02
#       8
#     8   8   8   8   8   8   8   8
#     4  12  25  40  60  88 126 166 212 266 321 382
#     4  11  23  40  61  88 121 165 217 260 313 377
#     4   9  18  34  57  91 130 163 201 252 320 397
#     4  12  22  38  62  90 127 164 217 257 308 384
#     4  11  21  37  67  94 127 163 209 261 323 392
#     4  10  21  37  59  90 130 166 203 261 330 391
#     4  10  21  39  63  91 123 164 210 261 320 380
#     4   9  17  33  56  86 124 159 195 243 312 389
#
# _framework density 20.150575
#
# number of rings (size 3 to 8) (size 9 to 14) (size 15 to 20)
#    0.000    1.500    2.500    4.875    0.000    2.500 
#    0.000    1.875    0.000    2.250    0.000    4.375 
#    0.000    0.000    0.000    0.000    0.000    0.000 
#
# Total GULP energy -178282.167529 kJ/mol
# GULP energy per Si atom -5571.317735 kJ/mol
# Density = 2.010471 g / cm^3
# Si number density = 20.150575 Si / 1000 Ang^3
#
#
#
# Elastic Constant Matrix: (Units=GPa)
#
#
# Indices 1 2 3 4 5 6 
#
# 1 116.6551 25.5040 53.8075 0.0000 2.1811 0.0000
# 2 25.5040 91.1015 36.8063 0.0000 -1.0075 0.0000
# 3 53.8075 36.8063 99.1824 0.0000 7.9618 0.0000
# 4 0.0000 0.0000 0.0000 -17.0572 0.0000 0.8606
# 5 2.1811 -1.0075 7.9618 0.0000 13.4605 0.0000
# 6 0.0000 0.0000 0.0000 0.8606 0.0000 17.8086
#
#
#
# Elastic Compliance Matrix: (Units=1/GPa)
#
#
# Indices 1 2 3 4 5 6 
#
# 1 0.011521 -0.000737 -0.006113 0.000000 0.001694 0.000000
# 2 -0.000737 0.013167 -0.004803 0.000000 0.003946 0.000000
# 3 -0.006113 -0.004803 0.015885 0.000000 -0.008765 0.000000
# 4 0.000000 0.000000 0.000000 -0.058484 0.000000 0.002826
# 5 0.001694 0.003946 -0.008765 0.000000 0.079496 0.000000
# 6 0.000000 0.000000 0.000000 0.002826 0.000000 0.056016
#
#
# Mechanical properties :
#
#
# Convention : Reuss Voigt Hill
#
# Bulk Modulus (GPa) = 57.91364 59.90830 58.91097
# Shear Modulus (GPa) = 34.09140 15.56378 24.82759
#
# Velocity S-wave (km/s) = 4.11765 2.78218 3.51394
# Velocity P-wave (km/s) = 7.17005 6.33368 6.76480
#
# Compressibility (1/GPa) = 0.01726709
#
# Stress axis : x y z
#
# Youngs Moduli (GPa) = 86.79545 75.94548 62.95311
#
# Poissons Ratio (x) = 0.05597 0.38483
# Poissons Ratio (y) = 0.06397 0.30238
# Poissons Ratio (z) = 0.53057 0.36479
#
# Static dielectric constant tensor:
#      x y z
#    x 1.830710 0.000000 0.009900 
#    y 0.000000 1.660340 0.000000 
#    z 0.009900 0.000000 1.793390 
# 
# From -- ./inp_files/278184.got.cif
#   From: 2010.05.17/outbox.cif.g08.bks.cpg/sg12_140_cif.got.tgz:278184.got - 2010.06.03 13:09:07.
