data_PCOD9207589
_publ_section_title
;
Structure prediction by ZEFSAII (Michael W. Deem and Ramdas Pophale) SiO2 
 PCOD9207589
Probable space group: C 2/M
;
_chemical_formula_sum "Si O2"
_cell_formula_units_Z 56
_cell_length_a 13.413198
_cell_length_b 12.443645
_cell_length_c 27.939607
_cell_angle_alpha 90.000000
_cell_angle_beta 149.350696
_cell_angle_gamma 90.000000
_cell_volume 2377.303676
_symmetry_space_group_name_H-M "C 2/M"
_symmetry_group_IT_number 12
_symmetry_cell_setting 'monoclinic'
loop_
_space_group_symop_operation_xyz
x,y,z
-x,y,-z
-x,-y,-z
x,-y,z
1/2+x,1/2+y,z
1/2-x,1/2+y,-z
1/2-x,1/2-y,-z
1/2+x,1/2-y,z
loop_
_atom_site_type_symbol
_atom_site_label
_atom_site_fract_x
_atom_site_fract_y
_atom_site_fract_z
Si Si1 0.866512 0.625626 0.096664
Si Si2 0.259627 0.118599 0.199781
Si Si3 0.781420 0.342935 0.401825
Si Si4 0.780151 0.383914 0.592272
Si Si5 0.035559 0.120260 0.395706
Si Si6 0.499438 0.784275 0.947331
Si Si7 0.322771 0.282215 0.739021
O O1 0.849947 0.500000 0.101033
O O2 0.955472 0.641338 0.079638
O O3 0.012271 0.690337 0.191971
O O4 0.662634 0.689600 0.013737
O O5 0.486464 0.118758 0.307838
O O6 0.143631 0.143875 0.200732
O O7 0.201995 0.219391 0.143647
O O8 0.211646 0.000000 0.160776
O O9 0.794921 0.213441 0.407836
O O10 0.643949 0.372131 0.389365
O O11 0.694444 0.359625 0.313657
O O12 0.000000 0.384523 0.500000
O O13 0.716778 0.500000 0.584293
O O14 0.697954 0.370506 0.504656
O O15 0.877936 0.214318 0.336257
O O16 0.947533 0.000000 0.363147
O O17 0.500000 0.836075 0.000000
#
# Coordination Sequence:
#
# PCOD9207589 Si02
#       7
#     8   8   8   8   8   8   8
#     4  10  23  42  64  93 125 159 201 248 301 363
#     4  10  21  39  62  85 118 159 199 246 303 356
#     4  12  23  37  62  88 122 161 209 252 298 354
#     4  10  21  37  59  85 118 160 204 247 298 356
#     4  11  23  41  60  86 125 164 202 252 305 355
#     4  10  23  42  65  93 124 157 199 252 305 358
#     4  11  23  39  62  88 125 161 202 251 301 358
#
# _framework density 23.556099
#
# number of rings (size 3 to 8) (size 9 to 14) (size 15 to 20)
#    0.000    1.429    2.857    2.143    2.000    3.714 
#    0.000    0.000    0.000    5.143    0.000    0.000 
#    0.000    0.000    0.000    0.000    0.000    0.000 
#
# Total GULP energy -156620.256701 kJ/mol
# GULP energy per Si atom -5593.580596 kJ/mol
# Density = 2.350248 g / cm^3
# Si number density = 23.556099 Si / 1000 Ang^3
#
#
#
# Elastic Constant Matrix: (Units=GPa)
#
#
# Indices 1 2 3 4 5 6 
#
# 1 100.4064 -5.0004 14.6739 0.0000 -18.5578 0.0001
# 2 -5.0004 87.6334 4.9586 0.0001 10.5638 0.0001
# 3 14.6739 4.9586 87.3464 -0.0003 -0.6141 -0.0002
# 4 0.0000 0.0001 -0.0003 3.8196 0.0000 -29.3300
# 5 -18.5578 10.5638 -0.6141 0.0000 45.8501 -0.0001
# 6 0.0001 0.0001 -0.0002 -29.3300 -0.0001 -80.2342
#
#
#
# Elastic Compliance Matrix: (Units=1/GPa)
#
#
# Indices 1 2 3 4 5 6 
#
# 1 0.011052 0.000204 -0.001837 0.000000 0.004402 0.000000
# 2 0.000204 0.011782 -0.000722 0.000000 -0.002642 0.000000
# 3 -0.001837 -0.000722 0.011795 0.000000 -0.000419 0.000000
# 4 0.000000 0.000000 0.000000 0.068769 0.000000 -0.025139
# 5 0.004402 -0.002642 -0.000419 0.000000 0.024195 0.000000
# 6 0.000000 0.000000 0.000000 -0.025139 0.000000 -0.003274
#
#
# Mechanical properties :
#
#
# Convention : Reuss Voigt Hill
#
# Bulk Modulus (GPa) = 33.42339 33.85003 33.63671
# Shear Modulus (GPa) = 35.97056 11.27071 23.62064
#
# Velocity S-wave (km/s) = 3.91195 2.18975 3.17004
# Velocity P-wave (km/s) = 5.88422 4.56010 5.26396
#
# Compressibility (1/GPa) = 0.02991917
#
# Stress axis : x y z
#
# Youngs Moduli (GPa) = 90.48365 84.87457 84.77920
#
# Poissons Ratio (x) = -0.01731 0.15576
# Poissons Ratio (y) = -0.01846 0.06119
# Poissons Ratio (z) = 0.16624 0.06125
#
# Static dielectric constant tensor:
#      x y z
#    x 1.899340 0.000000 -0.021820 
#    y 0.000000 1.881020 0.000000 
#    z -0.021820 0.000000 1.948250 
# 
# From -- ./inp_files/376396.got.cif
#   From: 2010.05.17/outbox.cif.g08.bks.cpg/sg12_189_cif.got.tgz:376396.got - 2010.06.03 13:09:07.
