data_PCOD9207156
_publ_section_title
;
Structure prediction by ZEFSAII (Michael W. Deem and Ramdas Pophale) SiO2 
 PCOD9207156
Probable space group: C 2/M
;
_chemical_formula_sum "Si O2"
_cell_formula_units_Z 56
_cell_length_a 10.410848
_cell_length_b 14.618287
_cell_length_c 23.615036
_cell_angle_alpha 90.000000
_cell_angle_beta 38.686435
_cell_angle_gamma 90.000000
_cell_volume 2246.422440
_symmetry_space_group_name_H-M "C 2/M"
_symmetry_group_IT_number 12
_symmetry_cell_setting 'monoclinic'
loop_
_space_group_symop_operation_xyz
x,y,z
-x,y,-z
-x,-y,-z
x,-y,z
1/2+x,1/2+y,z
1/2-x,1/2+y,-z
1/2-x,1/2-y,-z
1/2+x,1/2-y,z
loop_
_atom_site_type_symbol
_atom_site_label
_atom_site_fract_x
_atom_site_fract_y
_atom_site_fract_z
Si Si1 0.938255 0.251287 0.676509
Si Si2 0.456111 0.609942 0.079176
Si Si3 0.676078 0.899876 0.801051
Si Si4 0.838785 0.606358 0.010050
Si Si5 0.521616 0.102925 0.727171
Si Si6 0.294526 0.399770 0.448878
Si Si7 0.818031 0.599755 0.644260
O O1 0.825992 0.183957 0.759300
O O2 0.083843 0.319685 0.661512
O O3 0.776631 0.315688 0.699162
O O4 0.059734 0.186104 0.590976
O O5 0.494748 0.500000 0.064589
O O6 0.220089 0.620120 0.177453
O O7 0.500000 0.642361 0.000000
O O8 0.619170 0.648147 0.068954
O O9 0.466998 0.894149 0.907674
O O10 0.629503 0.894925 0.750531
O O11 0.766585 0.000000 0.783504
O O12 0.804575 0.500000 0.040416
O O13 0.000000 0.646064 0.000000
O O14 0.547293 0.000000 0.695335
O O15 0.382778 0.500000 0.433232
O O16 0.263514 0.395497 0.391365
O O17 0.066455 0.396305 0.552219
O O18 0.758006 0.500000 0.688378
#
# Coordination Sequence:
#
# PCOD9207156 Si02
#       7
#     8   8   8   8   8   8   8
#     4  12  21  34  55  87 116 145 184 236 284 336
#     4   9  15  31  59  79 102 151 204 236 279 348
#     4  10  21  38  57  80 116 155 189 233 296 350
#     4   9  17  33  57  83 109 146 197 251 292 332
#     4  10  21  37  57  82 113 154 195 235 286 347
#     4   9  19  37  59  81 110 149 187 223 278 339
#     4   9  19  37  59  82 110 146 187 231 272 329
#
# _framework density 24.928526000000002
#
# number of rings (size 3 to 8) (size 9 to 14) (size 15 to 20)
#    0.000    2.286    1.429    3.000    0.000    0.000 
#    5.143    1.429    0.000    0.000    0.000   12.000 
#    0.000    0.000    0.000    0.000    0.000    0.000 
#
# Total GULP energy -156504.070119 kJ/mol
# GULP energy per Si atom -5589.431076 kJ/mol
# Density = 2.487179 g / cm^3
# Si number density = 24.928526 Si / 1000 Ang^3
#
#
#
# Elastic Constant Matrix: (Units=GPa)
#
#
# Indices 1 2 3 4 5 6 
#
# 1 86.8249 10.4503 -3.9211 -0.0006 1.7652 -0.0005
# 2 10.4503 151.6747 12.9935 -0.0004 0.5153 -0.0002
# 3 -3.9211 12.9935 42.1901 -0.0014 -12.2403 -0.0007
# 4 -0.0006 -0.0004 -0.0014 5.1820 0.0006 -10.8923
# 5 1.7652 0.5153 -12.2403 0.0006 35.5298 0.0005
# 6 -0.0005 -0.0002 -0.0007 -10.8923 0.0005 1.2843
#
#
#
# Elastic Compliance Matrix: (Units=1/GPa)
#
#
# Indices 1 2 3 4 5 6 
#
# 1 0.011691 -0.000920 0.001339 -0.000001 -0.000106 -0.000001
# 2 -0.000920 0.006871 -0.002463 0.000000 -0.000903 0.000000
# 3 0.001339 -0.002463 0.027306 -0.000002 0.009376 -0.000004
# 4 -0.000001 0.000000 -0.000002 -0.011468 0.000001 -0.097264
# 5 -0.000106 -0.000903 0.009376 0.000001 0.031394 0.000001
# 6 -0.000001 0.000000 -0.000004 -0.097264 0.000001 -0.046273
#
#
# Mechanical properties :
#
#
# Convention : Reuss Voigt Hill
#
# Bulk Modulus (GPa) = 23.93569 35.52610 29.73089
# Shear Modulus (GPa) = 133.21306 25.81035 79.51170
#
# Velocity S-wave (km/s) = 7.31806 3.22121 5.65377
# Velocity P-wave (km/s) = 9.00155 5.30255 7.38732
#
# Compressibility (1/GPa) = 0.04177862
#
# Stress axis : x y z
#
# Youngs Moduli (GPa) = 85.53752 145.54939 36.62261
#
# Poissons Ratio (x) = 0.13388 -0.04904
# Poissons Ratio (y) = 0.07868 0.09021
# Poissons Ratio (z) = -0.11454 0.35853
#
# Static dielectric constant tensor:
#      x y z
#    x 1.998210 0.000000 -0.017780 
#    y 0.000000 2.016940 0.000000 
#    z -0.017780 0.000000 1.945770 
# 
# From -- ./inp_files/263252.got.cif
#   From: 2010.05.17/outbox.cif.g08.bks.cpg/sg12_132_cif.got.tgz:263252.got - 2010.06.03 13:09:07.
