data_PCOD9207001
_publ_section_title
;
Structure prediction by ZEFSAII (Michael W. Deem and Ramdas Pophale) SiO2 
 PCOD9207001
Probable space group: C 2/M
;
_chemical_formula_sum "Si O2"
_cell_formula_units_Z 42
_cell_length_a 14.065137
_cell_length_b 9.756593
_cell_length_c 17.448520
_cell_angle_alpha 90.000000
_cell_angle_beta 54.299976
_cell_angle_gamma 90.000000
_cell_volume 1944.470331
_symmetry_space_group_name_H-M "C 2/M"
_symmetry_group_IT_number 12
_symmetry_cell_setting 'monoclinic'
loop_
_space_group_symop_operation_xyz
x,y,z
-x,y,-z
-x,-y,-z
x,-y,z
1/2+x,1/2+y,z
1/2-x,1/2+y,-z
1/2-x,1/2-y,-z
1/2+x,1/2-y,z
loop_
_atom_site_type_symbol
_atom_site_label
_atom_site_fract_x
_atom_site_fract_y
_atom_site_fract_z
Si Si1 0.000000 0.500000 0.000000
Si Si2 0.150190 0.342864 0.637793
Si Si3 0.423840 0.656935 0.460602
Si Si4 0.573243 0.731889 0.062059
Si Si5 0.329096 0.655046 0.224392
Si Si6 0.700318 0.842825 0.138707
O O1 0.949146 0.378959 0.966460
O O2 0.112474 0.500000 0.665666
O O3 0.286131 0.345789 0.547013
O O4 0.072320 0.263373 0.611372
O O5 0.154614 0.258364 0.714032
O O6 0.500000 0.694639 0.500000
O O7 0.457300 0.500000 0.423171
O O8 0.451097 0.654013 0.120818
O O9 0.611608 0.752504 0.132146
O O10 0.680295 0.663263 0.967387
O O11 0.301855 0.500000 0.262888
O O12 0.232420 0.704420 0.208939
O O13 0.662078 0.000000 0.161113
#
# Coordination Sequence:
#
# PCOD9207001 Si02
#       6
#     2   8   8   8   8   8
#     4  12  20  36  58  84 110 152 190 260 282 344
#     4  10  22  37  60  89 116 149 187 234 283 338
#     4   9  19  40  65  88 116 150 187 228 281 344
#     4  11  22  36  57  82 110 152 194 241 294 336
#     4  11  23  39  56  80 117 155 188 235 285 341
#     4  10  21  37  56  79 109 148 198 240 285 341
#
# _framework density 21.599713000000001
#
# number of rings (size 3 to 8) (size 9 to 14) (size 15 to 20)
#    0.000    1.714    2.857    1.143    1.333    4.190 
#    0.000    3.810    0.000    0.000    0.000    0.000 
#    0.000    0.000    0.000    0.000    0.000    0.000 
#
# Total GULP energy -117046.629069 kJ/mol
# GULP energy per Si atom -5573.649003 kJ/mol
# Density = 2.155055 g / cm^3
# Si number density = 21.599713 Si / 1000 Ang^3
#
#
#
# Elastic Constant Matrix: (Units=GPa)
#
#
# Indices 1 2 3 4 5 6 
#
# 1 134.7400 47.4993 33.2147 0.0000 51.5696 0.0000
# 2 47.4993 117.1635 38.3389 0.0000 34.1086 0.0000
# 3 33.2147 38.3389 49.9542 0.0000 28.0026 0.0000
# 4 0.0000 0.0000 0.0000 5.5213 0.0000 8.1356
# 5 51.5696 34.1086 28.0026 0.0000 48.5013 0.0000
# 6 0.0000 0.0000 0.0000 8.1356 0.0000 21.9269
#
#
#
# Elastic Compliance Matrix: (Units=1/GPa)
#
#
# Indices 1 2 3 4 5 6 
#
# 1 0.012738 -0.001434 -0.000505 0.000000 -0.012243 0.000000
# 2 -0.001434 0.012226 -0.006601 0.000000 -0.003262 0.000000
# 3 -0.000505 -0.006601 0.033292 0.000000 -0.014042 0.000000
# 4 0.000000 0.000000 0.000000 0.399573 0.000000 -0.148255
# 5 -0.012243 -0.003262 -0.014042 0.000000 0.044036 0.000000
# 6 0.000000 0.000000 0.000000 -0.148255 0.000000 0.100614
#
#
# Mechanical properties :
#
#
# Convention : Reuss Voigt Hill
#
# Bulk Modulus (GPa) = 24.28739 59.99595 42.14167
# Shear Modulus (GPa) = 7.89533 27.37689 17.63611
#
# Velocity S-wave (km/s) = 1.91396 3.56401 2.86054
# Velocity P-wave (km/s) = 4.01908 6.69125 5.51932
#
# Compressibility (1/GPa) = 0.04117363
#
# Stress axis : x y z
#
# Youngs Moduli (GPa) = 78.50644 81.79115 30.03724
#
# Poissons Ratio (x) = 0.11733 0.01518
# Poissons Ratio (y) = 0.11261 0.19829
# Poissons Ratio (z) = 0.03968 0.53993
#
# Static dielectric constant tensor:
#      x y z
#    x 1.790490 0.000000 -0.009010 
#    y 0.000000 1.748050 0.000000 
#    z -0.009010 0.000000 1.812040 
# 
# From -- ./inp_files/267071.got.cif
#   From: 2010.05.17/outbox.cif.g08.bks.cpg/sg12_134_cif.got.tgz:267071.got - 2010.06.03 13:09:07.
