data_PCOD9207080
_publ_section_title
;
Structure prediction by ZEFSAII (Michael W. Deem and Ramdas Pophale) SiO2 
 PCOD9207080
Probable space group: C 2/M
;
_chemical_formula_sum "Si O2"
_cell_formula_units_Z 50
_cell_length_a 24.206087
_cell_length_b 9.021253
_cell_length_c 15.605368
_cell_angle_alpha 90.000000
_cell_angle_beta 123.362694
_cell_angle_gamma 90.000000
_cell_volume 2846.158818
_symmetry_space_group_name_H-M "C 2/M"
_symmetry_group_IT_number 12
_symmetry_cell_setting 'monoclinic'
loop_
_space_group_symop_operation_xyz
x,y,z
-x,y,-z
-x,-y,-z
x,-y,z
1/2+x,1/2+y,z
1/2-x,1/2+y,-z
1/2-x,1/2-y,-z
1/2+x,1/2-y,z
loop_
_atom_site_type_symbol
_atom_site_label
_atom_site_fract_x
_atom_site_fract_y
_atom_site_fract_z
Si Si1 0.500000 0.500000 0.000000
Si Si2 0.405926 0.337334 0.790354
Si Si3 0.782492 0.177343 0.110711
Si Si4 0.088738 0.322774 0.701906
Si Si5 0.557088 0.823949 0.349198
Si Si6 0.134109 0.822871 0.566939
Si Si7 0.279550 0.175297 0.758259
O O1 0.539681 0.373211 0.090922
O O2 0.389030 0.500000 0.738157
O O3 0.432903 0.235291 0.737798
O O4 0.340965 0.267810 0.777206
O O5 0.853492 0.248974 0.192267
O O6 0.737824 0.205100 0.157035
O O7 0.789181 0.000000 0.106622
O O8 0.750000 0.250000 0.000000
O O9 0.098489 0.500000 0.705664
O O10 0.095725 0.253258 0.613378
O O11 0.017105 0.292945 0.680756
O O12 0.607233 0.742775 0.456147
O O13 0.567751 0.000000 0.362155
O O14 0.211790 0.792116 0.649184
O O15 0.124952 0.000000 0.563489
O O16 0.293150 0.000000 0.761124
#
# Coordination Sequence:
#
# PCOD9207080 Si02
#       7
#     2   8   8   8   8   8   8
#     4   8  24  44  58  84 114 144 200 240 300 344
#     4  10  22  41  62  84 115 149 201 246 295 355
#     4  10  21  37  58  87 117 153 203 253 302 359
#     4  10  21  37  56  84 124 162 201 246 299 360
#     4  11  23  38  59  88 121 161 203 247 295 363
#     4  10  21  37  60  90 123 160 199 244 304 356
#     4   9  20  39  60  85 119 155 194 244 301 360
#
# _framework density 17.567536
#
# number of rings (size 3 to 8) (size 9 to 14) (size 15 to 20)
#    0.480    1.600    0.000    3.840    0.000   10.240 
#    2.880    3.200    0.000    0.000    0.000    0.000 
#    0.000    0.000    0.000    0.000    0.000    0.000 
#
# Total GULP energy -139239.010800 kJ/mol
# GULP energy per Si atom -5569.560432 kJ/mol
# Density = 1.752755 g / cm^3
# Si number density = 17.567536 Si / 1000 Ang^3
#
#
#
# Elastic Constant Matrix: (Units=GPa)
#
#
# Indices 1 2 3 4 5 6 
#
# 1 94.5457 64.7664 70.0195 0.0000 0.4613 0.0000
# 2 64.7664 78.8203 63.1573 0.0000 0.9731 0.0000
# 3 70.0195 63.1573 138.2532 0.0000 0.0317 0.0000
# 4 0.0000 0.0000 0.0000 34.9378 0.0000 -2.9933
# 5 0.4613 0.9731 0.0317 0.0000 4.9483 0.0000
# 6 0.0000 0.0000 0.0000 -2.9933 0.0000 26.1283
#
#
#
# Elastic Compliance Matrix: (Units=1/GPa)
#
#
# Indices 1 2 3 4 5 6 
#
# 1 0.026615 -0.017479 -0.005495 0.000000 0.000991 0.000000
# 2 -0.017479 0.031566 -0.005567 0.000000 -0.004542 0.000000
# 3 -0.005495 -0.005567 0.012559 0.000000 0.001527 0.000000
# 4 0.000000 0.000000 0.000000 0.028906 0.000000 0.003312
# 5 0.000991 -0.004542 0.001527 0.000000 0.202879 0.000000
# 6 0.000000 0.000000 0.000000 0.003312 0.000000 0.038652
#
#
# Mechanical properties :
#
#
# Convention : Reuss Voigt Hill
#
# Bulk Modulus (GPa) = 73.21267 78.61172 75.91220
# Shear Modulus (GPa) = 12.41280 20.78128 16.59704
#
# Velocity S-wave (km/s) = 2.66103 3.44312 3.07702
# Velocity P-wave (km/s) = 7.15590 7.78795 7.47861
#
# Compressibility (1/GPa) = 0.01365884
#
# Stress axis : x y z
#
# Youngs Moduli (GPa) = 37.57299 31.67975 79.62586
#
# Poissons Ratio (x) = 0.55372 0.43754
# Poissons Ratio (y) = 0.65672 0.44326
# Poissons Ratio (z) = 0.20646 0.17636
#
# Static dielectric constant tensor:
#      x y z
#    x 1.578680 0.000000 -0.002610 
#    y 0.000000 1.588930 0.000000 
#    z -0.002610 0.000000 1.576130 
# 
# From -- ./inp_files/237266.got.cif
#   From: 2010.05.17/outbox.cif.g08.bks.cpg/sg12_119_cif.got.tgz:237266.got - 2010.06.03 13:09:07.
