data_PCOD9207702
_publ_section_title
;
Structure prediction by ZEFSAII (Michael W. Deem and Ramdas Pophale) SiO2 
 PCOD9207702
Probable space group: C 2/M
;
_chemical_formula_sum "Si O2"
_cell_formula_units_Z 56
_cell_length_a 20.395569
_cell_length_b 9.069724
_cell_length_c 27.498625
_cell_angle_alpha 90.000000
_cell_angle_beta 144.901914
_cell_angle_gamma 90.000000
_cell_volume 2924.772185
_symmetry_space_group_name_H-M "C 2/M"
_symmetry_group_IT_number 12
_symmetry_cell_setting 'monoclinic'
loop_
_space_group_symop_operation_xyz
x,y,z
-x,y,-z
-x,-y,-z
x,-y,z
1/2+x,1/2+y,z
1/2-x,1/2+y,-z
1/2-x,1/2-y,-z
1/2+x,1/2-y,z
loop_
_atom_site_type_symbol
_atom_site_label
_atom_site_fract_x
_atom_site_fract_y
_atom_site_fract_z
Si Si1 0.031847 0.824560 0.245624
Si Si2 0.554643 0.325662 0.979910
Si Si3 0.388296 0.824649 0.803538
Si Si4 0.182972 0.323821 0.841112
Si Si5 0.764139 0.824791 0.560661
Si Si6 0.448952 0.323481 0.521839
Si Si7 0.155214 0.823939 0.719533
O O1 0.092816 0.758424 0.235452
O O2 0.112933 0.794426 0.341105
O O3 0.910617 0.749279 0.181089
O O4 0.019261 0.000000 0.233035
O O5 0.542738 0.500000 0.960752
O O6 0.485676 0.230045 0.899524
O O7 0.500000 0.303550 0.000000
O O8 0.688157 0.289088 0.064207
O O9 0.266267 0.791573 0.754119
O O10 0.394760 0.000000 0.799912
O O11 0.170372 0.500000 0.833262
O O12 0.163856 0.261769 0.775253
O O13 0.750000 0.750000 0.500000
O O14 0.666617 0.761015 0.536527
O O15 0.751843 0.000000 0.548481
O O16 0.500000 0.287291 0.500000
O O17 0.427993 0.500000 0.510096
O O18 0.542556 0.289443 0.620044
O O19 0.154500 0.000000 0.729167
#
# Coordination Sequence:
#
# PCOD9207702 Si02
#       7
#     8   8   8   8   8   8   8
#     4  11  25  43  61  86 124 162 199 248 305 356
#     4  10  21  40  63  90 124 159 196 243 301 356
#     4  11  23  39  64  93 122 159 203 248 296 356
#     4  11  23  39  63  90 118 156 201 245 293 357
#     4  11  24  41  62  88 119 160 204 249 300 356
#     4  10  21  38  60  86 120 158 196 245 302 355
#     4  10  21  37  59  89 121 155 197 247 300 352
#
# _framework density 19.146791
#
# number of rings (size 3 to 8) (size 9 to 14) (size 15 to 20)
#    0.000    1.429    1.429    3.429    0.000   10.286 
#    0.000    0.000    0.000    0.000    0.000    0.000 
#    0.000    0.000    0.000    0.000    0.000    0.000 
#
# Total GULP energy -156605.929513 kJ/mol
# GULP energy per Si atom -5593.068911 kJ/mol
# Density = 1.910321 g / cm^3
# Si number density = 19.146791 Si / 1000 Ang^3
#
#
#
# Elastic Constant Matrix: (Units=GPa)
#
#
# Indices 1 2 3 4 5 6 
#
# 1 49.2205 16.9152 -3.5942 0.0000 11.9756 0.0000
# 2 16.9152 32.9703 27.4122 0.0000 9.4655 0.0001
# 3 -3.5942 27.4122 58.3778 0.0000 16.1182 0.0000
# 4 0.0000 0.0000 0.0000 30.0075 0.0000 -2.3591
# 5 11.9756 9.4655 16.1182 0.0000 32.1455 0.0000
# 6 0.0000 0.0001 0.0000 -2.3591 0.0000 37.9941
#
#
#
# Elastic Compliance Matrix: (Units=1/GPa)
#
#
# Indices 1 2 3 4 5 6 
#
# 1 0.036749 -0.032601 0.021705 0.000000 -0.014974 0.000000
# 2 -0.032601 0.079000 -0.041824 0.000000 0.009854 0.000000
# 3 0.021705 -0.041824 0.042873 0.000000 -0.017268 0.000000
# 4 0.000000 0.000000 0.000000 0.033488 0.000000 0.002079
# 5 -0.014974 0.009854 -0.017268 0.000000 0.042444 0.000000
# 6 0.000000 0.000000 0.000000 0.002079 0.000000 0.026449
#
#
# Mechanical properties :
#
#
# Convention : Reuss Voigt Hill
#
# Bulk Modulus (GPa) = 18.80302 24.67058 21.73680
# Shear Modulus (GPa) = 13.01512 26.68511 19.85011
#
# Velocity S-wave (km/s) = 2.61004 3.73729 3.22333
# Velocity P-wave (km/s) = 4.35027 5.61570 5.02299
#
# Compressibility (1/GPa) = 0.05318295
#
# Stress axis : x y z
#
# Youngs Moduli (GPa) = 27.21189 12.65825 23.32485
#
# Poissons Ratio (x) = 0.41267 -0.50627
# Poissons Ratio (y) = 0.88713 0.97553
# Poissons Ratio (z) = -0.59064 0.52941
#
# Static dielectric constant tensor:
#      x y z
#    x 1.652760 0.000000 0.000390 
#    y 0.000000 1.634230 0.000000 
#    z 0.000390 0.000000 1.645470 
# 
# From -- ./inp_files/363237.got.cif
#   From: 2010.05.17/outbox.cif.g08.bks.cpg/sg12_182_cif.got.tgz:363237.got - 2010.06.03 13:09:07.
