data_PCOD9207826
_publ_section_title
;
Structure prediction by ZEFSAII (Michael W. Deem and Ramdas Pophale) SiO2 
 PCOD9207826
Probable space group: C 2/M
;
_chemical_formula_sum "Si O2"
_cell_formula_units_Z 44
_cell_length_a 14.256383
_cell_length_b 20.213149
_cell_length_c 12.520523
_cell_angle_alpha 90.000000
_cell_angle_beta 29.426036
_cell_angle_gamma 90.000000
_cell_volume 1772.605970
_symmetry_space_group_name_H-M "C 2/M"
_symmetry_group_IT_number 12
_symmetry_cell_setting 'monoclinic'
loop_
_space_group_symop_operation_xyz
x,y,z
-x,y,-z
-x,-y,-z
x,-y,z
1/2+x,1/2+y,z
1/2-x,1/2+y,-z
1/2-x,1/2-y,-z
1/2+x,1/2-y,z
loop_
_atom_site_type_symbol
_atom_site_label
_atom_site_fract_x
_atom_site_fract_y
_atom_site_fract_z
Si Si1 0.000000 0.685923 0.000000
Si Si2 0.837352 0.072544 0.091086
Si Si3 0.256501 0.424626 0.820776
Si Si4 0.419189 0.400552 0.353333
Si Si5 0.999214 0.610059 0.286680
Si Si6 0.475673 0.748799 0.796809
O O1 0.819756 0.634973 0.177763
O O2 0.993311 0.731430 0.110873
O O3 0.627582 0.095657 0.263330
O O4 0.809743 0.000000 0.167879
O O5 0.000000 0.109599 0.000000
O O6 0.947874 0.069469 0.870036
O O7 0.215750 0.500000 0.826858
O O8 0.476312 0.420416 0.640847
O O9 0.129538 0.408066 0.054172
O O10 0.445508 0.321336 0.316556
O O11 0.205096 0.421245 0.536961
O O12 0.953741 0.687981 0.338170
O O13 0.250000 0.750000 0.000000
#
# Coordination Sequence:
#
# PCOD9207826 Si02
#       6
#     4   8   8   8   8   8
#     4  10  21  38  64  86 121 164 196 250 302 356
#     4  10  22  38  56  84 120 155 199 246 294 356
#     4  10  21  39  62  88 119 157 200 246 302 366
#     4  11  21  37  62  87 116 156 200 247 305 352
#     4  10  21  37  60  87 117 156 198 249 301 358
#     4  11  20  39  62  86 120 157 199 247 300 358
#
# _framework density 24.822210999999999
#
# number of rings (size 3 to 8) (size 9 to 14) (size 15 to 20)
#    0.000    1.636    5.455    3.000    1.273    3.636 
#    0.000    5.455    0.000    5.455    0.000    0.000 
#    0.000    0.000    0.000    0.000    0.000    0.000 
#
# Total GULP energy -122840.915782 kJ/mol
# GULP energy per Si atom -5583.677990 kJ/mol
# Density = 2.476571 g / cm^3
# Si number density = 24.822211 Si / 1000 Ang^3
#
#
#
# Elastic Constant Matrix: (Units=GPa)
#
#
# Indices 1 2 3 4 5 6 
#
# 1 177.6735 33.8880 38.8067 0.0155 -46.4087 -0.0073
# 2 33.8880 148.2817 3.1458 0.0280 -11.8214 -0.0135
# 3 38.8067 3.1458 103.9089 0.0308 -49.4340 -0.0117
# 4 0.0155 0.0280 0.0308 -10.8420 -0.0254 9.2633
# 5 -46.4087 -11.8214 -49.4340 -0.0254 52.6772 0.0111
# 6 -0.0073 -0.0135 -0.0117 9.2633 0.0111 36.2960
#
#
#
# Elastic Compliance Matrix: (Units=1/GPa)
#
#
# Indices 1 2 3 4 5 6 
#
# 1 0.007530 -0.001189 0.000457 -0.000006 0.006796 0.000001
# 2 -0.001189 0.007107 0.000884 0.000015 0.001377 -0.000001
# 3 0.000457 0.000884 0.017546 0.000011 0.017066 -0.000002
# 4 -0.000006 0.000015 0.000011 -0.075722 -0.000032 0.019325
# 5 0.006796 0.001377 0.017066 -0.000032 0.041296 0.000003
# 6 0.000001 -0.000001 -0.000002 0.019325 0.000003 0.022619
#
#
# Mechanical properties :
#
#
# Convention : Reuss Voigt Hill
#
# Bulk Modulus (GPa) = 30.78195 64.61612 47.69903
# Shear Modulus (GPa) = 161.81290 39.22782 100.52036
#
# Velocity S-wave (km/s) = 8.08271 3.97968 6.37056
# Velocity P-wave (km/s) = 9.97672 6.87060 8.56563
#
# Compressibility (1/GPa) = 0.03248657
#
# Stress axis : x y z
#
# Youngs Moduli (GPa) = 132.79367 140.71347 56.99450
#
# Poissons Ratio (x) = 0.16729 -0.02604
# Poissons Ratio (y) = 0.15787 -0.05038
# Poissons Ratio (z) = -0.06068 -0.12438
#
# Static dielectric constant tensor:
#      x y z
#    x 2.077930 -0.000050 -0.033520 
#    y -0.000050 1.992290 0.000060 
#    z -0.033520 0.000060 2.010580 
# 
# From -- ./inp_files/217585.got.cif
#   From: 2010.05.17/outbox.cif.g08.bks.cpg/sg12_109_cif.got.tgz:217585.got - 2010.06.03 13:09:07.
