data_PCOD9207593
_publ_section_title
;
Structure prediction by ZEFSAII (Michael W. Deem and Ramdas Pophale) SiO2 
 PCOD9207593
Probable space group: C 2/M
;
_chemical_formula_sum "Si O2"
_cell_formula_units_Z 48
_cell_length_a 19.992572
_cell_length_b 27.150397
_cell_length_c 8.796279
_cell_angle_alpha 90.000000
_cell_angle_beta 30.584602
_cell_angle_gamma 90.000000
_cell_volume 2429.402939
_symmetry_space_group_name_H-M "C 2/M"
_symmetry_group_IT_number 12
_symmetry_cell_setting 'monoclinic'
loop_
_space_group_symop_operation_xyz
x,y,z
-x,y,-z
-x,-y,-z
x,-y,z
1/2+x,1/2+y,z
1/2-x,1/2+y,-z
1/2-x,1/2-y,-z
1/2+x,1/2-y,z
loop_
_atom_site_type_symbol
_atom_site_label
_atom_site_fract_x
_atom_site_fract_y
_atom_site_fract_z
Si Si1 0.754731 0.848904 0.649349
Si Si2 0.345828 0.058340 0.628279
Si Si3 0.348358 0.059776 0.973586
Si Si4 0.883237 0.898276 0.121586
Si Si5 0.492850 0.682175 0.693425
Si Si6 0.874949 0.742946 0.144449
O O1 0.817307 0.858484 0.362390
O O2 0.626594 0.814986 0.893481
O O3 0.857322 0.815533 0.541842
O O4 0.732626 0.902902 0.763284
O O5 0.318120 0.074039 0.857001
O O6 0.497467 0.071290 0.296821
O O7 0.236901 0.072123 0.717334
O O8 0.346941 0.000000 0.635906
O O9 0.327768 0.000000 0.034326
O O10 0.947782 0.869749 0.854230
O O11 0.000000 0.921179 0.000000
O O12 0.500000 0.683125 0.500000
O O13 0.396068 0.723062 0.955077
O O14 0.750000 0.750000 0.500000
O O15 0.000000 0.755581 0.000000
#
# Coordination Sequence:
#
# PCOD9207593 Si02
#       6
#     8   8   8   8   8   8
#     4  11  23  39  63  90 123 166 206 253 318 374
#     4   9  19  38  60  88 125 160 205 264 316 368
#     4   9  20  39  62  90 123 160 207 263 314 370
#     4  10  21  37  59  85 121 165 202 251 313 376
#     4  11  23  42  63  90 127 164 212 263 307 376
#     4  12  23  44  64  90 130 168 205 259 323 378
#
# _framework density 19.757940999999999
#
# number of rings (size 3 to 8) (size 9 to 14) (size 15 to 20)
#    0.000    1.667    3.333    2.500    2.333    1.667 
#    3.000    4.167    0.000    9.000    0.000    0.000 
#    0.000    0.000    0.000    0.000    0.000    0.000 
#
# Total GULP energy -133647.452192 kJ/mol
# GULP energy per Si atom -5568.643841 kJ/mol
# Density = 1.971297 g / cm^3
# Si number density = 19.757941 Si / 1000 Ang^3
#
#
#
# Elastic Constant Matrix: (Units=GPa)
#
#
# Indices 1 2 3 4 5 6 
#
# 1 114.2024 17.1080 56.0548 0.0000 6.7670 0.0000
# 2 17.1080 50.4473 33.1185 0.0000 9.3220 0.0000
# 3 56.0548 33.1185 98.6958 -0.0001 15.1724 0.0000
# 4 0.0000 0.0000 -0.0001 32.0462 0.0000 0.4177
# 5 6.7670 9.3220 15.1724 0.0000 32.6175 0.0000
# 6 0.0000 0.0000 0.0000 0.4177 0.0000 25.4476
#
#
#
# Elastic Compliance Matrix: (Units=1/GPa)
#
#
# Indices 1 2 3 4 5 6 
#
# 1 0.012166 0.000453 -0.007166 0.000000 0.000680 0.000000
# 2 0.000453 0.025828 -0.008374 0.000000 -0.003580 0.000000
# 3 -0.007166 -0.008374 0.017680 0.000000 -0.004344 0.000000
# 4 0.000000 0.000000 0.000000 0.031212 0.000000 -0.000512
# 5 0.000680 -0.003580 -0.004344 0.000000 0.033561 0.000000
# 6 0.000000 0.000000 0.000000 -0.000512 0.000000 0.039305
#
#
# Mechanical properties :
#
#
# Convention : Reuss Voigt Hill
#
# Bulk Modulus (GPa) = 39.21573 52.87870 46.04721
# Shear Modulus (GPa) = 25.19844 28.49320 26.84582
#
# Velocity S-wave (km/s) = 3.57509 3.80164 3.69010
# Velocity P-wave (km/s) = 6.07724 6.78906 6.44299
#
# Compressibility (1/GPa) = 0.02549997
#
# Stress axis : x y z
#
# Youngs Moduli (GPa) = 82.19889 38.71765 56.56122
#
# Poissons Ratio (x) = -0.01755 0.40533
# Poissons Ratio (y) = -0.03725 0.47364
# Poissons Ratio (z) = 0.58905 0.32422
#
# Static dielectric constant tensor:
#      x y z
#    x 1.800910 0.000000 -0.054300 
#    y 0.000000 1.715630 0.000000 
#    z -0.054300 0.000000 1.769670 
# 
# From -- ./inp_files/91168.got.cif
#   From: 2010.05.17/outbox.cif.g08.bks.cpg/sg12_46_cif.got.tgz:91168.got - 2010.06.03 13:09:07.
