data_PCOD9207871
_publ_section_title
;
Structure prediction by ZEFSAII (Michael W. Deem and Ramdas Pophale) SiO2 
 PCOD9207871
Probable space group: C 2/M
;
_chemical_formula_sum "Si O2"
_cell_formula_units_Z 56
_cell_length_a 10.854912
_cell_length_b 34.072697
_cell_length_c 8.243904
_cell_angle_alpha 90.000000
_cell_angle_beta 58.445280
_cell_angle_gamma 90.000000
_cell_volume 2598.226970
_symmetry_space_group_name_H-M "C 2/M"
_symmetry_group_IT_number 12
_symmetry_cell_setting 'monoclinic'
loop_
_space_group_symop_operation_xyz
x,y,z
-x,y,-z
-x,-y,-z
x,-y,z
1/2+x,1/2+y,z
1/2-x,1/2+y,-z
1/2-x,1/2-y,-z
1/2+x,1/2-y,z
loop_
_atom_site_type_symbol
_atom_site_label
_atom_site_fract_x
_atom_site_fract_y
_atom_site_fract_z
Si Si1 0.199349 0.363330 0.706916
Si Si2 0.798595 0.913571 0.942525
Si Si3 0.405270 0.579782 0.400428
Si Si4 0.194288 0.000000 0.033693
Si Si5 0.819407 0.729862 0.291989
Si Si6 0.601240 0.778917 0.267255
Si Si7 0.088989 0.630907 0.273559
Si Si8 0.154394 0.000000 0.684955
O O1 0.248198 0.383073 0.840260
O O2 0.304223 0.383166 0.501853
O O3 0.213653 0.316495 0.692948
O O4 0.034705 0.373577 0.777717
O O5 0.972464 0.913512 0.820005
O O6 0.752029 0.958383 0.936788
O O7 0.718417 0.899244 0.158595
O O8 0.500000 0.573237 0.500000
O O9 0.314118 0.540632 0.427451
O O10 0.214052 0.000000 0.825743
O O11 0.021305 0.000000 0.182970
O O12 0.750000 0.750000 0.500000
O O13 0.737415 0.751433 0.203411
O O14 0.991431 0.732699 0.199720
O O15 0.500000 0.777297 0.500000
O O16 0.644399 0.824383 0.222893
O O17 0.000000 0.626381 0.500000
#
# Coordination Sequence:
#
# PCOD9207871 Si02
#       8
#     8   8   8   4   8   8   8   4
#     4  10  21  37  60  89 118 158 196 246 302 363
#     4  10  21  39  60  84 118 155 198 246 298 366
#     4   9  19  34  59  90 115 150 199 244 297 366
#     4   9  20  36  57  83 116 158 193 246 304 359
#     4   9  17  32  56  84 120 158 201 245 304 359
#     4   8  16  31  54  81 112 157 196 244 298 357
#     4  10  21  38  59  83 117 158 202 247 306 362
#     4   9  17  34  57  82 122 155 187 241 313 358
#
# _framework density 21.553160999999999
#
# number of rings (size 3 to 8) (size 9 to 14) (size 15 to 20)
#    0.000    2.714    0.000    1.500    2.000    6.857 
#    0.000    3.214    0.000    3.429    0.000    0.000 
#    0.000    0.000    0.000    0.000    0.000    0.000 
#
# Total GULP energy -156314.786438 kJ/mol
# GULP energy per Si atom -5582.670944 kJ/mol
# Density = 2.150411 g / cm^3
# Si number density = 21.553161 Si / 1000 Ang^3
#
#
#
# Elastic Constant Matrix: (Units=GPa)
#
#
# Indices 1 2 3 4 5 6 
#
# 1 68.5165 69.4078 22.8816 0.0000 2.6688 0.0000
# 2 69.4078 143.0690 48.5496 0.0000 -15.1390 0.0000
# 3 22.8816 48.5496 71.8804 0.0000 -12.5402 0.0000
# 4 0.0000 0.0000 0.0000 20.1109 0.0000 12.9678
# 5 2.6688 -15.1390 -12.5402 0.0000 30.5140 0.0000
# 6 0.0000 0.0000 0.0000 12.9678 0.0000 16.6448
#
#
#
# Elastic Compliance Matrix: (Units=1/GPa)
#
#
# Indices 1 2 3 4 5 6 
#
# 1 0.031939 -0.016313 -0.001130 0.000000 -0.011351 0.000000
# 2 -0.016313 0.017531 -0.005258 0.000000 0.007963 0.000000
# 3 -0.001130 -0.005258 0.018728 0.000000 0.005187 0.000000
# 4 0.000000 0.000000 0.000000 0.099922 0.000000 -0.077848
# 5 -0.011351 0.007963 0.005187 0.000000 0.039847 0.000000
# 6 0.000000 0.000000 0.000000 -0.077848 0.000000 0.120730
#
#
# Mechanical properties :
#
#
# Convention : Reuss Voigt Hill
#
# Bulk Modulus (GPa) = 43.86625 62.79376 53.33000
# Shear Modulus (GPa) = 13.09940 22.96238 18.03089
#
# Velocity S-wave (km/s) = 2.46798 3.26756 2.89550
# Velocity P-wave (km/s) = 5.34022 6.59041 5.99798
#
# Compressibility (1/GPa) = 0.02279657
#
# Stress axis : x y z
#
# Youngs Moduli (GPa) = 31.30935 57.04313 53.39572
#
# Poissons Ratio (x) = 0.93053 0.06031
# Poissons Ratio (y) = 0.51074 0.28078
# Poissons Ratio (z) = 0.03536 0.29996
#
# Static dielectric constant tensor:
#      x y z
#    x 1.799650 0.000000 0.052390 
#    y 0.000000 1.754110 0.000000 
#    z 0.052390 0.000000 1.880600 
# 
# From -- ./inp_files/54635.got.cif
#   From: 2010.05.17/outbox.cif.g08.bks.cpg/sg12_28_cif.got.tgz:54635.got - 2010.06.03 13:09:07.
