data_PCOD9207985
_publ_section_title
;
Structure prediction by ZEFSAII (Michael W. Deem and Ramdas Pophale) SiO2 
 PCOD9207985
Probable space group: C 2/M
;
_chemical_formula_sum "Si O2"
_cell_formula_units_Z 64
_cell_length_a 11.490925
_cell_length_b 18.771721
_cell_length_c 29.163512
_cell_angle_alpha 90.000000
_cell_angle_beta 147.982701
_cell_angle_gamma 90.000000
_cell_volume 3335.173129
_symmetry_space_group_name_H-M "C 2/M"
_symmetry_group_IT_number 12
_symmetry_cell_setting 'monoclinic'
loop_
_space_group_symop_operation_xyz
x,y,z
-x,y,-z
-x,-y,-z
x,-y,z
1/2+x,1/2+y,z
1/2-x,1/2+y,-z
1/2-x,1/2-y,-z
1/2+x,1/2-y,z
loop_
_atom_site_type_symbol
_atom_site_label
_atom_site_fract_x
_atom_site_fract_y
_atom_site_fract_z
Si Si1 0.347023 0.580913 0.625471
Si Si2 0.178777 0.654131 0.309622
Si Si3 0.200313 0.167367 0.476460
Si Si4 0.613235 0.274335 0.820530
Si Si5 0.121962 0.417452 0.195945
Si Si6 0.547738 0.916662 0.360339
Si Si7 0.541328 0.223178 0.901955
Si Si8 0.899397 0.919779 0.743605
O O1 0.304954 0.500000 0.594834
O O2 0.252696 0.637338 0.558640
O O3 0.612321 0.589137 0.719184
O O4 0.271731 0.587474 0.652481
O O5 0.440251 0.655372 0.394912
O O6 0.083448 0.607615 0.235536
O O7 0.108772 0.620607 0.333701
O O8 0.083848 0.733194 0.270963
O O9 0.250000 0.250000 0.500000
O O10 0.326823 0.122440 0.556796
O O11 0.581673 0.253408 0.863629
O O12 0.577040 0.358656 0.806562
O O13 0.830546 0.255269 0.863371
O O14 0.064114 0.500000 0.169277
O O15 0.000209 0.361005 0.122483
O O16 0.286892 0.910859 0.280736
O O17 0.606171 0.000000 0.379506
O O18 0.750000 0.250000 0.000000
O O19 0.990061 0.000000 0.774999
#
# Coordination Sequence:
#
# PCOD9207985 Si02
#       8
#     8   8   8   8   8   8   8   8
#     4   9  18  35  58  81 107 149 203 248 289 346
#     4  10  22  37  60  84 113 159 205 248 294 353
#     4  11  23  36  53  81 116 156 204 256 304 349
#     4  11  22  40  65  88 123 157 200 241 293 362
#     4   9  18  37  64  89 109 149 204 242 281 350
#     4  11  23  38  54  83 122 155 194 254 315 351
#     4  11  23  39  63  95 126 155 185 239 305 366
#     4  10  21  37  61  86 114 154 202 249 295 351
#
# _framework density 19.189409000000001
#
# number of rings (size 3 to 8) (size 9 to 14) (size 15 to 20)
#    0.000    1.750    1.250    3.000    1.750    2.500 
#    2.250    2.500    0.000    8.250    0.000    0.000 
#    0.000    0.000    0.000    0.000    0.000    0.000 
#
# Total GULP energy -178521.823049 kJ/mol
# GULP energy per Si atom -5578.806970 kJ/mol
# Density = 1.914573 g / cm^3
# Si number density = 19.189409 Si / 1000 Ang^3
#
#
#
# Elastic Constant Matrix: (Units=GPa)
#
#
# Indices 1 2 3 4 5 6 
#
# 1 114.2540 35.9331 18.8968 -0.0001 -2.2724 0.0000
# 2 35.9331 115.6281 36.8105 0.0001 -12.9986 0.0000
# 3 18.8968 36.8105 57.1417 -0.0001 -2.7688 0.0000
# 4 -0.0001 0.0001 -0.0001 23.6100 0.0000 -4.4690
# 5 -2.2724 -12.9986 -2.7688 0.0000 20.6425 0.0000
# 6 0.0000 0.0000 0.0000 -4.4690 0.0000 26.4687
#
#
#
# Elastic Compliance Matrix: (Units=1/GPa)
#
#
# Indices 1 2 3 4 5 6 
#
# 1 0.009829 -0.002637 -0.001590 0.000000 -0.000792 0.000000
# 2 -0.002637 0.012365 -0.006774 0.000000 0.006587 0.000000
# 3 -0.001590 -0.006774 0.022320 0.000000 -0.001447 0.000000
# 4 0.000000 0.000000 0.000000 0.043753 0.000000 0.007387
# 5 -0.000792 0.006587 -0.001447 0.000000 0.052311 0.000000
# 6 0.000000 0.000000 0.000000 0.007387 0.000000 0.039028
#
#
# Mechanical properties :
#
#
# Convention : Reuss Voigt Hill
#
# Bulk Modulus (GPa) = 44.42228 52.25607 48.33918
# Shear Modulus (GPa) = 23.91057 27.16979 25.54018
#
# Velocity S-wave (km/s) = 3.53374 3.76689 3.65218
# Velocity P-wave (km/s) = 6.31264 6.79781 6.55971
#
# Compressibility (1/GPa) = 0.02251123
#
# Stress axis : x y z
#
# Youngs Moduli (GPa) = 101.73866 80.87234 44.80296
#
# Poissons Ratio (x) = 0.21330 0.07123
# Poissons Ratio (y) = 0.26833 0.30351
# Poissons Ratio (z) = 0.16175 0.54785
#
# Static dielectric constant tensor:
#      x y z
#    x 1.758500 0.000000 0.014070 
#    y 0.000000 1.669820 0.000000 
#    z 0.014070 0.000000 1.640790 
# 
# From -- ./inp_files/374476.got.cif
#   From: 2010.05.17/outbox.cif.g08.bks.cpg/sg12_188_cif.got.tgz:374476.got - 2010.06.03 13:09:07.
