data_PCOD9207660
_publ_section_title
;
Structure prediction by ZEFSAII (Michael W. Deem and Ramdas Pophale) SiO2 
 PCOD9207660
Probable space group: C 2/M
;
_chemical_formula_sum "Si O2"
_cell_formula_units_Z 64
_cell_length_a 17.926110
_cell_length_b 14.557862
_cell_length_c 24.854941
_cell_angle_alpha 90.000000
_cell_angle_beta 153.642364
_cell_angle_gamma 90.000000
_cell_volume 2879.736377
_symmetry_space_group_name_H-M "C 2/M"
_symmetry_group_IT_number 12
_symmetry_cell_setting 'monoclinic'
loop_
_space_group_symop_operation_xyz
x,y,z
-x,y,-z
-x,-y,-z
x,-y,z
1/2+x,1/2+y,z
1/2-x,1/2+y,-z
1/2-x,1/2-y,-z
1/2+x,1/2-y,z
loop_
_atom_site_type_symbol
_atom_site_label
_atom_site_fract_x
_atom_site_fract_y
_atom_site_fract_z
Si Si1 0.244668 0.397504 0.071942
Si Si2 0.326520 0.598635 0.448715
Si Si3 0.754457 0.217340 0.872039
Si Si4 0.883853 0.602949 0.797017
Si Si5 0.908927 0.803502 0.858670
Si Si6 0.892398 0.327974 0.603553
Si Si7 0.389922 0.605974 0.737131
Si Si8 0.581287 0.199613 0.496118
O O1 0.254393 0.500000 0.100087
O O2 0.224733 0.326899 0.107788
O O3 0.416636 0.377344 0.152249
O O4 0.087379 0.393809 0.929721
O O5 0.415912 0.500000 0.503732
O O6 0.212870 0.601586 0.428765
O O7 0.439996 0.690099 0.522545
O O8 0.205505 0.606642 0.318528
O O9 0.827791 0.179965 0.863825
O O10 0.557322 0.196804 0.744936
O O11 0.888469 0.186469 0.003849
O O12 0.842676 0.500000 0.793191
O O13 0.849757 0.699667 0.804819
O O14 0.857020 0.870585 0.777779
O O15 0.750000 0.250000 0.500000
O O16 0.962477 0.347702 0.588724
O O17 0.348983 0.500000 0.698482
O O18 0.276627 0.675109 0.630047
O O19 0.500000 0.169173 0.500000
#
# Coordination Sequence:
#
# PCOD9207660 Si02
#       8
#     8   8   8   8   8   8   8   8
#     4   9  19  34  58  91 121 153 197 245 295 359
#     4  10  21  38  62  92 123 155 195 247 304 359
#     4  10  21  37  59  87 121 164 199 245 312 361
#     4   9  18  33  59  92 123 156 192 236 301 368
#     4  10  21  37  60  89 124 159 197 248 309 369
#     4  10  22  38  57  85 120 160 203 244 291 349
#     4  11  23  40  63  88 116 155 206 256 300 354
#     4  11  23  42  66  86 120 161 206 253 296 358
#
# _framework density 22.224256
#
# number of rings (size 3 to 8) (size 9 to 14) (size 15 to 20)
#    0.000    2.000    1.250    2.250    1.750    2.500 
#    0.000    9.375    0.000    0.000    0.000    0.000 
#    0.000    0.000    0.000    0.000    0.000    0.000 
#
# Total GULP energy -178351.356296 kJ/mol
# GULP energy per Si atom -5573.479884 kJ/mol
# Density = 2.217367 g / cm^3
# Si number density = 22.224256 Si / 1000 Ang^3
#
#
#
# Elastic Constant Matrix: (Units=GPa)
#
#
# Indices 1 2 3 4 5 6 
#
# 1 57.4033 1.1498 12.0248 0.0004 -10.7434 -0.0004
# 2 1.1498 33.2354 10.9462 0.0129 0.3723 -0.0044
# 3 12.0248 10.9462 89.1264 0.0160 8.7283 -0.0056
# 4 0.0004 0.0129 0.0160 9.5940 0.0030 -3.4677
# 5 -10.7434 0.3723 8.7283 0.0030 33.4877 -0.0010
# 6 -0.0004 -0.0044 -0.0056 -3.4677 -0.0010 1.5925
#
#
#
# Elastic Compliance Matrix: (Units=1/GPa)
#
#
# Indices 1 2 3 4 5 6 
#
# 1 0.019449 0.000356 -0.003364 0.000007 0.007113 0.000013
# 2 0.000356 0.031378 -0.003980 -0.000044 0.000803 -0.000023
# 3 -0.003364 -0.003980 0.012585 -0.000017 -0.004315 -0.000007
# 4 0.000007 -0.000044 -0.000017 0.489485 -0.000005 1.065853
# 5 0.007113 0.000803 -0.004315 -0.000005 0.033259 0.000000
# 6 0.000013 -0.000023 -0.000007 1.065853 0.000000 2.948829
#
#
# Mechanical properties :
#
#
# Convention : Reuss Voigt Hill
#
# Bulk Modulus (GPa) = 20.22872 25.33406 22.78139
# Shear Modulus (GPa) = 1.40235 19.31114 10.35674
#
# Velocity S-wave (km/s) = 0.79522 2.95095 2.16107
# Velocity P-wave (km/s) = 3.15674 4.79946 4.06201
#
# Compressibility (1/GPa) = 0.04943467
#
# Stress axis : x y z
#
# Youngs Moduli (GPa) = 51.41546 31.86943 79.45728
#
# Poissons Ratio (x) = -0.01133 0.26732
# Poissons Ratio (y) = -0.01828 0.31626
# Poissons Ratio (z) = 0.17298 0.12685
#
# Static dielectric constant tensor:
#      x y z
#    x 1.860930 0.000000 0.035020 
#    y 0.000000 1.817610 -0.000010 
#    z 0.035020 -0.000010 1.848370 
# 
# From -- ./inp_files/344029.got.cif
#   From: 2010.05.17/outbox.cif.g08.bks.cpg/sg12_173_cif.got.tgz:344029.got - 2010.06.03 13:09:07.
