data_PCOD9207968
_publ_section_title
;
Structure prediction by ZEFSAII (Michael W. Deem and Ramdas Pophale) SiO2 
 PCOD9207968
Probable space group: C 2/M
;
_chemical_formula_sum "Si O2"
_cell_formula_units_Z 64
_cell_length_a 8.806387
_cell_length_b 31.385437
_cell_length_c 17.141653
_cell_angle_alpha 90.000000
_cell_angle_beta 137.782200
_cell_angle_gamma 90.000000
_cell_volume 3183.582127
_symmetry_space_group_name_H-M "C 2/M"
_symmetry_group_IT_number 12
_symmetry_cell_setting 'monoclinic'
loop_
_space_group_symop_operation_xyz
x,y,z
-x,y,-z
-x,-y,-z
x,-y,z
1/2+x,1/2+y,z
1/2-x,1/2+y,-z
1/2-x,1/2-y,-z
1/2+x,1/2-y,z
loop_
_atom_site_type_symbol
_atom_site_label
_atom_site_fract_x
_atom_site_fract_y
_atom_site_fract_z
Si Si1 0.063522 0.392658 0.938339
Si Si2 0.093833 0.254079 0.241379
Si Si3 0.180872 0.805942 0.133945
Si Si4 0.428180 0.625638 0.294843
Si Si5 0.177398 0.450179 0.831900
Si Si6 0.824915 0.046694 0.363985
Si Si7 0.940770 0.884109 0.830895
Si Si8 0.923493 0.213851 0.600669
O O1 0.127962 0.426712 0.895858
O O2 0.841533 0.365274 0.828159
O O3 0.304711 0.370501 0.046069
O O4 0.000000 0.411404 0.000000
O O5 0.089527 0.230111 0.157831
O O6 0.060810 0.222104 0.300579
O O7 0.339353 0.273615 0.346414
O O8 0.903824 0.289089 0.178050
O O9 0.225276 0.847135 0.203018
O O10 0.000000 0.815763 0.000000
O O11 0.399997 0.583348 0.334523
O O12 0.547020 0.614682 0.257696
O O13 0.567703 0.662087 0.395133
O O14 0.234558 0.500000 0.863287
O O15 0.359143 0.425580 0.847612
O O16 0.927771 0.446694 0.699257
O O17 0.000000 0.045828 0.500000
O O18 0.820107 0.000000 0.322742
O O19 0.750000 0.250000 0.500000
#
# Coordination Sequence:
#
# PCOD9207968 Si02
#       8
#     8   8   8   8   8   8   8   8
#     4   9  20  37  60  92 127 172 215 258 311 381
#     4  10  24  41  59  88 121 157 202 270 306 384
#     4  11  22  39  61  89 121 163 205 252 316 376
#     4  10  22  41  64  91 126 171 209 261 324 382
#     4  10  21  37  60  94 133 170 214 266 319 375
#     4   9  20  41  66  93 122 164 221 269 315 381
#     4  11  22  38  61  93 132 168 208 259 312 388
#     4  11  23  43  63  88 123 162 212 264 323 377
#
# _framework density 20.103141000000001
#
# number of rings (size 3 to 8) (size 9 to 14) (size 15 to 20)
#    0.000    1.875    1.250    1.875    5.250    2.750 
#    2.250    3.125    0.000    2.250    0.000    0.000 
#    0.000    0.000    0.000    0.000    0.000    0.000 
#
# Total GULP energy -178223.041465 kJ/mol
# GULP energy per Si atom -5569.470046 kJ/mol
# Density = 2.005739 g / cm^3
# Si number density = 20.103141 Si / 1000 Ang^3
#
#
#
# Elastic Constant Matrix: (Units=GPa)
#
#
# Indices 1 2 3 4 5 6 
#
# 1 104.5056 56.3235 20.5308 0.0000 4.3866 0.0000
# 2 56.3235 98.4336 11.0714 0.0000 0.1314 0.0000
# 3 20.5308 11.0714 53.4842 0.0000 5.3101 0.0000
# 4 0.0000 0.0000 0.0000 14.3344 0.0000 5.1624
# 5 4.3866 0.1314 5.3101 0.0000 20.8276 0.0000
# 6 0.0000 0.0000 0.0000 5.1624 0.0000 23.2400
#
#
#
# Elastic Compliance Matrix: (Units=1/GPa)
#
#
# Indices 1 2 3 4 5 6 
#
# 1 0.014703 -0.007985 -0.003785 0.000000 -0.002081 0.000000
# 2 -0.007985 0.014742 -0.000148 0.000000 0.001626 0.000000
# 3 -0.003785 -0.000148 0.020623 0.000000 -0.004460 0.000000
# 4 0.000000 0.000000 0.000000 0.075829 0.000000 -0.016844
# 5 -0.002081 0.001626 -0.004460 0.000000 0.049579 0.000000
# 6 0.000000 0.000000 0.000000 -0.016844 0.000000 0.046771
#
#
# Mechanical properties :
#
#
# Convention : Reuss Voigt Hill
#
# Bulk Modulus (GPa) = 38.11821 48.03053 43.07437
# Shear Modulus (GPa) = 19.62121 22.91356 21.26738
#
# Velocity S-wave (km/s) = 3.12753 3.37975 3.25609
# Velocity P-wave (km/s) = 5.66078 6.25893 5.96736
#
# Compressibility (1/GPa) = 0.02623418
#
# Stress axis : x y z
#
# Youngs Moduli (GPa) = 68.01308 67.83153 48.48879
#
# Poissons Ratio (x) = 0.54161 0.18351
# Poissons Ratio (y) = 0.54306 0.00719
# Poissons Ratio (z) = 0.25740 0.01005
#
# Static dielectric constant tensor:
#      x y z
#    x 1.713050 0.000000 0.008450 
#    y 0.000000 1.779820 0.000000 
#    z 0.008450 0.000000 1.756880 
# 
# From -- ./inp_files/260375.got.cif
#   From: 2010.05.17/outbox.cif.g08.bks.cpg/sg12_131_cif.got.tgz:260375.got - 2010.06.03 13:09:07.
