data_PCOD9207729
_publ_section_title
;
Structure prediction by ZEFSAII (Michael W. Deem and Ramdas Pophale) SiO2 
 PCOD9207729
Probable space group: C 2/M
;
_chemical_formula_sum "Si O2"
_cell_formula_units_Z 64
_cell_length_a 15.523512
_cell_length_b 15.394288
_cell_length_c 22.533747
_cell_angle_alpha 90.000000
_cell_angle_beta 38.019249
_cell_angle_gamma 90.000000
_cell_volume 3316.741819
_symmetry_space_group_name_H-M "C 2/M"
_symmetry_group_IT_number 12
_symmetry_cell_setting 'monoclinic'
loop_
_space_group_symop_operation_xyz
x,y,z
-x,y,-z
-x,-y,-z
x,-y,z
1/2+x,1/2+y,z
1/2-x,1/2+y,-z
1/2-x,1/2-y,-z
1/2+x,1/2-y,z
loop_
_atom_site_type_symbol
_atom_site_label
_atom_site_fract_x
_atom_site_fract_y
_atom_site_fract_z
Si Si1 0.155171 0.400433 0.676179
Si Si2 0.611023 0.095734 0.993254
Si Si3 0.698845 0.235501 0.253777
Si Si4 0.710627 0.397738 0.619535
Si Si5 0.988858 0.726833 0.149680
Si Si6 0.038583 0.402355 0.607694
Si Si7 0.651577 0.735829 0.400074
Si Si8 0.098089 0.839301 0.197257
O O1 0.179432 0.500000 0.680408
O O2 0.075785 0.344795 0.769562
O O3 0.074913 0.400004 0.657517
O O4 0.293708 0.343239 0.590355
O O5 0.768931 0.099231 0.883727
O O6 0.584093 0.000000 0.034385
O O7 0.500000 0.106945 0.000000
O O8 0.588199 0.172983 0.052146
O O9 0.864942 0.231712 0.176006
O O10 0.599997 0.154541 0.323445
O O11 0.652561 0.299284 0.332353
O O12 0.654385 0.268729 0.213921
O O13 0.728499 0.500000 0.626564
O O14 0.820386 0.379529 0.506009
O O15 0.751789 0.320905 0.643220
O O16 0.545198 0.381098 0.699588
O O17 0.060788 0.796183 0.153993
O O18 0.004589 0.500000 0.607457
O O19 0.500000 0.764655 0.500000
#
# Coordination Sequence:
#
# PCOD9207729 Si02
#       8
#     8   8   8   8   8   8   8   8
#     4  10  21  38  58  86 122 162 213 258 306 370
#     4  11  24  43  67  94 123 156 202 261 320 379
#     4  11  21  38  61  90 124 163 211 253 301 371
#     4  11  23  38  59  90 129 171 214 255 305 368
#     4  11  22  42  66  93 119 164 205 251 321 372
#     4  10  21  37  59  89 126 171 213 253 302 362
#     4  11  22  36  57  84 123 172 209 255 310 352
#     4  12  23  42  65  92 125 163 207 258 314 368
#
# _framework density 19.296044999999999
#
# number of rings (size 3 to 8) (size 9 to 14) (size 15 to 20)
#    0.000    1.125    6.250    1.125    1.750    2.000 
#    0.000    0.625    0.000    0.000    0.000    1.750 
#    0.000    0.000    0.000    0.000    0.000    0.000 
#
# Total GULP energy -178171.446113 kJ/mol
# GULP energy per Si atom -5567.857691 kJ/mol
# Density = 1.925213 g / cm^3
# Si number density = 19.296045 Si / 1000 Ang^3
#
#
#
# Elastic Constant Matrix: (Units=GPa)
#
#
# Indices 1 2 3 4 5 6 
#
# 1 87.8334 36.1165 26.7893 0.0000 -20.6827 0.0000
# 2 36.1165 89.4957 24.4270 -0.0001 -16.9909 0.0000
# 3 26.7893 24.4270 86.6655 -0.0002 -21.9701 0.0001
# 4 0.0000 -0.0001 -0.0002 27.9347 0.0001 2.8975
# 5 -20.6827 -16.9909 -21.9701 0.0001 28.8791 0.0000
# 6 0.0000 0.0000 0.0001 2.8975 0.0000 15.5976
#
#
#
# Elastic Compliance Matrix: (Units=1/GPa)
#
#
# Indices 1 2 3 4 5 6 
#
# 1 0.015393 -0.004389 -0.001711 0.000000 0.007140 0.000000
# 2 -0.004389 0.014137 -0.001631 0.000000 0.003933 0.000000
# 3 -0.001711 -0.001631 0.014834 0.000000 0.009101 0.000000
# 4 0.000000 0.000000 0.000000 0.036501 0.000000 -0.006781
# 5 0.007140 0.003933 0.009101 0.000000 0.048978 0.000000
# 6 0.000000 0.000000 0.000000 -0.006781 0.000000 0.065372
#
#
# Mechanical properties :
#
#
# Convention : Reuss Voigt Hill
#
# Bulk Modulus (GPa) = 34.59943 48.74003 41.66973
# Shear Modulus (GPa) = 22.69510 26.25974 24.47742
#
# Velocity S-wave (km/s) = 3.43323 3.69302 3.56549
# Velocity P-wave (km/s) = 5.80395 6.59534 6.21226
#
# Compressibility (1/GPa) = 0.02890221
#
# Stress axis : x y z
#
# Youngs Moduli (GPa) = 64.96320 70.73690 67.41212
#
# Poissons Ratio (x) = 0.31050 0.11534
# Poissons Ratio (y) = 0.28515 0.10992
# Poissons Ratio (z) = 0.11115 0.11535
#
# Static dielectric constant tensor:
#      x y z
#    x 1.695320 0.000000 -0.017780 
#    y 0.000000 1.689390 0.000000 
#    z -0.017780 0.000000 1.716110 
# 
# From -- ./inp_files/340145.got.cif
#   From: 2010.05.17/outbox.cif.g08.bks.cpg/sg12_171_cif.got.tgz:340145.got - 2010.06.03 13:09:07.
