data_PCOD9207485
_publ_section_title
;
Structure prediction by ZEFSAII (Michael W. Deem and Ramdas Pophale) SiO2 
 PCOD9207485
Probable space group: C 2/M
;
_chemical_formula_sum "Si O2"
_cell_formula_units_Z 52
_cell_length_a 14.672758
_cell_length_b 9.653517
_cell_length_c 17.410641
_cell_angle_alpha 90.000000
_cell_angle_beta 104.873510
_cell_angle_gamma 90.000000
_cell_volume 2383.480642
_symmetry_space_group_name_H-M "C 2/M"
_symmetry_group_IT_number 12
_symmetry_cell_setting 'monoclinic'
loop_
_space_group_symop_operation_xyz
x,y,z
-x,y,-z
-x,-y,-z
x,-y,z
1/2+x,1/2+y,z
1/2-x,1/2+y,-z
1/2-x,1/2-y,-z
1/2+x,1/2-y,z
loop_
_atom_site_type_symbol
_atom_site_label
_atom_site_fract_x
_atom_site_fract_y
_atom_site_fract_z
Si Si1 0.398683 0.342299 0.177037
Si Si2 0.507119 0.660059 0.635732
Si Si3 0.057008 0.666589 0.143986
Si Si4 0.660725 0.229876 0.571662
Si Si5 0.662550 0.338069 0.296941
Si Si6 0.239491 0.500000 0.476395
Si Si7 0.292563 0.839221 0.941075
O O1 0.423164 0.500000 0.158169
O O2 0.434059 0.327471 0.271723
O O3 0.455361 0.234144 0.136686
O O4 0.287220 0.328553 0.142588
O O5 0.510230 0.500000 0.611576
O O6 0.556993 0.755077 0.584727
O O7 0.400526 0.687237 0.640085
O O8 0.054741 0.500000 0.150817
O O9 0.121620 0.736507 0.224044
O O10 0.107995 0.701333 0.074715
O O11 0.730731 0.185846 0.656543
O O12 0.697159 0.378563 0.551670
O O13 0.678690 0.119453 0.509731
O O14 0.647366 0.500000 0.272623
O O15 0.298987 0.000000 0.965869
O O16 0.250000 0.750000 0.000000
#
# Coordination Sequence:
#
# PCOD9207485 Si02
#       7
#     8   8   8   8   8   4   8
#     4   9  19  38  59  83 112 149 192 231 278 339
#     4   9  18  36  62  82 106 147 189 228 280 337
#     4  10  21  37  58  87 116 143 185 242 287 322
#     4  11  20  41  56  83 112 153 184 238 274 340
#     4  10  21  38  61  85 109 148 192 228 280 343
#     4  10  24  36  58  80 118 150 188 222 290 334
#     4  10  22  38  57  83 117 158 194 224 277 340
#
# _framework density 21.816832000000002
#
# number of rings (size 3 to 8) (size 9 to 14) (size 15 to 20)
#    0.000    2.154    1.538    2.308    1.077    3.692 
#    5.538    7.692    0.000    0.000    0.000    0.000 
#    0.000    0.000    0.000    0.000    0.000    0.000 
#
# Total GULP energy -144745.934874 kJ/mol
# GULP energy per Si atom -5567.151341 kJ/mol
# Density = 2.176718 g / cm^3
# Si number density = 21.816832 Si / 1000 Ang^3
#
#
#
# Elastic Constant Matrix: (Units=GPa)
#
#
# Indices 1 2 3 4 5 6 
#
# 1 81.4470 28.5134 11.8716 0.0000 -27.6025 0.0000
# 2 28.5134 117.8714 18.9418 0.0000 -26.6460 0.0000
# 3 11.8716 18.9418 28.3324 0.0000 -11.5259 0.0000
# 4 0.0000 0.0000 0.0000 5.8022 0.0000 -29.2162
# 5 -27.6025 -26.6460 -11.5259 0.0000 40.9597 0.0000
# 6 0.0000 0.0000 0.0000 -29.2162 0.0000 10.4517
#
#
#
# Elastic Compliance Matrix: (Units=1/GPa)
#
#
# Indices 1 2 3 4 5 6 
#
# 1 0.016291 -0.001484 -0.001988 0.000000 0.009453 0.000000
# 2 -0.001484 0.010627 -0.004604 0.000000 0.004617 0.000000
# 3 -0.001988 -0.004604 0.042283 0.000000 0.007563 0.000000
# 4 0.000000 0.000000 0.000000 -0.013181 0.000000 -0.036845
# 5 0.009453 0.004617 0.007563 0.000000 0.035917 0.000000
# 6 0.000000 0.000000 0.000000 -0.036845 0.000000 -0.007317
#
#
# Mechanical properties :
#
#
# Convention : Reuss Voigt Hill
#
# Bulk Modulus (GPa) = 18.85095 38.47828 28.66461
# Shear Modulus (GPa) = 42.20998 22.66432 32.43715
#
# Velocity S-wave (km/s) = 4.40334 3.22661 3.86008
# Velocity P-wave (km/s) = 5.87468 5.61753 5.74754
#
# Compressibility (1/GPa) = 0.05304773
#
# Stress axis : x y z
#
# Youngs Moduli (GPa) = 61.38314 94.10412 23.65000
#
# Poissons Ratio (x) = 0.13968 0.04702
# Poissons Ratio (y) = 0.09111 0.10889
# Poissons Ratio (z) = 0.12203 0.43327
#
# Static dielectric constant tensor:
#      x y z
#    x 1.802170 0.000000 0.035170 
#    y 0.000000 1.745690 0.000000 
#    z 0.035170 0.000000 1.826560 
# 
# From -- ./inp_files/308473.got.cif
#   From: 2010.05.17/outbox.cif.g08.bks.cpg/sg12_155_cif.got.tgz:308473.got - 2010.06.03 13:09:07.
