data_PCOD9207857
_publ_section_title
;
Structure prediction by ZEFSAII (Michael W. Deem and Ramdas Pophale) SiO2 
 PCOD9207857
Probable space group: C 2/M
;
_chemical_formula_sum "Si O2"
_cell_formula_units_Z 48
_cell_length_a 27.730660
_cell_length_b 8.857619
_cell_length_c 10.990503
_cell_angle_alpha 90.000000
_cell_angle_beta 120.356087
_cell_angle_gamma 90.000000
_cell_volume 2329.463290
_symmetry_space_group_name_H-M "C 2/M"
_symmetry_group_IT_number 12
_symmetry_cell_setting 'monoclinic'
loop_
_space_group_symop_operation_xyz
x,y,z
-x,y,-z
-x,-y,-z
x,-y,z
1/2+x,1/2+y,z
1/2-x,1/2+y,-z
1/2-x,1/2-y,-z
1/2+x,1/2-y,z
loop_
_atom_site_type_symbol
_atom_site_label
_atom_site_fract_x
_atom_site_fract_y
_atom_site_fract_z
Si Si1 0.410362 0.320596 0.578848
Si Si2 0.189319 0.823422 0.923267
Si Si3 0.024553 0.181621 0.825827
Si Si4 0.627722 0.324259 0.106125
Si Si5 0.188884 0.678662 0.409983
Si Si6 0.414587 0.820719 0.329232
O O1 0.403022 0.500000 0.563338
O O2 0.458650 0.287467 0.740146
O O3 0.352863 0.241788 0.540869
O O4 0.430723 0.258897 0.475304
O O5 0.148312 0.731753 0.782695
O O6 0.191163 0.000000 0.890346
O O7 0.250000 0.750000 0.000000
O O8 0.162068 0.816566 0.023224
O O9 0.049643 0.261418 0.738834
O O10 0.031405 0.000000 0.820036
O O11 0.064550 0.223071 0.989334
O O12 0.626551 0.500000 0.145168
O O13 0.659328 0.227710 0.246569
O O14 0.193259 0.500000 0.424066
O O15 0.250000 0.750000 0.500000
O O16 0.419040 0.000000 0.345930
#
# Coordination Sequence:
#
# PCOD9207857 Si02
#       6
#     8   8   8   8   8   8
#     4  11  23  41  65  91 123 166 210 253 305 366
#     4  10  21  37  60  88 121 161 206 253 305 365
#     4   9  20  40  66  94 125 162 204 251 307 368
#     4   9  20  41  64  88 121 159 202 252 303 361
#     4  12  27  45  64  88 121 162 208 256 308 367
#     4  11  22  36  58  92 131 164 201 252 308 365
#
# _framework density 20.605602999999999
#
# number of rings (size 3 to 8) (size 9 to 14) (size 15 to 20)
#    0.000    1.667    0.000    5.500    2.333    7.333 
#    0.000    3.333    0.000    0.000    0.000    0.000 
#    0.000    0.000    0.000    0.000    0.000    0.000 
#
# Total GULP energy -134201.068672 kJ/mol
# GULP energy per Si atom -5591.711195 kJ/mol
# Density = 2.055870 g / cm^3
# Si number density = 20.605603 Si / 1000 Ang^3
#
#
#
# Elastic Constant Matrix: (Units=GPa)
#
#
# Indices 1 2 3 4 5 6 
#
# 1 72.7648 41.9515 37.6279 0.0000 25.6019 0.0000
# 2 41.9515 99.6757 55.6025 0.0000 12.6421 0.0000
# 3 37.6279 55.6025 112.3959 0.0000 14.6322 0.0000
# 4 0.0000 0.0000 0.0000 32.6033 0.0000 -5.4043
# 5 25.6019 12.6421 14.6322 0.0000 38.2448 0.0000
# 6 0.0000 0.0000 0.0000 -5.4043 0.0000 26.0444
#
#
#
# Elastic Compliance Matrix: (Units=1/GPa)
#
#
# Indices 1 2 3 4 5 6 
#
# 1 0.023462 -0.006660 -0.002949 0.000000 -0.012376 0.000000
# 2 -0.006660 0.015903 -0.005824 0.000000 0.001430 0.000000
# 3 -0.002949 -0.005824 0.012900 0.000000 -0.001037 0.000000
# 4 0.000000 0.000000 0.000000 0.031764 0.000000 0.006591
# 5 -0.012376 0.001430 -0.001037 0.000000 0.034356 0.000000
# 6 0.000000 0.000000 0.000000 0.006591 0.000000 0.039764
#
#
# Mechanical properties :
#
#
# Convention : Reuss Voigt Hill
#
# Bulk Modulus (GPa) = 46.72833 61.68892 54.20863
# Shear Modulus (GPa) = 25.49099 29.35548 27.42324
#
# Velocity S-wave (km/s) = 3.52105 3.77853 3.65206
# Velocity P-wave (km/s) = 6.26555 7.00281 6.64441
#
# Compressibility (1/GPa) = 0.02140029
#
# Stress axis : x y z
#
# Youngs Moduli (GPa) = 42.62206 62.88128 77.51819
#
# Poissons Ratio (x) = 0.41880 0.22857
# Poissons Ratio (y) = 0.28387 0.45144
# Poissons Ratio (z) = 0.12568 0.36620
#
# Static dielectric constant tensor:
#      x y z
#    x 1.751460 0.000000 0.004130 
#    y 0.000000 1.680140 0.000000 
#    z 0.004130 0.000000 1.764390 
# 
# From -- ./inp_files/180267.got.cif
#   From: 2010.05.17/outbox.cif.g08.bks.cpg/sg12_91_cif.got.tgz:180267.got - 2010.06.03 13:09:07.
