data_PCOD9207828
_publ_section_title
;
Structure prediction by ZEFSAII (Michael W. Deem and Ramdas Pophale) SiO2 
 PCOD9207828
Probable space group: C 2/M
;
_chemical_formula_sum "Si O2"
_cell_formula_units_Z 56
_cell_length_a 25.530244
_cell_length_b 18.230745
_cell_length_c 9.674476
_cell_angle_alpha 90.000000
_cell_angle_beta 138.455876
_cell_angle_gamma 90.000000
_cell_volume 2986.270498
_symmetry_space_group_name_H-M "C 2/M"
_symmetry_group_IT_number 12
_symmetry_cell_setting 'monoclinic'
loop_
_space_group_symop_operation_xyz
x,y,z
-x,y,-z
-x,-y,-z
x,-y,z
1/2+x,1/2+y,z
1/2-x,1/2+y,-z
1/2-x,1/2-y,-z
1/2+x,1/2-y,z
loop_
_atom_site_type_symbol
_atom_site_label
_atom_site_fract_x
_atom_site_fract_y
_atom_site_fract_z
Si Si1 0.793812 0.912126 0.484667
Si Si2 0.931032 0.793867 0.753125
Si Si3 0.207489 0.198451 0.029599
Si Si4 0.257438 0.085543 0.924647
Si Si5 0.967246 0.740084 0.280100
Si Si6 0.059692 0.418287 0.746422
Si Si7 0.707223 0.188247 0.507866
O O1 0.872618 0.863012 0.657945
O O2 0.761794 0.889508 0.269371
O O3 0.730874 0.886291 0.476270
O O4 0.806158 0.000000 0.513856
O O5 0.881376 0.718345 0.666396
O O6 0.973808 0.790175 0.690395
O O7 0.000000 0.796328 0.000000
O O8 0.206791 0.123309 0.943018
O O9 0.121190 0.228261 0.895432
O O10 0.250000 0.250000 0.000000
O O11 0.258092 0.190626 0.269011
O O12 0.241733 0.000000 0.896380
O O13 0.351273 0.096123 0.131986
O O14 0.963414 0.655636 0.218077
O O15 0.000000 0.736668 0.500000
O O16 0.060269 0.500000 0.814636
O O17 0.000000 0.422666 0.500000
O O18 0.750000 0.250000 0.500000
#
# Coordination Sequence:
#
# PCOD9207828 Si02
#       7
#     8   8   8   8   8   8   8
#     4  10  22  43  66  87 118 163 204 245 303 362
#     4  11  24  39  59  89 120 156 198 251 301 355
#     4  12  21  36  61  86 119 156 203 250 292 357
#     4  10  21  37  60  87 118 156 200 248 302 361
#     4  11  21  34  58  87 116 153 194 242 302 351
#     4   9  19  33  52  80 117 153 191 238 296 354
#     4  10  22  39  60  85 119 157 202 247 292 356
#
# _framework density 18.752486000000001
#
# number of rings (size 3 to 8) (size 9 to 14) (size 15 to 20)
#    0.000    1.571    1.429    5.143    4.000    0.857 
#    0.000    1.429    0.000    3.429    0.000    0.000 
#    0.000    0.000    0.000    0.000    0.000    0.000 
#
# Total GULP energy -156132.638182 kJ/mol
# GULP energy per Si atom -5576.165649 kJ/mol
# Density = 1.870980 g / cm^3
# Si number density = 18.752486 Si / 1000 Ang^3
#
#
#
# Elastic Constant Matrix: (Units=GPa)
#
#
# Indices 1 2 3 4 5 6 
#
# 1 87.5909 36.9576 42.1655 0.0000 2.2465 0.0000
# 2 36.9576 87.1353 45.5895 0.0000 3.5454 0.0000
# 3 42.1655 45.5895 123.3179 0.0000 5.6706 0.0000
# 4 0.0000 0.0000 0.0000 215.5700 0.0000 127.7569
# 5 2.2465 3.5454 5.6706 0.0000 38.4011 0.0000
# 6 0.0000 0.0000 0.0000 127.7569 0.0000 111.2592
#
#
#
# Elastic Compliance Matrix: (Units=1/GPa)
#
#
# Indices 1 2 3 4 5 6 
#
# 1 0.014998 -0.004561 -0.003444 0.000000 0.000052 0.000000
# 2 -0.004561 0.015627 -0.004192 0.000000 -0.000557 0.000000
# 3 -0.003444 -0.004192 0.010883 0.000000 -0.001019 0.000000
# 4 0.000000 0.000000 0.000000 0.014520 0.000000 -0.016673
# 5 0.000052 -0.000557 -0.001019 0.000000 0.026240 0.000000
# 6 0.000000 0.000000 0.000000 -0.016673 0.000000 0.028134
#
#
# Mechanical properties :
#
#
# Convention : Reuss Voigt Hill
#
# Bulk Modulus (GPa) = 58.43429 60.82991 59.63210
# Shear Modulus (GPa) = 35.58680 84.60150 60.09415
#
# Velocity S-wave (km/s) = 4.36100 6.72404 5.66706
# Velocity P-wave (km/s) = 7.52238 9.63288 8.64230
#
# Compressibility (1/GPa) = 0.01711324
#
# Stress axis : x y z
#
# Youngs Moduli (GPa) = 66.67550 63.99214 91.88335
#
# Poissons Ratio (x) = 0.29189 0.31648
# Poissons Ratio (y) = 0.30413 0.38517
# Poissons Ratio (z) = 0.22965 0.26825
#
# Static dielectric constant tensor:
#      x y z
#    x 1.651200 0.000000 0.001200 
#    y 0.000000 1.744870 0.000000 
#    z 0.001200 0.000000 1.651450 
# 
# From -- ./inp_files/98210.got.cif
#   From: 2010.05.17/outbox.cif.g08.bks.cpg/sg12_50_cif.got.tgz:98210.got - 2010.06.03 13:09:07.
