data_PCOD9207451
_publ_section_title
;
Structure prediction by ZEFSAII (Michael W. Deem and Ramdas Pophale) SiO2 
 PCOD9207451
Probable space group: C 2/M
;
_chemical_formula_sum "Si O2"
_cell_formula_units_Z 56
_cell_length_a 8.786936
_cell_length_b 19.212090
_cell_length_c 16.067041
_cell_angle_alpha 90.000000
_cell_angle_beta 58.808450
_cell_angle_gamma 90.000000
_cell_volume 2320.266454
_symmetry_space_group_name_H-M "C 2/M"
_symmetry_group_IT_number 12
_symmetry_cell_setting 'monoclinic'
loop_
_space_group_symop_operation_xyz
x,y,z
-x,y,-z
-x,-y,-z
x,-y,z
1/2+x,1/2+y,z
1/2-x,1/2+y,-z
1/2-x,1/2-y,-z
1/2+x,1/2-y,z
loop_
_atom_site_type_symbol
_atom_site_label
_atom_site_fract_x
_atom_site_fract_y
_atom_site_fract_z
Si Si1 0.742681 0.829148 0.149299
Si Si2 0.304986 0.385105 0.563033
Si Si3 0.418473 0.080033 0.936670
Si Si4 0.203086 0.310397 0.432649
Si Si5 0.000861 0.804645 0.214080
Si Si6 0.700651 0.419161 0.255006
Si Si7 0.909349 0.576608 0.660016
O O1 0.723036 0.871761 0.069636
O O2 0.927674 0.814694 0.142070
O O3 0.644350 0.755808 0.171821
O O4 0.644104 0.875725 0.247507
O O5 0.500000 0.418168 0.500000
O O6 0.285247 0.323536 0.500788
O O7 0.304097 0.371644 0.661403
O O8 0.123197 0.425946 0.597946
O O9 0.594765 0.077653 0.830012
O O10 0.355202 0.000000 0.967286
O O11 0.500000 0.107057 0.000000
O O12 0.345761 0.281891 0.324989
O O13 0.000000 0.283470 0.500000
O O14 0.166726 0.386219 0.399978
O O15 0.081829 0.877637 0.222824
O O16 0.644503 0.500000 0.284762
O O17 0.835460 0.500000 0.691026
#
# Coordination Sequence:
#
# PCOD9207451 Si02
#       7
#     8   8   8   8   8   8   8
#     4  11  23  42  67  91 127 173 216 265 325 386
#     4  11  20  35  57  93 126 169 214 267 320 377
#     4  10  22  45  77 107 132 162 206 263 329 396
#     4   9  21  39  57  88 125 175 222 272 320 376
#     4  11  24  43  64  91 134 178 221 271 319 385
#     4  11  23  40  65  98 134 172 217 274 330 385
#     4  10  21  37  58  85 122 166 216 268 318 379
#
# _framework density 24.135158000000001
#
# number of rings (size 3 to 8) (size 9 to 14) (size 15 to 20)
#    0.000    1.571    2.857    1.714    0.000    7.143 
#    0.000   10.714    6.286    2.571    0.000    0.000 
#    0.000    0.000    0.000    0.000    0.000    0.000 
#
# Total GULP energy -156462.314112 kJ/mol
# GULP energy per Si atom -5587.939790 kJ/mol
# Density = 2.408022 g / cm^3
# Si number density = 24.135158 Si / 1000 Ang^3
#
#
#
# Elastic Constant Matrix: (Units=GPa)
#
#
# Indices 1 2 3 4 5 6 
#
# 1 139.6397 64.8686 22.5387 0.0000 41.3879 0.0000
# 2 64.8686 118.0854 10.3971 0.0000 20.9375 0.0000
# 3 22.5387 10.3971 47.3250 0.0000 29.0242 0.0000
# 4 0.0000 0.0000 0.0000 13.9996 0.0000 0.1165
# 5 41.3879 20.9375 29.0242 0.0000 54.2225 0.0000
# 6 0.0000 0.0000 0.0000 0.1165 0.0000 -3.4250
#
#
#
# Elastic Compliance Matrix: (Units=1/GPa)
#
#
# Indices 1 2 3 4 5 6 
#
# 1 0.011587 -0.005152 -0.000271 0.000000 -0.006710 0.000000
# 2 -0.005152 0.011383 0.000352 0.000000 -0.000652 0.000000
# 3 -0.000271 0.000352 0.031470 0.000000 -0.016774 0.000000
# 4 0.000000 0.000000 0.000000 0.071410 0.000000 0.002428
# 5 -0.006710 -0.000652 -0.016774 0.000000 0.032795 0.000000
# 6 0.000000 0.000000 0.000000 0.002428 0.000000 -0.291884
#
#
# Mechanical properties :
#
#
# Convention : Reuss Voigt Hill
#
# Bulk Modulus (GPa) = 22.57410 55.62878 39.10144
# Shear Modulus (GPa) = -46.15417 26.77579 -9.68919
#
# Velocity S-wave (km/s) = -4.37775 3.33439 -2.00581
# Velocity P-wave (km/s) = 4.02237 6.15818 3.29725
#
# Compressibility (1/GPa) = 0.04429855
#
# Stress axis : x y z
#
# Youngs Moduli (GPa) = 86.30436 87.85093 31.77652
#
# Poissons Ratio (x) = 0.45257 0.00863
# Poissons Ratio (y) = 0.44460 -0.01120
# Poissons Ratio (z) = 0.02343 -0.03097
#
# Static dielectric constant tensor:
#      x y z
#    x 1.914090 0.000000 -0.012200 
#    y 0.000000 1.938470 0.000000 
#    z -0.012200 0.000000 1.965990 
# 
# From -- ./inp_files/257025.got.cif
#   From: 2010.05.17/outbox.cif.g08.bks.cpg/sg12_129_cif.got.tgz:257025.got - 2010.06.03 13:09:07.
