data_PCOD9207790
_publ_section_title
;
Structure prediction by ZEFSAII (Michael W. Deem and Ramdas Pophale) SiO2 
 PCOD9207790
Probable space group: C 2/M
;
_chemical_formula_sum "Si O2"
_cell_formula_units_Z 34
_cell_length_a 14.306398
_cell_length_b 7.793939
_cell_length_c 15.290526
_cell_angle_alpha 90.000000
_cell_angle_beta 124.466583
_cell_angle_gamma 90.000000
_cell_volume 1405.650732
_symmetry_space_group_name_H-M "C 2/M"
_symmetry_group_IT_number 12
_symmetry_cell_setting 'monoclinic'
loop_
_space_group_symop_operation_xyz
x,y,z
-x,y,-z
-x,-y,-z
x,-y,z
1/2+x,1/2+y,z
1/2-x,1/2+y,-z
1/2-x,1/2-y,-z
1/2+x,1/2-y,z
loop_
_atom_site_type_symbol
_atom_site_label
_atom_site_fract_x
_atom_site_fract_y
_atom_site_fract_z
Si Si1 0.882553 0.794854 0.476822
Si Si2 0.897632 0.195931 0.157176
Si Si3 0.837610 0.813178 0.919195
Si Si4 0.858784 0.206903 0.663741
Si Si5 0.000000 0.500000 0.000000
O O1 0.867631 0.730042 0.568045
O O2 0.764073 0.758750 0.365336
O O3 0.000000 0.727161 0.500000
O O4 0.893112 0.000000 0.487609
O O5 0.797995 0.292025 0.155356
O O6 0.023981 0.267597 0.231816
O O7 0.897817 0.000000 0.190328
O O8 0.864895 0.190189 0.037921
O O9 0.871030 0.000000 0.900099
O O10 0.907538 0.651483 0.923981
O O11 0.859270 0.000000 0.665617
#
# Coordination Sequence:
#
# PCOD9207790 Si02
#       5
#     8   8   8   8   2
#     4   9  18  34  52  80 112 146 187 235 283 342
#     4   9  18  37  57  81 109 157 197 235 284 352
#     4  10  21  37  60  83 119 153 195 234 289 343
#     4   9  18  34  57  78 110 149 187 232 290 341
#     4  12  22  40  56  90 116 156 182 256 284 334
#
# _framework density 24.188085000000001
#
# number of rings (size 3 to 8) (size 9 to 14) (size 15 to 20)
#    0.000    2.588    1.176    0.353    1.647    1.412 
#    4.235    0.000    0.000    0.000    0.000    0.000 
#    0.000    0.000    0.000    0.000    0.000    0.000 
#
# Total GULP energy -94693.434158 kJ/mol
# GULP energy per Si atom -5570.202009 kJ/mol
# Density = 2.413303 g / cm^3
# Si number density = 24.188085 Si / 1000 Ang^3
#
#
#
# Elastic Constant Matrix: (Units=GPa)
#
#
# Indices 1 2 3 4 5 6 
#
# 1 152.1687 41.2425 64.7009 0.0000 57.3016 0.0000
# 2 41.2425 128.0072 7.5515 0.0000 11.8718 0.0000
# 3 64.7009 7.5515 95.4608 0.0000 52.2695 0.0000
# 4 0.0000 0.0000 0.0000 12.3907 0.0000 15.9725
# 5 57.3016 11.8718 52.2695 0.0000 53.3113 0.0000
# 6 0.0000 0.0000 0.0000 15.9725 0.0000 13.5393
#
#
#
# Elastic Compliance Matrix: (Units=1/GPa)
#
#
# Indices 1 2 3 4 5 6 
#
# 1 0.012183 -0.002853 -0.002611 0.000000 -0.009899 0.000000
# 2 -0.002853 0.008669 0.001351 0.000000 -0.000189 0.000000
# 3 -0.002611 0.001351 0.023246 0.000000 -0.020286 0.000000
# 4 0.000000 0.000000 0.000000 -0.154987 0.000000 0.182840
# 5 -0.009899 -0.000189 -0.020286 0.000000 0.049330 0.000000
# 6 0.000000 0.000000 0.000000 0.182840 0.000000 -0.141839
#
#
# Mechanical properties :
#
#
# Convention : Reuss Voigt Hill
#
# Bulk Modulus (GPa) = 27.87679 66.95850 47.41764
# Shear Modulus (GPa) = -27.29043 33.32438 3.01697
#
# Velocity S-wave (km/s) = -3.36260 3.71579 1.11804
# Velocity P-wave (km/s) = 1.87779 6.79353 4.61660
#
# Compressibility (1/GPa) = 0.03587213
#
# Stress axis : x y z
#
# Youngs Moduli (GPa) = 82.08210 115.35248 43.01802
#
# Poissons Ratio (x) = 0.32911 0.11233
# Poissons Ratio (y) = 0.23419 -0.05813
# Poissons Ratio (z) = 0.21434 -0.15588
#
# Static dielectric constant tensor:
#      x y z
#    x 1.942430 0.000000 -0.001410 
#    y 0.000000 2.313510 0.000000 
#    z -0.001410 0.000000 1.986280 
# 
# From -- ./inp_files/266911.got.cif
#   From: 2010.05.17/outbox.cif.g08.bks.cpg/sg12_134_cif.got.tgz:266911.got - 2010.06.03 13:09:07.
