data_PCOD9207023
_publ_section_title
;
Structure prediction by ZEFSAII (Michael W. Deem and Ramdas Pophale) SiO2 
 PCOD9207023
Probable space group: C 2/M
;
_chemical_formula_sum "Si O2"
_cell_formula_units_Z 64
_cell_length_a 14.573334
_cell_length_b 8.909251
_cell_length_c 25.544188
_cell_angle_alpha 90.000000
_cell_angle_beta 113.783678
_cell_angle_gamma 90.000000
_cell_volume 3034.930223
_symmetry_space_group_name_H-M "C 2/M"
_symmetry_group_IT_number 12
_symmetry_cell_setting 'monoclinic'
loop_
_space_group_symop_operation_xyz
x,y,z
-x,y,-z
-x,-y,-z
x,-y,z
1/2+x,1/2+y,z
1/2-x,1/2+y,-z
1/2-x,1/2-y,-z
1/2+x,1/2-y,z
loop_
_atom_site_type_symbol
_atom_site_label
_atom_site_fract_x
_atom_site_fract_y
_atom_site_fract_z
Si Si1 0.068442 0.681640 0.090062
Si Si2 0.953674 0.673375 0.244221
Si Si3 0.356054 0.180838 0.009492
Si Si4 0.981968 0.672160 0.376050
Si Si5 0.393589 0.677387 0.449875
Si Si6 0.189710 0.173597 0.412281
Si Si7 0.838902 0.172826 0.719735
Si Si8 0.752076 0.678805 0.795400
O O1 0.064711 0.500000 0.092099
O O2 0.113391 0.717976 0.043268
O O3 0.147773 0.731611 0.151476
O O4 0.952732 0.732339 0.065822
O O5 0.964074 0.500000 0.230051
O O6 0.846668 0.741586 0.205147
O O7 0.960304 0.677935 0.309231
O O8 0.047498 0.769978 0.246446
O O9 0.349111 0.000000 0.011568
O O10 0.250000 0.250000 0.000000
O O11 0.970675 0.500000 0.390828
O O12 0.095187 0.730928 0.409736
O O13 0.908996 0.774745 0.393231
O O14 0.500000 0.718891 0.500000
O O15 0.379013 0.500000 0.451375
O O16 0.297786 0.761115 0.451213
O O17 0.183118 0.181195 0.347202
O O18 0.178406 0.000000 0.425563
O O19 0.768544 0.275005 0.739101
O O20 0.826056 0.000000 0.732798
O O21 0.741840 0.500000 0.798024
#
# Coordination Sequence:
#
# PCOD9207023 Si02
#       8
#     8   8   8   8   8   8   8   8
#     4   8  18  35  53  75 106 142 177 213 264 323
#     4  10  21  37  56  81 110 143 182 221 265 319
#     4   9  17  35  58  76 100 137 179 223 266 312
#     4  10  21  38  60  82 107 141 181 223 267 318
#     4  11  24  39  56  81 111 142 178 220 269 324
#     4  10  21  38  60  82 107 141 181 223 267 318
#     4  10  21  37  56  81 110 143 182 221 265 319
#     4  11  21  34  54  81 113 147 179 219 270 320
#
# _framework density 21.087800000000001
#
# number of rings (size 3 to 8) (size 9 to 14) (size 15 to 20)
#    0.000    2.125    0.000    3.750    0.000    8.500 
#    0.000    6.250    0.000    0.000    0.000    0.000 
#    0.000    0.000    0.000    0.000    0.000    0.000 
#
# Total GULP energy -178848.022849 kJ/mol
# GULP energy per Si atom -5589.000714 kJ/mol
# Density = 2.103980 g / cm^3
# Si number density = 21.087800 Si / 1000 Ang^3
#
#
#
# Elastic Constant Matrix: (Units=GPa)
#
#
# Indices 1 2 3 4 5 6 
#
# 1 82.3706 10.5194 24.2299 0.0000 36.3661 0.0000
# 2 10.5194 42.4839 32.7992 0.0000 17.1367 0.0000
# 3 24.2299 32.7992 72.9227 0.0000 30.3977 0.0000
# 4 0.0000 0.0000 0.0000 20.5589 0.0000 9.7509
# 5 36.3661 17.1367 30.3977 0.0000 33.8349 0.0000
# 6 0.0000 0.0000 0.0000 9.7509 0.0000 29.6308
#
#
#
# Elastic Compliance Matrix: (Units=1/GPa)
#
#
# Indices 1 2 3 4 5 6 
#
# 1 0.024440 0.004209 0.002917 0.000000 -0.031022 0.000000
# 2 0.004209 0.037538 -0.013543 0.000000 -0.011369 0.000000
# 3 0.002917 -0.013543 0.027631 0.000000 -0.021100 0.000000
# 4 0.000000 0.000000 0.000000 0.057637 0.000000 -0.018967
# 5 -0.031022 -0.011369 -0.021100 0.000000 0.087612 0.000000
# 6 0.000000 0.000000 0.000000 -0.018967 0.000000 0.039990
#
#
# Mechanical properties :
#
#
# Convention : Reuss Voigt Hill
#
# Bulk Modulus (GPa) = 13.02495 36.98603 25.00549
# Shear Modulus (GPa) = 15.96046 25.48682 20.72364
#
# Velocity S-wave (km/s) = 2.75409 3.48027 3.13826
# Velocity P-wave (km/s) = 4.03773 5.80748 5.00151
#
# Compressibility (1/GPa) = 0.07677573
#
# Stress axis : x y z
#
# Youngs Moduli (GPa) = 40.91580 26.63975 36.19137
#
# Poissons Ratio (x) = -0.11213 -0.10558
# Poissons Ratio (y) = -0.17222 0.49015
# Poissons Ratio (z) = -0.11937 0.36079
#
# Static dielectric constant tensor:
#      x y z
#    x 1.746960 0.000000 -0.010580 
#    y 0.000000 1.704310 0.000000 
#    z -0.010580 0.000000 1.816730 
# 
# From -- ./inp_files/375523.got.cif
#   From: 2010.05.17/outbox.cif.g08.bks.cpg/sg12_188_cif.got.tgz:375523.got - 2010.06.03 13:09:07.
