data_PCOD9207582
_publ_section_title
;
Structure prediction by ZEFSAII (Michael W. Deem and Ramdas Pophale) SiO2 
 PCOD9207582
Probable space group: C 2/M
;
_chemical_formula_sum "Si O2"
_cell_formula_units_Z 42
_cell_length_a 30.369069
_cell_length_b 9.223948
_cell_length_c 9.408385
_cell_angle_alpha 90.000000
_cell_angle_beta 129.648127
_cell_angle_gamma 90.000000
_cell_volume 2029.277633
_symmetry_space_group_name_H-M "C 2/M"
_symmetry_group_IT_number 12
_symmetry_cell_setting 'monoclinic'
loop_
_space_group_symop_operation_xyz
x,y,z
-x,y,-z
-x,-y,-z
x,-y,z
1/2+x,1/2+y,z
1/2-x,1/2+y,-z
1/2-x,1/2-y,-z
1/2+x,1/2-y,z
loop_
_atom_site_type_symbol
_atom_site_label
_atom_site_fract_x
_atom_site_fract_y
_atom_site_fract_z
Si Si1 0.034106 0.659686 0.350105
Si Si2 0.359015 0.328483 0.311697
Si Si3 0.500000 0.000000 0.000000
Si Si4 0.919905 0.172449 0.146565
Si Si5 0.715070 0.169610 0.639000
Si Si6 0.335197 0.670829 0.730880
O O1 0.043197 0.500000 0.436028
O O2 0.088054 0.759545 0.492824
O O3 0.976876 0.736805 0.287650
O O4 0.022754 0.623796 0.161442
O O5 0.355846 0.500000 0.327739
O O6 0.374828 0.302121 0.180253
O O7 0.302460 0.253450 0.255557
O O8 0.932595 0.000000 0.172186
O O9 0.890190 0.211750 0.936343
O O10 0.677049 0.234383 0.432231
O O11 0.780036 0.187571 0.720214
O O12 0.703367 0.000000 0.632142
O O13 0.338467 0.500000 0.699569
#
# Coordination Sequence:
#
# PCOD9207582 Si02
#       6
#     8   8   2   8   8   8
#     4  10  22  39  59  83 117 146 186 231 287 335
#     4  11  23  38  58  84 117 153 190 234 284 340
#     4   8  24  40  56  88 120 144 184 248 280 334
#     4  10  22  39  59  84 116 152 190 234 282 342
#     4  10  21  37  59  85 116 149 192 239 283 335
#     4   9  20  39  60  84 113 152 191 235 287 337
#
# _framework density 20.697019999999998
#
# number of rings (size 3 to 8) (size 9 to 14) (size 15 to 20)
#    0.571    1.524    0.000    2.286    2.667    6.095 
#    0.000    0.952    0.000    0.000    0.000    0.000 
#    0.000    0.000    0.000    0.000    0.000    0.000 
#
# Total GULP energy -117026.633881 kJ/mol
# GULP energy per Si atom -5572.696851 kJ/mol
# Density = 2.064991 g / cm^3
# Si number density = 20.697020 Si / 1000 Ang^3
#
#
#
# Elastic Constant Matrix: (Units=GPa)
#
#
# Indices 1 2 3 4 5 6 
#
# 1 55.8558 29.5772 -5.0969 0.0000 -3.8313 0.0000
# 2 29.5772 59.4541 11.8662 0.0000 -0.6451 0.0000
# 3 -5.0969 11.8662 52.1875 0.0000 -1.8500 0.0000
# 4 0.0000 0.0000 0.0000 22.5388 0.0000 -0.7903
# 5 -3.8313 -0.6451 -1.8500 0.0000 17.6220 0.0000
# 6 0.0000 0.0000 0.0000 -0.7903 0.0000 19.5876
#
#
#
# Elastic Compliance Matrix: (Units=1/GPa)
#
#
# Indices 1 2 3 4 5 6 
#
# 1 0.026420 -0.014284 0.006036 0.000000 0.005855 0.000000
# 2 -0.014284 0.025343 -0.007262 0.000000 -0.002940 0.000000
# 3 0.006036 -0.007262 0.021519 0.000000 0.003306 0.000000
# 4 0.000000 0.000000 0.000000 0.044431 0.000000 0.001793
# 5 0.005855 -0.002940 0.003306 0.000000 0.058260 0.000000
# 6 0.000000 0.000000 0.000000 0.001793 0.000000 0.051125
#
#
# Mechanical properties :
#
#
# Convention : Reuss Voigt Hill
#
# Bulk Modulus (GPa) = 23.66211 26.68782 25.17496
# Shear Modulus (GPa) = 18.36846 20.69308 19.53077
#
# Velocity S-wave (km/s) = 2.98231 3.16541 3.07522
# Velocity P-wave (km/s) = 4.82870 5.12662 4.97989
#
# Compressibility (1/GPa) = 0.04226166
#
# Stress axis : x y z
#
# Youngs Moduli (GPa) = 37.85076 39.45819 46.46949
#
# Poissons Ratio (x) = 0.56363 -0.28048
# Poissons Ratio (y) = 0.54067 0.33745
# Poissons Ratio (z) = -0.22846 0.28654
#
# Static dielectric constant tensor:
#      x y z
#    x 1.767910 0.000000 -0.015410 
#    y 0.000000 1.701640 0.000000 
#    z -0.015410 0.000000 1.717370 
# 
# From -- ./inp_files/108519.got.cif
#   From: 2010.05.17/outbox.cif.g08.bks.cpg/sg12_55_cif.got.tgz:108519.got - 2010.06.03 13:09:07.
