data_PCOD9207524
_publ_section_title
;
Structure prediction by ZEFSAII (Michael W. Deem and Ramdas Pophale) SiO2 
 PCOD9207524
Probable space group: C 2/M
;
_chemical_formula_sum "Si O2"
_cell_formula_units_Z 42
_cell_length_a 5.213290
_cell_length_b 19.261929
_cell_length_c 21.873252
_cell_angle_alpha 90.000000
_cell_angle_beta 115.079392
_cell_angle_gamma 90.000000
_cell_volume 1989.388517
_symmetry_space_group_name_H-M "C 2/M"
_symmetry_group_IT_number 12
_symmetry_cell_setting 'monoclinic'
loop_
_space_group_symop_operation_xyz
x,y,z
-x,y,-z
-x,-y,-z
x,-y,z
1/2+x,1/2+y,z
1/2-x,1/2+y,-z
1/2-x,1/2-y,-z
1/2+x,1/2-y,z
loop_
_atom_site_type_symbol
_atom_site_label
_atom_site_fract_x
_atom_site_fract_y
_atom_site_fract_z
Si Si1 0.706018 0.921860 0.791025
Si Si2 0.500000 0.500000 0.500000
Si Si3 0.121987 0.295666 0.690573
Si Si4 0.808125 0.644297 0.540635
Si Si5 0.082503 0.278891 0.924503
Si Si6 0.636062 0.923335 0.119511
O O1 0.663628 0.861433 0.738558
O O2 0.474966 0.918236 0.821799
O O3 0.025656 0.916088 0.849797
O O4 0.687484 0.000000 0.762300
O O5 0.726958 0.562774 0.541267
O O6 0.417035 0.260138 0.702060
O O7 0.966298 0.323167 0.613985
O O8 0.500000 0.679264 0.500000
O O9 0.000000 0.649268 0.500000
O O10 0.290664 0.262926 0.889822
O O11 0.014279 0.358806 0.927081
O O12 0.250000 0.250000 0.000000
O O13 0.555864 0.000000 0.088734
#
# Coordination Sequence:
#
# PCOD9207524 Si02
#       6
#     8   2   8   8   8   8
#     4  10  23  41  63  88 119 160 207 249 302 358
#     4   8  22  40  62  92 110 164 208 248 302 368
#     4  12  26  41  60  92 125 158 199 255 311 363
#     4  10  22  40  62  86 118 157 207 245 308 365
#     4  10  21  37  58  89 121 156 199 237 293 355
#     4  10  21  40  62  89 119 160 202 250 299 353
#
# _framework density 21.112016000000001
#
# number of rings (size 3 to 8) (size 9 to 14) (size 15 to 20)
#    0.571    1.143    0.000    3.714    1.333    6.857 
#    0.000    3.810    0.000    0.000    0.000    0.000 
#    0.000    0.000    0.000    0.000    0.000    0.000 
#
# Total GULP energy -117044.083869 kJ/mol
# GULP energy per Si atom -5573.527803 kJ/mol
# Density = 2.106396 g / cm^3
# Si number density = 21.112016 Si / 1000 Ang^3
#
#
#
# Elastic Constant Matrix: (Units=GPa)
#
#
# Indices 1 2 3 4 5 6 
#
# 1 93.3790 -14.5385 -11.6557 0.0000 -6.5885 0.0000
# 2 -14.5385 123.0828 34.3693 0.0000 5.8133 0.0000
# 3 -11.6557 34.3693 45.3161 0.0000 -2.1329 0.0000
# 4 0.0000 0.0000 0.0000 52.9183 0.0000 9.3833
# 5 -6.5885 5.8133 -2.1329 0.0000 18.9528 0.0000
# 6 0.0000 0.0000 0.0000 9.3833 0.0000 23.6958
#
#
#
# Elastic Compliance Matrix: (Units=1/GPa)
#
#
# Indices 1 2 3 4 5 6 
#
# 1 0.011417 0.000350 0.002868 0.000000 0.004184 0.000000
# 2 0.000350 0.010639 -0.008170 0.000000 -0.004061 0.000000
# 3 0.002868 -0.008170 0.029322 0.000000 0.006803 0.000000
# 4 0.000000 0.000000 0.000000 0.020324 0.000000 -0.008048
# 5 0.004184 -0.004061 0.006803 0.000000 0.056228 0.000000
# 6 0.000000 0.000000 0.000000 -0.008048 0.000000 0.045389
#
#
# Mechanical properties :
#
#
# Convention : Reuss Voigt Hill
#
# Bulk Modulus (GPa) = 24.11202 30.90312 27.50757
# Shear Modulus (GPa) = 25.37459 36.02023 30.69741
#
# Velocity S-wave (km/s) = 3.47061 4.13504 3.81731
# Velocity P-wave (km/s) = 5.24461 6.12107 5.69971
#
# Compressibility (1/GPa) = 0.04147309
#
# Stress axis : x y z
#
# Youngs Moduli (GPa) = 87.59063 93.99201 34.10455
#
# Poissons Ratio (x) = -0.03291 -0.09781
# Poissons Ratio (y) = -0.03067 0.27864
# Poissons Ratio (z) = -0.25120 0.76794
#
# Static dielectric constant tensor:
#      x y z
#    x 1.815740 0.000000 -0.008350 
#    y 0.000000 1.772390 0.000000 
#    z -0.008350 0.000000 1.703630 
# 
# From -- ./inp_files/297628.got.cif
#   From: 2010.05.17/outbox.cif.g08.bks.cpg/sg12_149_cif.got.tgz:297628.got - 2010.06.03 13:09:07.
