data_PCOD9207237
_publ_section_title
;
Structure prediction by ZEFSAII (Michael W. Deem and Ramdas Pophale) SiO2 
 PCOD9207237
Probable space group: C 2/M
;
_chemical_formula_sum "Si O2"
_cell_formula_units_Z 64
_cell_length_a 30.006241
_cell_length_b 8.912754
_cell_length_c 15.084441
_cell_angle_alpha 90.000000
_cell_angle_beta 52.394214
_cell_angle_gamma 90.000000
_cell_volume 3195.971769
_symmetry_space_group_name_H-M "C 2/M"
_symmetry_group_IT_number 12
_symmetry_cell_setting 'monoclinic'
loop_
_space_group_symop_operation_xyz
x,y,z
-x,y,-z
-x,-y,-z
x,-y,z
1/2+x,1/2+y,z
1/2-x,1/2+y,-z
1/2-x,1/2-y,-z
1/2+x,1/2-y,z
loop_
_atom_site_type_symbol
_atom_site_label
_atom_site_fract_x
_atom_site_fract_y
_atom_site_fract_z
Si Si1 0.802915 0.676719 0.571660
Si Si2 0.540874 0.668149 0.367160
Si Si3 0.192049 0.825203 0.095113
Si Si4 0.119275 0.319116 0.682478
Si Si5 0.186185 0.320514 0.777720
Si Si6 0.499152 0.321639 0.782412
Si Si7 0.145799 0.670694 0.306939
Si Si8 0.117681 0.319192 0.035962
O O1 0.791056 0.500000 0.574001
O O2 0.832814 0.733034 0.445956
O O3 0.745669 0.751289 0.675841
O O4 0.848204 0.692464 0.595922
O O5 0.500000 0.658123 0.500000
O O6 0.567568 0.500000 0.324327
O O7 0.510393 0.701277 0.311766
O O8 0.584976 0.793646 0.342022
O O9 0.183775 0.787877 0.208174
O O10 0.143924 0.748337 0.094002
O O11 0.192808 0.000000 0.076538
O O12 0.250000 0.750000 0.000000
O O13 0.114087 0.500000 0.678593
O O14 0.141941 0.286986 0.753078
O O15 0.059066 0.245689 0.737121
O O16 0.193481 0.500000 0.773008
O O17 0.158568 0.273072 0.904826
O O18 0.497899 0.500000 0.800375
O O19 0.445680 0.243566 0.894529
O O20 0.163031 0.500000 0.265693
O O21 0.116570 0.500000 0.041504
#
# Coordination Sequence:
#
# PCOD9207237 Si02
#       8
#     8   8   8   8   8   8   8   8
#     4  10  22  39  62  93 126 159 201 255 311 367
#     4  10  21  37  57  84 120 159 200 247 297 354
#     4  12  24  39  59  86 120 159 201 246 298 360
#     4  10  22  42  64  89 123 162 205 256 312 371
#     4  10  23  41  64  91 119 160 209 255 313 372
#     4  11  23  39  61  91 124 163 209 255 307 364
#     4  11  22  36  57  88 120 156 198 238 295 360
#     4  11  23  41  63  89 123 164 207 256 308 364
#
# _framework density 20.025207000000002
#
# number of rings (size 3 to 8) (size 9 to 14) (size 15 to 20)
#    0.000    1.375    1.250    4.125    0.000    6.250 
#    0.000    2.500    0.000    0.000    0.000    0.000 
#    0.000    0.000    0.000    0.000    0.000    0.000 
#
# Total GULP energy -178738.573930 kJ/mol
# GULP energy per Si atom -5585.580435 kJ/mol
# Density = 1.997963 g / cm^3
# Si number density = 20.025207 Si / 1000 Ang^3
#
#
#
# Elastic Constant Matrix: (Units=GPa)
#
#
# Indices 1 2 3 4 5 6 
#
# 1 65.3348 29.7034 9.9809 0.0000 -7.2932 0.0000
# 2 29.7034 63.2502 24.1489 0.0000 -1.8902 0.0000
# 3 9.9809 24.1489 89.2448 0.0000 -4.1397 0.0000
# 4 0.0000 0.0000 0.0000 30.0646 0.0000 -8.0657
# 5 -7.2932 -1.8902 -4.1397 0.0000 31.6042 0.0000
# 6 0.0000 0.0000 0.0000 -8.0657 0.0000 28.3336
#
#
#
# Elastic Compliance Matrix: (Units=1/GPa)
#
#
# Indices 1 2 3 4 5 6 
#
# 1 0.019987 -0.009460 0.000515 0.000000 0.004114 0.000000
# 2 -0.009460 0.022115 -0.004996 0.000000 -0.001515 0.000000
# 3 0.000515 -0.004996 0.012568 0.000000 0.001466 0.000000
# 4 0.000000 0.000000 0.000000 0.036012 0.000000 0.010252
# 5 0.004114 -0.001515 0.001466 0.000000 0.032692 0.000000
# 6 0.000000 0.000000 0.000000 0.010252 0.000000 0.038212
#
#
# Mechanical properties :
#
#
# Convention : Reuss Voigt Hill
#
# Bulk Modulus (GPa) = 37.33094 38.38847 37.85971
# Shear Modulus (GPa) = 25.20188 28.26692 26.73440
#
# Velocity S-wave (km/s) = 3.55139 3.76116 3.65778
# Velocity P-wave (km/s) = 5.95810 6.17037 6.06516
#
# Compressibility (1/GPa) = 0.02678743
#
# Stress axis : x y z
#
# Youngs Moduli (GPa) = 50.03209 45.21767 79.57022
#
# Poissons Ratio (x) = 0.42777 -0.04101
# Poissons Ratio (y) = 0.47331 0.39757
# Poissons Ratio (z) = -0.02578 0.22593
#
# Static dielectric constant tensor:
#      x y z
#    x 1.675500 0.000000 -0.002520 
#    y 0.000000 1.698320 0.000000 
#    z -0.002520 0.000000 1.723220 
# 
# From -- ./inp_files/249747.got.cif
#   From: 2010.05.17/outbox.cif.g08.bks.cpg/sg12_125_cif.got.tgz:249747.got - 2010.06.03 13:09:07.
