data_PCOD9207980
_publ_section_title
;
Structure prediction by ZEFSAII (Michael W. Deem and Ramdas Pophale) SiO2 
 PCOD9207980
Probable space group: C 2/M
;
_chemical_formula_sum "Si O2"
_cell_formula_units_Z 48
_cell_length_a 22.529671
_cell_length_b 15.719778
_cell_length_c 18.423358
_cell_angle_alpha 90.000000
_cell_angle_beta 156.628945
_cell_angle_gamma 90.000000
_cell_volume 2588.302050
_symmetry_space_group_name_H-M "C 2/M"
_symmetry_group_IT_number 12
_symmetry_cell_setting 'monoclinic'
loop_
_space_group_symop_operation_xyz
x,y,z
-x,y,-z
-x,-y,-z
x,-y,z
1/2+x,1/2+y,z
1/2-x,1/2+y,-z
1/2-x,1/2-y,-z
1/2+x,1/2-y,z
loop_
_atom_site_type_symbol
_atom_site_label
_atom_site_fract_x
_atom_site_fract_y
_atom_site_fract_z
Si Si1 0.282266 0.183763 0.934114
Si Si2 0.261344 0.902094 0.411761
Si Si3 0.273946 0.354986 0.462680
Si Si4 0.717005 0.500000 0.799507
Si Si5 0.475475 0.262795 0.887893
Si Si6 0.372779 0.500000 0.464102
Si Si7 0.517785 0.221960 0.706080
O O1 0.116989 0.221574 0.762908
O O2 0.284178 0.088936 0.903461
O O3 0.369884 0.249557 0.980882
O O4 0.368239 0.182384 0.107747
O O5 0.264612 0.895983 0.503491
O O6 0.112308 0.851700 0.220438
O O7 0.407139 0.849119 0.549306
O O8 0.262578 0.000000 0.390904
O O9 0.133961 0.306956 0.270681
O O10 0.333113 0.420489 0.469804
O O11 0.404666 0.285636 0.620538
O O12 0.546168 0.500000 0.636474
O O13 0.716596 0.500000 0.711798
O O14 0.500000 0.246674 0.000000
#
# Coordination Sequence:
#
# PCOD9207980 Si02
#       7
#     8   8   8   4   8   4   8
#     4  11  21  38  59  89 123 155 196 249 293 353
#     4  11  22  40  63  85 116 158 203 251 293 350
#     4  11  19  40  60  84 118 159 200 236 302 354
#     4  11  24  35  55  91 131 156 191 238 308 359
#     4  11  23  39  60  88 120 157 198 246 300 355
#     4  11  22  37  57  89 122 166 189 236 300 379
#     4  10  21  37  61  84 117 158 204 242 291 350
#
# _framework density 18.544976999999999
#
# number of rings (size 3 to 8) (size 9 to 14) (size 15 to 20)
#    0.000    1.167    5.833    2.000    1.167    1.000 
#    0.000    2.500    0.000    1.000    0.000    0.000 
#    0.000    0.000    0.000    0.000    0.000    0.000 
#
# Total GULP energy -133983.336165 kJ/mol
# GULP energy per Si atom -5582.639007 kJ/mol
# Density = 1.850277 g / cm^3
# Si number density = 18.544977 Si / 1000 Ang^3
#
#
#
# Elastic Constant Matrix: (Units=GPa)
#
#
# Indices 1 2 3 4 5 6 
#
# 1 57.6348 7.0990 24.1160 -0.0001 -2.1105 0.0000
# 2 7.0990 108.9375 33.6757 -0.0001 2.9933 -0.0001
# 3 24.1160 33.6757 69.4985 -0.0001 9.6104 0.0000
# 4 -0.0001 -0.0001 -0.0001 19.3073 0.0000 6.8555
# 5 -2.1105 2.9933 9.6104 0.0000 31.4257 0.0000
# 6 0.0000 -0.0001 0.0000 6.8555 0.0000 14.2976
#
#
#
# Elastic Compliance Matrix: (Units=1/GPa)
#
#
# Indices 1 2 3 4 5 6 
#
# 1 0.020823 0.001100 -0.008288 0.000000 0.003828 0.000000
# 2 0.001100 0.010866 -0.005757 0.000000 0.000800 0.000000
# 3 -0.008288 -0.005757 0.020941 0.000000 -0.006412 0.000000
# 4 0.000000 0.000000 0.000000 0.062421 0.000000 -0.029930
# 5 0.003828 0.000800 -0.006412 0.000000 0.033963 0.000000
# 6 0.000000 0.000000 0.000000 -0.029930 0.000000 0.084293
#
#
# Mechanical properties :
#
#
# Convention : Reuss Voigt Hill
#
# Bulk Modulus (GPa) = 37.39801 40.65025 39.02413
# Shear Modulus (GPa) = 18.64900 24.41814 21.53357
#
# Velocity S-wave (km/s) = 3.17457 3.63257 3.41127
# Velocity P-wave (km/s) = 5.80061 6.28979 6.05015
#
# Compressibility (1/GPa) = 0.02673939
#
# Stress axis : x y z
#
# Youngs Moduli (GPa) = 48.02321 92.03318 47.75295
#
# Poissons Ratio (x) = -0.10123 0.39578
# Poissons Ratio (y) = -0.05282 0.27492
# Poissons Ratio (z) = 0.39802 0.52985
#
# Static dielectric constant tensor:
#      x y z
#    x 1.628410 0.000000 0.013460 
#    y 0.000000 1.641880 0.000000 
#    z 0.013460 0.000000 1.658080 
# 
# From -- ./inp_files/111523.got.cif
#   From: 2010.05.17/outbox.cif.g08.bks.cpg/sg12_56_cif.got.tgz:111523.got - 2010.06.03 13:09:07.
