data_PCOD9207993
_publ_section_title
;
Structure prediction by ZEFSAII (Michael W. Deem and Ramdas Pophale) SiO2 
 PCOD9207993
Probable space group: C 2/M
;
_chemical_formula_sum "Si O2"
_cell_formula_units_Z 48
_cell_length_a 19.234925
_cell_length_b 8.815143
_cell_length_c 34.463570
_cell_angle_alpha 90.000000
_cell_angle_beta 25.949810
_cell_angle_gamma 90.000000
_cell_volume 2557.061722
_symmetry_space_group_name_H-M "C 2/M"
_symmetry_group_IT_number 12
_symmetry_cell_setting 'monoclinic'
loop_
_space_group_symop_operation_xyz
x,y,z
-x,y,-z
-x,-y,-z
x,-y,z
1/2+x,1/2+y,z
1/2-x,1/2+y,-z
1/2-x,1/2-y,-z
1/2+x,1/2-y,z
loop_
_atom_site_type_symbol
_atom_site_label
_atom_site_fract_x
_atom_site_fract_y
_atom_site_fract_z
Si Si1 0.653609 0.816441 0.246644
Si Si2 0.180553 0.815350 0.916557
Si Si3 0.842030 0.316378 0.916614
Si Si4 0.006888 0.672614 0.450345
Si Si5 0.213050 0.317603 0.740356
Si Si6 0.790349 0.319760 0.438639
O O1 0.725901 0.770609 0.169105
O O2 0.737390 0.743073 0.241961
O O3 0.468595 0.774005 0.338731
O O4 0.667219 0.000000 0.243472
O O5 0.259055 0.766052 0.917829
O O6 0.180877 0.000000 0.917742
O O7 0.000000 0.765483 0.000000
O O8 0.832646 0.500000 0.923090
O O9 0.029462 0.275721 0.823712
O O10 0.750000 0.250000 0.000000
O O11 0.999823 0.500000 0.438480
O O12 0.161703 0.749504 0.353457
O O13 0.000000 0.667829 0.500000
O O14 0.848515 0.761313 0.518734
O O15 0.225464 0.500000 0.733412
O O16 0.786218 0.500000 0.442382
O O17 0.750000 0.250000 0.500000
#
# Coordination Sequence:
#
# PCOD9207993 Si02
#       6
#     8   8   8   8   8   8
#     4  10  21  37  61  87 116 155 198 243 294 356
#     4   9  18  35  60  87 113 148 192 238 287 349
#     4  10  22  39  61  89 119 153 195 240 296 360
#     4  11  25  42  60  85 120 162 208 252 301 359
#     4  11  23  38  60  88 120 157 197 247 304 359
#     4  11  22  37  61  89 120 159 203 248 296 354
#
# _framework density 18.771545
#
# number of rings (size 3 to 8) (size 9 to 14) (size 15 to 20)
#    0.000    1.667    1.667    2.500    2.333    4.667 
#    0.000    0.833    0.000    3.000    0.000    0.000 
#    0.000    0.000    0.000    0.000    0.000    0.000 
#
# Total GULP energy -133994.544947 kJ/mol
# GULP energy per Si atom -5583.106039 kJ/mol
# Density = 1.872882 g / cm^3
# Si number density = 18.771545 Si / 1000 Ang^3
#
#
#
# Elastic Constant Matrix: (Units=GPa)
#
#
# Indices 1 2 3 4 5 6 
#
# 1 158.4351 36.7383 113.7515 -0.0001 -9.2688 0.0059
# 2 36.7383 33.2487 49.1051 -0.0009 -6.6747 0.0070
# 3 113.7515 49.1051 203.1902 -0.0018 -8.7893 -0.0006
# 4 -0.0001 -0.0009 -0.0018 27.1070 -0.0005 -0.1872
# 5 -9.2688 -6.6747 -8.7893 -0.0005 38.7987 0.0003
# 6 0.0059 0.0070 -0.0006 -0.1872 0.0003 22.7279
#
#
#
# Elastic Compliance Matrix: (Units=1/GPa)
#
#
# Indices 1 2 3 4 5 6 
#
# 1 0.011037 -0.004625 -0.005031 0.000000 0.000701 -0.000002
# 2 -0.004625 0.049917 -0.009241 0.000001 0.005389 -0.000014
# 3 -0.005031 -0.009241 0.009948 0.000000 -0.000538 0.000004
# 4 0.000000 0.000001 0.000000 0.036893 0.000001 0.000304
# 5 0.000701 0.005389 -0.000538 0.000001 0.026747 -0.000002
# 6 -0.000002 -0.000014 0.000004 0.000304 -0.000002 0.044001
#
#
# Mechanical properties :
#
#
# Convention : Reuss Voigt Hill
#
# Bulk Modulus (GPa) = 30.20398 88.22932 59.21665
# Shear Modulus (GPa) = 21.99033 30.74532 26.36782
#
# Velocity S-wave (km/s) = 3.42639 4.05145 3.75196
# Velocity P-wave (km/s) = 5.63727 8.30598 7.09817
#
# Compressibility (1/GPa) = 0.03310822
#
# Stress axis : x y z
#
# Youngs Moduli (GPa) = 90.60266 20.03342 100.52212
#
# Poissons Ratio (x) = 0.09264 0.50573
# Poissons Ratio (y) = 0.41899 0.92896
# Poissons Ratio (z) = 0.45582 0.18514
#
# Static dielectric constant tensor:
#      x y z
#    x 1.640760 0.000000 0.025380 
#    y 0.000000 1.651910 0.000000 
#    z 0.025380 0.000000 1.646180 
# 
# From -- ./inp_files/377903.got.cif
#   From: 2010.05.17/outbox.cif.g08.bks.cpg/sg12_189_cif.got.tgz:377903.got - 2010.06.03 13:09:07.
