data_PCOD9207003
_publ_section_title
;
Structure prediction by ZEFSAII (Michael W. Deem and Ramdas Pophale) SiO2 
 PCOD9207003
Probable space group: C 2/M
;
_chemical_formula_sum "Si O2"
_cell_formula_units_Z 40
_cell_length_a 7.281429
_cell_length_b 13.198008
_cell_length_c 19.933586
_cell_angle_alpha 90.000000
_cell_angle_beta 58.345900
_cell_angle_gamma 90.000000
_cell_volume 1630.640698
_symmetry_space_group_name_H-M "C 2/M"
_symmetry_group_IT_number 12
_symmetry_cell_setting 'monoclinic'
loop_
_space_group_symop_operation_xyz
x,y,z
-x,y,-z
-x,-y,-z
x,-y,z
1/2+x,1/2+y,z
1/2-x,1/2+y,-z
1/2-x,1/2-y,-z
1/2+x,1/2-y,z
loop_
_atom_site_type_symbol
_atom_site_label
_atom_site_fract_x
_atom_site_fract_y
_atom_site_fract_z
Si Si1 0.465363 0.308217 0.936900
Si Si2 0.324979 0.619798 0.479326
Si Si3 0.644003 0.671408 0.313472
Si Si4 0.738591 0.388598 0.148027
Si Si5 0.018189 0.615128 0.346698
O O1 0.435582 0.376816 0.877755
O O2 0.620896 0.213607 0.889277
O O3 0.500000 0.367466 0.000000
O O4 0.250000 0.250000 0.000000
O O5 0.500000 0.658898 0.500000
O O6 0.353827 0.500000 0.468675
O O7 0.591834 0.660190 0.607192
O O8 0.094581 0.632817 0.558655
O O9 0.655537 0.619642 0.239615
O O10 0.823965 0.624947 0.328851
O O11 0.675391 0.792229 0.301259
O O12 0.845336 0.500000 0.119571
O O13 0.101119 0.500000 0.329054
#
# Coordination Sequence:
#
# PCOD9207003 Si02
#       5
#     8   8   8   8   8
#     4   9  21  41  62  87 116 146 187 228 273 348
#     4   8  15  30  53  79 109 153 200 236 280 333
#     4  11  20  35  58  85 118 151 191 242 288 336
#     4  11  22  38  62  89 118 151 185 233 291 337
#     4  10  21  37  56  79 114 159 200 239 283 331
#
# _framework density 24.530234
#
# number of rings (size 3 to 8) (size 9 to 14) (size 15 to 20)
#    0.000    2.200    0.000    4.800    0.000    4.000 
#    0.000    9.000    0.000    7.800    0.000    0.000 
#    0.000    0.000    0.000    0.000    0.000    0.000 
#
# Total GULP energy -111667.155678 kJ/mol
# GULP energy per Si atom -5583.357784 kJ/mol
# Density = 2.447440 g / cm^3
# Si number density = 24.530234 Si / 1000 Ang^3
#
#
#
# Elastic Constant Matrix: (Units=GPa)
#
#
# Indices 1 2 3 4 5 6 
#
# 1 35.0861 8.1672 29.8432 0.0001 19.5717 -0.0001
# 2 8.1672 149.8766 32.9523 0.0000 3.3781 -0.0001
# 3 29.8432 32.9523 152.2014 0.0000 44.5833 0.0000
# 4 0.0001 0.0000 0.0000 0.3984 -0.0001 2.7692
# 5 19.5717 3.3781 44.5833 -0.0001 31.1544 0.0001
# 6 -0.0001 -0.0001 0.0000 2.7692 0.0001 30.1020
#
#
#
# Elastic Compliance Matrix: (Units=1/GPa)
#
#
# Indices 1 2 3 4 5 6 
#
# 1 0.044364 -0.001724 -0.000373 -0.000037 -0.027150 0.000004
# 2 -0.001724 0.007181 -0.002248 0.000001 0.003522 0.000000
# 3 -0.000373 -0.002248 0.012035 -0.000012 -0.016745 0.000001
# 4 -0.000037 0.000001 -0.000012 6.963202 0.000059 -0.640571
# 5 -0.027150 0.003522 -0.016745 0.000059 0.072735 -0.000006
# 6 0.000004 0.000000 0.000001 -0.640571 -0.000006 0.092149
#
#
# Mechanical properties :
#
#
# Convention : Reuss Voigt Hill
#
# Bulk Modulus (GPa) = 18.21799 53.23215 35.72507
# Shear Modulus (GPa) = 0.69265 30.07772 15.38518
#
# Velocity S-wave (km/s) = 0.53196 3.50544 2.50710
# Velocity P-wave (km/s) = 2.79646 6.17510 4.79333
#
# Compressibility (1/GPa) = 0.05489079
#
# Stress axis : x y z
#
# Youngs Moduli (GPa) = 22.54066 139.25576 83.09093
#
# Poissons Ratio (x) = 0.24002 0.03098
# Poissons Ratio (y) = 0.03885 0.18682
# Poissons Ratio (z) = 0.00840 0.31309
#
# Static dielectric constant tensor:
#      x y z
#    x 2.105320 0.000000 0.105610 
#    y 0.000000 1.920690 0.000000 
#    z 0.105610 0.000000 2.013810 
# 
# From -- ./inp_files/299466.got.cif
#   From: 2010.05.17/outbox.cif.g08.bks.cpg/sg12_150_cif.got.tgz:299466.got - 2010.06.03 13:09:07.
