data_PCOD9207984
_publ_section_title
;
Structure prediction by ZEFSAII (Michael W. Deem and Ramdas Pophale) SiO2 
 PCOD9207984
Probable space group: C 2/M
;
_chemical_formula_sum "Si O2"
_cell_formula_units_Z 18
_cell_length_a 14.101290
_cell_length_b 7.649150
_cell_length_c 18.351554
_cell_angle_alpha 90.000000
_cell_angle_beta 20.104709
_cell_angle_gamma 90.000000
_cell_volume 680.410477
_symmetry_space_group_name_H-M "C 2/M"
_symmetry_group_IT_number 12
_symmetry_cell_setting 'monoclinic'
loop_
_space_group_symop_operation_xyz
x,y,z
-x,y,-z
-x,-y,-z
x,-y,z
1/2+x,1/2+y,z
1/2-x,1/2+y,-z
1/2-x,1/2-y,-z
1/2+x,1/2-y,z
loop_
_atom_site_type_symbol
_atom_site_label
_atom_site_fract_x
_atom_site_fract_y
_atom_site_fract_z
Si Si1 0.681116 0.205698 0.934992
Si Si2 0.000000 0.500000 0.500000
Si Si3 0.696988 0.804270 0.647492
O O1 0.978116 0.283268 0.740159
O O2 0.724591 0.000000 0.890086
O O3 0.500000 0.281052 0.000000
O O4 0.494548 0.220377 0.142032
O O5 0.916216 0.653566 0.500875
O O6 0.812658 0.000000 0.563493
#
# Coordination Sequence:
#
# PCOD9207984 Si02
#       3
#     8   2   8
#     4   9  18  37  64  88 111 146 196 239 276 337
#     4  12  22  40  56  82 124 156 178 244 280 346
#     4  10  21  37  61  86 113 153 190 232 288 334
#
# _framework density 26.454618
#
# number of rings (size 3 to 8) (size 9 to 14) (size 15 to 20)
#    0.000    2.222    2.222    0.667    3.111    0.889 
#    0.000    2.222    0.000    0.000    0.000    0.000 
#    0.000    0.000    0.000    0.000    0.000    0.000 
#
# Total GULP energy -50180.181794 kJ/mol
# GULP energy per Si atom -5575.575755 kJ/mol
# Density = 2.639441 g / cm^3
# Si number density = 26.454618 Si / 1000 Ang^3
#
#
#
# Elastic Constant Matrix: (Units=GPa)
#
#
# Indices 1 2 3 4 5 6 
#
# 1 194.3066 39.2275 69.3795 -0.0065 -59.2306 0.0011
# 2 39.2275 181.7255 50.0731 -0.0049 -52.2586 -0.0024
# 3 69.3795 50.0731 114.3126 -0.0391 -25.9275 -0.0013
# 4 -0.0065 -0.0049 -0.0391 10.8763 0.0033 -25.9584
# 5 -59.2306 -52.2586 -25.9275 0.0033 71.5378 -0.0007
# 6 0.0011 -0.0024 -0.0013 -25.9584 -0.0007 18.7380
#
#
#
# Elastic Compliance Matrix: (Units=1/GPa)
#
#
# Indices 1 2 3 4 5 6 
#
# 1 0.008271 0.001124 -0.004111 0.000005 0.006180 0.000007
# 2 0.001124 0.007598 -0.002768 0.000002 0.005478 0.000004
# 3 -0.004111 -0.002768 0.012230 -0.000018 -0.000993 -0.000025
# 4 0.000005 0.000002 -0.000018 -0.039865 0.000001 -0.055226
# 5 0.006180 0.005478 -0.000993 0.000001 0.022737 0.000002
# 6 0.000007 0.000004 -0.000025 -0.055226 0.000002 -0.023139
#
#
# Mechanical properties :
#
#
# Convention : Reuss Voigt Hill
#
# Bulk Modulus (GPa) = 60.27663 89.74501 75.01082
# Shear Modulus (GPa) = 1026.23679 42.34137 534.28908
#
# Velocity S-wave (km/s) = 19.71714 4.00500 14.22684
# Velocity P-wave (km/s) = 23.26346 7.44208 17.27097
#
# Compressibility (1/GPa) = 0.01659018
#
# Stress axis : x y z
#
# Youngs Moduli (GPa) = 120.90332 131.61002 81.76464
#
# Poissons Ratio (x) = -0.14798 0.33612
# Poissons Ratio (y) = -0.13594 0.22634
# Poissons Ratio (z) = 0.49702 0.36432
#
# Static dielectric constant tensor:
#      x y z
#    x 2.116920 -0.000200 0.061800 
#    y -0.000200 -0.711050 0.000120 
#    z 0.061800 0.000120 2.100180 
# 
# From -- ./inp_files/55003.got.cif
#   From: 2010.05.17/outbox.cif.g08.bks.cpg/sg12_28_cif.got.tgz:55003.got - 2010.06.03 13:09:07.
