data_PCOD9207304
_publ_section_title
;
Structure prediction by ZEFSAII (Michael W. Deem and Ramdas Pophale) SiO2 
 PCOD9207304
Probable space group: C 2/M
;
_chemical_formula_sum "Si O2"
_cell_formula_units_Z 36
_cell_length_a 22.530133
_cell_length_b 10.063764
_cell_length_c 8.387624
_cell_angle_alpha 90.000000
_cell_angle_beta 78.973760
_cell_angle_gamma 90.000000
_cell_volume 1866.684927
_symmetry_space_group_name_H-M "C 2/M"
_symmetry_group_IT_number 12
_symmetry_cell_setting 'monoclinic'
loop_
_space_group_symop_operation_xyz
x,y,z
-x,y,-z
-x,-y,-z
x,-y,z
1/2+x,1/2+y,z
1/2-x,1/2+y,-z
1/2-x,1/2-y,-z
1/2+x,1/2-y,z
loop_
_atom_site_type_symbol
_atom_site_label
_atom_site_fract_x
_atom_site_fract_y
_atom_site_fract_z
Si Si1 0.966683 0.500000 0.260007
Si Si2 0.747653 0.500000 0.810337
Si Si3 0.346820 0.500000 0.431615
Si Si4 0.690960 0.500000 0.187071
Si Si5 0.348799 0.793763 0.790484
Si Si6 0.403623 0.000000 0.979193
Si Si7 0.437577 0.262805 0.470762
O O1 0.958987 0.638256 0.355226
O O2 0.031189 0.500000 0.139537
O O3 0.913401 0.500000 0.159129
O O4 0.692719 0.500000 0.710857
O O5 0.788625 0.368534 0.760769
O O6 0.735147 0.500000 0.008818
O O7 0.304542 0.500000 0.617137
O O8 0.391301 0.371097 0.420490
O O9 0.657984 0.638851 0.176815
O O10 0.368581 0.871419 0.936831
O O11 0.400612 0.805268 0.632873
O O12 0.500000 0.328650 0.500000
#
# Coordination Sequence:
#
# PCOD9207304 Si02
#       7
#     4   4   4   4   8   4   8
#     4  11  21  35  63  93 123 165 212 253 310 384
#     4  11  23  44  64  89 133 170 217 260 314 369
#     4  10  26  42  64  99 125 170 219 253 316 397
#     4  10  23  41  64  90 128 169 207 267 312 361
#     4  10  22  42  64  92 129 164 210 263 315 385
#     4  10  21  37  57  95 128 161 210 255 310 381
#     4  11  21  41  66  91 129 165 207 263 323 373
#
# _framework density 19.285526000000001
#
# number of rings (size 3 to 8) (size 9 to 14) (size 15 to 20)
#    0.000    1.556    2.222    2.667    3.111    3.556 
#    8.000    0.000    0.000    5.333    0.000    0.000 
#    0.000    0.000    0.000    0.000    0.000    0.000 
#
# Total GULP energy -100203.470433 kJ/mol
# GULP energy per Si atom -5566.859468 kJ/mol
# Density = 1.924163 g / cm^3
# Si number density = 19.285526 Si / 1000 Ang^3
#
#
#
# Elastic Constant Matrix: (Units=GPa)
#
#
# Indices 1 2 3 4 5 6 
#
# 1 119.8161 35.7104 36.5855 0.0000 18.2637 0.0000
# 2 35.7104 122.0587 18.3619 0.0000 17.3899 0.0000
# 3 36.5855 18.3619 64.6860 0.0000 -6.9628 0.0000
# 4 0.0000 0.0000 0.0000 4.3083 0.0000 10.2603
# 5 18.2637 17.3899 -6.9628 0.0000 29.7774 0.0000
# 6 0.0000 0.0000 0.0000 10.2603 0.0000 17.7687
#
#
#
# Elastic Compliance Matrix: (Units=1/GPa)
#
#
# Indices 1 2 3 4 5 6 
#
# 1 0.012334 -0.001248 -0.007547 0.000000 -0.008601 0.000000
# 2 -0.001248 0.009748 -0.002659 0.000000 -0.005550 0.000000
# 3 -0.007547 -0.002659 0.021694 0.000000 0.011255 0.000000
# 4 0.000000 0.000000 0.000000 -0.618671 0.000000 0.357243
# 5 -0.008601 -0.005550 0.011255 0.000000 0.044730 0.000000
# 6 0.000000 0.000000 0.000000 0.357243 0.000000 -0.150006
#
#
# Mechanical properties :
#
#
# Convention : Reuss Voigt Hill
#
# Bulk Modulus (GPa) = 47.91933 54.20848 51.06391
# Shear Modulus (GPa) = -7.68868 24.76441 8.53786
#
# Velocity S-wave (km/s) = -1.99885 3.58731 2.10635
# Velocity P-wave (km/s) = 4.42425 6.73259 5.69657
#
# Compressibility (1/GPa) = 0.02086840
#
# Stress axis : x y z
#
# Youngs Moduli (GPa) = 81.07950 102.58035 46.09526
#
# Poissons Ratio (x) = 0.12798 0.34790
# Poissons Ratio (y) = 0.10116 0.12256
# Poissons Ratio (z) = 0.61194 0.27275
#
# Static dielectric constant tensor:
#      x y z
#    x 1.694190 0.000000 -0.011910 
#    y 0.000000 1.661630 0.000000 
#    z -0.011910 0.000000 1.714470 
# 
# From -- ./inp_files/92687.got.cif
#   From: 2010.05.17/outbox.cif.g08.bks.cpg/sg12_47_cif.got.tgz:92687.got - 2010.06.03 13:09:07.
