data_PCOD9207678
_publ_section_title
;
Structure prediction by ZEFSAII (Michael W. Deem and Ramdas Pophale) SiO2 
 PCOD9207678
Probable space group: C 2/M
;
_chemical_formula_sum "Si O2"
_cell_formula_units_Z 40
_cell_length_a 9.512540
_cell_length_b 11.037871
_cell_length_c 18.923929
_cell_angle_alpha 90.000000
_cell_angle_beta 109.799045
_cell_angle_gamma 90.000000
_cell_volume 1869.520872
_symmetry_space_group_name_H-M "C 2/M"
_symmetry_group_IT_number 12
_symmetry_cell_setting 'monoclinic'
loop_
_space_group_symop_operation_xyz
x,y,z
-x,y,-z
-x,-y,-z
x,-y,z
1/2+x,1/2+y,z
1/2-x,1/2+y,-z
1/2-x,1/2-y,-z
1/2+x,1/2-y,z
loop_
_atom_site_type_symbol
_atom_site_label
_atom_site_fract_x
_atom_site_fract_y
_atom_site_fract_z
Si Si1 0.411722 0.626793 0.057870
Si Si2 0.638080 0.362137 0.469273
Si Si3 0.227286 0.363544 0.768484
Si Si4 0.994724 0.862638 0.289333
Si Si5 0.355426 0.127386 0.089531
O O1 0.436286 0.500000 0.100671
O O2 0.241202 0.626849 0.999022
O O3 0.500000 0.625777 0.000000
O O4 0.444485 0.749297 0.103325
O O5 0.500000 0.351150 0.500000
O O6 0.701854 0.500000 0.489526
O O7 0.750000 0.250000 0.500000
O O8 0.573352 0.355350 0.379130
O O9 0.165258 0.500000 0.740876
O O10 0.375013 0.351122 0.746919
O O11 0.245153 0.366980 0.856983
O O12 0.120418 0.248822 0.736181
O O13 0.928989 0.000000 0.272461
O O14 0.440165 0.000000 0.106953
#
# Coordination Sequence:
#
# PCOD9207678 Si02
#       5
#     8   8   8   8   8
#     4   9  18  32  53  75  98 133 178 223 274 331
#     4  10  21  37  59  88 118 150 190 234 279 331
#     4  10  22  38  57  82 115 151 190 234 283 338
#     4  10  22  39  59  85 117 152 190 233 280 335
#     4   9  19  34  49  73 104 135 176 228 276 327
#
# _framework density 21.395855999999998
#
# number of rings (size 3 to 8) (size 9 to 14) (size 15 to 20)
#    0.000    2.400    0.000    1.200    2.800    3.200 
#    0.000    0.000    0.000    0.000    0.000    0.000 
#    0.000    0.000    0.000    0.000    0.000    0.000 
#
# Total GULP energy -111498.300064 kJ/mol
# GULP energy per Si atom -5574.915003 kJ/mol
# Density = 2.134716 g / cm^3
# Si number density = 21.395856 Si / 1000 Ang^3
#
#
#
# Elastic Constant Matrix: (Units=GPa)
#
#
# Indices 1 2 3 4 5 6 
#
# 1 45.6166 84.8223 13.4458 0.0000 -2.6795 0.0000
# 2 84.8223 289.1865 56.0563 0.0000 -1.3469 0.0000
# 3 13.4458 56.0563 95.6544 0.0000 -3.7508 0.0000
# 4 0.0000 0.0000 0.0000 22.5945 0.0000 -6.4540
# 5 -2.6795 -1.3469 -3.7508 0.0000 25.3212 0.0000
# 6 0.0000 0.0000 0.0000 -6.4540 0.0000 32.4915
#
#
#
# Elastic Compliance Matrix: (Units=1/GPa)
#
#
# Indices 1 2 3 4 5 6 
#
# 1 0.049018 -0.014729 0.001925 0.000000 0.004689 0.000000
# 2 -0.014729 0.008327 -0.002870 0.000000 -0.001541 0.000000
# 3 0.001925 -0.002870 0.011937 0.000000 0.001819 0.000000
# 4 0.000000 0.000000 0.000000 0.046921 0.000000 0.009320
# 5 0.004689 -0.001541 0.001819 0.000000 0.040176 0.000000
# 6 0.000000 0.000000 0.000000 0.009320 0.000000 0.032629
#
#
# Mechanical properties :
#
#
# Convention : Reuss Voigt Hill
#
# Bulk Modulus (GPa) = 26.36138 82.12290 54.24214
# Shear Modulus (GPa) = 21.45925 34.49032 27.97479
#
# Velocity S-wave (km/s) = 3.17039 4.01934 3.61984
# Velocity P-wave (km/s) = 5.07439 7.74636 6.54811
#
# Compressibility (1/GPa) = 0.03793427
#
# Stress axis : x y z
#
# Youngs Moduli (GPa) = 20.40087 120.08694 83.77334
#
# Poissons Ratio (x) = 1.76874 -0.16128
# Poissons Ratio (y) = 0.30048 0.24044
# Poissons Ratio (z) = -0.03927 0.34466
#
# Static dielectric constant tensor:
#      x y z
#    x 1.774210 0.000000 0.028500 
#    y 0.000000 1.848110 0.000000 
#    z 0.028500 0.000000 1.729090 
# 
# From -- ./inp_files/261022.got.cif
#   From: 2010.05.17/outbox.cif.g08.bks.cpg/sg12_131_cif.got.tgz:261022.got - 2010.06.03 13:09:07.
