data_PCOD9207863
_publ_section_title
;
Structure prediction by ZEFSAII (Michael W. Deem and Ramdas Pophale) SiO2 
 PCOD9207863
Probable space group: C 2/M
;
_chemical_formula_sum "Si O2"
_cell_formula_units_Z 56
_cell_length_a 23.036478
_cell_length_b 21.279953
_cell_length_c 5.312382
_cell_angle_alpha 90.000000
_cell_angle_beta 102.445734
_cell_angle_gamma 90.000000
_cell_volume 2543.012768
_symmetry_space_group_name_H-M "C 2/M"
_symmetry_group_IT_number 12
_symmetry_cell_setting 'monoclinic'
loop_
_space_group_symop_operation_xyz
x,y,z
-x,y,-z
-x,-y,-z
x,-y,z
1/2+x,1/2+y,z
1/2-x,1/2+y,-z
1/2-x,1/2-y,-z
1/2+x,1/2-y,z
loop_
_atom_site_type_symbol
_atom_site_label
_atom_site_fract_x
_atom_site_fract_y
_atom_site_fract_z
Si Si1 0.120169 0.311653 0.820878
Si Si2 0.768419 0.313237 0.765577
Si Si3 0.929963 0.817783 0.982608
Si Si4 0.539878 0.068672 0.787750
Si Si5 0.644629 0.571275 0.883175
Si Si6 0.845748 0.226236 0.525559
Si Si7 0.224755 0.929451 0.454529
O O1 0.083480 0.373243 0.833783
O O2 0.121306 0.288446 0.535562
O O3 0.187818 0.326698 0.965553
O O4 0.089738 0.250470 0.925261
O O5 0.798891 0.249940 0.687479
O O6 0.698418 0.298704 0.733704
O O7 0.767653 0.372180 0.573086
O O8 0.904996 0.875110 0.126000
O O9 0.893074 0.820088 0.686743
O O10 0.000000 0.820324 0.000000
O O11 0.500000 0.073456 0.500000
O O12 0.569951 0.000000 0.809689
O O13 0.500000 0.070947 0.000000
O O14 0.620852 0.500000 0.898513
O O15 0.692812 0.580946 0.155448
O O16 0.677353 0.570954 0.642905
O O17 0.251163 0.000000 0.475091
#
# Coordination Sequence:
#
# PCOD9207863 Si02
#       7
#     8   8   8   8   8   8   8
#     4  11  24  37  65  93 131 167 216 270 320 386
#     4  10  21  37  60  88 126 168 206 262 319 386
#     4  11  24  39  62  95 127 169 215 271 319 380
#     4  10  24  46  70  94 132 177 216 267 326 384
#     4  10  22  42  64  91 128 169 213 261 319 378
#     4  10  22  39  57  91 127 165 210 260 328 378
#     4  10  21  39  65  91 124 167 211 261 315 379
#
# _framework density 22.021125000000001
#
# number of rings (size 3 to 8) (size 9 to 14) (size 15 to 20)
#    0.000    1.714    1.429    1.714    8.000    0.857 
#    0.000    0.714    0.000    2.571    0.000    0.000 
#    0.000    0.000    0.000    0.000    0.000    0.000 
#
# Total GULP energy -156206.972023 kJ/mol
# GULP energy per Si atom -5578.820429 kJ/mol
# Density = 2.197100 g / cm^3
# Si number density = 22.021125 Si / 1000 Ang^3
#
#
#
# Elastic Constant Matrix: (Units=GPa)
#
#
# Indices 1 2 3 4 5 6 
#
# 1 77.9526 32.2565 29.4785 0.0000 10.5259 0.0000
# 2 32.2565 146.3183 16.4883 0.0000 12.3500 0.0000
# 3 29.4785 16.4883 91.2521 0.0000 -5.5292 0.0000
# 4 0.0000 0.0000 0.0000 34.4380 0.0000 0.6619
# 5 10.5259 12.3500 -5.5292 0.0000 20.1227 0.0000
# 6 0.0000 0.0000 0.0000 0.6619 0.0000 41.1517
#
#
#
# Elastic Compliance Matrix: (Units=1/GPa)
#
#
# Indices 1 2 3 4 5 6 
#
# 1 0.017186 -0.002383 -0.005672 0.000000 -0.009086 0.000000
# 2 -0.002383 0.007774 -0.000863 0.000000 -0.003762 0.000000
# 3 -0.005672 -0.000863 0.013382 0.000000 0.007173 0.000000
# 4 0.000000 0.000000 0.000000 0.029047 0.000000 -0.000467
# 5 -0.009086 -0.003762 0.007173 0.000000 0.058728 0.000000
# 6 0.000000 0.000000 0.000000 -0.000467 0.000000 0.024308
#
#
# Mechanical properties :
#
#
# Convention : Reuss Voigt Hill
#
# Bulk Modulus (GPa) = 48.76415 52.44108 50.60262
# Shear Modulus (GPa) = 28.55592 34.96247 31.75920
#
# Velocity S-wave (km/s) = 3.60495 3.98889 3.80177
# Velocity P-wave (km/s) = 6.28648 6.71422 6.50387
#
# Compressibility (1/GPa) = 0.02050687
#
# Stress axis : x y z
#
# Youngs Moduli (GPa) = 58.18700 128.62571 74.73003
#
# Poissons Ratio (x) = 0.30647 0.42386
# Poissons Ratio (y) = 0.13864 0.06449
# Poissons Ratio (z) = 0.33003 0.11101
#
# Static dielectric constant tensor:
#      x y z
#    x 1.784040 0.000000 -0.026610 
#    y 0.000000 1.871790 0.000000 
#    z -0.026610 0.000000 1.886660 
# 
# From -- ./inp_files/25669.got.cif
#   From: 2010.05.17/outbox.cif.g08.bks.cpg/sg12_13_cif.got.tgz:25669.got - 2010.06.03 13:09:07.
