data_PCOD9207079
_publ_section_title
;
Structure prediction by ZEFSAII (Michael W. Deem and Ramdas Pophale) SiO2 
 PCOD9207079
Probable space group: C 2/M
;
_chemical_formula_sum "Si O2"
_cell_formula_units_Z 52
_cell_length_a 23.261117
_cell_length_b 9.810244
_cell_length_c 13.512158
_cell_angle_alpha 90.000000
_cell_angle_beta 132.306905
_cell_angle_gamma 90.000000
_cell_volume 2280.355831
_symmetry_space_group_name_H-M "C 2/M"
_symmetry_group_IT_number 12
_symmetry_cell_setting 'monoclinic'
loop_
_space_group_symop_operation_xyz
x,y,z
-x,y,-z
-x,-y,-z
x,-y,z
1/2+x,1/2+y,z
1/2-x,1/2+y,-z
1/2-x,1/2-y,-z
1/2+x,1/2-y,z
loop_
_atom_site_type_symbol
_atom_site_label
_atom_site_fract_x
_atom_site_fract_y
_atom_site_fract_z
Si Si1 0.880548 0.839532 0.484791
Si Si2 0.228817 0.152553 0.064634
Si Si3 0.798535 0.285247 0.673385
Si Si4 0.389726 0.155509 0.964936
Si Si5 0.902429 0.651136 0.332464
Si Si6 0.488301 0.156702 0.732003
Si Si7 0.251468 0.500000 0.545035
O O1 0.787242 0.818824 0.378617
O O2 0.915772 0.766789 0.428907
O O3 0.923129 0.764396 0.625170
O O4 0.894921 0.000000 0.505063
O O5 0.163808 0.228167 0.050781
O O6 0.309952 0.145097 0.215304
O O7 0.205741 0.000000 0.007474
O O8 0.250000 0.250000 0.000000
O O9 0.869145 0.331161 0.825775
O O10 0.794359 0.380378 0.572165
O O11 0.798941 0.123705 0.656078
O O12 0.366133 0.000000 0.967095
O O13 0.472480 0.173904 0.115054
O O14 0.923472 0.500000 0.394671
O O15 0.943702 0.671780 0.274171
O O16 0.460789 0.000000 0.690195
#
# Coordination Sequence:
#
# PCOD9207079 Si02
#       7
#     8   8   8   8   8   8   4
#     4  12  24  38  60  92 126 162 205 255 300 353
#     4  11  21  33  55  86 124 166 208 256 300 340
#     4  11  23  43  70  99 118 153 196 259 313 377
#     4  11  21  39  62  90 123 161 206 252 298 364
#     4  10  21  37  56  84 122 174 217 244 285 350
#     4  10  23  40  58  84 129 175 208 240 288 357
#     4  10  24  44  70  98 122 144 194 260 328 372
#
# _framework density 22.803459
#
# number of rings (size 3 to 8) (size 9 to 14) (size 15 to 20)
#    0.000    1.231    4.615    1.385    3.231    3.692 
#    0.000    0.000    0.000    5.538    0.000    0.000 
#    0.000    0.000    0.000    0.000    0.000    0.000 
#
# Total GULP energy -144744.603718 kJ/mol
# GULP energy per Si atom -5567.100143 kJ/mol
# Density = 2.275156 g / cm^3
# Si number density = 22.803459 Si / 1000 Ang^3
#
#
#
# Elastic Constant Matrix: (Units=GPa)
#
#
# Indices 1 2 3 4 5 6 
#
# 1 72.8538 33.0910 16.1323 0.0000 18.1595 0.0000
# 2 33.0910 221.3928 69.0761 0.0000 6.4724 0.0000
# 3 16.1323 69.0761 151.4861 0.0000 -3.4407 0.0000
# 4 0.0000 0.0000 0.0000 35.4117 0.0000 -5.8105
# 5 18.1595 6.4724 -3.4407 0.0000 17.9261 0.0000
# 6 0.0000 0.0000 0.0000 -5.8105 0.0000 11.2524
#
#
#
# Elastic Compliance Matrix: (Units=1/GPa)
#
#
# Indices 1 2 3 4 5 6 
#
# 1 0.019887 -0.001856 -0.001721 0.000000 -0.019806 0.000000
# 2 -0.001856 0.005542 -0.002342 0.000000 -0.000570 0.000000
# 3 -0.001721 -0.002342 0.007946 0.000000 0.004114 0.000000
# 4 0.000000 0.000000 0.000000 0.030854 0.000000 0.015932
# 5 -0.019806 -0.000570 0.004114 0.000000 0.076844 0.000000
# 6 0.000000 0.000000 0.000000 0.015932 0.000000 0.097097
#
#
# Mechanical properties :
#
#
# Convention : Reuss Voigt Hill
#
# Bulk Modulus (GPa) = 46.43510 75.81462 61.12486
# Shear Modulus (GPa) = 19.44101 34.74692 27.09396
#
# Velocity S-wave (km/s) = 2.92301 3.90777 3.45070
# Velocity P-wave (km/s) = 5.63909 7.32666 6.53756
#
# Compressibility (1/GPa) = 0.02153544
#
# Stress axis : x y z
#
# Youngs Moduli (GPa) = 50.28307 180.44692 125.84855
#
# Poissons Ratio (x) = 0.33499 0.21661
# Poissons Ratio (y) = 0.09335 0.29477
# Poissons Ratio (z) = 0.08655 0.42265
#
# Static dielectric constant tensor:
#      x y z
#    x 2.020810 0.000000 -0.078830 
#    y 0.000000 1.820030 0.000000 
#    z -0.078830 0.000000 1.971480 
# 
# From -- ./inp_files/249608.got.cif
#   From: 2010.05.17/outbox.cif.g08.bks.cpg/sg12_125_cif.got.tgz:249608.got - 2010.06.03 13:09:07.
