data_PCOD9207701
_publ_section_title
;
Structure prediction by ZEFSAII (Michael W. Deem and Ramdas Pophale) SiO2 
 PCOD9207701
Probable space group: C 2/M
;
_chemical_formula_sum "Si O2"
_cell_formula_units_Z 64
_cell_length_a 17.616282
_cell_length_b 14.719972
_cell_length_c 20.156209
_cell_angle_alpha 90.000000
_cell_angle_beta 42.898703
_cell_angle_gamma 90.000000
_cell_volume 3557.857715
_symmetry_space_group_name_H-M "C 2/M"
_symmetry_group_IT_number 12
_symmetry_cell_setting 'monoclinic'
loop_
_space_group_symop_operation_xyz
x,y,z
-x,y,-z
-x,-y,-z
x,-y,z
1/2+x,1/2+y,z
1/2-x,1/2+y,-z
1/2-x,1/2-y,-z
1/2+x,1/2-y,z
loop_
_atom_site_type_symbol
_atom_site_label
_atom_site_fract_x
_atom_site_fract_y
_atom_site_fract_z
Si Si1 0.641456 0.312952 0.075087
Si Si2 0.051862 0.394917 0.393665
Si Si3 0.144520 0.893692 0.621386
Si Si4 0.599110 0.762752 0.747662
Si Si5 0.133835 0.607941 0.600409
Si Si6 0.628082 0.397636 0.941248
Si Si7 0.742252 0.242900 0.234292
Si Si8 0.888068 0.895043 0.762237
O O1 0.529497 0.252183 0.150727
O O2 0.640254 0.371034 0.143333
O O3 0.750000 0.250000 0.000000
O O4 0.634367 0.375854 0.015042
O O5 0.087885 0.500000 0.360908
O O6 0.151165 0.324076 0.324206
O O7 0.000000 0.388894 0.500000
O O8 0.959523 0.374451 0.396141
O O9 0.143192 0.831295 0.686965
O O10 0.245453 0.868752 0.508072
O O11 0.021670 0.881582 0.668655
O O12 0.157597 0.000000 0.630294
O O13 0.610529 0.835968 0.681729
O O14 0.672914 0.779802 0.764880
O O15 0.133049 0.500000 0.614421
O O16 0.670495 0.500000 0.900780
O O17 0.693871 0.319953 0.859850
O O18 0.500000 0.394354 0.000000
O O19 0.679376 0.325410 0.239330
O O20 0.862747 0.000000 0.764507
#
# Coordination Sequence:
#
# PCOD9207701 Si02
#       8
#     8   8   8   8   8   8   8   8
#     4  11  21  40  64  84 116 150 194 246 291 346
#     4  10  21  37  59  89 121 153 189 238 303 358
#     4   9  19  37  61  85 112 149 197 244 290 341
#     4  11  23  36  59  86 116 155 193 235 294 347
#     4  10  21  39  59  84 119 155 195 241 287 350
#     4  11  23  40  63  90 119 149 188 240 299 353
#     4  12  23  38  58  85 123 153 193 243 288 349
#     4  10  22  39  61  85 113 156 203 244 285 341
#
# _framework density 17.988354000000001
#
# number of rings (size 3 to 8) (size 9 to 14) (size 15 to 20)
#    0.000    1.500    2.500    3.375    0.000    4.000 
#    0.000    0.625    0.000    3.750    0.000    0.000 
#    0.000    0.000    0.000    0.000    0.000    0.000 
#
# Total GULP energy -178761.749717 kJ/mol
# GULP energy per Si atom -5586.304679 kJ/mol
# Density = 1.794741 g / cm^3
# Si number density = 17.988354 Si / 1000 Ang^3
#
#
#
# Elastic Constant Matrix: (Units=GPa)
#
#
# Indices 1 2 3 4 5 6 
#
# 1 105.1911 48.0826 36.0029 0.0000 10.2570 0.0000
# 2 48.0826 64.3135 20.7648 0.0000 -5.7613 0.0000
# 3 36.0029 20.7648 73.3487 0.0000 -7.1813 0.0000
# 4 0.0000 0.0000 0.0000 11.2554 0.0000 -5.3406
# 5 10.2570 -5.7613 -7.1813 0.0000 25.8287 0.0000
# 6 0.0000 0.0000 0.0000 -5.3406 0.0000 19.4266
#
#
#
# Elastic Compliance Matrix: (Units=1/GPa)
#
#
# Indices 1 2 3 4 5 6 
#
# 1 0.019082 -0.013165 -0.006855 0.000000 -0.012420 0.000000
# 2 -0.013165 0.026360 0.000090 0.000000 0.011133 0.000000
# 3 -0.006855 0.000090 0.017724 0.000000 0.007670 0.000000
# 4 0.000000 0.000000 0.000000 0.102174 0.000000 0.028089
# 5 -0.012420 0.011133 0.007670 0.000000 0.048265 0.000000
# 6 0.000000 0.000000 0.000000 0.028089 0.000000 0.059198
#
#
# Mechanical properties :
#
#
# Convention : Reuss Voigt Hill
#
# Bulk Modulus (GPa) = 42.91104 50.28377 46.59741
# Shear Modulus (GPa) = 15.60393 20.50234 18.05313
#
# Velocity S-wave (km/s) = 2.94844 3.37969 3.17140
# Velocity P-wave (km/s) = 5.95800 6.57601 6.27462
#
# Compressibility (1/GPa) = 0.02330402
#
# Stress axis : x y z
#
# Youngs Moduli (GPa) = 52.40624 37.93630 56.42113
#
# Poissons Ratio (x) = 0.49945 0.38677
# Poissons Ratio (y) = 0.68995 -0.00506
# Poissons Ratio (z) = 0.35925 -0.00340
#
# Static dielectric constant tensor:
#      x y z
#    x 1.599430 0.000000 -0.009010 
#    y 0.000000 1.601600 0.000000 
#    z -0.009010 0.000000 1.606840 
# 
# From -- ./inp_files/183829.got.cif
#   From: 2010.05.17/outbox.cif.g08.bks.cpg/sg12_92_cif.got.tgz:183829.got - 2010.06.03 13:09:07.
