data_PCOD9207066
_publ_section_title
;
Structure prediction by ZEFSAII (Michael W. Deem and Ramdas Pophale) SiO2 
 PCOD9207066
Probable space group: C 2/M
;
_chemical_formula_sum "Si O2"
_cell_formula_units_Z 40
_cell_length_a 31.339783
_cell_length_b 8.997196
_cell_length_c 7.597313
_cell_angle_alpha 90.000000
_cell_angle_beta 76.646013
_cell_angle_gamma 90.000000
_cell_volume 2084.293720
_symmetry_space_group_name_H-M "C 2/M"
_symmetry_group_IT_number 12
_symmetry_cell_setting 'monoclinic'
loop_
_space_group_symop_operation_xyz
x,y,z
-x,y,-z
-x,-y,-z
x,-y,z
1/2+x,1/2+y,z
1/2-x,1/2+y,-z
1/2-x,1/2-y,-z
1/2+x,1/2-y,z
loop_
_atom_site_type_symbol
_atom_site_label
_atom_site_fract_x
_atom_site_fract_y
_atom_site_fract_z
Si Si1 0.551530 0.677743 0.448971
Si Si2 0.795465 0.831615 0.418265
Si Si3 0.389163 0.680040 0.937595
Si Si4 0.205522 0.165892 0.002480
Si Si5 0.385906 0.177550 0.325434
O O1 0.500000 0.711106 0.500000
O O2 0.557101 0.500000 0.473482
O O3 0.573077 0.711699 0.238898
O O4 0.577571 0.764381 0.574896
O O5 0.750000 0.750000 0.500000
O O6 0.798105 0.841000 0.204730
O O7 0.838660 0.741914 0.432190
O O8 0.795908 0.000000 0.488157
O O9 0.386695 0.500000 0.965500
O O10 0.342049 0.728532 0.899904
O O11 0.394828 0.756822 0.121231
O O12 0.209527 0.000000 0.071746
O O13 0.250000 0.250000 0.000000
O O14 0.384286 0.000000 0.319814
#
# Coordination Sequence:
#
# PCOD9207066 Si02
#       5
#     8   8   8   8   8
#     4  10  22  41  66  92 117 155 206 255 306 362
#     4  10  21  37  56  83 117 156 200 241 291 353
#     4   9  20  40  61  84 117 158 201 248 301 357
#     4   9  19  33  51  79 112 148 191 235 285 344
#     4  11  23  39  60  88 123 161 199 247 305 361
#
# _framework density 19.191153
#
# number of rings (size 3 to 8) (size 9 to 14) (size 15 to 20)
#    0.000    2.200    0.000    3.600    2.800    6.000 
#    0.000    4.000    0.000    0.000    0.000    0.000 
#    0.000    0.000    0.000    0.000    0.000    0.000 
#
# Total GULP energy -111629.864101 kJ/mol
# GULP energy per Si atom -5581.493205 kJ/mol
# Density = 1.914747 g / cm^3
# Si number density = 19.191153 Si / 1000 Ang^3
#
#
#
# Elastic Constant Matrix: (Units=GPa)
#
#
# Indices 1 2 3 4 5 6 
#
# 1 175.4452 88.4778 75.9806 0.0000 -18.0724 0.0000
# 2 88.4778 107.4602 53.5036 0.0000 -0.4215 0.0000
# 3 75.9806 53.5036 98.1891 0.0000 -15.1560 0.0000
# 4 0.0000 0.0000 0.0000 21.1362 0.0000 3.8781
# 5 -18.0724 -0.4215 -15.1560 0.0000 39.2712 0.0000
# 6 0.0000 0.0000 0.0000 3.8781 0.0000 31.4238
#
#
#
# Elastic Compliance Matrix: (Units=1/GPa)
#
#
# Indices 1 2 3 4 5 6 
#
# 1 0.011769 -0.007436 -0.004500 0.000000 0.003600 0.000000
# 2 -0.007436 0.017745 -0.004694 0.000000 -0.005043 0.000000
# 3 -0.004500 -0.004694 0.016904 0.000000 0.004403 0.000000
# 4 0.000000 0.000000 0.000000 0.048408 0.000000 -0.005974
# 5 0.003600 -0.005043 0.004403 0.000000 0.028765 0.000000
# 6 0.000000 0.000000 0.000000 -0.005974 0.000000 0.032560
#
#
# Mechanical properties :
#
#
# Convention : Reuss Voigt Hill
#
# Bulk Modulus (GPa) = 75.99235 90.77983 83.38609
# Shear Modulus (GPa) = 25.80006 29.24175 27.52091
#
# Velocity S-wave (km/s) = 3.67055 3.90771 3.79098
# Velocity P-wave (km/s) = 7.59259 8.23200 7.91875
#
# Compressibility (1/GPa) = 0.01315922
#
# Stress axis : x y z
#
# Youngs Moduli (GPa) = 84.96770 56.35309 59.15801
#
# Poissons Ratio (x) = 0.41902 0.26620
# Poissons Ratio (y) = 0.63179 0.27769
# Poissons Ratio (z) = 0.38235 0.26452
#
# Static dielectric constant tensor:
#      x y z
#    x 1.668510 0.000000 -0.018030 
#    y 0.000000 1.624680 0.000000 
#    z -0.018030 0.000000 1.671720 
# 
# From -- ./inp_files/107445.got.cif
#   From: 2010.05.17/outbox.cif.g08.bks.cpg/sg12_54_cif.got.tgz:107445.got - 2010.06.03 13:09:07.
