data_PCOD9207537
_publ_section_title
;
Structure prediction by ZEFSAII (Michael W. Deem and Ramdas Pophale) SiO2 
 PCOD9207537
Probable space group: C 2/M
;
_chemical_formula_sum "Si O2"
_cell_formula_units_Z 48
_cell_length_a 21.727128
_cell_length_b 9.008330
_cell_length_c 12.423248
_cell_angle_alpha 90.000000
_cell_angle_beta 108.638403
_cell_angle_gamma 90.000000
_cell_volume 2304.018294
_symmetry_space_group_name_H-M "C 2/M"
_symmetry_group_IT_number 12
_symmetry_cell_setting 'monoclinic'
loop_
_space_group_symop_operation_xyz
x,y,z
-x,y,-z
-x,-y,-z
x,-y,z
1/2+x,1/2+y,z
1/2-x,1/2+y,-z
1/2-x,1/2-y,-z
1/2+x,1/2-y,z
loop_
_atom_site_type_symbol
_atom_site_label
_atom_site_fract_x
_atom_site_fract_y
_atom_site_fract_z
Si Si1 0.023107 0.327092 0.133027
Si Si2 0.675728 0.173465 0.265624
Si Si3 0.004148 0.170527 0.669382
Si Si4 0.271528 0.321734 0.124103
Si Si5 0.871976 0.675282 0.326265
Si Si6 0.649443 0.672278 0.468302
O O1 0.006572 0.500000 0.148569
O O2 0.100773 0.312853 0.186595
O O3 0.992414 0.220237 0.204489
O O4 0.000000 0.294943 0.000000
O O5 0.720282 0.216850 0.190167
O O6 0.682754 0.264342 0.379781
O O7 0.687832 0.000000 0.296187
O O8 0.052923 0.275477 0.632550
O O9 0.928474 0.183799 0.596358
O O10 0.023921 0.000000 0.663193
O O11 0.274722 0.500000 0.116458
O O12 0.338544 0.254930 0.205981
O O13 0.250000 0.250000 0.000000
O O14 0.865306 0.500000 0.315330
O O15 0.839230 0.736729 0.416778
O O16 0.665525 0.500000 0.493627
#
# Coordination Sequence:
#
# PCOD9207537 Si02
#       6
#     8   8   8   8   8   8
#     4   9  18  33  57  87 119 157 198 244 297 360
#     4   9  20  39  61  87 121 159 200 246 299 359
#     4  10  21  37  58  90 126 158 196 249 307 365
#     4  11  25  44  64  89 123 163 207 253 300 358
#     4  12  25  40  62  89 121 164 209 251 304 363
#     4  10  21  39  64  93 125 157 197 251 310 365
#
# _framework density 20.833168000000001
#
# number of rings (size 3 to 8) (size 9 to 14) (size 15 to 20)
#    0.000    1.833    0.000    3.500    2.333    6.333 
#    0.000    0.000    0.000    0.000    0.000    0.000 
#    0.000    0.000    0.000    0.000    0.000    0.000 
#
# Total GULP energy -134228.395087 kJ/mol
# GULP energy per Si atom -5592.849795 kJ/mol
# Density = 2.078575 g / cm^3
# Si number density = 20.833168 Si / 1000 Ang^3
#
#
#
# Elastic Constant Matrix: (Units=GPa)
#
#
# Indices 1 2 3 4 5 6 
#
# 1 78.1303 36.3150 26.3776 0.0000 -14.8970 0.0000
# 2 36.3150 98.5141 59.5048 0.0000 -10.6510 0.0000
# 3 26.3776 59.5048 128.7094 0.0000 -3.0320 0.0000
# 4 0.0000 0.0000 0.0000 36.2877 0.0000 -8.4579
# 5 -14.8970 -10.6510 -3.0320 0.0000 25.3573 0.0000
# 6 0.0000 0.0000 0.0000 -8.4579 0.0000 25.0912
#
#
#
# Elastic Compliance Matrix: (Units=1/GPa)
#
#
# Indices 1 2 3 4 5 6 
#
# 1 0.016840 -0.004706 -0.001092 0.000000 0.007786 0.000000
# 2 -0.004706 0.016104 -0.006404 0.000000 0.003233 0.000000
# 3 -0.001092 -0.006404 0.010906 0.000000 -0.002027 0.000000
# 4 0.000000 0.000000 0.000000 0.029907 0.000000 0.010081
# 5 0.007786 0.003233 -0.002027 0.000000 0.045126 0.000000
# 6 0.000000 0.000000 0.000000 0.010081 0.000000 0.043253
#
#
# Mechanical properties :
#
#
# Convention : Reuss Voigt Hill
#
# Bulk Modulus (GPa) = 51.42813 61.08318 56.25566
# Shear Modulus (GPa) = 25.90369 29.55766 27.73067
#
# Velocity S-wave (km/s) = 3.52999 3.77075 3.65236
# Velocity P-wave (km/s) = 6.43069 6.95284 6.69685
#
# Compressibility (1/GPa) = 0.01944461
#
# Stress axis : x y z
#
# Youngs Moduli (GPa) = 59.38329 62.09757 91.69004
#
# Poissons Ratio (x) = 0.29225 0.10012
# Poissons Ratio (y) = 0.27948 0.58722
# Poissons Ratio (z) = 0.06484 0.39770
#
# Static dielectric constant tensor:
#      x y z
#    x 1.788820 0.000000 0.023080 
#    y 0.000000 1.698740 0.000000 
#    z 0.023080 0.000000 1.722740 
# 
# From -- ./inp_files/173044.got.cif
#   From: 2010.05.17/outbox.cif.g08.bks.cpg/sg12_87_cif.got.tgz:173044.got - 2010.06.03 13:09:07.
