data_PCOD9207085
_publ_section_title
;
Structure prediction by ZEFSAII (Michael W. Deem and Ramdas Pophale) SiO2 
 PCOD9207085
Probable space group: C 2/M
;
_chemical_formula_sum "Si O2"
_cell_formula_units_Z 44
_cell_length_a 23.727685
_cell_length_b 11.245226
_cell_length_c 9.347899
_cell_angle_alpha 90.000000
_cell_angle_beta 85.984941
_cell_angle_gamma 90.000000
_cell_volume 2488.114491
_symmetry_space_group_name_H-M "C 2/M"
_symmetry_group_IT_number 12
_symmetry_cell_setting 'monoclinic'
loop_
_space_group_symop_operation_xyz
x,y,z
-x,y,-z
-x,-y,-z
x,-y,z
1/2+x,1/2+y,z
1/2-x,1/2+y,-z
1/2-x,1/2-y,-z
1/2+x,1/2-y,z
loop_
_atom_site_type_symbol
_atom_site_label
_atom_site_fract_x
_atom_site_fract_y
_atom_site_fract_z
Si Si1 0.775320 0.866162 0.655672
Si Si2 0.517364 0.000000 0.242619
Si Si3 0.788560 0.133116 0.975912
Si Si4 0.901939 0.138020 0.142425
Si Si5 0.500000 0.195611 0.000000
Si Si6 0.157484 0.270229 0.597084
Si Si7 0.588118 0.000000 0.517689
O O1 0.814998 0.799327 0.538900
O O2 0.712884 0.809763 0.677081
O O3 0.766997 0.000000 0.604186
O O4 0.802745 0.867768 0.805956
O O5 0.517024 0.888171 0.132604
O O6 0.565458 0.000000 0.357725
O O7 0.461680 0.000000 0.353754
O O8 0.844780 0.142184 0.058967
O O9 0.762648 0.000000 0.011354
O O10 0.750000 0.250000 0.000000
O O11 0.948880 0.221045 0.061705
O O12 0.883799 0.191436 0.298845
O O13 0.919895 0.000000 0.149720
O O14 0.125020 0.384098 0.543534
#
# Coordination Sequence:
#
# PCOD9207085 Si02
#       7
#     8   4   8   8   4   8   4
#     4  10  21  37  56  86 123 162 200 237 295 368
#     4  10  24  42  66  90 118 148 212 256 304 367
#     4  10  21  39  59  89 126 161 206 257 303 365
#     4  11  23  40  63  89 122 161 207 254 304 365
#     4  11  23  44  66  90 115 163 200 260 316 359
#     4  11  21  37  62  85 124 160 198 240 308 356
#     4  11  22  42  62  92 120 160 196 259 300 365
#
# _framework density 17.684073000000001
#
# number of rings (size 3 to 8) (size 9 to 14) (size 15 to 20)
#    0.000    1.455    4.545    0.818    2.545    0.000 
#    4.909    0.000    0.000    1.091    0.000    0.000 
#    0.000    0.000    0.000    0.000    0.000    0.000 
#
# Total GULP energy -122652.871600 kJ/mol
# GULP energy per Si atom -5575.130527 kJ/mol
# Density = 1.764382 g / cm^3
# Si number density = 17.684073 Si / 1000 Ang^3
#
#
#
# Elastic Constant Matrix: (Units=GPa)
#
#
# Indices 1 2 3 4 5 6 
#
# 1 58.8716 55.3813 50.5304 0.0000 -13.4281 0.0000
# 2 55.3813 160.9974 66.1102 0.0000 -13.4319 0.0000
# 3 50.5304 66.1102 100.9457 0.0000 9.1315 0.0000
# 4 0.0000 0.0000 0.0000 9.0228 0.0000 -9.0957
# 5 -13.4281 -13.4319 9.1315 0.0000 26.8916 0.0000
# 6 0.0000 0.0000 0.0000 -9.0957 0.0000 34.2686
#
#
#
# Elastic Compliance Matrix: (Units=1/GPa)
#
#
# Indices 1 2 3 4 5 6 
#
# 1 0.049057 -0.004221 -0.024572 0.000000 0.030732 0.000000
# 2 -0.004221 0.010049 -0.004881 0.000000 0.004569 0.000000
# 3 -0.024572 -0.004881 0.027581 0.000000 -0.024074 0.000000
# 4 0.000000 0.000000 0.000000 0.151317 0.000000 0.040163
# 5 0.030732 0.004569 -0.024074 0.000000 0.062989 0.000000
# 6 0.000000 0.000000 0.000000 0.040163 0.000000 0.039841
#
#
# Mechanical properties :
#
#
# Convention : Reuss Voigt Hill
#
# Bulk Modulus (GPa) = 51.71245 73.87316 62.79280
# Shear Modulus (GPa) = 12.05896 23.95612 18.00754
#
# Velocity S-wave (km/s) = 2.61418 3.68458 3.19453
# Velocity P-wave (km/s) = 6.19821 7.74377 7.01369
#
# Compressibility (1/GPa) = 0.01933770
#
# Stress axis : x y z
#
# Youngs Moduli (GPa) = 20.38438 99.51236 36.25698
#
# Poissons Ratio (x) = 0.42007 0.89091
# Poissons Ratio (y) = 0.08605 0.17699
# Poissons Ratio (z) = 0.50088 0.48577
#
# Static dielectric constant tensor:
#      x y z
#    x 1.585600 0.000000 0.009350 
#    y 0.000000 1.629290 0.000000 
#    z 0.009350 0.000000 1.581450 
# 
# From -- ./inp_files/84107.got.cif
#   From: 2010.05.17/outbox.cif.g08.bks.cpg/sg12_43_cif.got.tgz:84107.got - 2010.06.03 13:09:07.
