data_PCOD9207918
_publ_section_title
;
Structure prediction by ZEFSAII (Michael W. Deem and Ramdas Pophale) SiO2 
 PCOD9207918
Probable space group: C 2/M
;
_chemical_formula_sum "Si O2"
_cell_formula_units_Z 58
_cell_length_a 19.807563
_cell_length_b 7.415765
_cell_length_c 31.208629
_cell_angle_alpha 90.000000
_cell_angle_beta 139.180489
_cell_angle_gamma 90.000000
_cell_volume 2996.579432
_symmetry_space_group_name_H-M "C 2/M"
_symmetry_group_IT_number 12
_symmetry_cell_setting 'monoclinic'
loop_
_space_group_symop_operation_xyz
x,y,z
-x,y,-z
-x,-y,-z
x,-y,z
1/2+x,1/2+y,z
1/2-x,1/2+y,-z
1/2-x,1/2-y,-z
1/2+x,1/2-y,z
loop_
_atom_site_type_symbol
_atom_site_label
_atom_site_fract_x
_atom_site_fract_y
_atom_site_fract_z
Si Si1 0.129916 0.706582 0.165507
Si Si2 0.360264 0.280718 0.276923
Si Si3 0.541445 0.279753 0.762540
Si Si4 0.387120 0.207716 0.388435
Si Si5 0.150918 0.217923 0.274443
Si Si6 0.500000 0.500000 0.500000
Si Si7 0.198654 0.785858 0.909377
Si Si8 0.405500 0.217866 0.048929
O O1 0.132776 0.500000 0.151461
O O2 0.243157 0.783770 0.210541
O O3 0.123886 0.708786 0.214457
O O4 0.021621 0.786632 0.097561
O O5 0.356560 0.500000 0.276847
O O6 0.435223 0.225322 0.274625
O O7 0.392471 0.217572 0.339350
O O8 0.541843 0.500000 0.763401
O O9 0.433261 0.223671 0.731380
O O10 0.633347 0.216928 0.838048
O O11 0.268554 0.264971 0.341970
O O12 0.463200 0.342580 0.448128
O O13 0.401258 0.000000 0.408323
O O14 0.146881 0.000000 0.268748
O O15 0.132831 0.759158 0.921244
O O16 0.209194 0.000000 0.908093
O O17 0.313735 0.715284 0.974056
O O18 0.409179 0.000000 0.047638
#
# Coordination Sequence:
#
# PCOD9207918 Si02
#       8
#     8   8   8   8   8   2   8   8
#     4   9  16  26  43  66  97 132 174 225 275 316
#     4   9  17  32  51  75 107 143 178 217 271 323
#     4   9  16  28  49  74 101 141 180 223 269 321
#     4  10  21  37  60  91 114 140 178 217 256 315
#     4   9  17  30  50  78 104 130 178 225 257 303
#     4  12  22  40  68  90 116 144 172 210 262 314
#     4   9  16  26  40  62  92 130 180 222 275 324
#     4   9  16  25  38  61  94 130 173 233 278 318
#
# _framework density 19.355402000000002
#
# number of rings (size 3 to 8) (size 9 to 14) (size 15 to 20)
#    0.000    2.759    2.069    0.207    0.966    0.000 
#    0.000    2.069    0.000    4.966    0.000    0.000 
#    0.000    8.828    0.000    0.000    0.000    0.000 
#
# Total GULP energy -161464.483683 kJ/mol
# GULP energy per Si atom -5567.740817 kJ/mol
# Density = 1.931135 g / cm^3
# Si number density = 19.355402 Si / 1000 Ang^3
#
#
#
# Elastic Constant Matrix: (Units=GPa)
#
#
# Indices 1 2 3 4 5 6 
#
# 1 92.5262 -0.0579 15.7689 0.0001 -10.3081 -0.0001
# 2 -0.0579 78.1516 15.4662 0.0002 -1.3544 -0.0010
# 3 15.7689 15.4662 44.8055 0.0000 -20.8121 -0.0001
# 4 0.0001 0.0002 0.0000 2.1228 0.0000 -3.9694
# 5 -10.3081 -1.3544 -20.8121 0.0000 5.7102 0.0000
# 6 -0.0001 -0.0010 -0.0001 -3.9694 0.0000 9.5454
#
#
#
# Elastic Compliance Matrix: (Units=1/GPa)
#
#
# Indices 1 2 3 4 5 6 
#
# 1 0.011361 0.001381 -0.007509 0.000000 -0.006531 0.000000
# 2 0.001381 0.012453 0.003253 0.000004 0.017304 0.000003
# 3 -0.007509 0.003253 -0.025831 0.000012 -0.106931 0.000005
# 4 0.000000 0.000004 0.000012 2.118130 0.000026 0.880824
# 5 -0.006531 0.017304 -0.106931 0.000026 -0.222296 0.000012
# 6 0.000000 0.000003 0.000005 0.880824 0.000012 0.471053
#
#
# Mechanical properties :
#
#
# Convention : Reuss Voigt Hill
#
# Bulk Modulus (GPa) = -128.76502 30.87084 -48.94709
# Shear Modulus (GPa) = 2.11146 15.76274 8.93710
#
# Velocity S-wave (km/s) = 1.04559 2.85684 2.15114
# Velocity P-wave (km/s) = 8.07548 5.18325 4.37877
#
# Compressibility (1/GPa) = -0.00776608
#
# Stress axis : x y z
#
# Youngs Moduli (GPa) = 88.02278 80.30369 -38.71277
#
# Poissons Ratio (x) = -0.11091 -0.29068
# Poissons Ratio (y) = -0.12158 0.12594
# Poissons Ratio (z) = 0.66093 -0.26125
#
# Static dielectric constant tensor:
#      x y z
#    x 1.668160 0.000000 0.032890 
#    y 0.000000 1.518190 0.000000 
#    z 0.032890 0.000000 1.661130 
# 
# From -- ./inp_files/380244.got.cif
#   From: 2010.05.17/outbox.cif.g08.bks.cpg/sg12_191_cif.got.tgz:380244.got - 2010.06.03 13:09:07.
