data_PCOD9207360
_publ_section_title
;
Structure prediction by ZEFSAII (Michael W. Deem and Ramdas Pophale) SiO2 
 PCOD9207360
Probable space group: C 2/M
;
_chemical_formula_sum "Si O2"
_cell_formula_units_Z 56
_cell_length_a 31.557818
_cell_length_b 8.930727
_cell_length_c 13.686699
_cell_angle_alpha 90.000000
_cell_angle_beta 128.493262
_cell_angle_gamma 90.000000
_cell_volume 3019.099928
_symmetry_space_group_name_H-M "C 2/M"
_symmetry_group_IT_number 12
_symmetry_cell_setting 'monoclinic'
loop_
_space_group_symop_operation_xyz
x,y,z
-x,y,-z
-x,-y,-z
x,-y,z
1/2+x,1/2+y,z
1/2-x,1/2+y,-z
1/2-x,1/2-y,-z
1/2+x,1/2-y,z
loop_
_atom_site_type_symbol
_atom_site_label
_atom_site_fract_x
_atom_site_fract_y
_atom_site_fract_z
Si Si1 0.920213 0.822866 0.045593
Si Si2 0.700988 0.822082 0.809352
Si Si3 0.685425 0.177767 0.014808
Si Si4 0.308934 0.678926 0.572065
Si Si5 0.594343 0.823520 0.178200
Si Si6 0.522319 0.824501 0.269966
Si Si7 0.130075 0.320249 0.523344
O O1 0.863004 0.762903 0.002294
O O2 0.968257 0.770915 0.186034
O O3 0.919632 0.000000 0.034452
O O4 0.929584 0.746282 0.953979
O O5 0.684244 0.789591 0.896715
O O6 0.654329 0.789061 0.664298
O O7 0.712870 0.000000 0.820958
O O8 0.755863 0.733010 0.865307
O O9 0.679743 0.000000 0.020984
O O10 0.306332 0.500000 0.572131
O O11 0.250000 0.750000 0.500000
O O12 0.350025 0.741105 0.713191
O O13 0.334677 0.734766 0.506950
O O14 0.554438 0.806839 0.213333
O O15 0.604178 0.000000 0.178545
O O16 0.567104 0.782856 0.415251
O O17 0.508338 0.000000 0.260705
O O18 0.134781 0.500000 0.510933
#
# Coordination Sequence:
#
# PCOD9207360 Si02
#       7
#     8   8   8   8   8   8   8
#     4  12  24  36  55  82 114 150 188 233 278 331
#     4   9  19  38  62  85 111 143 184 232 284 337
#     4  10  21  37  58  84 113 146 185 232 281 334
#     4  11  22  35  52  79 115 150 186 227 270 327
#     4  10  21  38  58  80 109 147 189 232 280 330
#     4   9  19  37  58  81 110 146 185 229 279 336
#     4   9  19  37  60  82 109 145 184 229 283 335
#
# _framework density 18.548575
#
# number of rings (size 3 to 8) (size 9 to 14) (size 15 to 20)
#    0.000    2.000    0.000    4.714    2.000    5.714 
#    0.000    0.714    0.000    4.286    0.000    0.000 
#    0.000    0.000    0.000    0.000    0.000    0.000 
#
# Total GULP energy -156401.486178 kJ/mol
# GULP energy per Si atom -5585.767363 kJ/mol
# Density = 1.850636 g / cm^3
# Si number density = 18.548575 Si / 1000 Ang^3
#
#
#
# Elastic Constant Matrix: (Units=GPa)
#
#
# Indices 1 2 3 4 5 6 
#
# 1 15.3322 18.4792 12.6823 0.0000 4.1167 0.0000
# 2 18.4792 74.9920 34.8904 0.0000 3.2544 0.0000
# 3 12.6823 34.8904 119.1072 0.0000 0.8081 0.0000
# 4 0.0000 0.0000 0.0000 29.9692 0.0000 5.3268
# 5 4.1167 3.2544 0.8081 0.0000 15.5142 0.0000
# 6 0.0000 0.0000 0.0000 5.3268 0.0000 24.7091
#
#
#
# Elastic Compliance Matrix: (Units=1/GPa)
#
#
# Indices 1 2 3 4 5 6 
#
# 1 0.101119 -0.022025 -0.004166 0.000000 -0.021995 0.000000
# 2 -0.022025 0.020377 -0.003636 0.000000 0.001759 0.000000
# 3 -0.004166 -0.003636 0.009895 0.000000 0.001353 0.000000
# 4 0.000000 0.000000 0.000000 0.034697 0.000000 -0.007480
# 5 -0.021995 0.001759 0.001353 0.000000 0.069854 0.000000
# 6 0.000000 0.000000 0.000000 -0.007480 0.000000 0.042084
#
#
# Mechanical properties :
#
#
# Convention : Reuss Voigt Hill
#
# Bulk Modulus (GPa) = 13.93953 37.94837 25.94395
# Shear Modulus (GPa) = 13.82773 23.59712 18.71243
#
# Velocity S-wave (km/s) = 2.73332 3.57063 3.17966
# Velocity P-wave (km/s) = 4.18245 6.12393 5.24383
#
# Compressibility (1/GPa) = 0.07173844
#
# Stress axis : x y z
#
# Youngs Moduli (GPa) = 9.88934 49.07421 101.05808
#
# Poissons Ratio (x) = 1.08084 0.42101
# Poissons Ratio (y) = 0.21781 0.36744
# Poissons Ratio (z) = 0.04120 0.17843
#
# Static dielectric constant tensor:
#      x y z
#    x 1.613080 0.000000 -0.006640 
#    y 0.000000 1.617880 0.000000 
#    z -0.006640 0.000000 1.659140 
# 
# From -- ./inp_files/249297.got.cif
#   From: 2010.05.17/outbox.cif.g08.bks.cpg/sg12_125_cif.got.tgz:249297.got - 2010.06.03 13:09:07.
