data_PCOD9207775
_publ_section_title
;
Structure prediction by ZEFSAII (Michael W. Deem and Ramdas Pophale) SiO2 
 PCOD9207775
Probable space group: C 2/M
;
_chemical_formula_sum "Si O2"
_cell_formula_units_Z 48
_cell_length_a 23.856835
_cell_length_b 22.818313
_cell_length_c 10.088233
_cell_angle_alpha 90.000000
_cell_angle_beta 160.206594
_cell_angle_gamma 90.000000
_cell_volume 1859.672318
_symmetry_space_group_name_H-M "C 2/M"
_symmetry_group_IT_number 12
_symmetry_cell_setting 'monoclinic'
loop_
_space_group_symop_operation_xyz
x,y,z
-x,y,-z
-x,-y,-z
x,-y,z
1/2+x,1/2+y,z
1/2-x,1/2+y,-z
1/2-x,1/2-y,-z
1/2+x,1/2-y,z
loop_
_atom_site_type_symbol
_atom_site_label
_atom_site_fract_x
_atom_site_fract_y
_atom_site_fract_z
Si Si1 0.819588 0.934210 0.285673
Si Si2 0.265543 0.295165 0.363303
Si Si3 0.580942 0.826503 0.317625
Si Si4 0.161556 0.187414 0.768426
Si Si5 0.779013 0.063583 0.789474
Si Si6 0.185473 0.084917 0.424928
O O1 0.762891 0.879326 0.069666
O O2 0.752856 0.929596 0.289753
O O3 0.782099 0.000000 0.154675
O O4 0.022302 0.930134 0.746305
O O5 0.309812 0.228463 0.485138
O O6 0.361639 0.307974 0.441254
O O7 0.321576 0.344482 0.590529
O O8 0.068163 0.304995 0.919362
O O9 0.685493 0.877018 0.619118
O O10 0.500000 0.847341 0.000000
O O11 0.000000 0.185614 0.500000
O O12 0.250000 0.250000 0.000000
O O13 0.739448 0.062336 0.543329
O O14 0.729065 0.000000 0.732807
O O15 0.000000 0.062719 0.000000
#
# Coordination Sequence:
#
# PCOD9207775 Si02
#       6
#     8   8   8   8   8   8
#     4   9  20  39  66  96 127 167 213 263 320 386
#     4  11  24  39  60  91 129 164 215 265 324 372
#     4  12  24  37  60  94 130 173 206 255 311 385
#     4  11  25  45  70  95 120 163 217 282 329 373
#     4  10  21  37  59  92 135 175 209 246 307 385
#     4   9  17  33  59  92 128 169 208 252 305 383
#
# _framework density 25.810998999999999
#
# number of rings (size 3 to 8) (size 9 to 14) (size 15 to 20)
#    0.000    1.667    1.667    2.500    9.333    2.667 
#    0.000    0.833    0.000    0.500    0.000    0.000 
#    0.000    0.000    0.000    0.000    0.000    0.000 
#
# Total GULP energy -133952.364543 kJ/mol
# GULP energy per Si atom -5581.348523 kJ/mol
# Density = 2.575225 g / cm^3
# Si number density = 25.810999 Si / 1000 Ang^3
#
#
#
# Elastic Constant Matrix: (Units=GPa)
#
#
# Indices 1 2 3 4 5 6 
#
# 1 122.9063 17.9060 16.7351 0.0000 -15.0516 0.0000
# 2 17.9060 240.4273 35.3358 0.0000 -9.1599 0.0000
# 3 16.7351 35.3358 19.5490 0.0000 4.2593 0.0000
# 4 0.0000 0.0000 0.0000 29.6146 0.0000 3.5910
# 5 -15.0516 -9.1599 4.2593 0.0000 37.8419 0.0000
# 6 0.0000 0.0000 0.0000 3.5910 0.0000 15.1723
#
#
#
# Elastic Compliance Matrix: (Units=1/GPa)
#
#
# Indices 1 2 3 4 5 6 
#
# 1 0.010360 0.001281 -0.012455 0.000000 0.005833 0.000000
# 2 0.001281 0.006081 -0.012834 0.000000 0.003426 0.000000
# 3 -0.012455 -0.012834 0.088952 0.000000 -0.018073 0.000000
# 4 0.000000 0.000000 0.000000 0.034765 0.000000 -0.008228
# 5 0.005833 0.003426 -0.018073 0.000000 0.031609 0.000000
# 6 0.000000 0.000000 0.000000 -0.008228 0.000000 0.067857
#
#
# Mechanical properties :
#
#
# Convention : Reuss Voigt Hill
#
# Bulk Modulus (GPa) = 17.42896 58.09295 37.76095
# Shear Modulus (GPa) = 16.29910 37.38613 26.84261
#
# Velocity S-wave (km/s) = 2.51565 3.80999 3.22835
# Velocity P-wave (km/s) = 3.89938 6.47384 5.34396
#
# Compressibility (1/GPa) = 0.05737578
#
# Stress axis : x y z
#
# Youngs Moduli (GPa) = 96.52657 164.45660 11.24202
#
# Poissons Ratio (x) = -0.21071 0.14002
# Poissons Ratio (y) = -0.12367 0.14428
# Poissons Ratio (z) = 1.20227 2.11068
#
# Static dielectric constant tensor:
#      x y z
#    x 2.109180 0.000000 -0.002150 
#    y 0.000000 2.168320 0.000000 
#    z -0.002150 0.000000 2.068700 
# 
# From -- ./inp_files/184829.got.cif
#   From: 2010.05.17/outbox.cif.g08.bks.cpg/sg12_93_cif.got.tgz:184829.got - 2010.06.03 13:09:07.
