data_PCOD9207577
_publ_section_title
;
Structure prediction by ZEFSAII (Michael W. Deem and Ramdas Pophale) SiO2 
 PCOD9207577
Probable space group: C 2/M
;
_chemical_formula_sum "Si O2"
_cell_formula_units_Z 48
_cell_length_a 20.054566
_cell_length_b 8.840264
_cell_length_c 26.073774
_cell_angle_alpha 90.000000
_cell_angle_beta 149.872174
_cell_angle_gamma 90.000000
_cell_volume 2320.204598
_symmetry_space_group_name_H-M "C 2/M"
_symmetry_group_IT_number 12
_symmetry_cell_setting 'monoclinic'
loop_
_space_group_symop_operation_xyz
x,y,z
-x,y,-z
-x,-y,-z
x,-y,z
1/2+x,1/2+y,z
1/2-x,1/2+y,-z
1/2-x,1/2-y,-z
1/2+x,1/2-y,z
loop_
_atom_site_type_symbol
_atom_site_label
_atom_site_fract_x
_atom_site_fract_y
_atom_site_fract_z
Si Si1 0.437698 0.318365 0.014082
Si Si2 0.800721 0.179731 0.086924
Si Si3 0.197212 0.181500 0.247440
Si Si4 0.958614 0.682241 0.696049
Si Si5 0.194797 0.179847 0.576131
Si Si6 0.454534 0.818495 0.358986
O O1 0.413669 0.500000 0.999848
O O2 0.550150 0.278819 0.130829
O O3 0.500000 0.284488 0.000000
O O4 0.303181 0.233645 0.938702
O O5 0.944272 0.242770 0.198077
O O6 0.804209 0.000000 0.085094
O O7 0.750000 0.250000 0.000000
O O8 0.246890 0.260523 0.331754
O O9 0.304116 0.219234 0.274244
O O10 0.200508 0.000000 0.257019
O O11 0.974108 0.500000 0.709308
O O12 0.806421 0.718227 0.607810
O O13 0.002599 0.734175 0.668873
O O14 0.056023 0.253248 0.468140
O O15 0.179594 0.000000 0.568318
O O16 0.465817 0.000000 0.367041
#
# Coordination Sequence:
#
# PCOD9207577 Si02
#       6
#     8   8   8   8   8   8
#     4  10  21  40  65  90 119 156 198 244 296 354
#     4  12  25  40  61  89 121 157 199 246 296 351
#     4  10  21  37  59  85 113 152 196 234 280 344
#     4  10  22  41  62  85 115 152 195 241 292 349
#     4  11  23  37  57  86 118 151 189 239 293 343
#     4  10  21  39  62  85 113 151 194 237 283 344
#
# _framework density 20.687830000000002
#
# number of rings (size 3 to 8) (size 9 to 14) (size 15 to 20)
#    0.000    1.500    0.000    5.000    0.000   11.000 
#    0.000    1.667    0.000    0.000    0.000    0.000 
#    0.000    0.000    0.000    0.000    0.000    0.000 
#
# Total GULP energy -134272.622666 kJ/mol
# GULP energy per Si atom -5594.692611 kJ/mol
# Density = 2.064074 g / cm^3
# Si number density = 20.687830 Si / 1000 Ang^3
#
#
#
# Elastic Constant Matrix: (Units=GPa)
#
#
# Indices 1 2 3 4 5 6 
#
# 1 51.1680 9.0479 -20.5565 0.0000 -0.7139 0.0000
# 2 9.0479 12.8947 6.3427 0.0000 9.1415 -0.0002
# 3 -20.5565 6.3427 61.3526 0.0000 4.3837 0.0000
# 4 0.0000 0.0000 0.0000 25.3047 0.0000 1.7626
# 5 -0.7139 9.1415 4.3837 0.0000 39.1997 0.0000
# 6 0.0000 -0.0002 0.0000 1.7626 0.0000 27.1402
#
#
#
# Elastic Compliance Matrix: (Units=1/GPa)
#
#
# Indices 1 2 3 4 5 6 
#
# 1 0.030763 -0.032874 0.013224 0.000000 0.006748 0.000000
# 2 -0.032874 0.132239 -0.022620 0.000000 -0.028908 0.000001
# 3 0.013224 -0.022620 0.022857 0.000000 0.002960 0.000000
# 4 0.000000 0.000000 0.000000 0.039698 0.000000 -0.002578
# 5 0.006748 -0.028908 0.002960 0.000000 0.032044 0.000000
# 6 0.000000 0.000001 0.000000 -0.002578 0.000000 0.037013
#
#
# Mechanical properties :
#
#
# Convention : Reuss Voigt Hill
#
# Bulk Modulus (GPa) = 9.86993 12.78705 11.32849
# Shear Modulus (GPa) = 12.10863 27.03432 19.57147
#
# Velocity S-wave (km/s) = 2.42193 3.61885 3.07911
# Velocity P-wave (km/s) = 3.54996 4.86373 4.25782
#
# Compressibility (1/GPa) = 0.10131780
#
# Stress axis : x y z
#
# Youngs Moduli (GPa) = 32.50625 7.56206 43.75022
#
# Poissons Ratio (x) = 0.24860 -0.57855
# Poissons Ratio (y) = 1.06862 0.98965
# Poissons Ratio (z) = -0.42986 0.17106
#
# Static dielectric constant tensor:
#      x y z
#    x 1.764410 0.000000 -0.001350 
#    y 0.000000 1.688890 0.000000 
#    z -0.001350 0.000000 1.688980 
# 
# From -- ./inp_files/365564.got.cif
#   From: 2010.05.17/outbox.cif.g08.bks.cpg/sg12_183_cif.got.tgz:365564.got - 2010.06.03 13:09:07.
