data_PCOD9207332
_publ_section_title
;
Structure prediction by ZEFSAII (Michael W. Deem and Ramdas Pophale) SiO2 
 PCOD9207332
Probable space group: C 2/M
;
_chemical_formula_sum "Si O2"
_cell_formula_units_Z 56
_cell_length_a 14.952299
_cell_length_b 8.453945
_cell_length_c 26.944407
_cell_angle_alpha 90.000000
_cell_angle_beta 65.028044
_cell_angle_gamma 90.000000
_cell_volume 3087.527199
_symmetry_space_group_name_H-M "C 2/M"
_symmetry_group_IT_number 12
_symmetry_cell_setting 'monoclinic'
loop_
_space_group_symop_operation_xyz
x,y,z
-x,y,-z
-x,-y,-z
x,-y,z
1/2+x,1/2+y,z
1/2-x,1/2+y,-z
1/2-x,1/2-y,-z
1/2+x,1/2-y,z
loop_
_atom_site_type_symbol
_atom_site_label
_atom_site_fract_x
_atom_site_fract_y
_atom_site_fract_z
Si Si1 0.296670 0.690430 0.438348
Si Si2 0.010859 0.810019 0.351544
Si Si3 0.574131 0.190425 0.731214
Si Si4 0.714733 0.190021 0.351526
Si Si5 0.773947 0.189486 0.939211
Si Si6 0.928318 0.692596 0.061168
Si Si7 0.983697 0.309378 0.856576
O O1 0.296611 0.500000 0.438690
O O2 0.250000 0.750000 0.500000
O O3 0.410908 0.741284 0.404142
O O4 0.233866 0.740712 0.404437
O O5 0.989808 0.752060 0.300406
O O6 0.112356 0.749277 0.351924
O O7 0.013643 0.000000 0.350755
O O8 0.686762 0.249346 0.699248
O O9 0.527521 0.245940 0.794114
O O10 0.574336 0.000000 0.729716
O O11 0.714668 0.000000 0.350152
O O12 0.681753 0.235765 0.927048
O O13 0.872278 0.260030 0.893226
O O14 0.781182 0.000000 0.939371
O O15 0.750000 0.250000 0.000000
O O16 0.935063 0.500000 0.059858
O O17 0.958393 0.749176 0.108330
O O18 0.000000 0.747467 0.000000
O O19 0.989393 0.500000 0.854681
#
# Coordination Sequence:
#
# PCOD9207332 Si02
#       7
#     8   8   8   8   8   8   8
#     4   9  20  36  55  83 118 154 191 236 281 332
#     4  10  21  38  59  83 114 153 195 236 283 338
#     4  10  21  37  58  83 112 147 187 237 291 341
#     4  10  21  38  59  84 115 151 193 238 285 335
#     4  11  21  34  55  79 105 140 178 219 270 326
#     4   9  17  33  55  74 101 140 172 206 262 327
#     4  10  21  38  57  80 108 139 180 225 274 336
#
# _framework density 18.137492000000002
#
# number of rings (size 3 to 8) (size 9 to 14) (size 15 to 20)
#    0.000    2.143    1.429    2.571    0.000    6.286 
#    0.000    6.429    0.000    0.000    0.000    0.000 
#    0.000    0.000    0.000    0.000    0.000    0.000 
#
# Total GULP energy -156223.304844 kJ/mol
# GULP energy per Si atom -5579.403744 kJ/mol
# Density = 1.809621 g / cm^3
# Si number density = 18.137492 Si / 1000 Ang^3
#
#
#
# Elastic Constant Matrix: (Units=GPa)
#
#
# Indices 1 2 3 4 5 6 
#
# 1 191.8910 27.9507 110.7128 0.0000 2.4901 0.0000
# 2 27.9507 28.4826 27.5058 0.0000 2.1329 0.0000
# 3 110.7128 27.5058 199.7925 0.0000 5.5667 0.0000
# 4 0.0000 0.0000 0.0000 25.6643 0.0000 -5.6910
# 5 2.4901 2.1329 5.5667 0.0000 13.6334 0.0000
# 6 0.0000 0.0000 0.0000 -5.6910 0.0000 28.5637
#
#
#
# Elastic Compliance Matrix: (Units=1/GPa)
#
#
# Indices 1 2 3 4 5 6 
#
# 1 0.008073 -0.004198 -0.003917 0.000000 0.000782 0.000000
# 2 -0.004198 0.042904 -0.003454 0.000000 -0.004535 0.000000
# 3 -0.003917 -0.003454 0.007704 0.000000 -0.001890 0.000000
# 4 0.000000 0.000000 0.000000 0.040766 0.000000 0.008122
# 5 0.000782 -0.004535 -0.001890 0.000000 0.074688 0.000000
# 6 0.000000 0.000000 0.000000 0.008122 0.000000 0.036628
#
#
# Mechanical properties :
#
#
# Convention : Reuss Voigt Hill
#
# Bulk Modulus (GPa) = 28.13541 83.61163 55.87352
# Shear Modulus (GPa) = 20.34610 30.50539 25.42575
#
# Velocity S-wave (km/s) = 3.35292 4.10554 3.74817
# Velocity P-wave (km/s) = 5.52588 8.28691 7.04302
#
# Compressibility (1/GPa) = 0.03554240
#
# Stress axis : x y z
#
# Youngs Moduli (GPa) = 123.87510 23.30800 129.80079
#
# Poissons Ratio (x) = 0.09784 0.50846
# Poissons Ratio (y) = 0.51997 0.44837
# Poissons Ratio (z) = 0.48525 0.08051
#
# Static dielectric constant tensor:
#      x y z
#    x 1.604240 0.000000 0.011770 
#    y 0.000000 1.626500 0.000000 
#    z 0.011770 0.000000 1.613210 
# 
# From -- ./inp_files/359665.got.cif
#   From: 2010.05.17/outbox.cif.g08.bks.cpg/sg12_180_cif.got.tgz:359665.got - 2010.06.03 13:09:07.
