data_PCOD9207812
_publ_section_title
;
Structure prediction by ZEFSAII (Michael W. Deem and Ramdas Pophale) SiO2 
 PCOD9207812
Probable space group: C 2/M
;
_chemical_formula_sum "Si O2"
_cell_formula_units_Z 32
_cell_length_a 12.456970
_cell_length_b 27.549746
_cell_length_c 8.341045
_cell_angle_alpha 90.000000
_cell_angle_beta 31.352739
_cell_angle_gamma 90.000000
_cell_volume 1489.391293
_symmetry_space_group_name_H-M "C 2/M"
_symmetry_group_IT_number 12
_symmetry_cell_setting 'monoclinic'
loop_
_space_group_symop_operation_xyz
x,y,z
-x,y,-z
-x,-y,-z
x,-y,z
1/2+x,1/2+y,z
1/2-x,1/2+y,-z
1/2-x,1/2-y,-z
1/2+x,1/2-y,z
loop_
_atom_site_type_symbol
_atom_site_label
_atom_site_fract_x
_atom_site_fract_y
_atom_site_fract_z
Si Si1 0.727462 0.180106 0.436636
Si Si2 0.000000 0.096899 0.000000
Si Si3 0.000000 0.630650 0.000000
Si Si4 0.132903 0.945152 0.493070
Si Si5 0.477337 0.728478 0.691972
O O1 0.636191 0.226641 0.466426
O O2 0.926666 0.198481 0.283857
O O3 0.546741 0.164622 0.789396
O O4 0.800933 0.132678 0.248918
O O5 0.020817 0.068010 0.805606
O O6 0.805168 0.595295 0.244282
O O7 0.000000 0.944918 0.500000
O O8 0.216604 0.000000 0.404854
O O9 0.500000 0.697872 0.500000
O O10 0.250000 0.750000 0.000000
#
# Coordination Sequence:
#
# PCOD9207812 Si02
#       5
#     8   4   4   8   8
#     4  10  22  37  54  86 117 152 202 239 282 346
#     4  10  21  39  62  86 120 152 190 247 291 342
#     4  10  21  37  60  86 120 154 194 247 291 346
#     4  10  22  41  64  89 117 152 192 239 301 361
#     4  11  22  36  56  79 117 161 195 239 288 333
#
# _framework density 21.485288000000001
#
# number of rings (size 3 to 8) (size 9 to 14) (size 15 to 20)
#    0.000    1.750    0.000    3.750    0.000   14.000 
#    0.000    3.750    0.000   13.500    0.000    0.000 
#    0.000    0.000    0.000    0.000    0.000    0.000 
#
# Total GULP energy -89310.592418 kJ/mol
# GULP energy per Si atom -5581.912026 kJ/mol
# Density = 2.143639 g / cm^3
# Si number density = 21.485288 Si / 1000 Ang^3
#
#
#
# Elastic Constant Matrix: (Units=GPa)
#
#
# Indices 1 2 3 4 5 6 
#
# 1 107.4482 26.0342 41.4853 0.0000 10.8033 0.0000
# 2 26.0342 80.9298 15.1834 0.0000 8.6781 0.0000
# 3 41.4853 15.1834 101.3887 0.0000 19.7776 0.0000
# 4 0.0000 0.0000 0.0000 -2.4196 0.0000 4.6628
# 5 10.8033 8.6781 19.7776 0.0000 33.1122 0.0000
# 6 0.0000 0.0000 0.0000 4.6628 0.0000 -11.5631
#
#
#
# Elastic Compliance Matrix: (Units=1/GPa)
#
#
# Indices 1 2 3 4 5 6 
#
# 1 0.011707 -0.002913 -0.004253 0.000000 -0.000516 0.000000
# 2 -0.002913 0.013621 -0.000382 0.000000 -0.002392 0.000000
# 3 -0.004253 -0.000382 0.012870 0.000000 -0.006199 0.000000
# 4 0.000000 0.000000 0.000000 -1.854214 0.000000 -0.747703
# 5 -0.000516 -0.002392 -0.006199 0.000000 0.034698 0.000000
# 6 0.000000 0.000000 0.000000 -0.747703 0.000000 -0.387989
#
#
# Mechanical properties :
#
#
# Convention : Reuss Voigt Hill
#
# Bulk Modulus (GPa) = 43.28458 50.57472 46.92965
# Shear Modulus (GPa) = -2.32936 17.63016 7.65040
#
# Velocity S-wave (km/s) = -1.04236 2.86766 1.88905
# Velocity P-wave (km/s) = 4.32911 5.87835 5.16218
#
# Compressibility (1/GPa) = 0.02310292
#
# Stress axis : x y z
#
# Youngs Moduli (GPa) = 85.42250 73.41390 77.70169
#
# Poissons Ratio (x) = 0.21383 0.33048
# Poissons Ratio (y) = 0.24880 0.02965
# Poissons Ratio (z) = 0.36332 0.02801
#
# Static dielectric constant tensor:
#      x y z
#    x 1.810230 0.000000 0.038050 
#    y 0.000000 1.743170 0.000000 
#    z 0.038050 0.000000 1.797320 
# 
# From -- ./inp_files/54548.got.cif
#   From: 2010.05.17/outbox.cif.g08.bks.cpg/sg12_28_cif.got.tgz:54548.got - 2010.06.03 13:09:07.
