data_PCOD9207205
_publ_section_title
;
Structure prediction by ZEFSAII (Michael W. Deem and Ramdas Pophale) SiO2 
 PCOD9207205
Probable space group: C 2/M
;
_chemical_formula_sum "Si O2"
_cell_formula_units_Z 64
_cell_length_a 30.326288
_cell_length_b 8.758783
_cell_length_c 24.448850
_cell_angle_alpha 90.000000
_cell_angle_beta 149.998254
_cell_angle_gamma 90.000000
_cell_volume 3247.239971
_symmetry_space_group_name_H-M "C 2/M"
_symmetry_group_IT_number 12
_symmetry_cell_setting 'monoclinic'
loop_
_space_group_symop_operation_xyz
x,y,z
-x,y,-z
-x,-y,-z
x,-y,z
1/2+x,1/2+y,z
1/2-x,1/2+y,-z
1/2-x,1/2-y,-z
1/2+x,1/2-y,z
loop_
_atom_site_type_symbol
_atom_site_label
_atom_site_fract_x
_atom_site_fract_y
_atom_site_fract_z
Si Si1 0.378767 0.182505 0.515835
Si Si2 0.873007 0.679859 0.916180
Si Si3 0.524095 0.182721 0.161351
Si Si4 0.195827 0.317406 0.275254
Si Si5 0.514089 0.318021 0.272378
Si Si6 0.034803 0.325830 0.598314
Si Si7 0.831909 0.323243 0.118380
Si Si8 0.702418 0.672052 0.808643
O O1 0.287343 0.243192 0.392519
O O2 0.407632 0.253428 0.605033
O O3 0.458248 0.216965 0.558743
O O4 0.373795 0.000000 0.516095
O O5 0.894218 0.500000 0.929663
O O6 0.845447 0.740968 0.826844
O O7 0.786656 0.691154 0.861124
O O8 0.953899 0.739899 0.039996
O O9 0.621001 0.205433 0.240575
O O10 0.515796 0.258327 0.211821
O O11 0.508730 0.000000 0.151460
O O12 0.210611 0.500000 0.284824
O O13 0.517109 0.500000 0.276053
O O14 0.422649 0.260414 0.201000
O O15 0.063729 0.500000 0.644095
O O16 0.112377 0.203028 0.680384
O O17 0.000000 0.334233 0.500000
O O18 0.842355 0.500000 0.116191
O O19 0.805630 0.294834 0.152509
O O20 0.750000 0.250000 0.000000
O O21 0.704941 0.500000 0.834327
#
# Coordination Sequence:
#
# PCOD9207205 Si02
#       8
#     8   8   8   8   8   8   8   8
#     4  11  23  40  62  88 125 169 208 259 318 376
#     4   9  19  37  62  94 128 161 205 257 312 376
#     4  10  21  40  66  92 123 165 210 261 320 379
#     4  10  21  39  65  94 123 162 211 263 316 374
#     4  12  25  42  64  91 125 165 212 265 315 373
#     4  10  21  37  57  83 118 161 205 251 306 366
#     4  12  24  40  61  88 124 163 205 251 302 366
#     4  11  21  34  57  89 122 160 201 246 302 362
#
# _framework density 19.709045
#
# number of rings (size 3 to 8) (size 9 to 14) (size 15 to 20)
#    0.000    1.375    1.250    4.875    0.000    4.250 
#    0.000    1.875    0.000    1.500    0.000    0.000 
#    0.000    0.000    0.000    0.000    0.000    0.000 
#
# Total GULP energy -178675.662458 kJ/mol
# GULP energy per Si atom -5583.614452 kJ/mol
# Density = 1.966419 g / cm^3
# Si number density = 19.709045 Si / 1000 Ang^3
#
#
#
# Elastic Constant Matrix: (Units=GPa)
#
#
# Indices 1 2 3 4 5 6 
#
# 1 57.2657 30.1663 36.7154 0.0000 -13.8313 0.0000
# 2 30.1663 64.9816 38.7218 0.0000 5.0477 0.0000
# 3 36.7154 38.7218 127.6559 0.0000 -11.8373 0.0000
# 4 0.0000 0.0000 0.0000 29.1956 0.0000 -0.2314
# 5 -13.8313 5.0477 -11.8373 0.0000 34.0338 0.0000
# 6 0.0000 0.0000 0.0000 -0.2314 0.0000 37.5548
#
#
#
# Elastic Compliance Matrix: (Units=1/GPa)
#
#
# Indices 1 2 3 4 5 6 
#
# 1 0.029315 -0.012517 -0.003470 0.000000 0.012564 0.000000
# 2 -0.012517 0.024964 -0.004947 0.000000 -0.010510 0.000000
# 3 -0.003470 -0.004947 0.010611 0.000000 0.003014 0.000000
# 4 0.000000 0.000000 0.000000 0.034253 0.000000 0.000211
# 5 0.012564 -0.010510 0.003014 0.000000 0.037096 0.000000
# 6 0.000000 0.000000 0.000000 0.000211 0.000000 0.026629
#
#
# Mechanical properties :
#
#
# Convention : Reuss Voigt Hill
#
# Bulk Modulus (GPa) = 43.43420 51.23445 47.33432
# Shear Modulus (GPa) = 23.53928 29.77681 26.65805
#
# Velocity S-wave (km/s) = 3.45967 3.89114 3.68173
# Velocity P-wave (km/s) = 6.16803 6.79999 6.49170
#
# Compressibility (1/GPa) = 0.02302333
#
# Stress axis : x y z
#
# Youngs Moduli (GPa) = 34.11188 40.05757 94.23780
#
# Poissons Ratio (x) = 0.50142 0.32696
# Poissons Ratio (y) = 0.42699 0.46617
# Poissons Ratio (z) = 0.11835 0.19815
#
# Static dielectric constant tensor:
#      x y z
#    x 1.646040 0.000000 0.000790 
#    y 0.000000 7.907240 0.000000 
#    z 0.000790 0.000000 1.664630 
# 
# From -- ./inp_files/353519.got.cif
#   From: 2010.05.17/outbox.cif.g08.bks.cpg/sg12_177_cif.got.tgz:353519.got - 2010.06.03 13:09:07.
