data_PCOD9207341
_publ_section_title
;
Structure prediction by ZEFSAII (Michael W. Deem and Ramdas Pophale) SiO2 
 PCOD9207341
Probable space group: C 2/M
;
_chemical_formula_sum "Si O2"
_cell_formula_units_Z 56
_cell_length_a 7.968017
_cell_length_b 18.668545
_cell_length_c 24.100448
_cell_angle_alpha 90.000000
_cell_angle_beta 50.816192
_cell_angle_gamma 90.000000
_cell_volume 2778.794960
_symmetry_space_group_name_H-M "C 2/M"
_symmetry_group_IT_number 12
_symmetry_cell_setting 'monoclinic'
loop_
_space_group_symop_operation_xyz
x,y,z
-x,y,-z
-x,-y,-z
x,-y,z
1/2+x,1/2+y,z
1/2-x,1/2+y,-z
1/2-x,1/2-y,-z
1/2+x,1/2-y,z
loop_
_atom_site_type_symbol
_atom_site_label
_atom_site_fract_x
_atom_site_fract_y
_atom_site_fract_z
Si Si1 0.864707 0.080723 0.895754
Si Si2 0.273977 0.075938 0.888276
Si Si3 0.208716 0.913023 0.390153
Si Si4 0.336441 0.305268 0.813690
Si Si5 0.306453 0.913843 0.497066
Si Si6 0.358798 0.175761 0.965901
Si Si7 0.386947 0.159521 0.245430
O O1 0.931323 0.128538 0.828887
O O2 0.077619 0.074261 0.887798
O O3 0.786361 0.000000 0.898018
O O4 0.701450 0.124526 0.969608
O O5 0.247382 0.137039 0.938018
O O6 0.486977 0.093940 0.809466
O O7 0.292610 0.000000 0.914427
O O8 0.308328 0.894697 0.430453
O O9 0.325184 0.865841 0.319176
O O10 0.949033 0.897859 0.437104
O O11 0.233452 0.000000 0.378034
O O12 0.461285 0.230259 0.790947
O O13 0.310754 0.324026 0.754558
O O14 0.097672 0.304588 0.892319
O O15 0.500000 0.888164 0.500000
O O16 0.323493 0.000000 0.495071
O O17 0.250000 0.250000 0.000000
#
# Coordination Sequence:
#
# PCOD9207341 Si02
#       7
#     8   8   8   8   8   8   8
#     4  11  23  39  59  86 113 145 201 266 320 371
#     4  10  21  37  58  83 115 149 191 251 307 367
#     4   9  18  34  63  97 130 168 204 250 305 358
#     4  11  25  39  57  79 112 157 199 252 303 365
#     4   8  15  33  61  99 136 162 203 253 298 354
#     4  11  22  37  59  82 108 150 200 249 313 373
#     4  11  22  41  59  81 119 164 205 237 302 370
#
# _framework density 20.152619999999999
#
# number of rings (size 3 to 8) (size 9 to 14) (size 15 to 20)
#    0.000    1.857    0.000    6.000    0.000    7.429 
#    5.143    0.000    0.000    3.429    0.000    0.000 
#    0.000    0.000    0.000    0.286    0.000    0.143 
#
# Total GULP energy -155951.858873 kJ/mol
# GULP energy per Si atom -5569.709245 kJ/mol
# Density = 2.010675 g / cm^3
# Si number density = 20.152620 Si / 1000 Ang^3
#
#
#
# Elastic Constant Matrix: (Units=GPa)
#
#
# Indices 1 2 3 4 5 6 
#
# 1 117.3816 41.3232 31.9426 0.0000 22.9075 -0.0003
# 2 41.3232 125.9118 44.1494 0.0000 11.2815 -0.0002
# 3 31.9426 44.1494 82.6425 0.0000 27.4517 -0.0010
# 4 0.0000 0.0000 0.0000 31.4315 -0.0001 9.8209
# 5 22.9075 11.2815 27.4517 -0.0001 24.8538 0.0005
# 6 -0.0003 -0.0002 -0.0010 9.8209 0.0005 23.9240
#
#
#
# Elastic Compliance Matrix: (Units=1/GPa)
#
#
# Indices 1 2 3 4 5 6 
#
# 1 0.011325 -0.002999 0.000379 0.000000 -0.009495 0.000000
# 2 -0.002999 0.010637 -0.006062 0.000000 0.004631 0.000000
# 3 0.000379 -0.006062 0.022736 -0.000001 -0.022710 0.000002
# 4 0.000000 0.000000 -0.000001 0.036496 0.000001 -0.014982
# 5 -0.009495 0.004631 -0.022710 0.000001 0.071969 -0.000003
# 6 0.000000 0.000000 0.000002 -0.014982 -0.000003 0.047949
#
#
# Mechanical properties :
#
#
# Convention : Reuss Voigt Hill
#
# Bulk Modulus (GPa) = 36.58386 62.30737 49.44561
# Shear Modulus (GPa) = 21.96965 29.94323 25.95644
#
# Velocity S-wave (km/s) = 3.30534 3.85882 3.59276
# Velocity P-wave (km/s) = 5.72362 7.13014 6.46524
#
# Compressibility (1/GPa) = 0.02733446
#
# Stress axis : x y z
#
# Youngs Moduli (GPa) = 88.30111 94.01374 43.98346
#
# Poissons Ratio (x) = 0.28193 -0.01667
# Poissons Ratio (y) = 0.26480 0.26661
# Poissons Ratio (z) = -0.03346 0.56987
#
# Static dielectric constant tensor:
#      x y z
#    x 1.866330 0.000000 0.025320 
#    y 0.000000 1.783110 0.000000 
#    z 0.025320 0.000000 1.719250 
# 
# From -- ./inp_files/333301.got.cif
#   From: 2010.05.17/outbox.cif.g08.bks.cpg/sg12_167_cif.got.tgz:333301.got - 2010.06.03 13:09:07.
