data_PCOD9207329
_publ_section_title
;
Structure prediction by ZEFSAII (Michael W. Deem and Ramdas Pophale) SiO2 
 PCOD9207329
Probable space group: C 2/M
;
_chemical_formula_sum "Si O2"
_cell_formula_units_Z 56
_cell_length_a 18.766038
_cell_length_b 8.785491
_cell_length_c 29.941751
_cell_angle_alpha 90.000000
_cell_angle_beta 38.319794
_cell_angle_gamma 90.000000
_cell_volume 3060.853997
_symmetry_space_group_name_H-M "C 2/M"
_symmetry_group_IT_number 12
_symmetry_cell_setting 'monoclinic'
loop_
_space_group_symop_operation_xyz
x,y,z
-x,y,-z
-x,-y,-z
x,-y,z
1/2+x,1/2+y,z
1/2-x,1/2+y,-z
1/2-x,1/2-y,-z
1/2+x,1/2-y,z
loop_
_atom_site_type_symbol
_atom_site_label
_atom_site_fract_x
_atom_site_fract_y
_atom_site_fract_z
Si Si1 0.868733 0.817386 0.571903
Si Si2 0.831015 0.683678 0.998560
Si Si3 0.240820 0.816209 0.140742
Si Si4 0.402965 0.183897 0.144033
Si Si5 0.325336 0.318707 0.275691
Si Si6 0.987909 0.683347 0.272714
Si Si7 0.707570 0.181185 0.566826
O O1 0.798924 0.735908 0.645491
O O2 0.798735 0.785172 0.561075
O O3 0.000000 0.771269 0.500000
O O4 0.865081 0.000000 0.581453
O O5 0.826219 0.500000 0.998801
O O6 0.787381 0.729838 0.069122
O O7 0.750000 0.750000 0.000000
O O8 0.963664 0.728869 0.926589
O O9 0.330066 0.774945 0.135935
O O10 0.116607 0.744078 0.210008
O O11 0.230010 0.000000 0.146131
O O12 0.350657 0.258157 0.213919
O O13 0.398994 0.000000 0.150440
O O14 0.333461 0.500000 0.273356
O O15 0.418729 0.247356 0.263976
O O16 0.986075 0.500000 0.271134
O O17 0.914888 0.731520 0.352473
O O18 0.750000 0.250000 0.500000
O O19 0.702264 0.000000 0.564081
#
# Coordination Sequence:
#
# PCOD9207329 Si02
#       7
#     8   8   8   8   8   8   8
#     4   9  19  37  58  79 106 143 185 226 273 329
#     4  10  21  37  58  83 110 144 185 226 270 324
#     4  10  21  37  58  84 111 142 184 229 272 324
#     4  10  21  38  58  80 112 150 182 222 278 330
#     4  11  22  36  56  82 111 144 187 233 272 322
#     4  10  21  38  57  79 110 147 185 225 275 332
#     4   9  19  34  53  77 105 138 176 219 266 320
#
# _framework density 18.295549000000001
#
# number of rings (size 3 to 8) (size 9 to 14) (size 15 to 20)
#    0.000    2.143    0.000    3.857    0.000   10.000 
#    0.000    4.286    0.000    2.571    0.000    0.000 
#    0.000    0.000    0.000    0.000    0.000    0.000 
#
# Total GULP energy -156346.934794 kJ/mol
# GULP energy per Si atom -5583.819100 kJ/mol
# Density = 1.825391 g / cm^3
# Si number density = 18.295549 Si / 1000 Ang^3
#
#
#
# Elastic Constant Matrix: (Units=GPa)
#
#
# Indices 1 2 3 4 5 6 
#
# 1 129.8244 48.6521 118.9347 0.0000 -1.0175 0.0002
# 2 48.6521 33.8804 62.2801 -0.0001 0.7132 0.0002
# 3 118.9347 62.2801 216.3643 0.0000 3.1046 -0.0001
# 4 0.0000 -0.0001 0.0000 29.0534 0.0000 -1.1356
# 5 -1.0175 0.7132 3.1046 0.0000 40.8489 0.0000
# 6 0.0002 0.0002 -0.0001 -1.1356 0.0000 29.6968
#
#
#
# Elastic Compliance Matrix: (Units=1/GPa)
#
#
# Indices 1 2 3 4 5 6 
#
# 1 0.019510 -0.017617 -0.005671 0.000000 0.001225 0.000000
# 2 -0.017617 0.078595 -0.012927 0.000000 -0.000828 0.000000
# 3 -0.005671 -0.012927 0.011472 0.000000 -0.000787 0.000000
# 4 0.000000 0.000000 0.000000 0.034471 0.000000 0.001318
# 5 0.001225 -0.000828 -0.000787 0.000000 0.024585 0.000000
# 6 0.000000 0.000000 0.000000 0.001318 0.000000 0.033724
#
#
# Mechanical properties :
#
#
# Convention : Reuss Voigt Hill
#
# Bulk Modulus (GPa) = 26.92141 93.31143 60.11642
# Shear Modulus (GPa) = 17.41136 29.93329 23.67233
#
# Velocity S-wave (km/s) = 3.08827 4.04926 3.60096
# Velocity P-wave (km/s) = 5.24053 8.54254 7.08654
#
# Compressibility (1/GPa) = 0.03714516
#
# Stress axis : x y z
#
# Youngs Moduli (GPa) = 51.25695 12.72348 87.17224
#
# Poissons Ratio (x) = 0.22415 0.49434
# Poissons Ratio (y) = 0.90300 1.12692
# Poissons Ratio (z) = 0.29067 0.16448
#
# Static dielectric constant tensor:
#      x y z
#    x 1.602580 0.000000 -0.002810 
#    y 0.000000 1.618240 0.000000 
#    z -0.002810 0.000000 1.622010 
# 
# From -- ./inp_files/342325.got.cif
#   From: 2010.05.17/outbox.cif.g08.bks.cpg/sg12_172_cif.got.tgz:342325.got - 2010.06.03 13:09:07.
