data_PCOD9207897
_publ_section_title
;
Structure prediction by ZEFSAII (Michael W. Deem and Ramdas Pophale) SiO2 
 PCOD9207897
Probable space group: C 2/M
;
_chemical_formula_sum "Si O2"
_cell_formula_units_Z 48
_cell_length_a 16.775972
_cell_length_b 14.203516
_cell_length_c 11.358519
_cell_angle_alpha 90.000000
_cell_angle_beta 111.444989
_cell_angle_gamma 90.000000
_cell_volume 2519.110328
_symmetry_space_group_name_H-M "C 2/M"
_symmetry_group_IT_number 12
_symmetry_cell_setting 'monoclinic'
loop_
_space_group_symop_operation_xyz
x,y,z
-x,y,-z
-x,-y,-z
x,-y,z
1/2+x,1/2+y,z
1/2-x,1/2+y,-z
1/2-x,1/2-y,-z
1/2+x,1/2-y,z
loop_
_atom_site_type_symbol
_atom_site_label
_atom_site_fract_x
_atom_site_fract_y
_atom_site_fract_z
Si Si1 0.733965 0.109675 0.206324
Si Si2 0.404331 0.249749 0.948243
Si Si3 0.410968 0.608795 0.170678
Si Si4 0.755544 0.110113 0.491074
Si Si5 0.081116 0.797583 0.306842
Si Si6 0.066337 0.391820 0.428458
O O1 0.669612 0.172747 0.096338
O O2 0.830201 0.121096 0.212192
O O3 0.731642 0.134624 0.343341
O O4 0.710376 0.000000 0.183540
O O5 0.398107 0.303064 0.820169
O O6 0.500000 0.206724 0.000000
O O7 0.399655 0.321488 0.053984
O O8 0.413966 0.500000 0.133869
O O9 0.499236 0.636148 0.282342
O O10 0.834968 0.170559 0.577842
O O11 0.667066 0.118571 0.516566
O O12 0.780543 0.000000 0.506090
O O13 0.052731 0.692063 0.328388
O O14 0.057642 0.500000 0.378657
O O15 0.000000 0.380926 0.500000
#
# Coordination Sequence:
#
# PCOD9207897 Si02
#       6
#     8   8   8   8   8   8
#     4  10  21  39  61  85 119 152 191 248 294 346
#     4  10  22  38  59  85 113 158 203 241 290 342
#     4  10  23  40  59  88 120 155 198 244 292 343
#     4  10  21  37  60  90 119 152 193 241 299 353
#     4  11  22  36  63  88 118 158 193 240 295 353
#     4  10  22  38  56  84 122 157 192 236 286 346
#
# _framework density 19.054345999999999
#
# number of rings (size 3 to 8) (size 9 to 14) (size 15 to 20)
#    0.000    1.833    1.667    1.500    2.333    4.000 
#    0.000    5.000    0.000    9.000    0.000    0.000 
#    0.000    0.000    0.000    0.000    0.000    0.000 
#
# Total GULP energy -133918.273107 kJ/mol
# GULP energy per Si atom -5579.928046 kJ/mol
# Density = 1.901098 g / cm^3
# Si number density = 19.054346 Si / 1000 Ang^3
#
#
#
# Elastic Constant Matrix: (Units=GPa)
#
#
# Indices 1 2 3 4 5 6 
#
# 1 124.9861 64.5706 45.6613 0.0000 12.4542 0.0000
# 2 64.5706 86.4011 40.2945 0.0000 10.1991 0.0000
# 3 45.6613 40.2945 61.1402 0.0000 11.1727 0.0000
# 4 0.0000 0.0000 0.0000 31.1690 0.0000 5.7475
# 5 12.4542 10.1991 11.1727 0.0000 27.4446 0.0000
# 6 0.0000 0.0000 0.0000 5.7475 0.0000 27.8374
#
#
#
# Elastic Compliance Matrix: (Units=1/GPa)
#
#
# Indices 1 2 3 4 5 6 
#
# 1 0.014128 -0.008074 -0.004977 0.000000 -0.001385 0.000000
# 2 -0.008074 0.021413 -0.007884 0.000000 -0.001084 0.000000
# 3 -0.004977 -0.007884 0.026276 0.000000 -0.005508 0.000000
# 4 0.000000 0.000000 0.000000 0.033353 0.000000 -0.006886
# 5 -0.001385 -0.001084 -0.005508 0.000000 0.039711 0.000000
# 6 0.000000 0.000000 0.000000 -0.006886 0.000000 0.037345
#
#
# Mechanical properties :
#
#
# Convention : Reuss Voigt Hill
#
# Bulk Modulus (GPa) = 50.13540 63.73114 56.93327
# Shear Modulus (GPa) = 22.65058 25.42357 24.03708
#
# Velocity S-wave (km/s) = 3.45154 3.65672 3.55561
# Velocity P-wave (km/s) = 6.50024 7.16579 6.84111
#
# Compressibility (1/GPa) = 0.01994599
#
# Stress axis : x y z
#
# Youngs Moduli (GPa) = 70.77924 46.70113 38.05793
#
# Poissons Ratio (x) = 0.37706 0.18943
# Poissons Ratio (y) = 0.57147 0.30005
# Poissons Ratio (z) = 0.35229 0.36820
#
# Static dielectric constant tensor:
#      x y z
#    x 1.676290 0.000000 0.007740 
#    y 0.000000 1.684130 0.000000 
#    z 0.007740 0.000000 1.637720 
# 
# From -- ./inp_files/143550.got.cif
#   From: 2010.05.17/outbox.cif.g08.bks.cpg/sg12_72_cif.got.tgz:143550.got - 2010.06.03 13:09:07.
