data_PCOD9207264
_publ_section_title
;
Structure prediction by ZEFSAII (Michael W. Deem and Ramdas Pophale) SiO2 
 PCOD9207264
Probable space group: C 2/M
;
_chemical_formula_sum "Si O2"
_cell_formula_units_Z 64
_cell_length_a 13.654580
_cell_length_b 14.012160
_cell_length_c 16.189795
_cell_angle_alpha 90.000000
_cell_angle_beta 60.749357
_cell_angle_gamma 90.000000
_cell_volume 2702.623210
_symmetry_space_group_name_H-M "C 2/M"
_symmetry_group_IT_number 12
_symmetry_cell_setting 'monoclinic'
loop_
_space_group_symop_operation_xyz
x,y,z
-x,y,-z
-x,-y,-z
x,-y,z
1/2+x,1/2+y,z
1/2-x,1/2+y,-z
1/2-x,1/2-y,-z
1/2+x,1/2-y,z
loop_
_atom_site_type_symbol
_atom_site_label
_atom_site_fract_x
_atom_site_fract_y
_atom_site_fract_z
Si Si1 0.383020 0.385889 0.349212
Si Si2 0.602155 0.388264 0.851156
Si Si3 0.492599 0.203489 0.909329
Si Si4 0.078727 0.605892 0.368960
Si Si5 0.827256 0.609297 0.852199
Si Si6 0.184485 0.610823 0.723429
Si Si7 0.177036 0.609931 0.544927
Si Si8 0.071990 0.819860 0.387757
O O1 0.402202 0.500000 0.355233
O O2 0.364846 0.376466 0.258991
O O3 0.275011 0.354679 0.446523
O O4 0.488093 0.330848 0.345200
O O5 0.578726 0.500000 0.874052
O O6 0.498997 0.318116 0.907226
O O7 0.706193 0.359508 0.867029
O O8 0.388084 0.168448 0.898116
O O9 0.606322 0.167681 0.817964
O O10 0.500000 0.168200 0.000000
O O11 0.125591 0.500000 0.375317
O O12 0.096766 0.607045 0.262240
O O13 0.115394 0.711304 0.380253
O O14 0.946064 0.607585 0.442500
O O15 0.816718 0.500000 0.885227
O O16 0.148796 0.500000 0.742766
O O17 0.166436 0.653389 0.639466
O O18 0.318373 0.618577 0.677120
O O19 0.208400 0.500000 0.549177
O O20 0.000000 0.846223 0.500000
#
# Coordination Sequence:
#
# PCOD9207264 Si02
#       8
#     8   8   8   8   8   8   8   8
#     4  10  21  39  64  98 139 184 233 280 338 419
#     4  10  24  46  71  99 139 188 232 285 348 418
#     4  12  26  44  74 109 139 176 235 296 354 416
#     4  10  21  37  57  85 127 181 232 279 329 394
#     4  10  21  43  71  97 134 182 231 289 356 415
#     4  11  23  42  66  99 140 177 219 280 356 416
#     4   9  18  35  61  89 125 174 222 273 328 394
#     4  12  24  37  62 100 139 187 228 278 347 418
#
# _framework density 23.680698
#
# number of rings (size 3 to 8) (size 9 to 14) (size 15 to 20)
#    0.000    1.500    2.500    2.250    0.000    5.000 
#    0.000    2.500    0.000    2.250    0.000    0.000 
#    0.000    0.000    0.000    0.000    0.000    0.000 
#
# Total GULP energy -179054.967076 kJ/mol
# GULP energy per Si atom -5595.467721 kJ/mol
# Density = 2.362680 g / cm^3
# Si number density = 23.680698 Si / 1000 Ang^3
#
#
#
# Elastic Constant Matrix: (Units=GPa)
#
#
# Indices 1 2 3 4 5 6 
#
# 1 149.1699 42.6288 35.0033 0.0000 21.3355 0.0000
# 2 42.6288 109.5741 28.9935 0.0000 9.5913 0.0000
# 3 35.0033 28.9935 102.3907 0.0000 25.7172 0.0000
# 4 0.0000 0.0000 0.0000 5.8200 0.0000 2.6923
# 5 21.3355 9.5913 25.7172 0.0000 26.4373 0.0000
# 6 0.0000 0.0000 0.0000 2.6923 0.0000 38.0128
#
#
#
# Elastic Compliance Matrix: (Units=1/GPa)
#
#
# Indices 1 2 3 4 5 6 
#
# 1 0.008357 -0.002585 -0.000882 0.000000 -0.004949 0.000000
# 2 -0.002585 0.010691 -0.002241 0.000000 0.000387 0.000000
# 3 -0.000882 -0.002241 0.013656 0.000000 -0.011759 0.000000
# 4 0.000000 0.000000 0.000000 0.177640 0.000000 -0.012581
# 5 -0.004949 0.000387 -0.011759 0.000000 0.053118 0.000000
# 6 0.000000 0.000000 0.000000 -0.012581 0.000000 0.027198
#
#
# Mechanical properties :
#
#
# Convention : Reuss Voigt Hill
#
# Bulk Modulus (GPa) = 46.97336 63.82066 55.39701
# Shear Modulus (GPa) = 16.17223 31.02129 23.59676
#
# Velocity S-wave (km/s) = 2.61613 3.62329 3.16009
# Velocity P-wave (km/s) = 5.38560 6.67183 6.06292
#
# Compressibility (1/GPa) = 0.02128866
#
# Stress axis : x y z
#
# Youngs Moduli (GPa) = 119.65740 93.53782 73.22676
#
# Poissons Ratio (x) = 0.24177 0.06460
# Poissons Ratio (y) = 0.30928 0.16410
# Poissons Ratio (z) = 0.10556 0.20961
#
# Static dielectric constant tensor:
#      x y z
#    x 1.889100 0.000000 0.015530 
#    y 0.000000 1.932460 0.000000 
#    z 0.015530 0.000000 1.906400 
# 
# From -- ./inp_files/270271.got.cif
#   From: 2010.05.17/outbox.cif.g08.bks.cpg/sg12_136_cif.got.tgz:270271.got - 2010.06.03 13:09:07.
