data_PCOD9207365
_publ_section_title
;
Structure prediction by ZEFSAII (Michael W. Deem and Ramdas Pophale) SiO2 
 PCOD9207365
Probable space group: C 2/M
;
_chemical_formula_sum "Si O2"
_cell_formula_units_Z 64
_cell_length_a 22.473945
_cell_length_b 20.699903
_cell_length_c 9.510311
_cell_angle_alpha 90.000000
_cell_angle_beta 131.763879
_cell_angle_gamma 90.000000
_cell_volume 3300.051008
_symmetry_space_group_name_H-M "C 2/M"
_symmetry_group_IT_number 12
_symmetry_cell_setting 'monoclinic'
loop_
_space_group_symop_operation_xyz
x,y,z
-x,y,-z
-x,-y,-z
x,-y,z
1/2+x,1/2+y,z
1/2-x,1/2+y,-z
1/2-x,1/2-y,-z
1/2+x,1/2-y,z
loop_
_atom_site_type_symbol
_atom_site_label
_atom_site_fract_x
_atom_site_fract_y
_atom_site_fract_z
Si Si1 0.031944 0.814275 0.393368
Si Si2 0.786193 0.426107 0.940481
Si Si3 0.038193 0.924580 0.908775
Si Si4 0.537150 0.189999 0.213176
Si Si5 0.278834 0.179486 0.430624
Si Si6 0.973022 0.574654 0.299170
Si Si7 0.782749 0.821586 0.371112
Si Si8 0.275617 0.573959 0.853411
O O1 0.012093 0.751548 0.267656
O O2 0.127389 0.821884 0.543089
O O3 0.000000 0.806237 0.500000
O O4 0.995936 0.877090 0.261993
O O5 0.772530 0.500000 0.868821
O O6 0.877382 0.421808 0.135270
O O7 0.731366 0.414707 0.990993
O O8 0.768138 0.372872 0.795501
O O9 0.019407 0.000000 0.850349
O O10 0.133902 0.918292 0.056961
O O11 0.000000 0.908208 0.000000
O O12 0.633487 0.189659 0.365727
O O13 0.509404 0.124794 0.246646
O O14 0.500000 0.194245 0.000000
O O15 0.221214 0.162463 0.469311
O O16 0.253493 0.247221 0.320212
O O17 0.278624 0.123640 0.316103
O O18 0.996777 0.500000 0.308994
O O19 0.000000 0.590895 0.500000
O O20 0.250066 0.500000 0.788894
#
# Coordination Sequence:
#
# PCOD9207365 Si02
#       8
#     8   8   8   8   8   8   8   8
#     4  11  23  38  59  86 115 150 190 234 285 338
#     4  10  21  37  58  85 116 150 188 231 280 333
#     4  10  21  37  58  85 115 150 191 233 282 337
#     4  11  23  39  60  85 115 150 190 236 283 336
#     4  10  22  39  59  84 113 149 190 231 280 335
#     4  10  21  38  60  86 117 152 190 233 281 335
#     4  10  22  39  56  83 116 146 189 234 279 335
#     4  10  21  37  58  84 113 148 190 232 278 335
#
# _framework density 19.393639
#
# number of rings (size 3 to 8) (size 9 to 14) (size 15 to 20)
#    0.000    1.750    0.000    3.750    0.000    7.500 
#    0.000    0.000    0.000    0.000    0.000    0.000 
#    0.000    0.000    0.000    0.000    0.000    0.000 
#
# Total GULP energy -178794.682164 kJ/mol
# GULP energy per Si atom -5587.333818 kJ/mol
# Density = 1.934950 g / cm^3
# Si number density = 19.393639 Si / 1000 Ang^3
#
#
#
# Elastic Constant Matrix: (Units=GPa)
#
#
# Indices 1 2 3 4 5 6 
#
# 1 99.2486 42.9803 38.4170 0.0000 -16.0745 0.0000
# 2 42.9803 109.4819 88.7725 0.0000 -24.2290 0.0000
# 3 38.4170 88.7725 111.4592 0.0000 -23.0036 0.0000
# 4 0.0000 0.0000 0.0000 44.4338 0.0000 -1.9250
# 5 -16.0745 -24.2290 -23.0036 0.0000 24.4797 0.0000
# 6 0.0000 0.0000 0.0000 -1.9250 0.0000 34.7843
#
#
#
# Elastic Compliance Matrix: (Units=1/GPa)
#
#
# Indices 1 2 3 4 5 6 
#
# 1 0.012504 -0.003360 -0.000776 0.000000 0.004156 0.000000
# 2 -0.003360 0.027923 -0.019642 0.000000 0.006973 0.000000
# 3 -0.000776 -0.019642 0.025762 0.000000 0.004258 0.000000
# 4 0.000000 0.000000 0.000000 0.022559 0.000000 0.001248
# 5 0.004156 0.006973 0.004258 0.000000 0.054482 0.000000
# 6 0.000000 0.000000 0.000000 0.001248 0.000000 0.028818
#
#
# Mechanical properties :
#
#
# Convention : Reuss Voigt Hill
#
# Bulk Modulus (GPa) = 53.66767 73.39213 63.52990
# Shear Modulus (GPa) = 22.14192 30.74087 26.44140
#
# Velocity S-wave (km/s) = 3.38259 3.98565 3.69644
# Velocity P-wave (km/s) = 6.55658 7.68805 7.14475
#
# Compressibility (1/GPa) = 0.01863319
#
# Stress axis : x y z
#
# Youngs Moduli (GPa) = 79.97267 35.81324 38.81630
#
# Poissons Ratio (x) = 0.12032 0.03013
# Poissons Ratio (y) = 0.26869 0.76243
# Poissons Ratio (z) = 0.06208 0.70345
#
# Static dielectric constant tensor:
#      x y z
#    x 1.686350 0.000000 0.014790 
#    y 0.000000 1.670970 0.000000 
#    z 0.014790 0.000000 1.646930 
# 
# From -- ./inp_files/99106.got.cif
#   From: 2010.05.17/outbox.cif.g08.bks.cpg/sg12_50_cif.got.tgz:99106.got - 2010.06.03 13:09:07.
