data_PCOD9207127
_publ_section_title
;
Structure prediction by ZEFSAII (Michael W. Deem and Ramdas Pophale) SiO2 
 PCOD9207127
Probable space group: C 2/M
;
_chemical_formula_sum "Si O2"
_cell_formula_units_Z 40
_cell_length_a 14.305570
_cell_length_b 8.776011
_cell_length_c 22.764802
_cell_angle_alpha 90.000000
_cell_angle_beta 138.355967
_cell_angle_gamma 90.000000
_cell_volume 1899.160441
_symmetry_space_group_name_H-M "C 2/M"
_symmetry_group_IT_number 12
_symmetry_cell_setting 'monoclinic'
loop_
_space_group_symop_operation_xyz
x,y,z
-x,y,-z
-x,-y,-z
x,-y,z
1/2+x,1/2+y,z
1/2-x,1/2+y,-z
1/2-x,1/2-y,-z
1/2+x,1/2-y,z
loop_
_atom_site_type_symbol
_atom_site_label
_atom_site_fract_x
_atom_site_fract_y
_atom_site_fract_z
Si Si1 0.849562 0.817241 0.870961
Si Si2 0.754997 0.677585 0.307340
Si Si3 0.835433 0.317160 0.985405
Si Si4 0.846839 0.674560 0.629236
Si Si5 0.036642 0.826899 0.426998
O O1 0.772252 0.786025 0.773504
O O2 0.781087 0.742992 0.896614
O O3 0.858498 0.000000 0.883178
O O4 0.005534 0.747280 0.937495
O O5 0.727481 0.500000 0.304096
O O6 0.658590 0.772613 0.306396
O O7 0.917419 0.716856 0.395302
O O8 0.835054 0.500000 0.986478
O O9 0.750000 0.250000 0.000000
O O10 0.894906 0.500000 0.645626
O O11 0.933097 0.781680 0.626111
O O12 0.685681 0.683299 0.529974
O O13 0.985030 0.000000 0.408259
#
# Coordination Sequence:
#
# PCOD9207127 Si02
#       5
#     8   8   8   8   8
#     4  10  22  40  59  85 117 146 184 230 275 330
#     4  11  23  37  57  84 115 150 185 229 282 331
#     4  11  22  39  64  88 112 147 184 223 276 332
#     4  10  21  37  57  81 111 149 192 236 281 330
#     4  10  21  37  57  81 111 149 192 236 281 330
#
# _framework density 21.061938000000001
#
# number of rings (size 3 to 8) (size 9 to 14) (size 15 to 20)
#    0.000    1.600    0.000    6.000    0.000    9.600 
#    0.000    0.000    0.000    0.000    0.000    0.000 
#    0.000    0.000    0.000    0.000    0.000    0.000 
#
# Total GULP energy -111824.409421 kJ/mol
# GULP energy per Si atom -5591.220471 kJ/mol
# Density = 2.101400 g / cm^3
# Si number density = 21.061938 Si / 1000 Ang^3
#
#
#
# Elastic Constant Matrix: (Units=GPa)
#
#
# Indices 1 2 3 4 5 6 
#
# 1 95.0609 28.4591 20.0585 0.0000 -37.9913 0.0000
# 2 28.4591 94.1875 42.1447 0.0000 -24.0127 0.0000
# 3 20.0585 42.1447 54.2299 0.0000 -27.0559 0.0000
# 4 0.0000 0.0000 0.0000 27.5891 0.0000 -5.9164
# 5 -37.9913 -24.0127 -27.0559 0.0000 33.2412 0.0000
# 6 0.0000 0.0000 0.0000 -5.9164 0.0000 32.9576
#
#
#
# Elastic Compliance Matrix: (Units=1/GPa)
#
#
# Indices 1 2 3 4 5 6 
#
# 1 0.021389 -0.003030 0.009340 0.000000 0.029859 0.000000
# 2 -0.003030 0.016827 -0.012829 0.000000 -0.001749 0.000000
# 3 0.009340 -0.012829 0.043200 0.000000 0.036569 0.000000
# 4 0.000000 0.000000 0.000000 0.037697 0.000000 0.006767
# 5 0.029859 -0.001749 0.036569 0.000000 0.092711 0.000000
# 6 0.000000 0.000000 0.000000 0.006767 0.000000 0.031557
#
#
# Mechanical properties :
#
#
# Convention : Reuss Voigt Hill
#
# Bulk Modulus (GPa) = 14.62431 47.20035 30.91233
# Shear Modulus (GPa) = 17.90754 28.94530 23.42642
#
# Velocity S-wave (km/s) = 2.91904 3.71117 3.33868
# Velocity P-wave (km/s) = 4.28014 6.38926 5.43793
#
# Compressibility (1/GPa) = 0.06837930
#
# Stress axis : x y z
#
# Youngs Moduli (GPa) = 46.75283 59.42781 23.14793
#
# Poissons Ratio (x) = 0.18005 -0.21621
# Poissons Ratio (y) = 0.14165 0.29697
# Poissons Ratio (z) = -0.43668 0.76242
#
# Static dielectric constant tensor:
#      x y z
#    x 1.740240 0.000000 -0.005370 
#    y 0.000000 1.701890 0.000000 
#    z -0.005370 0.000000 1.798240 
# 
# From -- ./inp_files/308682.got.cif
#   From: 2010.05.17/outbox.cif.g08.bks.cpg/sg12_155_cif.got.tgz:308682.got - 2010.06.03 13:09:07.
