data_PCOD9207171
_publ_section_title
;
Structure prediction by ZEFSAII (Michael W. Deem and Ramdas Pophale) SiO2 
 PCOD9207171
Probable space group: C 2/M
;
_chemical_formula_sum "Si O2"
_cell_formula_units_Z 42
_cell_length_a 9.683965
_cell_length_b 14.810793
_cell_length_c 16.046649
_cell_angle_alpha 90.000000
_cell_angle_beta 60.707227
_cell_angle_gamma 90.000000
_cell_volume 2007.232116
_symmetry_space_group_name_H-M "C 2/M"
_symmetry_group_IT_number 12
_symmetry_cell_setting 'monoclinic'
loop_
_space_group_symop_operation_xyz
x,y,z
-x,y,-z
-x,-y,-z
x,-y,z
1/2+x,1/2+y,z
1/2-x,1/2+y,-z
1/2-x,1/2-y,-z
1/2+x,1/2-y,z
loop_
_atom_site_type_symbol
_atom_site_label
_atom_site_fract_x
_atom_site_fract_y
_atom_site_fract_z
Si Si1 0.962524 0.603970 0.262502
Si Si2 0.980371 0.103018 0.762081
Si Si3 0.135090 0.634311 0.898481
Si Si4 0.120701 0.110449 0.392847
Si Si5 0.683377 0.337990 0.847299
Si Si6 0.000000 0.000000 0.000000
O O1 0.987313 0.500000 0.281355
O O2 0.914891 0.605742 0.179197
O O3 0.802333 0.639965 0.353070
O O4 0.128824 0.653208 0.220757
O O5 0.812754 0.100088 0.860652
O O6 0.940523 0.136824 0.681141
O O7 0.099458 0.159926 0.781966
O O8 0.040145 0.000000 0.738497
O O9 0.147695 0.742314 0.899260
O O10 0.000000 0.602396 0.000000
O O11 0.000000 0.138890 0.500000
O O12 0.125681 0.000000 0.389884
O O13 0.610318 0.420302 0.921939
#
# Coordination Sequence:
#
# PCOD9207171 Si02
#       6
#     8   8   8   8   8   2
#     4  10  21  37  57  83 112 147 187 233 276 332
#     4  10  21  37  57  83 112 147 187 233 276 332
#     4  11  24  35  54  80 112 152 193 230 271 327
#     4   8  16  35  61  85 109 142 183 231 285 333
#     4  12  23  38  54  80 118 150 192 226 281 323
#     4  12  24  36  56  78 116 168 180 230 276 332
#
# _framework density 20.924337000000001
#
# number of rings (size 3 to 8) (size 9 to 14) (size 15 to 20)
#    0.000    1.714    2.857    2.857    2.667    3.048 
#    0.000    0.952    0.000   22.857    0.000    0.000 
#    0.000    0.000    0.000    0.000    0.000    0.000 
#
# Total GULP energy -117076.818181 kJ/mol
# GULP energy per Si atom -5575.086580 kJ/mol
# Density = 2.087671 g / cm^3
# Si number density = 20.924337 Si / 1000 Ang^3
#
#
#
# Elastic Constant Matrix: (Units=GPa)
#
#
# Indices 1 2 3 4 5 6 
#
# 1 122.6743 -2.0935 44.6545 0.0000 -35.7902 0.0000
# 2 -2.0935 101.9448 8.5300 0.0000 -6.5360 0.0000
# 3 44.6545 8.5300 137.1569 0.0000 -40.2249 0.0000
# 4 0.0000 0.0000 0.0000 17.0473 0.0000 -2.3787
# 5 -35.7902 -6.5360 -40.2249 0.0000 22.8047 0.0000
# 6 0.0000 0.0000 0.0000 -2.3787 0.0000 16.2915
#
#
#
# Elastic Compliance Matrix: (Units=1/GPa)
#
#
# Indices 1 2 3 4 5 6 
#
# 1 0.016776 0.002214 0.004782 0.000000 0.035398 0.000000
# 2 0.002214 0.010299 0.001084 0.000000 0.008339 0.000000
# 3 0.004782 0.001084 0.016488 0.000000 0.036899 0.000000
# 4 0.000000 0.000000 0.000000 0.059880 0.000000 0.008743
# 5 0.035398 0.008339 0.036899 0.000000 0.166881 0.000000
# 6 0.000000 0.000000 0.000000 0.008743 0.000000 0.062658
#
#
# Mechanical properties :
#
#
# Convention : Reuss Voigt Hill
#
# Bulk Modulus (GPa) = 16.74390 51.55089 34.14739
# Shear Modulus (GPa) = 14.84869 31.94105 23.39487
#
# Velocity S-wave (km/s) = 2.66679 3.91129 3.34738
# Velocity P-wave (km/s) = 4.18352 6.71475 5.59418
#
# Compressibility (1/GPa) = 0.05972325
#
# Stress axis : x y z
#
# Youngs Moduli (GPa) = 59.60806 97.10072 60.64930
#
# Poissons Ratio (x) = -0.21497 -0.29002
# Poissons Ratio (y) = -0.13196 -0.06576
# Poissons Ratio (z) = -0.28504 -0.10528
#
# Static dielectric constant tensor:
#      x y z
#    x 1.744930 0.000000 -0.008200 
#    y 0.000000 1.779730 0.000000 
#    z -0.008200 0.000000 1.745580 
# 
# From -- ./inp_files/196098.got.cif
#   From: 2010.05.17/outbox.cif.g08.bks.cpg/sg12_99_cif.got.tgz:196098.got - 2010.06.03 13:09:07.
