data_PCOD9207696
_publ_section_title
;
Structure prediction by ZEFSAII (Michael W. Deem and Ramdas Pophale) SiO2 
 PCOD9207696
Probable space group: C 2/M
;
_chemical_formula_sum "Si O2"
_cell_formula_units_Z 40
_cell_length_a 18.689797
_cell_length_b 18.539299
_cell_length_c 8.752123
_cell_angle_alpha 90.000000
_cell_angle_beta 137.058963
_cell_angle_gamma 90.000000
_cell_volume 2065.926495
_symmetry_space_group_name_H-M "C 2/M"
_symmetry_group_IT_number 12
_symmetry_cell_setting 'monoclinic'
loop_
_space_group_symop_operation_xyz
x,y,z
-x,y,-z
-x,-y,-z
x,-y,z
1/2+x,1/2+y,z
1/2-x,1/2+y,-z
1/2-x,1/2-y,-z
1/2+x,1/2-y,z
loop_
_atom_site_type_symbol
_atom_site_label
_atom_site_fract_x
_atom_site_fract_y
_atom_site_fract_z
Si Si1 0.081834 0.777202 0.741665
Si Si2 0.218350 0.651924 0.798711
Si Si3 0.718955 0.149648 0.428854
Si Si4 0.118150 0.500000 0.626718
Si Si5 0.572958 0.722705 0.238867
Si Si6 0.884232 0.500000 0.746318
O O1 0.139019 0.712111 0.741802
O O2 0.000000 0.815223 0.500000
O O3 0.005979 0.748781 0.756852
O O4 0.170140 0.827855 0.952868
O O5 0.224696 0.654034 0.623760
O O6 0.177043 0.572299 0.771586
O O7 0.634527 0.211112 0.256254
O O8 0.834104 0.172491 0.552132
O O9 0.678495 0.072709 0.311141
O O10 0.111177 0.500000 0.431190
O O11 0.000000 0.500000 0.500000
O O12 0.500000 0.684262 0.000000
O O13 0.000000 0.500000 0.000000
#
# Coordination Sequence:
#
# PCOD9207696 Si02
#       6
#     8   8   8   4   8   4
#     4  11  21  37  59  84 117 152 195 239 282 336
#     4  10  21  37  60  87 114 152 195 235 284 349
#     4  10  21  37  59  89 115 149 194 236 289 346
#     4  10  22  40  62  82 118 152 188 234 294 344
#     4  11  21  36  59  85 117 149 193 241 289 332
#     4  10  22  42  60  85 118 148 188 241 290 342
#
# _framework density 19.361772999999999
#
# number of rings (size 3 to 8) (size 9 to 14) (size 15 to 20)
#    0.000    1.600    4.000    1.200    2.800    0.000 
#    3.600    2.000    0.000    0.000    0.000    0.000 
#    0.000    0.000    0.000    0.000    0.000    0.000 
#
# Total GULP energy -111618.070923 kJ/mol
# GULP energy per Si atom -5580.903546 kJ/mol
# Density = 1.931771 g / cm^3
# Si number density = 19.361773 Si / 1000 Ang^3
#
#
#
# Elastic Constant Matrix: (Units=GPa)
#
#
# Indices 1 2 3 4 5 6 
#
# 1 61.9513 13.9059 29.6708 0.0000 24.9108 0.0000
# 2 13.9059 131.0624 60.7824 0.0000 25.3635 0.0000
# 3 29.6708 60.7824 145.9174 0.0000 28.8558 0.0000
# 4 0.0000 0.0000 0.0000 19.5866 0.0000 -3.9097
# 5 24.9108 25.3635 28.8558 0.0000 31.7172 0.0000
# 6 0.0000 0.0000 0.0000 -3.9097 0.0000 15.9565
#
#
#
# Elastic Compliance Matrix: (Units=1/GPa)
#
#
# Indices 1 2 3 4 5 6 
#
# 1 0.024218 0.002014 -0.002053 0.000000 -0.018763 0.000000
# 2 0.002014 0.010279 -0.003357 0.000000 -0.006747 0.000000
# 3 -0.002053 -0.003357 0.009535 0.000000 -0.004378 0.000000
# 4 0.000000 0.000000 0.000000 0.053681 0.000000 0.013153
# 5 -0.018763 -0.006747 -0.004378 0.000000 0.055644 0.000000
# 6 0.000000 0.000000 0.000000 0.013153 0.000000 0.065893
#
#
# Mechanical properties :
#
#
# Convention : Reuss Voigt Hill
#
# Bulk Modulus (GPa) = 26.85340 60.84993 43.85167
# Shear Modulus (GPa) = 20.96842 29.09020 25.02931
#
# Velocity S-wave (km/s) = 3.29444 3.88036 3.59934
# Velocity P-wave (km/s) = 5.32640 7.18139 6.32229
#
# Compressibility (1/GPa) = 0.03723923
#
# Stress axis : x y z
#
# Youngs Moduli (GPa) = 41.29226 97.28733 104.88089
#
# Poissons Ratio (x) = -0.19589 0.21528
# Poissons Ratio (y) = -0.08314 0.35207
# Poissons Ratio (z) = 0.08476 0.32658
#
# Static dielectric constant tensor:
#      x y z
#    x 1.708960 0.000000 -0.031150 
#    y 0.000000 1.653450 0.000000 
#    z -0.031150 0.000000 1.696470 
# 
# From -- ./inp_files/77225.got.cif
#   From: 2010.05.17/outbox.cif.g08.bks.cpg/sg12_39_cif.got.tgz:77225.got - 2010.06.03 13:09:07.
