data_PCOD9207257
_publ_section_title
;
Structure prediction by ZEFSAII (Michael W. Deem and Ramdas Pophale) SiO2 
 PCOD9207257
Probable space group: C 2/M
;
_chemical_formula_sum "Si O2"
_cell_formula_units_Z 56
_cell_length_a 15.357082
_cell_length_b 25.196593
_cell_length_c 9.061438
_cell_angle_alpha 90.000000
_cell_angle_beta 57.642976
_cell_angle_gamma 90.000000
_cell_volume 2961.865672
_symmetry_space_group_name_H-M "C 2/M"
_symmetry_group_IT_number 12
_symmetry_cell_setting 'monoclinic'
loop_
_space_group_symop_operation_xyz
x,y,z
-x,y,-z
-x,-y,-z
x,-y,z
1/2+x,1/2+y,z
1/2-x,1/2+y,-z
1/2-x,1/2-y,-z
1/2+x,1/2-y,z
loop_
_atom_site_type_symbol
_atom_site_label
_atom_site_fract_x
_atom_site_fract_y
_atom_site_fract_z
Si Si1 0.948117 0.633709 0.390249
Si Si2 0.404263 0.131185 0.006149
Si Si3 0.500218 0.336361 0.177415
Si Si4 0.402801 0.254310 0.476291
Si Si5 0.808502 0.562071 0.341291
Si Si6 0.066319 0.937658 0.587830
Si Si7 0.790536 0.795106 0.854711
O O1 0.905886 0.694107 0.415107
O O2 0.855306 0.594889 0.434523
O O3 0.000000 0.628714 0.500000
O O4 0.041792 0.619141 0.196045
O O5 0.500000 0.160916 0.000000
O O6 0.370152 0.083065 0.142134
O O7 0.302246 0.164257 0.077440
O O8 0.420257 0.295584 0.328248
O O9 0.469857 0.395626 0.257114
O O10 0.609431 0.321065 0.156525
O O11 0.500000 0.331318 0.000000
O O12 0.500000 0.257868 0.500000
O O13 0.313807 0.271325 0.670718
O O14 0.825168 0.500000 0.345297
O O15 0.686373 0.571732 0.440834
O O16 0.000000 0.928224 0.500000
O O17 0.054324 0.000000 0.640306
O O18 0.750000 0.750000 0.000000
#
# Coordination Sequence:
#
# PCOD9207257 Si02
#       7
#     8   8   8   8   8   8   8
#     4  10  21  37  57  85 120 151 183 233 291 343
#     4  10  21  37  58  81 112 150 195 234 275 339
#     4  11  23  37  59  90 122 153 192 239 296 353
#     4   9  19  37  58  82 118 156 193 234 285 349
#     4  10  22  40  62  85 109 146 196 241 286 344
#     4  10  21  41  65  85 111 150 197 247 296 347
#     4  11  22  38  60  86 118 155 195 238 286 347
#
# _framework density 18.907001999999999
#
# number of rings (size 3 to 8) (size 9 to 14) (size 15 to 20)
#    0.000    1.857    0.000    5.571    0.000   10.000 
#    0.000    4.286    0.000    3.429    0.000    0.000 
#    0.000    0.000    0.000    0.000    0.000    0.000 
#
# Total GULP energy -156187.667838 kJ/mol
# GULP energy per Si atom -5578.130994 kJ/mol
# Density = 1.886397 g / cm^3
# Si number density = 18.907002 Si / 1000 Ang^3
#
#
#
# Elastic Constant Matrix: (Units=GPa)
#
#
# Indices 1 2 3 4 5 6 
#
# 1 95.8051 64.9395 57.4302 0.0000 -4.5652 0.0000
# 2 64.9395 118.5491 64.8208 0.0000 6.3833 0.0000
# 3 57.4302 64.8208 118.8365 0.0000 10.3124 0.0000
# 4 0.0000 0.0000 0.0000 35.6751 0.0000 0.6982
# 5 -4.5652 6.3833 10.3124 0.0000 31.0435 0.0000
# 6 0.0000 0.0000 0.0000 0.6982 0.0000 34.3741
#
#
#
# Elastic Compliance Matrix: (Units=1/GPa)
#
#
# Indices 1 2 3 4 5 6 
#
# 1 0.019513 -0.007942 -0.005652 0.000000 0.006380 0.000000
# 2 -0.007942 0.015256 -0.004232 0.000000 -0.002899 0.000000
# 3 -0.005652 -0.004232 0.013850 0.000000 -0.004562 0.000000
# 4 0.000000 0.000000 0.000000 0.028042 0.000000 -0.000570
# 5 0.006380 -0.002899 -0.004562 0.000000 0.035263 0.000000
# 6 0.000000 0.000000 0.000000 -0.000570 0.000000 0.029103
#
#
# Mechanical properties :
#
#
# Convention : Reuss Voigt Hill
#
# Bulk Modulus (GPa) = 77.11141 78.61909 77.86525
# Shear Modulus (GPa) = 27.62408 29.95187 28.78798
#
# Velocity S-wave (km/s) = 3.82652 3.98448 3.90630
# Velocity P-wave (km/s) = 7.77149 7.92719 7.84973
#
# Compressibility (1/GPa) = 0.01296825
#
# Stress axis : x y z
#
# Youngs Moduli (GPa) = 51.24700 65.54802 72.20113
#
# Poissons Ratio (x) = 0.52061 0.40805
# Poissons Ratio (y) = 0.40703 0.30553
# Poissons Ratio (z) = 0.28963 0.27737
#
# Static dielectric constant tensor:
#      x y z
#    x 1.674000 0.000000 -0.008840 
#    y 0.000000 1.829540 0.000000 
#    z -0.008840 0.000000 1.634950 
# 
# From -- ./inp_files/65778.got.cif
#   From: 2010.05.17/outbox.cif.g08.bks.cpg/sg12_33_cif.got.tgz:65778.got - 2010.06.03 13:09:07.
