data_PCOD9207904
_publ_section_title
;
Structure prediction by ZEFSAII (Michael W. Deem and Ramdas Pophale) SiO2 
 PCOD9207904
Probable space group: C 2/M
;
_chemical_formula_sum "Si O2"
_cell_formula_units_Z 50
_cell_length_a 29.545835
_cell_length_b 14.343229
_cell_length_c 5.434696
_cell_angle_alpha 90.000000
_cell_angle_beta 63.258608
_cell_angle_gamma 90.000000
_cell_volume 2056.802332
_symmetry_space_group_name_H-M "C 2/M"
_symmetry_group_IT_number 12
_symmetry_cell_setting 'monoclinic'
loop_
_space_group_symop_operation_xyz
x,y,z
-x,y,-z
-x,-y,-z
x,-y,z
1/2+x,1/2+y,z
1/2-x,1/2+y,-z
1/2-x,1/2-y,-z
1/2+x,1/2-y,z
loop_
_atom_site_type_symbol
_atom_site_label
_atom_site_fract_x
_atom_site_fract_y
_atom_site_fract_z
Si Si1 0.925202 0.135188 0.534546
Si Si2 0.000000 0.000000 0.500000
Si Si3 0.379465 0.345939 0.149828
Si Si4 0.206394 0.387178 0.999503
Si Si5 0.090191 0.351722 0.360933
Si Si6 0.942581 0.345385 0.061474
Si Si7 0.735077 0.613361 0.644934
O O1 0.888970 0.111480 0.395666
O O2 0.929930 0.246175 0.547133
O O3 0.977127 0.081818 0.375242
O O4 0.904000 0.103890 0.853035
O O5 0.408306 0.247090 0.102574
O O6 0.320158 0.342135 0.244095
O O7 0.202257 0.500000 0.012976
O O8 0.149825 0.348521 0.161284
O O9 0.238304 0.359831 0.163578
O O10 0.232480 0.362156 0.676953
O O11 0.081677 0.397192 0.646793
O O12 0.061587 0.392153 0.195154
O O13 0.000000 0.325697 0.000000
O O14 0.729096 0.500000 0.660876
#
# Coordination Sequence:
#
# PCOD9207904 Si02
#       7
#     8   2   8   8   8   8   8
#     4  10  25  38  58  87 120 160 207 243 286 348
#     4  12  28  42  64  90 122 174 212 234 296 358
#     4  10  22  39  59  89 123 158 206 246 298 349
#     4  10  21  40  66  88 116 156 200 246 307 368
#     4  10  21  40  61  89 118 155 204 249 296 350
#     4  10  21  37  61  84 121 161 200 239 295 355
#     4  10  21  37  60  90 122 158 196 249 308 354
#
# _framework density 24.30958
#
# number of rings (size 3 to 8) (size 9 to 14) (size 15 to 20)
#    0.000    1.920    0.000    2.400   11.200    0.640 
#    0.000   19.200    0.000    2.880    0.000    0.000 
#    0.000    0.000    0.000    0.000    0.000    0.000 
#
# Total GULP energy -139528.491545 kJ/mol
# GULP energy per Si atom -5581.139662 kJ/mol
# Density = 2.425425 g / cm^3
# Si number density = 24.309580 Si / 1000 Ang^3
#
#
#
# Elastic Constant Matrix: (Units=GPa)
#
#
# Indices 1 2 3 4 5 6 
#
# 1 189.3755 15.2707 56.1347 0.0000 29.4790 0.0000
# 2 15.2707 98.3079 3.2783 0.0000 8.0333 0.0000
# 3 56.1347 3.2783 165.1626 0.0000 42.3347 0.0000
# 4 0.0000 0.0000 0.0000 -3.9480 0.0000 -11.4323
# 5 29.4790 8.0333 42.3347 0.0000 60.8955 0.0000
# 6 0.0000 0.0000 0.0000 -11.4323 0.0000 20.1804
#
#
#
# Elastic Compliance Matrix: (Units=1/GPa)
#
#
# Indices 1 2 3 4 5 6 
#
# 1 0.006088 -0.000751 -0.001611 0.000000 -0.001728 0.000000
# 2 -0.000751 0.010380 0.000374 0.000000 -0.001266 0.000000
# 3 -0.001611 0.000374 0.007797 0.000000 -0.004690 0.000000
# 4 0.000000 0.000000 0.000000 -0.095927 0.000000 -0.054344
# 5 -0.001728 -0.001266 -0.004690 0.000000 0.020685 0.000000
# 6 0.000000 0.000000 0.000000 -0.054344 0.000000 0.018767
#
#
# Mechanical properties :
#
#
# Convention : Reuss Voigt Hill
#
# Bulk Modulus (GPa) = 49.29190 66.91258 58.10224
# Shear Modulus (GPa) = -232.86645 40.63638 -96.11504
#
# Velocity S-wave (km/s) = -9.79796 4.09298 -6.29474
# Velocity P-wave (km/s) = 10.37686 7.06552 5.37390
#
# Compressibility (1/GPa) = 0.02028731
#
# Stress axis : x y z
#
# Youngs Moduli (GPa) = 164.26806 96.34196 128.25564
#
# Poissons Ratio (x) = 0.07232 0.20665
# Poissons Ratio (y) = 0.12332 -0.04790
# Poissons Ratio (z) = 0.26468 -0.03598
#
# Static dielectric constant tensor:
#      x y z
#    x 1.932200 0.000000 0.027890 
#    y 0.000000 2.002330 0.000000 
#    z 0.027890 0.000000 2.038250 
# 
# From -- ./inp_files/28724.got.cif
#   From: 2010.05.17/outbox.cif.g08.bks.cpg/sg12_15_cif.got.tgz:28724.got - 2010.06.03 13:09:07.
