data_PCOD9207185
_publ_section_title
;
Structure prediction by ZEFSAII (Michael W. Deem and Ramdas Pophale) SiO2 
 PCOD9207185
Probable space group: C 2/M
;
_chemical_formula_sum "Si O2"
_cell_formula_units_Z 64
_cell_length_a 18.806258
_cell_length_b 8.810326
_cell_length_c 31.563995
_cell_angle_alpha 90.000000
_cell_angle_beta 41.859419
_cell_angle_gamma 90.000000
_cell_volume 3489.882875
_symmetry_space_group_name_H-M "C 2/M"
_symmetry_group_IT_number 12
_symmetry_cell_setting 'monoclinic'
loop_
_space_group_symop_operation_xyz
x,y,z
-x,y,-z
-x,-y,-z
x,-y,z
1/2+x,1/2+y,z
1/2-x,1/2+y,-z
1/2-x,1/2-y,-z
1/2+x,1/2-y,z
loop_
_atom_site_type_symbol
_atom_site_label
_atom_site_fract_x
_atom_site_fract_y
_atom_site_fract_z
Si Si1 0.996663 0.819229 0.065894
Si Si2 0.027199 0.316779 0.439576
Si Si3 0.939760 0.321995 0.180300
Si Si4 0.132825 0.817852 0.558208
Si Si5 0.161432 0.680759 0.933621
Si Si6 0.062070 0.817796 0.683958
Si Si7 0.727893 0.317751 0.684377
Si Si8 0.609453 0.177987 0.180750
O O1 0.970073 0.769737 0.125118
O O2 0.907043 0.750222 0.074583
O O3 0.998841 0.000000 0.060653
O O4 0.107569 0.749829 0.999692
O O5 0.018212 0.500000 0.440388
O O6 0.149123 0.274477 0.375097
O O7 0.000000 0.274943 0.500000
O O8 0.945737 0.242391 0.443092
O O9 0.930036 0.500000 0.174419
O O10 0.031877 0.303536 0.174720
O O11 0.832447 0.261910 0.250134
O O12 0.250000 0.750000 0.500000
O O13 0.088890 0.773845 0.624169
O O14 0.138811 0.000000 0.554146
O O15 0.150376 0.500000 0.938816
O O16 0.282863 0.730130 0.874205
O O17 0.160966 0.781298 0.671428
O O18 0.958462 0.737879 0.749296
O O19 0.046960 0.000000 0.692316
O O20 0.722164 0.500000 0.692539
O O21 0.633922 0.000000 0.174859
#
# Coordination Sequence:
#
# PCOD9207185 Si02
#       8
#     8   8   8   8   8   8   8   8
#     4  11  22  38  59  82 111 146 187 232 279 333
#     4  10  21  38  59  83 113 149 187 229 278 331
#     4  10  21  37  57  83 115 148 185 229 277 329
#     4  11  23  38  58  84 114 148 187 231 278 331
#     4  11  22  38  59  82 112 148 186 230 281 333
#     4   9  19  37  58  80 109 147 188 230 279 331
#     4   9  18  35  58  80 107 146 188 229 277 331
#     4  10  21  37  58  85 115 148 187 230 276 328
#
# _framework density 18.338723999999999
#
# number of rings (size 3 to 8) (size 9 to 14) (size 15 to 20)
#    0.000    1.875    0.000    4.875    0.000    6.750 
#    0.000    5.000    0.000    0.000    0.000    0.000 
#    0.000    0.000    0.000    0.000    0.000    0.000 
#
# Total GULP energy -178795.233013 kJ/mol
# GULP energy per Si atom -5587.351032 kJ/mol
# Density = 1.829698 g / cm^3
# Si number density = 18.338724 Si / 1000 Ang^3
#
#
#
# Elastic Constant Matrix: (Units=GPa)
#
#
# Indices 1 2 3 4 5 6 
#
# 1 78.9946 55.7045 84.3386 0.0002 1.0338 0.0008
# 2 55.7045 109.6975 87.6248 0.0014 0.5388 0.0045
# 3 84.3386 87.6248 179.0897 0.0000 0.4974 0.0004
# 4 0.0002 0.0014 0.0000 33.4146 -0.0002 -1.8682
# 5 1.0338 0.5388 0.4974 -0.0002 40.0973 0.0000
# 6 0.0008 0.0045 0.0004 -1.8682 0.0000 30.6085
#
#
#
# Elastic Compliance Matrix: (Units=1/GPa)
#
#
# Indices 1 2 3 4 5 6 
#
# 1 0.027667 -0.005976 -0.010104 0.000000 -0.000508 0.000000
# 2 -0.005976 0.016256 -0.005139 -0.000001 -0.000001 -0.000002
# 3 -0.010104 -0.005139 0.012856 0.000000 0.000170 0.000001
# 4 0.000000 -0.000001 0.000000 0.030030 0.000000 0.001833
# 5 -0.000508 -0.000001 0.000170 0.000000 0.024950 0.000000
# 6 0.000000 -0.000002 0.000001 0.001833 0.000000 0.032783
#
#
# Mechanical properties :
#
#
# Convention : Reuss Voigt Hill
#
# Bulk Modulus (GPa) = 69.73220 91.45753 80.59486
# Shear Modulus (GPa) = 26.07412 30.16501 28.11956
#
# Velocity S-wave (km/s) = 3.77478 4.06011 3.92004
# Velocity P-wave (km/s) = 7.55683 8.48286 8.03320
#
# Compressibility (1/GPa) = 0.01434058
#
# Stress axis : x y z
#
# Youngs Moduli (GPa) = 36.14354 61.51619 77.78362
#
# Poissons Ratio (x) = 0.36763 0.78593
# Poissons Ratio (y) = 0.21600 0.39976
# Poissons Ratio (z) = 0.36520 0.31615
#
# Static dielectric constant tensor:
#      x y z
#    x 1.606620 0.000000 0.002390 
#    y 0.000000 1.617730 0.000000 
#    z 0.002390 0.000000 1.609380 
# 
# From -- ./inp_files/378043.got.cif
#   From: 2010.05.17/outbox.cif.g08.bks.cpg/sg12_190_cif.got.tgz:378043.got - 2010.06.03 13:09:07.
