data_PCOD9207930
_publ_section_title
;
Structure prediction by ZEFSAII (Michael W. Deem and Ramdas Pophale) SiO2 
 PCOD9207930
Probable space group: C 2/M
;
_chemical_formula_sum "Si O2"
_cell_formula_units_Z 64
_cell_length_a 16.689224
_cell_length_b 15.563289
_cell_length_c 12.047360
_cell_angle_alpha 90.000000
_cell_angle_beta 87.461400
_cell_angle_gamma 90.000000
_cell_volume 3126.100903
_symmetry_space_group_name_H-M "C 2/M"
_symmetry_group_IT_number 12
_symmetry_cell_setting 'monoclinic'
loop_
_space_group_symop_operation_xyz
x,y,z
-x,y,-z
-x,-y,-z
x,-y,z
1/2+x,1/2+y,z
1/2-x,1/2+y,-z
1/2-x,1/2-y,-z
1/2+x,1/2-y,z
loop_
_atom_site_type_symbol
_atom_site_label
_atom_site_fract_x
_atom_site_fract_y
_atom_site_fract_z
Si Si1 0.668512 0.794246 0.049020
Si Si2 0.417150 0.399573 0.564762
Si Si3 0.747236 0.349891 0.534874
Si Si4 0.618304 0.247007 0.822165
Si Si5 0.260927 0.399379 0.210704
Si Si6 0.342857 0.906864 0.320941
Si Si7 0.063118 0.236038 0.250190
Si Si8 0.525367 0.094216 0.371089
O O1 0.695258 0.876426 0.120012
O O2 0.619352 0.738324 0.139987
O O3 0.750000 0.750000 0.000000
O O4 0.615020 0.799761 0.941860
O O5 0.500000 0.374924 0.500000
O O6 0.420081 0.500000 0.591626
O O7 0.341863 0.382089 0.490338
O O8 0.411477 0.341682 0.673453
O O9 0.750000 0.250000 0.500000
O O10 0.761592 0.371076 0.662370
O O11 0.808963 0.395799 0.447124
O O12 0.664116 0.337647 0.823481
O O13 0.671976 0.180833 0.745137
O O14 0.530392 0.265232 0.778975
O O15 0.279088 0.500000 0.209296
O O16 0.439223 0.910171 0.315896
O O17 0.313098 0.000000 0.279924
O O18 0.070484 0.324243 0.320126
O O19 0.500000 0.107702 0.500000
O O20 0.564764 0.000000 0.357378
#
# Coordination Sequence:
#
# PCOD9207930 Si02
#       8
#     8   8   8   8   8   8   8   8
#     4  10  24  43  62  90 123 165 225 276 319 373
#     4  11  25  41  62  99 139 175 216 264 324 404
#     4  12  23  39  63  95 135 174 214 267 327 396
#     4  10  22  43  65  90 126 168 221 274 322 391
#     4  11  23  40  64  95 131 173 218 270 328 390
#     4  10  21  37  60  91 125 166 208 264 331 390
#     4  11  22  39  67  91 122 175 213 266 331 383
#     4   9  20  35  56  91 128 158 201 256 317 394
#
# _framework density 20.472788000000001
#
# number of rings (size 3 to 8) (size 9 to 14) (size 15 to 20)
#    0.000    1.500    1.250    3.375    7.000    2.500 
#    0.000    2.500    0.000    7.500    0.000    0.000 
#    0.000    0.000    0.000    0.000    0.000    0.000 
#
# Total GULP energy -178668.667149 kJ/mol
# GULP energy per Si atom -5583.395848 kJ/mol
# Density = 2.042619 g / cm^3
# Si number density = 20.472788 Si / 1000 Ang^3
#
#
#
# Elastic Constant Matrix: (Units=GPa)
#
#
# Indices 1 2 3 4 5 6 
#
# 1 67.1465 13.3186 11.0446 0.0000 1.5482 0.0000
# 2 13.3186 105.2555 39.4563 0.0000 -4.0223 0.0000
# 3 11.0446 39.4563 113.1057 0.0000 -0.0375 0.0000
# 4 0.0000 0.0000 0.0000 7.4756 0.0000 19.0857
# 5 1.5482 -4.0223 -0.0375 0.0000 36.4125 0.0000
# 6 0.0000 0.0000 0.0000 19.0857 0.0000 2.1119
#
#
#
# Elastic Compliance Matrix: (Units=1/GPa)
#
#
# Indices 1 2 3 4 5 6 
#
# 1 0.015389 -0.001629 -0.000935 0.000000 -0.000835 0.000000
# 2 -0.001629 0.011155 -0.003732 0.000000 0.001298 0.000000
# 3 -0.000935 -0.003732 0.010234 0.000000 -0.000362 0.000000
# 4 0.000000 0.000000 0.000000 -0.006060 0.000000 0.054769
# 5 -0.000835 0.001298 -0.000362 0.000000 0.027642 0.000000
# 6 0.000000 0.000000 0.000000 0.054769 0.000000 -0.021452
#
#
# Mechanical properties :
#
#
# Convention : Reuss Voigt Hill
#
# Bulk Modulus (GPa) = 41.34369 45.90518 43.62443
# Shear Modulus (GPa) = 86.86406 23.97921 55.42164
#
# Velocity S-wave (km/s) = 6.52082 3.42610 5.20861
# Velocity P-wave (km/s) = 8.77115 6.17431 7.58470
#
# Compressibility (1/GPa) = 0.02418749
#
# Stress axis : x y z
#
# Youngs Moduli (GPa) = 64.98192 89.64289 97.71017
#
# Poissons Ratio (x) = 0.14600 0.09134
# Poissons Ratio (y) = 0.10584 0.36466
# Poissons Ratio (z) = 0.06075 0.33455
#
# Static dielectric constant tensor:
#      x y z
#    x 1.767140 0.000000 0.021730 
#    y 0.000000 1.743840 0.000000 
#    z 0.021730 0.000000 1.743950 
# 
# From -- ./inp_files/156637.got.cif
#   From: 2010.05.17/outbox.cif.g08.bks.cpg/sg12_79_cif.got.tgz:156637.got - 2010.06.03 13:09:07.
