data_PCOD9207692
_publ_section_title
;
Structure prediction by ZEFSAII (Michael W. Deem and Ramdas Pophale) SiO2 
 PCOD9207692
Probable space group: C 2/M
;
_chemical_formula_sum "Si O2"
_cell_formula_units_Z 64
_cell_length_a 9.374326
_cell_length_b 17.783476
_cell_length_c 31.141488
_cell_angle_alpha 90.000000
_cell_angle_beta 138.356775
_cell_angle_gamma 90.000000
_cell_volume 3449.726228
_symmetry_space_group_name_H-M "C 2/M"
_symmetry_group_IT_number 12
_symmetry_cell_setting 'monoclinic'
loop_
_space_group_symop_operation_xyz
x,y,z
-x,y,-z
-x,-y,-z
x,-y,z
1/2+x,1/2+y,z
1/2-x,1/2+y,-z
1/2-x,1/2-y,-z
1/2+x,1/2-y,z
loop_
_atom_site_type_symbol
_atom_site_label
_atom_site_fract_x
_atom_site_fract_y
_atom_site_fract_z
Si Si1 0.832252 0.910847 0.830482
Si Si2 0.709194 0.224291 0.858348
Si Si3 0.156256 0.210169 0.342621
Si Si4 0.772378 0.808573 0.739856
Si Si5 0.743138 0.411801 0.435462
Si Si6 0.553729 0.691207 0.462170
Si Si7 0.788904 0.589103 0.975723
Si Si8 0.352494 0.802530 0.059300
O O1 0.701550 0.854947 0.831834
O O2 0.777919 0.883352 0.770283
O O3 0.076873 0.891824 0.900727
O O4 0.799245 0.000000 0.828502
O O5 0.483090 0.263860 0.801756
O O6 0.748184 0.208640 0.917072
O O7 0.898139 0.277886 0.882987
O O8 0.201144 0.179382 0.304993
O O9 0.170066 0.143203 0.380520
O O10 0.345565 0.268991 0.395533
O O11 0.934807 0.256847 0.296717
O O12 0.702455 0.500000 0.418241
O O13 0.622966 0.381943 0.451001
O O14 0.000000 0.401856 0.500000
O O15 0.500000 0.677743 0.500000
O O16 0.750000 0.750000 0.500000
O O17 0.799832 0.500000 0.977865
O O18 0.802275 0.616980 0.027477
O O19 0.000000 0.620948 0.000000
O O20 0.250000 0.750000 0.000000
#
# Coordination Sequence:
#
# PCOD9207692 Si02
#       8
#     8   8   8   8   8   8   8   8
#     4  11  24  42  62  90 127 163 206 270 327 372
#     4  12  23  40  59  90 124 163 203 260 317 372
#     4  12  22  39  69  94 122 173 219 257 298 377
#     4  12  23  41  64  91 122 171 222 254 301 377
#     4  11  24  42  65 103 142 166 204 271 328 368
#     4  12  20  39  69  99 129 170 213 259 316 368
#     4  10  21  37  59  88 122 155 197 262 333 386
#     4  12  21  35  62  88 115 153 210 258 312 388
#
# _framework density 18.552195999999999
#
# number of rings (size 3 to 8) (size 9 to 14) (size 15 to 20)
#    0.000    0.500    7.500    1.875    0.000    1.250 
#    0.000    3.750    0.000    3.000    0.000    0.000 
#    0.000    0.000    0.000    0.000    0.000    0.000 
#
# Total GULP energy -178706.456588 kJ/mol
# GULP energy per Si atom -5584.576768 kJ/mol
# Density = 1.850997 g / cm^3
# Si number density = 18.552196 Si / 1000 Ang^3
#
#
#
# Elastic Constant Matrix: (Units=GPa)
#
#
# Indices 1 2 3 4 5 6 
#
# 1 94.6192 25.0880 26.1388 0.0000 -25.0576 0.0000
# 2 25.0880 86.8718 33.5096 0.0000 -0.1540 0.0000
# 3 26.1388 33.5096 76.3979 0.0000 -5.3531 0.0000
# 4 0.0000 0.0000 0.0000 27.3734 0.0000 -7.0564
# 5 -25.0576 -0.1540 -5.3531 0.0000 50.7577 0.0000
# 6 0.0000 0.0000 0.0000 -7.0564 0.0000 27.2614
#
#
#
# Elastic Compliance Matrix: (Units=1/GPa)
#
#
# Indices 1 2 3 4 5 6 
#
# 1 0.013889 -0.002820 -0.003058 0.000000 0.006526 0.000000
# 2 -0.002820 0.014446 -0.005507 0.000000 -0.001929 0.000000
# 3 -0.003058 -0.005507 0.016566 0.000000 0.000221 0.000000
# 4 0.000000 0.000000 0.000000 0.039144 0.000000 0.010132
# 5 0.006526 -0.001929 0.000221 0.000000 0.022940 0.000000
# 6 0.000000 0.000000 0.000000 0.010132 0.000000 0.039305
#
#
# Mechanical properties :
#
#
# Convention : Reuss Voigt Hill
#
# Bulk Modulus (GPa) = 45.18206 47.48463 46.33334
# Shear Modulus (GPa) = 28.33859 32.62199 30.48029
#
# Velocity S-wave (km/s) = 3.91257 4.19786 4.05773
# Velocity P-wave (km/s) = 6.69461 7.01048 6.85437
#
# Compressibility (1/GPa) = 0.02213268
#
# Stress axis : x y z
#
# Youngs Moduli (GPa) = 71.99767 69.22155 60.36294
#
# Poissons Ratio (x) = 0.19521 0.18459
# Poissons Ratio (y) = 0.20303 0.33241
# Poissons Ratio (z) = 0.22016 0.38119
#
# Static dielectric constant tensor:
#      x y z
#    x 1.702730 0.000000 -0.013010 
#    y 0.000000 1.692500 0.000000 
#    z -0.013010 0.000000 1.649820 
# 
# From -- ./inp_files/373022.got.cif
#   From: 2010.05.17/outbox.cif.g08.bks.cpg/sg12_187_cif.got.tgz:373022.got - 2010.06.03 13:09:07.
