data_PCOD9207754
_publ_section_title
;
Structure prediction by ZEFSAII (Michael W. Deem and Ramdas Pophale) SiO2 
 PCOD9207754
Probable space group: C 2/M
;
_chemical_formula_sum "Si O2"
_cell_formula_units_Z 64
_cell_length_a 24.504587
_cell_length_b 17.636127
_cell_length_c 20.680693
_cell_angle_alpha 90.000000
_cell_angle_beta 21.982132
_cell_angle_gamma 90.000000
_cell_volume 3345.459221
_symmetry_space_group_name_H-M "C 2/M"
_symmetry_group_IT_number 12
_symmetry_cell_setting 'monoclinic'
loop_
_space_group_symop_operation_xyz
x,y,z
-x,y,-z
-x,-y,-z
x,-y,z
1/2+x,1/2+y,z
1/2-x,1/2+y,-z
1/2-x,1/2-y,-z
1/2+x,1/2-y,z
loop_
_atom_site_type_symbol
_atom_site_label
_atom_site_fract_x
_atom_site_fract_y
_atom_site_fract_z
Si Si1 0.221642 0.189488 0.473685
Si Si2 0.054955 0.914932 0.208786
Si Si3 0.879455 0.914396 0.014069
Si Si4 0.640467 0.231347 0.430798
Si Si5 0.798785 0.318623 0.993091
Si Si6 0.700798 0.764279 0.222309
Si Si7 0.917823 0.412044 0.327587
Si Si8 0.783422 0.913210 0.324513
O O1 0.250000 0.250000 0.500000
O O2 0.207522 0.227977 0.419701
O O3 0.343963 0.124949 0.345998
O O4 0.071440 0.146426 0.651145
O O5 0.114797 0.916358 0.070166
O O6 0.003973 0.000000 0.280323
O O7 0.179548 0.884865 0.118986
O O8 0.044413 0.896564 0.856747
O O9 0.843080 0.000000 0.076278
O O10 0.768384 0.848196 0.152446
O O11 0.464297 0.232969 0.624256
O O12 0.690173 0.264991 0.307406
O O13 0.700395 0.145861 0.371008
O O14 0.947833 0.356596 0.805401
O O15 0.750000 0.250000 0.000000
O O16 0.798279 0.284179 0.065571
O O17 0.960616 0.500000 0.273493
O O18 0.797073 0.408723 0.517236
O O19 0.770217 0.000000 0.317111
#
# Coordination Sequence:
#
# PCOD9207754 Si02
#       8
#     8   8   8   8   8   8   8   8
#     4  12  21  38  66  92 120 158 206 251 303 356
#     4  11  21  36  61  91 123 155 197 251 306 359
#     4  10  21  37  59  91 125 159 198 243 303 369
#     4  11  24  42  60  87 120 164 206 249 305 360
#     4  12  22  38  62  92 122 159 205 254 302 351
#     4  11  25  41  60  86 124 162 204 253 301 360
#     4  11  23  38  62  95 127 156 197 255 313 361
#     4  10  21  38  59  89 126 160 197 242 301 372
#
# _framework density 19.130407000000002
#
# number of rings (size 3 to 8) (size 9 to 14) (size 15 to 20)
#    0.000    1.000    5.000    2.250    1.750    1.500 
#    0.000    2.500    0.000    4.500    0.000    0.000 
#    0.000    0.000    0.000    0.000    0.000    0.000 
#
# Total GULP energy -178734.204663 kJ/mol
# GULP energy per Si atom -5585.443896 kJ/mol
# Density = 1.908687 g / cm^3
# Si number density = 19.130407 Si / 1000 Ang^3
#
#
#
# Elastic Constant Matrix: (Units=GPa)
#
#
# Indices 1 2 3 4 5 6 
#
# 1 93.8643 30.5088 13.1844 0.0014 6.5715 0.0000
# 2 30.5088 60.1585 9.5034 0.0010 5.1862 -0.0002
# 3 13.1844 9.5034 35.6935 0.0059 -1.8744 -0.0013
# 4 0.0014 0.0010 0.0059 42.1961 -0.0026 -7.0594
# 5 6.5715 5.1862 -1.8744 -0.0026 24.3758 0.0001
# 6 0.0000 -0.0002 -0.0013 -7.0594 0.0001 22.8132
#
#
#
# Elastic Compliance Matrix: (Units=1/GPa)
#
#
# Indices 1 2 3 4 5 6 
#
# 1 0.013253 -0.005955 -0.003445 0.000000 -0.002571 0.000000
# 2 -0.005955 0.020439 -0.003400 0.000000 -0.003005 0.000000
# 3 -0.003445 -0.003400 0.030404 -0.000004 0.003990 0.000001
# 4 0.000000 0.000000 -0.000004 0.024993 0.000002 0.007734
# 5 -0.002571 -0.003005 0.003990 0.000002 0.042663 0.000001
# 6 0.000000 0.000000 0.000001 0.007734 0.000001 0.046227
#
#
# Mechanical properties :
#
#
# Convention : Reuss Voigt Hill
#
# Bulk Modulus (GPa) = 25.97703 32.90106 29.43905
# Shear Modulus (GPa) = 23.10413 26.97834 25.04123
#
# Velocity S-wave (km/s) = 3.47899 3.75938 3.62190
# Velocity P-wave (km/s) = 5.45401 6.00663 5.73698
#
# Compressibility (1/GPa) = 0.03849554
#
# Stress axis : x y z
#
# Youngs Moduli (GPa) = 75.45331 48.92584 32.89091
#
# Poissons Ratio (x) = 0.29137 0.11330
# Poissons Ratio (y) = 0.44936 0.11183
# Poissons Ratio (z) = 0.25992 0.16634
#
# Static dielectric constant tensor:
#      x y z
#    x 1.690550 0.000000 -0.002530 
#    y 0.000000 1.680320 0.000000 
#    z -0.002530 0.000000 1.701010 
# 
# From -- ./inp_files/112921.got.cif
#   From: 2010.05.17/outbox.cif.g08.bks.cpg/sg12_57_cif.got.tgz:112921.got - 2010.06.03 13:09:07.
