data_PCOD9207722
_publ_section_title
;
Structure prediction by ZEFSAII (Michael W. Deem and Ramdas Pophale) SiO2 
 PCOD9207722
Probable space group: C 2/M
;
_chemical_formula_sum "Si O2"
_cell_formula_units_Z 32
_cell_length_a 22.400573
_cell_length_b 10.694540
_cell_length_c 9.561443
_cell_angle_alpha 90.000000
_cell_angle_beta 141.226546
_cell_angle_gamma 90.000000
_cell_volume 1434.456323
_symmetry_space_group_name_H-M "C 2/M"
_symmetry_group_IT_number 12
_symmetry_cell_setting 'monoclinic'
loop_
_space_group_symop_operation_xyz
x,y,z
-x,y,-z
-x,-y,-z
x,-y,z
1/2+x,1/2+y,z
1/2-x,1/2+y,-z
1/2-x,1/2-y,-z
1/2+x,1/2-y,z
loop_
_atom_site_type_symbol
_atom_site_label
_atom_site_fract_x
_atom_site_fract_y
_atom_site_fract_z
Si Si1 0.336291 0.272871 0.829651
Si Si2 0.301971 0.134823 0.022240
Si Si3 0.483138 0.730832 0.324358
Si Si4 0.869056 0.357001 0.604822
O O1 0.293429 0.155765 0.840334
O O2 0.914862 0.171548 0.079668
O O3 0.244542 0.355673 0.630320
O O4 0.381550 0.218480 0.772092
O O5 0.268797 0.000000 0.009083
O O6 0.250000 0.250000 0.000000
O O7 0.414482 0.155187 0.249419
O O8 0.500000 0.658378 0.500000
O O9 0.575181 0.783517 0.414643
O O10 0.903189 0.500000 0.676503
#
# Coordination Sequence:
#
# PCOD9207722 Si02
#       4
#     8   8   8   8
#     4   9  23  38  58  94 128 156 200 266 317 363
#     4  10  21  37  59  89 125 160 202 257 312 368
#     4  10  22  37  61  94 122 159 210 263 307 370
#     4  11  21  39  66  90 120 166 214 257 307 372
#
# _framework density 22.308105000000001
#
# number of rings (size 3 to 8) (size 9 to 14) (size 15 to 20)
#    1.500    0.500    0.000    3.750    0.000    6.000 
#    0.000    0.000    0.000   31.500    0.000    0.000 
#    0.000    0.000    0.000    0.000    0.000    0.000 
#
# Total GULP energy -89106.842129 kJ/mol
# GULP energy per Si atom -5569.177633 kJ/mol
# Density = 2.225733 g / cm^3
# Si number density = 22.308105 Si / 1000 Ang^3
#
#
#
# Elastic Constant Matrix: (Units=GPa)
#
#
# Indices 1 2 3 4 5 6 
#
# 1 171.2814 33.3039 45.9623 0.0000 -14.3254 0.0000
# 2 33.3039 78.4587 7.5780 0.0000 4.3504 0.0000
# 3 45.9623 7.5780 115.1952 0.0000 -19.7754 0.0000
# 4 0.0000 0.0000 0.0000 0.6898 0.0000 -0.6882
# 5 -14.3254 4.3504 -19.7754 0.0000 43.7981 0.0000
# 6 0.0000 0.0000 0.0000 -0.6882 0.0000 7.1828
#
#
#
# Elastic Compliance Matrix: (Units=1/GPa)
#
#
# Indices 1 2 3 4 5 6 
#
# 1 0.007178 -0.002900 -0.002407 0.000000 0.001549 0.000000
# 2 -0.002900 0.014130 -0.000191 0.000000 -0.002438 0.000000
# 3 -0.002407 -0.000191 0.010322 0.000000 0.003892 0.000000
# 4 0.000000 0.000000 0.000000 1.602900 0.000000 0.153581
# 5 0.001549 -0.002438 0.003892 0.000000 0.025338 0.000000
# 6 0.000000 0.000000 0.000000 0.153581 0.000000 0.153938
#
#
# Mechanical properties :
#
#
# Convention : Reuss Voigt Hill
#
# Bulk Modulus (GPa) = 48.46509 59.84706 54.15608
# Shear Modulus (GPa) = 2.72973 28.87354 15.80164
#
# Velocity S-wave (km/s) = 1.10739 3.60155 2.66435
# Velocity P-wave (km/s) = 4.83814 6.64685 5.81327
#
# Compressibility (1/GPa) = 0.02063341
#
# Stress axis : x y z
#
# Youngs Moduli (GPa) = 139.31929 70.77011 96.87942
#
# Poissons Ratio (x) = 0.20525 0.23321
# Poissons Ratio (y) = 0.40405 0.01850
# Poissons Ratio (z) = 0.33537 0.01352
#
# Static dielectric constant tensor:
#      x y z
#    x 1.831030 0.000000 -0.043490 
#    y 0.000000 1.776990 0.000000 
#    z -0.043490 0.000000 1.960610 
# 
# From -- ./inp_files/172707.got.cif
#   From: 2010.05.17/outbox.cif.g08.bks.cpg/sg12_87_cif.got.tgz:172707.got - 2010.06.03 13:09:07.
