data_PCOD9207083
_publ_section_title
;
Structure prediction by ZEFSAII (Michael W. Deem and Ramdas Pophale) SiO2 
 PCOD9207083
Probable space group: C 2/M
;
_chemical_formula_sum "Si O2"
_cell_formula_units_Z 48
_cell_length_a 18.683010
_cell_length_b 11.428940
_cell_length_c 23.269975
_cell_angle_alpha 90.000000
_cell_angle_beta 155.331169
_cell_angle_gamma 90.000000
_cell_volume 2073.828506
_symmetry_space_group_name_H-M "C 2/M"
_symmetry_group_IT_number 12
_symmetry_cell_setting 'monoclinic'
loop_
_space_group_symop_operation_xyz
x,y,z
-x,y,-z
-x,-y,-z
x,-y,z
1/2+x,1/2+y,z
1/2-x,1/2+y,-z
1/2-x,1/2-y,-z
1/2+x,1/2-y,z
loop_
_atom_site_type_symbol
_atom_site_label
_atom_site_fract_x
_atom_site_fract_y
_atom_site_fract_z
Si Si1 0.902985 0.626872 0.278291
Si Si2 0.234556 0.140132 0.410034
Si Si3 0.140803 0.123852 0.860417
Si Si4 0.369591 0.778078 0.857872
Si Si5 0.857971 0.162940 0.006512
Si Si6 0.304020 0.632582 0.379116
O O1 0.870300 0.500000 0.283102
O O2 0.800675 0.729498 0.235601
O O3 0.810459 0.618919 0.149106
O O4 0.105817 0.643356 0.430093
O O5 0.266376 0.249605 0.389416
O O6 0.045363 0.161748 0.297645
O O7 0.230734 0.000000 0.386714
O O8 0.305390 0.202364 0.974218
O O9 0.178086 0.000000 0.861094
O O10 0.113090 0.118238 0.909009
O O11 0.314047 0.854662 0.763541
O O12 0.500000 0.830092 0.000000
O O13 0.474233 0.664278 0.909904
O O14 0.500000 0.639386 0.500000
O O15 0.278876 0.500000 0.386116
#
# Coordination Sequence:
#
# PCOD9207083 Si02
#       6
#     8   8   8   8   8   8
#     4  10  21  37  61  89 120 154 197 251 305 356
#     4  10  21  39  63  89 118 156 204 251 297 349
#     4  10  21  38  60  84 115 157 204 248 293 351
#     4  10  21  37  58  88 120 153 194 246 300 359
#     4  10  21  37  56  86 119 153 195 245 300 352
#     4  11  22  38  58  86 124 160 199 245 299 362
#
# _framework density 23.145599000000001
#
# number of rings (size 3 to 8) (size 9 to 14) (size 15 to 20)
#    0.000    1.833    3.333    0.500    0.000    6.333 
#    0.000    4.167    0.000    0.000    0.000    0.000 
#    0.000    0.000    0.000    0.000    0.000    0.000 
#
# Total GULP energy -133674.379705 kJ/mol
# GULP energy per Si atom -5569.765821 kJ/mol
# Density = 2.309292 g / cm^3
# Si number density = 23.145599 Si / 1000 Ang^3
#
#
#
# Elastic Constant Matrix: (Units=GPa)
#
#
# Indices 1 2 3 4 5 6 
#
# 1 19.1999 2.8006 4.6581 0.0004 -11.3363 0.0015
# 2 2.8006 122.1202 20.8817 0.0078 -1.9516 0.0124
# 3 4.6581 20.8817 152.0024 0.0134 -7.8502 0.0193
# 4 0.0004 0.0078 0.0134 24.6513 -0.0016 -33.6910
# 5 -11.3363 -1.9516 -7.8502 -0.0016 31.8759 0.0000
# 6 0.0015 0.0124 0.0193 -33.6910 0.0000 69.1538
#
#
#
# Elastic Compliance Matrix: (Units=1/GPa)
#
#
# Indices 1 2 3 4 5 6 
#
# 1 0.066154 -0.001028 -0.000683 -0.000001 0.023296 -0.000002
# 2 -0.001028 0.008403 -0.001130 -0.000011 -0.000129 -0.000006
# 3 -0.000683 -0.001130 0.006826 -0.000017 0.001369 -0.000010
# 4 -0.000001 -0.000011 -0.000017 0.121398 0.000001 0.059144
# 5 0.023296 -0.000129 0.001369 0.000001 0.039986 0.000000
# 6 -0.000002 -0.000006 -0.000010 0.059144 0.000000 0.043275
#
#
# Mechanical properties :
#
#
# Convention : Reuss Voigt Hill
#
# Bulk Modulus (GPa) = 13.20977 38.88925 26.04951
# Shear Modulus (GPa) = 15.77505 42.80165 29.28835
#
# Velocity S-wave (km/s) = 2.61350 4.30494 3.56110
# Velocity P-wave (km/s) = 3.85056 6.44581 5.30920
#
# Compressibility (1/GPa) = 0.07570156
#
# Stress axis : x y z
#
# Youngs Moduli (GPa) = 15.11629 119.00063 146.50604
#
# Poissons Ratio (x) = 0.12234 0.10005
# Poissons Ratio (y) = 0.01554 0.16549
# Poissons Ratio (z) = 0.01032 0.13442
#
# Static dielectric constant tensor:
#      x y z
#    x 1.868700 0.000000 -0.021660 
#    y 0.000000 2.016410 -0.000010 
#    z -0.021660 -0.000010 1.835440 
# 
# From -- ./inp_files/366141.got.cif
#   From: 2010.05.17/outbox.cif.g08.bks.cpg/sg12_184_cif.got.tgz:366141.got - 2010.06.03 13:09:07.
