data_PCOD9207000
_publ_section_title
;
Structure prediction by ZEFSAII (Michael W. Deem and Ramdas Pophale) SiO2 
 PCOD9207000
Probable space group: C 2/M
;
_chemical_formula_sum "Si O2"
_cell_formula_units_Z 48
_cell_length_a 12.550735
_cell_length_b 25.313751
_cell_length_c 9.275911
_cell_angle_alpha 90.000000
_cell_angle_beta 127.988430
_cell_angle_gamma 90.000000
_cell_volume 2322.645260
_symmetry_space_group_name_H-M "C 2/M"
_symmetry_group_IT_number 12
_symmetry_cell_setting 'monoclinic'
loop_
_space_group_symop_operation_xyz
x,y,z
-x,y,-z
-x,-y,-z
x,-y,z
1/2+x,1/2+y,z
1/2-x,1/2+y,-z
1/2-x,1/2-y,-z
1/2+x,1/2-y,z
loop_
_atom_site_type_symbol
_atom_site_label
_atom_site_fract_x
_atom_site_fract_y
_atom_site_fract_z
Si Si1 0.988558 0.674163 0.820566
Si Si2 0.413797 0.714932 0.225458
Si Si3 0.353392 0.559061 0.798279
Si Si4 0.253210 0.371996 0.952781
Si Si5 0.300401 0.699353 0.450887
Si Si6 0.530927 0.562722 0.686067
O O1 0.039094 0.726878 0.780041
O O2 0.098143 0.630696 0.869222
O O3 0.831644 0.662633 0.657854
O O4 0.000000 0.684901 0.000000
O O5 0.336710 0.713801 0.314758
O O6 0.555684 0.683539 0.362136
O O7 0.322062 0.685570 0.031328
O O8 0.295787 0.500000 0.769682
O O9 0.269985 0.604079 0.808270
O O10 0.396424 0.567852 0.670756
O O11 0.500000 0.559117 0.000000
O O12 0.343576 0.407552 0.135892
O O13 0.250000 0.750000 0.500000
O O14 0.500000 0.581131 0.500000
O O15 0.562588 0.500000 0.709928
#
# Coordination Sequence:
#
# PCOD9207000 Si02
#       6
#     8   8   8   8   8   8
#     4  11  22  35  53  79 117 153 190 241 292 339
#     4  10  21  37  56  79 108 155 203 237 284 339
#     4   8  16  34  55  84 117 147 186 237 286 342
#     4  11  20  31  56  89 117 147 191 240 292 340
#     4   9  20  39  55  72 108 158 193 246 283 336
#     4   9  19  36  59  88 120 151 191 242 290 345
#
# _framework density 20.666091000000002
#
# number of rings (size 3 to 8) (size 9 to 14) (size 15 to 20)
#    0.000    2.333    1.667    2.000    2.333    2.000 
#    9.000    0.000    3.667    2.000    0.000    4.667 
#    0.000   44.000    0.000    0.000    0.000    0.333 
#
# Total GULP energy -133955.836129 kJ/mol
# GULP energy per Si atom -5581.493172 kJ/mol
# Density = 2.061905 g / cm^3
# Si number density = 20.666091 Si / 1000 Ang^3
#
#
#
# Elastic Constant Matrix: (Units=GPa)
#
#
# Indices 1 2 3 4 5 6 
#
# 1 152.1664 31.4239 50.8790 0.0000 11.9876 0.0000
# 2 31.4239 46.4770 5.7463 0.0000 -2.9285 0.0000
# 3 50.8790 5.7463 59.8275 0.0000 8.1711 0.0000
# 4 0.0000 0.0000 0.0000 15.9786 0.0000 -8.4841
# 5 11.9876 -2.9285 8.1711 0.0000 41.6410 0.0000
# 6 0.0000 0.0000 0.0000 -8.4841 0.0000 31.4548
#
#
#
# Elastic Compliance Matrix: (Units=1/GPa)
#
#
# Indices 1 2 3 4 5 6 
#
# 1 0.010837 -0.006418 -0.008335 0.000000 -0.001935 0.000000
# 2 -0.006418 0.025738 0.002555 0.000000 0.003156 0.000000
# 3 -0.008335 0.002555 0.023844 0.000000 -0.002100 0.000000
# 4 0.000000 0.000000 0.000000 0.073045 0.000000 0.019702
# 5 -0.001935 0.003156 -0.002100 0.000000 0.025206 0.000000
# 6 0.000000 0.000000 0.000000 0.019702 0.000000 0.037106
#
#
# Mechanical properties :
#
#
# Convention : Reuss Voigt Hill
#
# Bulk Modulus (GPa) = 27.75994 48.28547 38.02270
# Shear Modulus (GPa) = 21.53501 29.17632 25.35566
#
# Velocity S-wave (km/s) = 3.23157 3.76146 3.50654
# Velocity P-wave (km/s) = 5.23315 6.50232 5.90195
#
# Compressibility (1/GPa) = 0.03602313
#
# Stress axis : x y z
#
# Youngs Moduli (GPa) = 92.28038 38.85231 41.93864
#
# Poissons Ratio (x) = 0.24936 0.34955
# Poissons Ratio (y) = 0.59227 -0.10715
# Poissons Ratio (z) = 0.76915 -0.09927
#
# Static dielectric constant tensor:
#      x y z
#    x 1.739830 0.000000 -0.002290 
#    y 0.000000 1.784660 0.000000 
#    z -0.002290 0.000000 1.775510 
# 
# From -- ./inp_files/52793.got.cif
#   From: 2010.05.17/outbox.cif.g08.bks.cpg/sg12_27_cif.got.tgz:52793.got - 2010.06.03 13:09:07.
