data_PCOD9207320
_publ_section_title
;
Structure prediction by ZEFSAII (Michael W. Deem and Ramdas Pophale) SiO2 
 PCOD9207320
Probable space group: C 2/M
;
_chemical_formula_sum "Si O2"
_cell_formula_units_Z 64
_cell_length_a 32.459037
_cell_length_b 9.161356
_cell_length_c 15.582006
_cell_angle_alpha 90.000000
_cell_angle_beta 133.477766
_cell_angle_gamma 90.000000
_cell_volume 3362.333847
_symmetry_space_group_name_H-M "C 2/M"
_symmetry_group_IT_number 12
_symmetry_cell_setting 'monoclinic'
loop_
_space_group_symop_operation_xyz
x,y,z
-x,y,-z
-x,-y,-z
x,-y,z
1/2+x,1/2+y,z
1/2-x,1/2+y,-z
1/2-x,1/2-y,-z
1/2+x,1/2-y,z
loop_
_atom_site_type_symbol
_atom_site_label
_atom_site_fract_x
_atom_site_fract_y
_atom_site_fract_z
Si Si1 0.169813 0.827362 0.331138
Si Si2 0.779807 0.828522 0.414625
Si Si3 0.845766 0.670977 0.990104
Si Si4 0.964050 0.825958 0.363360
Si Si5 0.459483 0.324762 0.861917
Si Si6 0.154649 0.671937 0.810229
Si Si7 0.238122 0.327447 0.776771
Si Si8 0.977229 0.675307 0.201987
O O1 0.177658 0.805987 0.444851
O O2 0.219024 0.733901 0.358069
O O3 0.106146 0.788981 0.213129
O O4 0.179826 0.000000 0.328163
O O5 0.794625 0.744695 0.349366
O O6 0.775747 0.000000 0.392159
O O7 0.839630 0.500000 0.959955
O O8 0.830262 0.691153 0.068358
O O9 0.912210 0.710386 0.079623
O O10 0.801568 0.763855 0.872632
O O11 0.900110 0.769754 0.286066
O O12 0.985236 0.745237 0.307502
O O13 0.000000 0.792251 0.500000
O O14 0.965080 0.000000 0.350844
O O15 0.462463 0.500000 0.851771
O O16 0.481043 0.242004 0.808544
O O17 0.500000 0.288600 0.000000
O O18 0.139575 0.500000 0.778249
O O19 0.205021 0.706054 0.817249
O O20 0.240457 0.500000 0.769185
O O21 0.981602 0.500000 0.213644
#
# Coordination Sequence:
#
# PCOD9207320 Si02
#       8
#     8   8   8   8   8   8   8   8
#     4   9  20  40  60  81 112 147 188 234 283 340
#     4  10  21  37  58  82 111 149 188 233 284 334
#     4   9  19  36  55  78 112 148 186 229 276 330
#     4  10  21  37  59  85 113 149 192 236 283 338
#     4  10  22  39  61  89 119 152 192 240 293 346
#     4   9  20  37  54  79 113 147 185 229 276 331
#     4  11  22  34  54  83 112 144 186 230 277 336
#     4  10  22  39  58  84 117 152 191 235 285 345
#
# _framework density 19.034397999999999
#
# number of rings (size 3 to 8) (size 9 to 14) (size 15 to 20)
#    0.000    2.250    0.000    2.625    1.750    6.750 
#    0.000    3.750    0.000    0.000    0.000    0.000 
#    0.000    0.000    0.000    0.000    0.000    0.000 
#
# Total GULP energy -178686.380616 kJ/mol
# GULP energy per Si atom -5583.949394 kJ/mol
# Density = 1.899107 g / cm^3
# Si number density = 19.034398 Si / 1000 Ang^3
#
#
#
# Elastic Constant Matrix: (Units=GPa)
#
#
# Indices 1 2 3 4 5 6 
#
# 1 31.1237 7.5999 4.7044 0.0000 3.7098 0.0000
# 2 7.5999 33.8384 30.7306 0.0000 4.0705 0.0000
# 3 4.7044 30.7306 76.6163 0.0000 12.5123 0.0000
# 4 0.0000 0.0000 0.0000 28.5156 0.0000 -1.7493
# 5 3.7098 4.0705 12.5123 0.0000 15.4197 0.0000
# 6 0.0000 0.0000 0.0000 -1.7493 0.0000 30.3489
#
#
#
# Elastic Compliance Matrix: (Units=1/GPa)
#
#
# Indices 1 2 3 4 5 6 
#
# 1 0.035023 -0.009671 0.003098 0.000000 -0.008387 0.000000
# 2 -0.009671 0.049301 -0.020099 0.000000 0.005621 0.000000
# 3 0.003098 -0.020099 0.023261 0.000000 -0.014315 0.000000
# 4 0.000000 0.000000 0.000000 0.035193 0.000000 0.002028
# 5 -0.008387 0.005621 -0.014315 0.000000 0.077002 0.000000
# 6 0.000000 0.000000 0.000000 0.002028 0.000000 0.033067
#
#
# Mechanical properties :
#
#
# Convention : Reuss Voigt Hill
#
# Bulk Modulus (GPa) = 18.43579 25.29424 21.86501
# Shear Modulus (GPa) = 15.41927 21.42640 18.42283
#
# Velocity S-wave (km/s) = 2.84927 3.35874 3.11444
# Velocity P-wave (km/s) = 4.53111 5.32532 4.94419
#
# Compressibility (1/GPa) = 0.05424232
#
# Stress axis : x y z
#
# Youngs Moduli (GPa) = 28.55295 20.28361 42.99003
#
# Poissons Ratio (x) = 0.19615 -0.13319
# Poissons Ratio (y) = 0.27612 0.86405
# Poissons Ratio (z) = -0.08846 0.40768
#
# Static dielectric constant tensor:
#      x y z
#    x 1.653670 0.000000 -0.009620 
#    y 0.000000 1.633060 0.000000 
#    z -0.009620 0.000000 1.661150 
# 
# From -- ./inp_files/250109.got.cif
#   From: 2010.05.17/outbox.cif.g08.bks.cpg/sg12_126_cif.got.tgz:250109.got - 2010.06.03 13:09:07.
