data_PCOD9207046
_publ_section_title
;
Structure prediction by ZEFSAII (Michael W. Deem and Ramdas Pophale) SiO2 
 PCOD9207046
Probable space group: C 2/M
;
_chemical_formula_sum "Si O2"
_cell_formula_units_Z 64
_cell_length_a 30.674671
_cell_length_b 9.359207
_cell_length_c 13.668010
_cell_angle_alpha 90.000000
_cell_angle_beta 51.479308
_cell_angle_gamma 90.000000
_cell_volume 3070.038485
_symmetry_space_group_name_H-M "C 2/M"
_symmetry_group_IT_number 12
_symmetry_cell_setting 'monoclinic'
loop_
_space_group_symop_operation_xyz
x,y,z
-x,y,-z
-x,-y,-z
x,-y,z
1/2+x,1/2+y,z
1/2-x,1/2+y,-z
1/2-x,1/2-y,-z
1/2+x,1/2-y,z
loop_
_atom_site_type_symbol
_atom_site_label
_atom_site_fract_x
_atom_site_fract_y
_atom_site_fract_z
Si Si1 0.166583 0.833817 0.409347
Si Si2 0.894233 0.661228 0.673938
Si Si3 0.270248 0.830977 0.375834
Si Si4 0.401531 0.168992 0.154031
Si Si5 0.973399 0.162543 0.689899
Si Si6 0.928947 0.168213 0.306576
Si Si7 0.117130 0.163765 0.009473
Si Si8 0.801395 0.335927 0.974844
O O1 0.135717 0.742120 0.371923
O O2 0.229528 0.787633 0.343994
O O3 0.131815 0.822432 0.558906
O O4 0.165483 0.000000 0.380593
O O5 0.908452 0.500000 0.626594
O O6 0.947610 0.744446 0.640029
O O7 0.849235 0.657619 0.825008
O O8 0.250000 0.750000 0.500000
O O9 0.335157 0.810827 0.264743
O O10 0.260769 0.000000 0.403373
O O11 0.431604 0.239639 0.204936
O O12 0.411634 0.253812 0.039859
O O13 0.413190 0.000000 0.129517
O O14 0.028160 0.216478 0.669129
O O15 0.984022 0.000000 0.642310
O O16 0.926278 0.158292 0.840316
O O17 0.940555 0.000000 0.269945
O O18 0.131365 0.000000 0.962958
O O19 0.170436 0.251760 0.974382
O O20 0.786283 0.500000 0.022015
O O21 0.750000 0.250000 0.000000
#
# Coordination Sequence:
#
# PCOD9207046 Si02
#       8
#     8   8   8   8   8   8   8   8
#     4  10  21  37  58  84 114 151 191 230 279 336
#     4  10  22  38  57  84 116 149 186 231 285 339
#     4  10  21  37  57  82 113 151 188 230 281 333
#     4  11  23  37  56  87 120 151 188 232 284 340
#     4   9  20  40  63  84 110 147 192 240 284 330
#     4  10  21  39  62  85 110 148 196 239 280 332
#     4  10  21  38  59  83 112 149 190 235 284 334
#     4  10  21  37  56  82 113 148 190 234 281 336
#
# _framework density 20.846644000000001
#
# number of rings (size 3 to 8) (size 9 to 14) (size 15 to 20)
#    0.000    2.000    1.250    1.500    1.750    5.000 
#    0.000    5.000    0.000    0.000    0.000    0.000 
#    0.000    0.000    0.000    0.000    0.000    0.000 
#
# Total GULP energy -178841.307045 kJ/mol
# GULP energy per Si atom -5588.790845 kJ/mol
# Density = 2.079920 g / cm^3
# Si number density = 20.846644 Si / 1000 Ang^3
#
#
#
# Elastic Constant Matrix: (Units=GPa)
#
#
# Indices 1 2 3 4 5 6 
#
# 1 136.5819 57.6644 4.0237 0.0000 12.7981 0.0000
# 2 57.6644 103.6239 16.6130 0.0000 20.5681 0.0000
# 3 4.0237 16.6130 30.5379 0.0000 10.6229 0.0000
# 4 0.0000 0.0000 0.0000 21.8399 0.0000 9.6717
# 5 12.7981 20.5681 10.6229 0.0000 35.7820 0.0000
# 6 0.0000 0.0000 0.0000 9.6717 0.0000 36.7366
#
#
#
# Elastic Compliance Matrix: (Units=1/GPa)
#
#
# Indices 1 2 3 4 5 6 
#
# 1 0.009684 -0.005541 0.002047 0.000000 -0.000886 0.000000
# 2 -0.005541 0.014564 -0.005543 0.000000 -0.004744 0.000000
# 3 0.002047 -0.005543 0.038627 0.000000 -0.009014 0.000000
# 4 0.000000 0.000000 0.000000 0.051831 0.000000 -0.013646
# 5 -0.000886 -0.004744 -0.009014 0.000000 0.033667 0.000000
# 6 0.000000 0.000000 0.000000 -0.013646 0.000000 0.030813
#
#
# Mechanical properties :
#
#
# Convention : Reuss Voigt Hill
#
# Bulk Modulus (GPa) = 22.32085 47.48287 34.90186
# Shear Modulus (GPa) = 23.56340 31.70120 27.63230
#
# Velocity S-wave (km/s) = 3.36567 3.90383 3.64470
# Velocity P-wave (km/s) = 5.08272 6.56860 5.87284
#
# Compressibility (1/GPa) = 0.04480117
#
# Stress axis : x y z
#
# Youngs Moduli (GPa) = 103.26564 68.66232 25.88850
#
# Poissons Ratio (x) = 0.38046 -0.05299
# Poissons Ratio (y) = 0.57220 0.14349
# Poissons Ratio (z) = -0.21135 0.38057
#
# Static dielectric constant tensor:
#      x y z
#    x 1.739450 0.000000 -0.022070 
#    y 0.000000 1.721620 0.000000 
#    z -0.022070 0.000000 1.762400 
# 
# From -- ./inp_files/249057.got.cif
#   From: 2010.05.17/outbox.cif.g08.bks.cpg/sg12_125_cif.got.tgz:249057.got - 2010.06.03 13:09:07.
