data_PCOD9207176
_publ_section_title
;
Structure prediction by ZEFSAII (Michael W. Deem and Ramdas Pophale) SiO2 
 PCOD9207176
Probable space group: C 2/M
;
_chemical_formula_sum "Si O2"
_cell_formula_units_Z 56
_cell_length_a 19.024746
_cell_length_b 7.843722
_cell_length_c 23.155231
_cell_angle_alpha 90.000000
_cell_angle_beta 52.722882
_cell_angle_gamma 90.000000
_cell_volume 2749.463489
_symmetry_space_group_name_H-M "C 2/M"
_symmetry_group_IT_number 12
_symmetry_cell_setting 'monoclinic'
loop_
_space_group_symop_operation_xyz
x,y,z
-x,y,-z
-x,-y,-z
x,-y,z
1/2+x,1/2+y,z
1/2-x,1/2+y,-z
1/2-x,1/2-y,-z
1/2+x,1/2-y,z
loop_
_atom_site_type_symbol
_atom_site_label
_atom_site_fract_x
_atom_site_fract_y
_atom_site_fract_z
Si Si1 0.014618 0.300074 0.373900
Si Si2 0.846162 0.795560 0.929976
Si Si3 0.625347 0.708199 0.769903
Si Si4 0.324334 0.694885 0.508447
Si Si5 0.817328 0.301983 0.641064
Si Si6 0.962480 0.793058 0.768492
Si Si7 0.505119 0.708407 0.932044
O O1 0.001964 0.500000 0.393964
O O2 0.921055 0.213185 0.432726
O O3 0.094392 0.229012 0.373586
O O4 0.039026 0.279576 0.294732
O O5 0.880513 0.737888 0.849965
O O6 0.918825 0.735851 0.939854
O O7 0.851847 0.000000 0.925553
O O8 0.750000 0.750000 0.000000
O O9 0.626647 0.500000 0.767712
O O10 0.723301 0.772158 0.707775
O O11 0.552110 0.756879 0.758364
O O12 0.588090 0.759299 0.851138
O O13 0.307516 0.500000 0.532302
O O14 0.250000 0.750000 0.500000
O O15 0.321696 0.794787 0.569867
O O16 0.816391 0.500000 0.659919
O O17 0.962346 0.000000 0.764407
O O18 0.505525 0.500000 0.933113
O O19 0.500000 0.768988 0.000000
#
# Coordination Sequence:
#
# PCOD9207176 Si02
#       7
#     8   8   8   8   8   8   8
#     4  11  23  37  56  85 116 143 178 225 273 325
#     4   9  18  31  49  75 105 139 180 227 278 330
#     4   8  15  30  51  73  99 136 177 218 267 318
#     4  12  25  41  62  84 109 144 184 223 268 324
#     4  10  21  37  57  83 114 143 177 225 275 325
#     4   9  18  34  54  75 104 144 187 226 270 331
#     4   8  14  26  47  74 101 131 174 222 264 315
#
# _framework density 20.367609000000002
#
# number of rings (size 3 to 8) (size 9 to 14) (size 15 to 20)
#    0.000    2.429    0.000    4.714    0.000    5.714 
#    0.000    2.857    0.000    1.286    0.000    0.000 
#    0.000    0.000    0.000    0.000    0.000    0.000 
#
# Total GULP energy -156273.023321 kJ/mol
# GULP energy per Si atom -5581.179404 kJ/mol
# Density = 2.032125 g / cm^3
# Si number density = 20.367609 Si / 1000 Ang^3
#
#
#
# Elastic Constant Matrix: (Units=GPa)
#
#
# Indices 1 2 3 4 5 6 
#
# 1 128.6840 -2.7288 88.0705 0.0000 -5.6027 0.0007
# 2 -2.7288 26.7609 -14.0152 0.0001 -6.8209 0.0012
# 3 88.0705 -14.0152 154.5040 0.0001 -8.8649 0.0000
# 4 0.0000 0.0001 0.0001 22.9141 0.0000 -1.3493
# 5 -5.6027 -6.8209 -8.8649 0.0000 39.5617 0.0000
# 6 0.0007 0.0012 0.0000 -1.3493 0.0000 11.7774
#
#
#
# Elastic Compliance Matrix: (Units=1/GPa)
#
#
# Indices 1 2 3 4 5 6 
#
# 1 0.012925 -0.002775 -0.007640 0.000000 -0.000360 -0.000001
# 2 -0.002775 0.042261 0.005887 0.000000 0.008212 -0.000004
# 3 -0.007640 0.005887 0.011505 0.000000 0.002511 0.000000
# 4 0.000000 0.000000 0.000000 0.043938 0.000000 0.005034
# 5 -0.000360 0.008212 0.002511 0.000000 0.027205 -0.000001
# 6 -0.000001 -0.000004 0.000000 0.005034 -0.000001 0.085485
#
#
# Mechanical properties :
#
#
# Convention : Reuss Voigt Hill
#
# Bulk Modulus (GPa) = 17.35066 50.28910 33.81988
# Shear Modulus (GPa) = 19.87380 30.75881 25.31630
#
# Velocity S-wave (km/s) = 3.12710 3.89032 3.52940
# Velocity P-wave (km/s) = 4.64495 6.70252 5.76625
#
# Compressibility (1/GPa) = 0.05763469
#
# Stress axis : x y z
#
# Youngs Moduli (GPa) = 77.36800 23.66245 86.91615
#
# Poissons Ratio (x) = 0.06566 0.66404
# Poissons Ratio (y) = 0.21469 -0.51163
# Poissons Ratio (z) = 0.59109 -0.13929
#
# Static dielectric constant tensor:
#      x y z
#    x 1.886680 0.000000 0.074070 
#    y 0.000000 1.781720 0.000000 
#    z 0.074070 0.000000 1.760270 
# 
# From -- ./inp_files/342324.got.cif
#   From: 2010.05.17/outbox.cif.g08.bks.cpg/sg12_172_cif.got.tgz:342324.got - 2010.06.03 13:09:07.
