data_PCOD9207921
_publ_section_title
;
Structure prediction by ZEFSAII (Michael W. Deem and Ramdas Pophale) SiO2 
 PCOD9207921
Probable space group: C 2/M
;
_chemical_formula_sum "Si O2"
_cell_formula_units_Z 48
_cell_length_a 8.258826
_cell_length_b 14.090941
_cell_length_c 24.744783
_cell_angle_alpha 90.000000
_cell_angle_beta 133.615885
_cell_angle_gamma 90.000000
_cell_volume 2084.821682
_symmetry_space_group_name_H-M "C 2/M"
_symmetry_group_IT_number 12
_symmetry_cell_setting 'monoclinic'
loop_
_space_group_symop_operation_xyz
x,y,z
-x,y,-z
-x,-y,-z
x,-y,z
1/2+x,1/2+y,z
1/2-x,1/2+y,-z
1/2-x,1/2-y,-z
1/2+x,1/2-y,z
loop_
_atom_site_type_symbol
_atom_site_label
_atom_site_fract_x
_atom_site_fract_y
_atom_site_fract_z
Si Si1 0.263032 0.287933 0.442680
Si Si2 0.904884 0.723247 0.085914
Si Si3 0.337094 0.606260 0.196946
Si Si4 0.195048 0.109971 0.138641
Si Si5 0.708748 0.807716 0.656368
Si Si6 0.187140 0.600903 0.287887
O O1 0.500000 0.340774 0.500000
O O2 0.250000 0.250000 0.500000
O O3 0.268315 0.196589 0.403166
O O4 0.031939 0.344048 0.379698
O O5 0.768718 0.663175 0.099546
O O6 0.129420 0.663119 0.123026
O O7 0.009793 0.825882 0.125593
O O8 0.750000 0.750000 0.000000
O O9 0.358672 0.500000 0.179672
O O10 0.580180 0.652790 0.262450
O O11 0.250960 0.599639 0.239315
O O12 0.419034 0.110554 0.225926
O O13 0.132813 0.000000 0.114192
O O14 0.706717 0.694303 0.664466
O O15 0.254653 0.500000 0.327267
#
# Coordination Sequence:
#
# PCOD9207921 Si02
#       6
#     8   8   8   8   8   8
#     4   9  20  34  57  91 123 157 196 240 307 377
#     4  11  22  38  63  91 128 171 211 265 330 385
#     4  10  21  37  60  91 121 160 214 262 309 375
#     4  10  22  41  63  90 127 167 214 269 324 383
#     4  11  17  35  64  83 116 164 201 247 308 364
#     4   9  18  34  59  88 115 151 203 257 306 359
#
# _framework density 23.023551000000001
#
# number of rings (size 3 to 8) (size 9 to 14) (size 15 to 20)
#    0.000    2.000    3.333    2.000    0.000    2.000 
#    0.000    2.500    0.000   25.000    0.000    0.000 
#    0.000    0.000    0.000    0.000    0.000    0.000 
#
# Total GULP energy -133827.296136 kJ/mol
# GULP energy per Si atom -5576.137339 kJ/mol
# Density = 2.297115 g / cm^3
# Si number density = 23.023551 Si / 1000 Ang^3
#
#
#
# Elastic Constant Matrix: (Units=GPa)
#
#
# Indices 1 2 3 4 5 6 
#
# 1 83.5618 21.1376 44.1672 0.0000 15.7259 0.0000
# 2 21.1376 143.3784 45.5630 0.0000 8.2733 0.0000
# 3 44.1672 45.5630 150.8419 0.0000 24.0100 0.0000
# 4 0.0000 0.0000 0.0000 -0.3842 0.0000 -7.3750
# 5 15.7259 8.2733 24.0100 0.0000 42.6726 0.0000
# 6 0.0000 0.0000 0.0000 -7.3750 0.0000 17.2961
#
#
#
# Elastic Compliance Matrix: (Units=1/GPa)
#
#
# Indices 1 2 3 4 5 6 
#
# 1 0.014654 -0.000856 -0.003514 0.000000 -0.003257 0.000000
# 2 -0.000856 0.007767 -0.002093 0.000000 -0.000013 0.000000
# 3 -0.003514 -0.002093 0.008809 0.000000 -0.003256 0.000000
# 4 0.000000 0.000000 0.000000 -0.283378 0.000000 -0.120832
# 5 -0.003257 -0.000013 -0.003256 0.000000 0.026469 0.000000
# 6 0.000000 0.000000 0.000000 -0.120832 0.000000 0.006294
#
#
# Mechanical properties :
#
#
# Convention : Reuss Voigt Hill
#
# Bulk Modulus (GPa) = 54.63430 66.61307 60.62369
# Shear Modulus (GPa) = -24.95533 29.71118 2.37793
#
# Velocity S-wave (km/s) = -3.29584 3.59621 1.01738
# Velocity P-wave (km/s) = 3.04923 6.79993 5.26957
#
# Compressibility (1/GPa) = 0.01830352
#
# Stress axis : x y z
#
# Youngs Moduli (GPa) = 68.24118 128.75503 113.52244
#
# Poissons Ratio (x) = 0.11019 0.39889
# Poissons Ratio (y) = 0.05840 0.23765
# Poissons Ratio (z) = 0.23978 0.26954
#
# Static dielectric constant tensor:
#      x y z
#    x 2.030210 0.000000 -0.021460 
#    y 0.000000 1.869190 0.000000 
#    z -0.021460 0.000000 1.877910 
# 
# From -- ./inp_files/372413.got.cif
#   From: 2010.05.17/outbox.cif.g08.bks.cpg/sg12_187_cif.got.tgz:372413.got - 2010.06.03 13:09:07.
