data_PCOD9207796
_publ_section_title
;
Structure prediction by ZEFSAII (Michael W. Deem and Ramdas Pophale) SiO2 
 PCOD9207796
Probable space group: C 2/M
;
_chemical_formula_sum "Si O2"
_cell_formula_units_Z 48
_cell_length_a 22.459330
_cell_length_b 9.307172
_cell_length_c 19.119365
_cell_angle_alpha 90.000000
_cell_angle_beta 142.445539
_cell_angle_gamma 90.000000
_cell_volume 2435.973616
_symmetry_space_group_name_H-M "C 2/M"
_symmetry_group_IT_number 12
_symmetry_cell_setting 'monoclinic'
loop_
_space_group_symop_operation_xyz
x,y,z
-x,y,-z
-x,-y,-z
x,-y,z
1/2+x,1/2+y,z
1/2-x,1/2+y,-z
1/2-x,1/2-y,-z
1/2+x,1/2-y,z
loop_
_atom_site_type_symbol
_atom_site_label
_atom_site_fract_x
_atom_site_fract_y
_atom_site_fract_z
Si Si1 0.061297 0.169827 0.212848
Si Si2 0.656213 0.670691 0.445358
Si Si3 0.588267 0.167800 0.635787
Si Si4 0.277758 0.830139 0.365207
Si Si5 0.846395 0.168414 0.172557
Si Si6 0.125087 0.668482 0.947196
O O1 0.075622 0.192510 0.310178
O O2 0.164901 0.211032 0.274036
O O3 0.966984 0.257383 0.101686
O O4 0.047200 0.000000 0.188361
O O5 0.671315 0.500000 0.465644
O O6 0.750000 0.750000 0.500000
O O7 0.651482 0.742662 0.516709
O O8 0.500000 0.195137 0.500000
O O9 0.685228 0.188006 0.678881
O O10 0.592416 0.267712 0.706803
O O11 0.582170 0.000000 0.651471
O O12 0.285934 0.000000 0.390621
O O13 0.863264 0.255341 0.117163
O O14 0.866897 0.000000 0.180447
O O15 0.730637 0.184502 0.081629
O O16 0.106301 0.500000 0.920210
#
# Coordination Sequence:
#
# PCOD9207796 Si02
#       6
#     8   8   8   8   8   8
#     4   9  18  32  52  80 111 145 184 228 278 330
#     4   9  17  29  47  74 108 144 181 222 270 320
#     4  10  22  39  59  84 113 149 189 227 273 334
#     4   9  19  35  52  77 114 148 183 227 275 331
#     4  10  22  40  59  83 113 145 185 232 281 333
#     4  10  21  37  60  85 110 144 186 234 282 328
#
# _framework density 19.704647000000001
#
# number of rings (size 3 to 8) (size 9 to 14) (size 15 to 20)
#    0.000    2.500    0.000    2.500    2.333    6.333 
#    0.000    0.833    0.000    5.000    0.000    0.000 
#    0.000    0.000    0.000    0.000    0.000    0.000 
#
# Total GULP energy -133898.866300 kJ/mol
# GULP energy per Si atom -5579.119429 kJ/mol
# Density = 1.965980 g / cm^3
# Si number density = 19.704647 Si / 1000 Ang^3
#
#
#
# Elastic Constant Matrix: (Units=GPa)
#
#
# Indices 1 2 3 4 5 6 
#
# 1 44.8711 14.7552 16.4679 0.0000 15.3216 0.0000
# 2 14.7552 56.7969 39.3536 0.0000 6.4530 0.0000
# 3 16.4679 39.3536 60.2298 0.0000 15.6588 0.0000
# 4 0.0000 0.0000 0.0000 32.4833 0.0000 3.8408
# 5 15.3216 6.4530 15.6588 0.0000 31.8249 0.0000
# 6 0.0000 0.0000 0.0000 3.8408 0.0000 17.5685
#
#
#
# Elastic Compliance Matrix: (Units=1/GPa)
#
#
# Indices 1 2 3 4 5 6 
#
# 1 0.028581 -0.005141 -0.001318 0.000000 -0.012069 0.000000
# 2 -0.005141 0.033637 -0.022295 0.000000 0.006624 0.000000
# 3 -0.001318 -0.022295 0.034619 0.000000 -0.011878 0.000000
# 4 0.000000 0.000000 0.000000 0.031602 0.000000 -0.006909
# 5 -0.012069 0.006624 -0.011878 0.000000 0.041734 0.000000
# 6 0.000000 0.000000 0.000000 -0.006909 0.000000 0.058430
#
#
# Mechanical properties :
#
#
# Convention : Reuss Voigt Hill
#
# Bulk Modulus (GPa) = 25.42566 33.67237 29.54902
# Shear Modulus (GPa) = 16.71010 22.46342 19.58676
#
# Velocity S-wave (km/s) = 2.91525 3.38006 3.15622
# Velocity P-wave (km/s) = 4.92575 5.68847 5.32079
#
# Compressibility (1/GPa) = 0.03933034
#
# Stress axis : x y z
#
# Youngs Moduli (GPa) = 34.98793 29.72909 28.88608
#
# Poissons Ratio (x) = 0.15283 0.03807
# Poissons Ratio (y) = 0.17986 0.64401
# Poissons Ratio (z) = 0.04611 0.66280
#
# Static dielectric constant tensor:
#      x y z
#    x 1.728180 0.000000 0.034510 
#    y 0.000000 1.657070 0.000000 
#    z 0.034510 0.000000 1.705720 
# 
# From -- ./inp_files/327320.got.cif
#   From: 2010.05.17/outbox.cif.g08.bks.cpg/sg12_164_cif.got.tgz:327320.got - 2010.06.03 13:09:07.
