data_PCOD9207018
_publ_section_title
;
Structure prediction by ZEFSAII (Michael W. Deem and Ramdas Pophale) SiO2 
 PCOD9207018
Probable space group: C 2/M
;
_chemical_formula_sum "Si O2"
_cell_formula_units_Z 64
_cell_length_a 25.085469
_cell_length_b 8.835399
_cell_length_c 30.106589
_cell_angle_alpha 90.000000
_cell_angle_beta 148.963248
_cell_angle_gamma 90.000000
_cell_volume 3440.428782
_symmetry_space_group_name_H-M "C 2/M"
_symmetry_group_IT_number 12
_symmetry_cell_setting 'monoclinic'
loop_
_space_group_symop_operation_xyz
x,y,z
-x,y,-z
-x,-y,-z
x,-y,z
1/2+x,1/2+y,z
1/2-x,1/2+y,-z
1/2-x,1/2-y,-z
1/2+x,1/2-y,z
loop_
_atom_site_type_symbol
_atom_site_label
_atom_site_fract_x
_atom_site_fract_y
_atom_site_fract_z
Si Si1 0.903103 0.182018 0.673276
Si Si2 0.116463 0.682927 0.069928
Si Si3 0.505448 0.318188 0.357854
Si Si4 0.694450 0.818941 0.743967
Si Si5 0.901882 0.817568 0.130135
Si Si6 0.692277 0.319181 0.555498
Si Si7 0.380562 0.817545 0.407509
Si Si8 0.187788 0.682419 0.022337
O O1 0.948051 0.218122 0.656944
O O2 0.794183 0.259299 0.604197
O O3 0.989485 0.228001 0.770924
O O4 0.890404 0.000000 0.666631
O O5 0.122060 0.500000 0.075044
O O6 0.198881 0.748995 0.163184
O O7 0.149600 0.731646 0.043681
O O8 0.000000 0.727319 0.000000
O O9 0.490445 0.500000 0.349299
O O10 0.397486 0.238422 0.290070
O O11 0.589772 0.272863 0.455005
O O12 0.662063 0.771576 0.670982
O O13 0.700190 0.000000 0.749123
O O14 0.879787 0.747962 0.066258
O O15 0.900615 0.000000 0.125776
O O16 0.806199 0.774950 0.094415
O O17 0.693951 0.500000 0.558242
O O18 0.684784 0.251454 0.599205
O O19 0.500000 0.770342 0.500000
O O20 0.377247 0.000000 0.407712
O O21 0.182266 0.500000 0.017270
#
# Coordination Sequence:
#
# PCOD9207018 Si02
#       8
#     8   8   8   8   8   8   8   8
#     4  10  21  37  56  80 117 158 189 227 288 351
#     4  10  22  40  60  83 115 153 188 231 291 350
#     4  10  21  38  59  83 115 153 192 235 286 344
#     4  11  23  38  62  90 113 149 196 243 291 340
#     4   9  18  33  55  81 107 143 186 228 276 333
#     4  11  23  36  56  86 115 149 194 243 285 330
#     4  10  21  40  61  82 115 154 191 234 289 349
#     4   9  18  35  58  81 109 143 182 228 282 337
#
# _framework density 18.602333000000002
#
# number of rings (size 3 to 8) (size 9 to 14) (size 15 to 20)
#    0.000    2.000    1.250    1.875    0.000    6.500 
#    0.000    5.000    0.000    0.000    0.000    0.000 
#    0.000    0.000    0.000    0.000    0.000    0.000 
#
# Total GULP energy -178731.292770 kJ/mol
# GULP energy per Si atom -5585.352899 kJ/mol
# Density = 1.855999 g / cm^3
# Si number density = 18.602333 Si / 1000 Ang^3
#
#
#
# Elastic Constant Matrix: (Units=GPa)
#
#
# Indices 1 2 3 4 5 6 
#
# 1 89.0129 29.8667 73.1271 -0.0001 -5.4407 -0.0001
# 2 29.8667 7.3647 28.5549 -0.0003 2.3000 -0.0014
# 3 73.1271 28.5549 129.1416 0.0000 9.3308 0.0000
# 4 -0.0001 -0.0003 0.0000 31.2839 0.0000 3.1337
# 5 -5.4407 2.3000 9.3308 0.0000 25.1446 0.0000
# 6 -0.0001 -0.0014 0.0000 3.1337 0.0000 21.9251
#
#
#
# Elastic Compliance Matrix: (Units=1/GPa)
#
#
# Indices 1 2 3 4 5 6 
#
# 1 -0.007208 0.094864 -0.016600 0.000000 -0.004077 0.000006
# 2 0.094864 -0.294907 0.008280 -0.000001 0.044429 -0.000018
# 3 -0.016600 0.008280 0.016057 0.000000 -0.010308 0.000000
# 4 0.000000 -0.000001 0.000000 0.032430 0.000000 -0.004635
# 5 -0.004077 0.044429 -0.010308 0.000000 0.038649 0.000003
# 6 0.000006 -0.000018 0.000000 -0.004635 0.000003 0.046272
#
#
# Mechanical properties :
#
#
# Convention : Reuss Voigt Hill
#
# Bulk Modulus (GPa) = -8.85203 54.29074 22.71935
# Shear Modulus (GPa) = -13.17689 21.93543 4.37927
#
# Velocity S-wave (km/s) = -2.66437 3.43764 1.53599
# Velocity P-wave (km/s) = 3.77280 6.70856 3.92242
#
# Compressibility (1/GPa) = -0.11296841
#
# Stress axis : x y z
#
# Youngs Moduli (GPa) = -138.74345 -3.39090 62.27834
#
# Poissons Ratio (x) = 0.32167 1.03380
# Poissons Ratio (y) = 13.16173 -0.51569
# Poissons Ratio (z) = -2.30310 0.02808
#
# Static dielectric constant tensor:
#      x y z
#    x 1.626170 0.000000 -0.008370 
#    y 0.000000 1.624350 0.000000 
#    z -0.008370 0.000000 1.625860 
# 
# From -- ./inp_files/238794.got.cif
#   From: 2010.05.17/outbox.cif.g08.bks.cpg/sg12_120_cif.got.tgz:238794.got - 2010.06.03 13:09:07.
