data_PCOD9207077
_publ_section_title
;
Structure prediction by ZEFSAII (Michael W. Deem and Ramdas Pophale) SiO2 
 PCOD9207077
Probable space group: C 2/M
;
_chemical_formula_sum "Si O2"
_cell_formula_units_Z 64
_cell_length_a 18.485892
_cell_length_b 27.421304
_cell_length_c 10.008872
_cell_angle_alpha 90.000000
_cell_angle_beta 39.893748
_cell_angle_gamma 90.000000
_cell_volume 3254.014823
_symmetry_space_group_name_H-M "C 2/M"
_symmetry_group_IT_number 12
_symmetry_cell_setting 'monoclinic'
loop_
_space_group_symop_operation_xyz
x,y,z
-x,y,-z
-x,-y,-z
x,-y,z
1/2+x,1/2+y,z
1/2-x,1/2+y,-z
1/2-x,1/2-y,-z
1/2+x,1/2-y,z
loop_
_atom_site_type_symbol
_atom_site_label
_atom_site_fract_x
_atom_site_fract_y
_atom_site_fract_z
Si Si1 0.096492 0.295495 0.759209
Si Si2 0.116302 0.444537 0.089449
Si Si3 0.725258 0.404873 0.682660
Si Si4 0.526981 0.371649 0.607778
Si Si5 0.732395 0.556678 0.375063
Si Si6 0.958398 0.356942 0.412180
Si Si7 0.839383 0.053209 0.957638
Si Si8 0.146319 0.184153 0.653810
O O1 0.051060 0.312552 0.678907
O O2 0.118879 0.237858 0.743478
O O3 0.223905 0.317359 0.586437
O O4 0.000000 0.311329 0.000000
O O5 0.068102 0.500000 0.168426
O O6 0.035359 0.400772 0.245861
O O7 0.161814 0.437423 0.874139
O O8 0.224109 0.443201 0.036264
O O9 0.752545 0.429408 0.501123
O O10 0.834542 0.380283 0.592924
O O11 0.642653 0.359689 0.765607
O O12 0.680201 0.441842 0.856348
O O13 0.500000 0.352894 0.500000
O O14 0.633334 0.408633 0.461251
O O15 0.421368 0.403399 0.803172
O O16 0.559775 0.329029 0.660921
O O17 0.699068 0.500000 0.413958
O O18 0.000000 0.342859 0.500000
O O19 0.889107 0.000000 0.855716
#
# Coordination Sequence:
#
# PCOD9207077 Si02
#       8
#     8   8   8   8   8   8   8   8
#     4  10  23  42  71  89 119 158 197 252 311 377
#     4  10  22  37  59  90 127 163 207 247 296 362
#     4  10  22  39  61  86 124 160 199 261 298 369
#     4  11  22  36  62  87 124 163 204 257 298 363
#     4  10  21  37  56  84 121 160 202 250 293 352
#     4  11  23  40  62  90 123 160 204 252 308 356
#     4  11  22  36  58  91 126 169 210 246 305 363
#     4   9  23  43  61  94 121 152 201 250 316 362
#
# _framework density 19.668012000000001
#
# number of rings (size 3 to 8) (size 9 to 14) (size 15 to 20)
#    0.000    1.750    2.500    0.750    7.000    3.750 
#    0.000    4.375    0.000    3.750    0.000    0.000 
#    0.000    0.000    0.000    0.000    0.000    0.000 
#
# Total GULP energy -178608.502245 kJ/mol
# GULP energy per Si atom -5581.515695 kJ/mol
# Density = 1.962325 g / cm^3
# Si number density = 19.668012 Si / 1000 Ang^3
#
#
#
# Elastic Constant Matrix: (Units=GPa)
#
#
# Indices 1 2 3 4 5 6 
#
# 1 85.0439 -7.9760 11.0239 0.0000 10.2307 0.0000
# 2 -7.9760 45.2310 -3.1294 0.0000 -0.5342 0.0000
# 3 11.0239 -3.1294 44.4475 0.0000 9.1478 0.0000
# 4 0.0000 0.0000 0.0000 25.6236 0.0000 6.9171
# 5 10.2307 -0.5342 9.1478 0.0000 23.6904 0.0000
# 6 0.0000 0.0000 0.0000 6.9171 0.0000 31.9482
#
#
#
# Elastic Compliance Matrix: (Units=1/GPa)
#
#
# Indices 1 2 3 4 5 6 
#
# 1 0.012781 0.002056 -0.002063 0.000000 -0.004677 0.000000
# 2 0.002056 0.022548 0.001255 0.000000 -0.000864 0.000000
# 3 -0.002063 0.001255 0.024887 0.000000 -0.008691 0.000000
# 4 0.000000 0.000000 0.000000 0.041449 0.000000 -0.008974
# 5 -0.004677 -0.000864 -0.008691 0.000000 0.047567 0.000000
# 6 0.000000 0.000000 0.000000 -0.008974 0.000000 0.033244
#
#
# Mechanical properties :
#
#
# Convention : Reuss Voigt Hill
#
# Bulk Modulus (GPa) = 15.94548 19.39549 17.67048
# Shear Modulus (GPa) = 24.89003 27.90605 26.39804
#
# Velocity S-wave (km/s) = 3.56126 3.77086 3.66755
# Velocity P-wave (km/s) = 5.00350 5.37047 5.19023
#
# Compressibility (1/GPa) = 0.06271372
#
# Stress axis : x y z
#
# Youngs Moduli (GPa) = 78.23837 44.34995 40.18147
#
# Poissons Ratio (x) = -0.09118 0.08289
# Poissons Ratio (y) = -0.16085 -0.05045
# Poissons Ratio (z) = 0.16139 -0.05568
#
# Static dielectric constant tensor:
#      x y z
#    x 1.675190 0.000000 0.001020 
#    y 0.000000 1.670380 0.000000 
#    z 0.001020 0.000000 1.721270 
# 
# From -- ./inp_files/80700.got.cif
#   From: 2010.05.17/outbox.cif.g08.bks.cpg/sg12_41_cif.got.tgz:80700.got - 2010.06.03 13:09:07.
