data_PCOD9207231
_publ_section_title
;
Structure prediction by ZEFSAII (Michael W. Deem and Ramdas Pophale) SiO2 
 PCOD9207231
Probable space group: C 2/M
;
_chemical_formula_sum "Si O2"
_cell_formula_units_Z 56
_cell_length_a 29.187729
_cell_length_b 8.742613
_cell_length_c 14.535790
_cell_angle_alpha 90.000000
_cell_angle_beta 60.412300
_cell_angle_gamma 90.000000
_cell_volume 3225.523450
_symmetry_space_group_name_H-M "C 2/M"
_symmetry_group_IT_number 12
_symmetry_cell_setting 'monoclinic'
loop_
_space_group_symop_operation_xyz
x,y,z
-x,y,-z
-x,-y,-z
x,-y,z
1/2+x,1/2+y,z
1/2-x,1/2+y,-z
1/2-x,1/2-y,-z
1/2+x,1/2-y,z
loop_
_atom_site_type_symbol
_atom_site_label
_atom_site_fract_x
_atom_site_fract_y
_atom_site_fract_z
Si Si1 0.447531 0.816286 0.995284
Si Si2 0.648648 0.179635 0.433938
Si Si3 0.139971 0.823934 0.794050
Si Si4 0.556920 0.316349 0.397802
Si Si5 0.973393 0.683179 0.759072
Si Si6 0.754542 0.318064 0.391736
Si Si7 0.912328 0.825003 0.349546
O O1 0.394852 0.745712 0.090193
O O2 0.445017 0.000000 0.007830
O O3 0.500000 0.765406 0.000000
O O4 0.453016 0.781007 0.881741
O O5 0.605163 0.255283 0.410928
O O6 0.705697 0.256972 0.379734
O O7 0.625987 0.212972 0.558080
O O8 0.652545 0.000000 0.412290
O O9 0.191786 0.734015 0.710876
O O10 0.101856 0.821467 0.743013
O O11 0.154177 0.000000 0.798814
O O12 0.500000 0.273775 0.500000
O O13 0.558387 0.500000 0.390962
O O14 0.560207 0.242676 0.293411
O O15 0.980511 0.500000 0.745889
O O16 0.028941 0.768507 0.693533
O O17 0.751967 0.500000 0.402404
O O18 0.750000 0.250000 0.500000
O O19 0.905362 0.000000 0.390037
#
# Coordination Sequence:
#
# PCOD9207231 Si02
#       7
#     8   8   8   8   8   8   8
#     4  10  21  37  57  84 118 155 195 239 289 344
#     4  12  24  38  59  85 117 154 195 238 288 348
#     4  11  23  37  57  85 119 156 197 238 286 345
#     4  11  23  38  58  84 118 154 193 240 291 348
#     4  11  22  36  57  84 117 156 199 240 287 346
#     4  12  24  39  60  85 118 155 194 238 290 344
#     4  11  21  33  53  83 120 155 192 237 285 342
#
# _framework density 17.361522000000001
#
# number of rings (size 3 to 8) (size 9 to 14) (size 15 to 20)
#    0.000    0.857    4.286    4.286    0.000    3.143 
#    0.000    0.000    0.000    0.857    0.000    0.000 
#    0.000    0.000    0.000    0.000    0.000    0.000 
#
# Total GULP energy -156441.555259 kJ/mol
# GULP energy per Si atom -5587.198402 kJ/mol
# Density = 1.732201 g / cm^3
# Si number density = 17.361522 Si / 1000 Ang^3
#
#
#
# Elastic Constant Matrix: (Units=GPa)
#
#
# Indices 1 2 3 4 5 6 
#
# 1 97.7496 37.3879 33.2767 0.0000 -1.4124 0.0000
# 2 37.3879 84.2006 29.2073 0.0000 1.0915 0.0000
# 3 33.2767 29.2073 79.3195 0.0000 1.0904 0.0000
# 4 0.0000 0.0000 0.0000 27.7711 0.0000 0.0309
# 5 -1.4124 1.0915 1.0904 0.0000 29.4171 0.0000
# 6 0.0000 0.0000 0.0000 0.0309 0.0000 29.5495
#
#
#
# Elastic Compliance Matrix: (Units=1/GPa)
#
#
# Indices 1 2 3 4 5 6 
#
# 1 0.013327 -0.004570 -0.003921 0.000000 0.000955 0.000000
# 2 -0.004570 0.015185 -0.003666 0.000000 -0.000647 0.000000
# 3 -0.003921 -0.003666 0.015611 0.000000 -0.000631 0.000000
# 4 0.000000 0.000000 0.000000 0.036009 0.000000 -0.000038
# 5 0.000955 -0.000647 -0.000631 0.000000 0.034087 0.000000
# 6 0.000000 0.000000 0.000000 -0.000038 0.000000 0.033842
#
#
# Mechanical properties :
#
#
# Convention : Reuss Voigt Hill
#
# Bulk Modulus (GPa) = 50.48059 51.22373 50.85216
# Shear Modulus (GPa) = 27.93655 28.10739 28.02197
#
# Velocity S-wave (km/s) = 4.01572 4.02798 4.02185
# Velocity P-wave (km/s) = 7.11622 7.15549 7.13588
#
# Compressibility (1/GPa) = 0.01980959
#
# Stress axis : x y z
#
# Youngs Moduli (GPa) = 75.03665 65.85277 64.05806
#
# Poissons Ratio (x) = 0.30093 0.25120
# Poissons Ratio (y) = 0.34289 0.23481
# Poissons Ratio (z) = 0.29425 0.24139
#
# Static dielectric constant tensor:
#      x y z
#    x 1.594470 0.000000 0.000580 
#    y 0.000000 1.589200 0.000000 
#    z 0.000580 0.000000 1.575800 
# 
# From -- ./inp_files/248899.got.cif
#   From: 2010.05.17/outbox.cif.g08.bks.cpg/sg12_125_cif.got.tgz:248899.got - 2010.06.03 13:09:07.
