data_PCOD9207004
_publ_section_title
;
Structure prediction by ZEFSAII (Michael W. Deem and Ramdas Pophale) SiO2 
 PCOD9207004
Probable space group: C 2/M
;
_chemical_formula_sum "Si O2"
_cell_formula_units_Z 56
_cell_length_a 16.423849
_cell_length_b 7.930585
_cell_length_c 19.608650
_cell_angle_alpha 90.000000
_cell_angle_beta 119.594040
_cell_angle_gamma 90.000000
_cell_volume 2220.856904
_symmetry_space_group_name_H-M "C 2/M"
_symmetry_group_IT_number 12
_symmetry_cell_setting 'monoclinic'
loop_
_space_group_symop_operation_xyz
x,y,z
-x,y,-z
-x,-y,-z
x,-y,z
1/2+x,1/2+y,z
1/2-x,1/2+y,-z
1/2-x,1/2-y,-z
1/2+x,1/2-y,z
loop_
_atom_site_type_symbol
_atom_site_label
_atom_site_fract_x
_atom_site_fract_y
_atom_site_fract_z
Si Si1 0.185516 0.298553 0.331757
Si Si2 0.991283 0.197177 0.097715
Si Si3 0.857549 0.702405 0.474857
Si Si4 0.966028 0.703505 0.234188
Si Si5 0.691413 0.698057 0.041151
Si Si6 0.540522 0.793995 0.622092
Si Si7 0.203286 0.693519 0.192488
O O1 0.188554 0.500000 0.327292
O O2 0.250080 0.253485 0.422302
O O3 0.076529 0.256564 0.291095
O O4 0.222959 0.224783 0.274700
O O5 0.943709 0.212696 0.153004
O O6 0.089271 0.293321 0.141864
O O7 0.013395 0.000000 0.093222
O O8 0.914106 0.266252 0.013426
O O9 0.859380 0.500000 0.478384
O O10 0.933299 0.760539 0.561655
O O11 0.901519 0.758807 0.420076
O O12 0.954715 0.500000 0.222117
O O13 0.923027 0.759936 0.288698
O O14 0.680220 0.500000 0.032511
O O15 0.734455 0.734701 0.132749
O O16 0.750000 0.750000 0.000000
O O17 0.540391 0.000000 0.623378
O O18 0.231472 0.500000 0.205551
#
# Coordination Sequence:
#
# PCOD9207004 Si02
#       7
#     8   8   8   8   8   8   8
#     4   9  19  33  49  74 105 132 164 210 258 305
#     4  10  21  37  56  80 108 136 173 222 267 310
#     4   9  17  31  52  74  98 133 173 213 257 307
#     4   9  18  34  54  74 100 137 175 211 256 312
#     4  11  24  39  56  81 112 142 175 219 264 308
#     4   8  16  32  51  72  99 132 174 216 253 302
#     4  10  21  38  59  80 106 142 178 214 262 319
#
# _framework density 25.215491
#
# number of rings (size 3 to 8) (size 9 to 14) (size 15 to 20)
#    0.000    2.571    0.000    3.429    0.000    8.571 
#    0.000    5.714    0.000    0.000    0.000    0.000 
#    0.000    0.000    0.000    0.000    0.000    0.000 
#
# Total GULP energy -156450.447089 kJ/mol
# GULP energy per Si atom -5587.515967 kJ/mol
# Density = 2.515810 g / cm^3
# Si number density = 25.215491 Si / 1000 Ang^3
#
#
#
# Elastic Constant Matrix: (Units=GPa)
#
#
# Indices 1 2 3 4 5 6 
#
# 1 51.3327 1.9005 8.7136 0.0000 -9.5019 0.0000
# 2 1.9005 21.1962 -3.5676 0.0000 -1.2863 0.0000
# 3 8.7136 -3.5676 154.2524 0.0000 -7.9596 0.0000
# 4 0.0000 0.0000 0.0000 17.8748 0.0000 6.4829
# 5 -9.5019 -1.2863 -7.9596 0.0000 52.7178 0.0000
# 6 0.0000 0.0000 0.0000 6.4829 0.0000 10.3431
#
#
#
# Elastic Compliance Matrix: (Units=1/GPa)
#
#
# Indices 1 2 3 4 5 6 
#
# 1 0.020362 -0.001785 -0.001012 0.000000 0.003474 0.000000
# 2 -0.001785 0.047612 0.001255 0.000000 0.001029 0.000000
# 3 -0.001012 0.001255 0.006613 0.000000 0.000847 0.000000
# 4 0.000000 0.000000 0.000000 0.072403 0.000000 -0.045381
# 5 0.003474 0.001029 0.000847 0.000000 0.019748 0.000000
# 6 0.000000 0.000000 0.000000 -0.045381 0.000000 0.125127
#
#
# Mechanical properties :
#
#
# Convention : Reuss Voigt Hill
#
# Bulk Modulus (GPa) = 13.98566 26.76379 20.37473
# Shear Modulus (GPa) = 15.68463 30.83613 23.26038
#
# Velocity S-wave (km/s) = 2.49675 3.50080 3.04050
# Velocity P-wave (km/s) = 3.72426 5.19402 4.51929
#
# Compressibility (1/GPa) = 0.07150181
#
# Stress axis : x y z
#
# Youngs Moduli (GPa) = 49.11191 21.00311 151.22233
#
# Poissons Ratio (x) = 0.03750 0.15308
# Poissons Ratio (y) = 0.08768 -0.18981
# Poissons Ratio (z) = 0.04971 -0.02636
#
# Static dielectric constant tensor:
#      x y z
#    x 2.114740 0.000000 -0.021480 
#    y 0.000000 1.881540 0.000000 
#    z -0.021480 0.000000 2.028870 
# 
# From -- ./inp_files/313771.got.cif
#   From: 2010.05.17/outbox.cif.g08.bks.cpg/sg12_157_cif.got.tgz:313771.got - 2010.06.03 13:09:07.
