data_PCOD9207391
_publ_section_title
;
Structure prediction by ZEFSAII (Michael W. Deem and Ramdas Pophale) SiO2 
 PCOD9207391
Probable space group: C 2/M
;
_chemical_formula_sum "Si O2"
_cell_formula_units_Z 56
_cell_length_a 21.032999
_cell_length_b 8.922404
_cell_length_c 29.385418
_cell_angle_alpha 90.000000
_cell_angle_beta 148.242006
_cell_angle_gamma 90.000000
_cell_volume 2902.519833
_symmetry_space_group_name_H-M "C 2/M"
_symmetry_group_IT_number 12
_symmetry_cell_setting 'monoclinic'
loop_
_space_group_symop_operation_xyz
x,y,z
-x,y,-z
-x,-y,-z
x,-y,z
1/2+x,1/2+y,z
1/2-x,1/2+y,-z
1/2-x,1/2-y,-z
1/2+x,1/2-y,z
loop_
_atom_site_type_symbol
_atom_site_label
_atom_site_fract_x
_atom_site_fract_y
_atom_site_fract_z
Si Si1 0.001691 0.674433 0.790815
Si Si2 0.905812 0.825273 0.552545
Si Si3 0.356769 0.678547 0.781387
Si Si4 0.228570 0.822409 0.036236
Si Si5 0.344167 0.673209 0.620200
Si Si6 0.083469 0.680609 0.594200
Si Si7 0.999398 0.679603 0.946230
O O1 0.987933 0.500000 0.794377
O O2 0.959457 0.769216 0.808611
O O3 0.916529 0.722698 0.698130
O O4 0.140292 0.698410 0.861105
O O5 0.793245 0.728467 0.466084
O O6 0.899286 0.815868 0.603145
O O7 0.024396 0.757915 0.602065
O O8 0.891070 0.000000 0.531270
O O9 0.359454 0.500000 0.788091
O O10 0.225682 0.720180 0.680428
O O11 0.389231 0.753427 0.849426
O O12 0.203868 0.000000 0.017144
O O13 0.250000 0.750000 0.000000
O O14 0.121149 0.743278 0.997535
O O15 0.348690 0.500000 0.638031
O O16 0.075590 0.500000 0.592873
O O17 0.000000 0.724879 0.500000
O O18 0.997048 0.500000 0.941008
O O19 0.000000 0.720024 0.000000
#
# Coordination Sequence:
#
# PCOD9207391 Si02
#       7
#     8   8   8   8   8   8   8
#     4  11  23  38  61  92 122 154 200 253 304 365
#     4  10  21  37  58  84 116 156 200 248 302 356
#     4  11  23  39  63  91 122 162 205 256 312 372
#     4  11  23  40  65  93 123 159 203 256 312 373
#     4  10  21  37  58  85 118 156 198 246 301 363
#     4  10  22  39  59  86 120 159 201 245 302 369
#     4  11  25  44  65  91 127 170 214 263 319 379
#
# _framework density 19.293579999999999
#
# number of rings (size 3 to 8) (size 9 to 14) (size 15 to 20)
#    0.000    1.429    1.429    3.429    0.000    8.286 
#    0.000    5.714    0.000    0.000    0.000    0.000 
#    0.000    0.000    0.000    0.000    0.000    0.000 
#
# Total GULP energy -156446.491212 kJ/mol
# GULP energy per Si atom -5587.374686 kJ/mol
# Density = 1.924967 g / cm^3
# Si number density = 19.293580 Si / 1000 Ang^3
#
#
#
# Elastic Constant Matrix: (Units=GPa)
#
#
# Indices 1 2 3 4 5 6 
#
# 1 79.2662 34.0720 42.9801 0.0000 15.2447 0.0001
# 2 34.0720 48.2581 33.1193 0.0001 4.6215 0.0004
# 3 42.9801 33.1193 96.0895 0.0000 -3.7423 0.0000
# 4 0.0000 0.0001 0.0000 28.3413 0.0000 -2.3587
# 5 15.2447 4.6215 -3.7423 0.0000 23.0520 0.0000
# 6 0.0001 0.0004 0.0000 -2.3587 0.0000 29.2958
#
#
#
# Elastic Compliance Matrix: (Units=1/GPa)
#
#
# Indices 1 2 3 4 5 6 
#
# 1 0.024233 -0.010218 -0.007912 0.000000 -0.015261 0.000000
# 2 -0.010218 0.032623 -0.006708 0.000000 -0.000872 0.000000
# 3 -0.007912 -0.006708 0.016619 0.000000 0.009275 0.000000
# 4 0.000000 0.000000 0.000000 0.035522 0.000000 0.002860
# 5 -0.015261 -0.000872 0.009275 0.000000 0.055153 0.000000
# 6 0.000000 0.000000 0.000000 0.002860 0.000000 0.034365
#
#
# Mechanical properties :
#
#
# Convention : Reuss Voigt Hill
#
# Bulk Modulus (GPa) = 42.01664 49.32852 45.67258
# Shear Modulus (GPa) = 19.52180 23.70066 21.61123
#
# Velocity S-wave (km/s) = 3.18438 3.50869 3.35046
# Velocity P-wave (km/s) = 5.94518 6.48362 6.22023
#
# Compressibility (1/GPa) = 0.02380009
#
# Stress axis : x y z
#
# Youngs Moduli (GPa) = 41.26625 30.65299 60.17204
#
# Poissons Ratio (x) = 0.31321 0.47606
# Poissons Ratio (y) = 0.42166 0.40362
# Poissons Ratio (z) = 0.32649 0.20561
#
# Static dielectric constant tensor:
#      x y z
#    x 1.653390 0.000000 -0.006730 
#    y 0.000000 1.643130 0.000000 
#    z -0.006730 0.000000 1.699970 
# 
# From -- ./inp_files/380722.got.cif
#   From: 2010.05.17/outbox.cif.g08.bks.cpg/sg12_191_cif.got.tgz:380722.got - 2010.06.03 13:09:07.
