data_PCOD9207437
_publ_section_title
;
Structure prediction by ZEFSAII (Michael W. Deem and Ramdas Pophale) SiO2 
 PCOD9207437
Probable space group: C 2/M
;
_chemical_formula_sum "Si O2"
_cell_formula_units_Z 48
_cell_length_a 29.384590
_cell_length_b 8.447603
_cell_length_c 19.210134
_cell_angle_alpha 90.000000
_cell_angle_beta 31.126925
_cell_angle_gamma 90.000000
_cell_volume 2465.017549
_symmetry_space_group_name_H-M "C 2/M"
_symmetry_group_IT_number 12
_symmetry_cell_setting 'monoclinic'
loop_
_space_group_symop_operation_xyz
x,y,z
-x,y,-z
-x,-y,-z
x,-y,z
1/2+x,1/2+y,z
1/2-x,1/2+y,-z
1/2-x,1/2-y,-z
1/2+x,1/2-y,z
loop_
_atom_site_type_symbol
_atom_site_label
_atom_site_fract_x
_atom_site_fract_y
_atom_site_fract_z
Si Si1 0.087883 0.191293 0.842125
Si Si2 0.770098 0.809054 0.083426
Si Si3 0.112201 0.808412 0.199601
Si Si4 0.651147 0.187676 0.615837
Si Si5 0.912761 0.810788 0.448862
Si Si6 0.758895 0.190657 0.254375
O O1 0.094293 0.266525 0.757798
O O2 0.171587 0.244412 0.778413
O O3 0.091394 0.000000 0.829495
O O4 0.000000 0.229487 0.000000
O O5 0.676754 0.754092 0.174772
O O6 0.782649 0.752583 0.145804
O O7 0.771514 0.000000 0.082359
O O8 0.844112 0.757046 0.931114
O O9 0.011556 0.755342 0.336580
O O10 0.113610 0.000000 0.199536
O O11 0.750000 0.250000 0.500000
O O12 0.612399 0.263398 0.596763
O O13 0.654924 0.000000 0.601726
O O14 0.838355 0.741260 0.596362
O O15 0.910929 0.000000 0.456814
O O16 0.763306 0.000000 0.248204
#
# Coordination Sequence:
#
# PCOD9207437 Si02
#       6
#     8   8   8   8   8   8
#     4  10  22  39  62  88 118 158 197 237 288 346
#     4   9  19  37  60  84 114 150 190 238 288 343
#     4   9  20  38  60  85 112 148 193 236 287 347
#     4  12  24  40  61  86 119 156 196 241 290 346
#     4  11  23  38  60  86 116 154 194 240 291 347
#     4  10  21  37  58  85 117 153 194 238 285 345
#
# _framework density 19.472479
#
# number of rings (size 3 to 8) (size 9 to 14) (size 15 to 20)
#    0.000    1.833    1.667    2.000    2.333    3.000 
#    0.000    3.333    0.000    0.000    0.000    0.000 
#    0.000    0.000    0.000    0.000    0.000    0.000 
#
# Total GULP energy -134086.655275 kJ/mol
# GULP energy per Si atom -5586.943970 kJ/mol
# Density = 1.942816 g / cm^3
# Si number density = 19.472479 Si / 1000 Ang^3
#
#
#
# Elastic Constant Matrix: (Units=GPa)
#
#
# Indices 1 2 3 4 5 6 
#
# 1 22.7937 -2.0037 -5.7323 -0.0037 7.4196 0.0007
# 2 -2.0037 0.5207 -3.6760 -0.0029 -0.5932 0.0025
# 3 -5.7323 -3.6760 54.6078 -0.0085 -7.5225 0.0043
# 4 -0.0037 -0.0029 -0.0085 29.8508 0.0059 1.2839
# 5 7.4196 -0.5932 -7.5225 0.0059 40.7343 -0.0028
# 6 0.0007 0.0025 0.0043 1.2839 -0.0028 27.7554
#
#
#
# Elastic Compliance Matrix: (Units=1/GPa)
#
#
# Indices 1 2 3 4 5 6 
#
# 1 0.963074 8.751808 0.701466 0.001181 0.081564 -0.000961
# 2 8.751808 83.650320 6.667502 0.011207 0.855301 -0.009158
# 3 0.701466 6.667502 0.550555 0.000899 0.070994 -0.000733
# 4 0.001181 0.011207 0.000899 0.033568 0.000109 -0.001554
# 5 0.081564 0.855301 0.070994 0.000109 0.035258 -0.000091
# 6 -0.000961 -0.009158 -0.000733 -0.001554 -0.000091 0.036102
#
#
# Mechanical properties :
#
#
# Convention : Reuss Voigt Hill
#
# Bulk Modulus (GPa) = 0.00852 6.12202 3.06527
# Shear Modulus (GPa) = 0.05425 25.62373 12.83899
#
# Velocity S-wave (km/s) = 0.16710 3.63146 2.57055
# Velocity P-wave (km/s) = 0.20399 4.55347 3.22302
#
# Compressibility (1/GPa) = 117.40550214
#
# Stress axis : x y z
#
# Youngs Moduli (GPa) = 1.03834 0.01195 1.81635
#
# Poissons Ratio (x) = -0.10462 -1.27411
# Poissons Ratio (y) = -9.08736 -12.11052
# Poissons Ratio (z) = -0.72836 -0.07971
#
# Static dielectric constant tensor:
#      x y z
#    x 1.658060 0.000000 0.000760 
#    y 0.000000 1.673420 0.000000 
#    z 0.000760 0.000000 1.677470 
# 
# From -- ./inp_files/244707.got.cif
#   From: 2010.05.17/outbox.cif.g08.bks.cpg/sg12_123_cif.got.tgz:244707.got - 2010.06.03 13:09:07.
