data_PCOD9207656
_publ_section_title
;
Structure prediction by ZEFSAII (Michael W. Deem and Ramdas Pophale) SiO2 
 PCOD9207656
Probable space group: C 2/M
;
_chemical_formula_sum "Si O2"
_cell_formula_units_Z 64
_cell_length_a 17.790763
_cell_length_b 22.114849
_cell_length_c 12.392410
_cell_angle_alpha 90.000000
_cell_angle_beta 134.755848
_cell_angle_gamma 90.000000
_cell_volume 3462.279343
_symmetry_space_group_name_H-M "C 2/M"
_symmetry_group_IT_number 12
_symmetry_cell_setting 'monoclinic'
loop_
_space_group_symop_operation_xyz
x,y,z
-x,y,-z
-x,-y,-z
x,-y,z
1/2+x,1/2+y,z
1/2-x,1/2+y,-z
1/2-x,1/2-y,-z
1/2+x,1/2-y,z
loop_
_atom_site_type_symbol
_atom_site_label
_atom_site_fract_x
_atom_site_fract_y
_atom_site_fract_z
Si Si1 0.698603 0.427409 0.246918
Si Si2 0.620672 0.428868 0.942254
Si Si3 0.872883 0.931815 0.373699
Si Si4 0.121055 0.336624 0.630590
Si Si5 0.221535 0.843338 0.895454
Si Si6 0.096412 0.725120 0.835056
Si Si7 0.636356 0.251980 0.444375
Si Si8 0.396009 0.391143 0.621947
O O1 0.708603 0.500000 0.265848
O O2 0.803542 0.392459 0.317505
O O3 0.663796 0.400737 0.326111
O O4 0.617946 0.414007 0.066529
O O5 0.633851 0.500000 0.948177
O O6 0.716795 0.395100 0.981621
O O7 0.515132 0.411178 0.771068
O O8 0.816693 0.878586 0.249821
O O9 0.847164 0.928898 0.474509
O O10 0.000000 0.922395 0.500000
O O11 0.851213 0.000000 0.309843
O O12 0.128800 0.307908 0.756546
O O13 0.142404 0.283873 0.563527
O O14 0.000000 0.356300 0.500000
O O15 0.139675 0.792798 0.857911
O O16 0.333541 0.808683 0.003831
O O17 0.969525 0.724820 0.720641
O O18 0.750000 0.250000 0.500000
O O19 0.608727 0.322614 0.424472
#
# Coordination Sequence:
#
# PCOD9207656 Si02
#       8
#     8   8   8   8   8   8   8   8
#     4  11  23  38  58  87 122 161 200 249 312 372
#     4  11  21  36  58  88 124 161 200 250 311 374
#     4  11  21  34  57  88 121 159 205 253 302 362
#     4  10  21  38  60  88 118 152 201 251 302 361
#     4  11  20  35  59  87 122 158 200 246 306 368
#     4  10  21  37  59  87 120 159 197 249 307 359
#     4  11  21  37  62  89 121 156 203 251 304 371
#     4  12  22  38  58  88 123 161 201 255 315 368
#
# _framework density 18.484931
#
# number of rings (size 3 to 8) (size 9 to 14) (size 15 to 20)
#    0.000    1.125    5.000    2.625    0.000    2.250 
#    0.000    0.000    0.000    0.000    0.000    0.875 
#    0.000    0.000    0.000    0.000    0.000    0.000 
#
# Total GULP energy -178449.942987 kJ/mol
# GULP energy per Si atom -5576.560718 kJ/mol
# Density = 1.844286 g / cm^3
# Si number density = 18.484931 Si / 1000 Ang^3
#
#
#
# Elastic Constant Matrix: (Units=GPa)
#
#
# Indices 1 2 3 4 5 6 
#
# 1 69.2738 4.2628 34.9408 0.0000 6.9818 0.0000
# 2 4.2628 64.4966 43.7429 0.0000 8.8756 0.0000
# 3 34.9408 43.7429 105.1963 0.0000 -4.1835 0.0000
# 4 0.0000 0.0000 0.0000 34.3397 0.0000 0.3695
# 5 6.9818 8.8756 -4.1835 0.0000 31.9752 0.0000
# 6 0.0000 0.0000 0.0000 0.3695 0.0000 19.4307
#
#
#
# Elastic Compliance Matrix: (Units=1/GPa)
#
#
# Indices 1 2 3 4 5 6 
#
# 1 0.019426 0.005933 -0.009201 0.000000 -0.007092 0.000000
# 2 0.005933 0.025195 -0.012844 0.000000 -0.009970 0.000000
# 3 -0.009201 -0.012844 0.018219 0.000000 0.007958 0.000000
# 4 0.000000 0.000000 0.000000 0.029127 0.000000 -0.000554
# 5 -0.007092 -0.009970 0.007958 0.000000 0.036631 0.000000
# 6 0.000000 0.000000 0.000000 -0.000554 0.000000 0.051475
#
#
# Mechanical properties :
#
#
# Convention : Reuss Voigt Hill
#
# Bulk Modulus (GPa) = 32.66260 44.98440 38.82350
# Shear Modulus (GPa) = 22.47138 27.55045 25.01092
#
# Velocity S-wave (km/s) = 3.49041 3.86479 3.68236
# Velocity P-wave (km/s) = 5.82685 6.65613 6.25525
#
# Compressibility (1/GPa) = 0.03061606
#
# Stress axis : x y z
#
# Youngs Moduli (GPa) = 51.47672 39.68975 54.88640
#
# Poissons Ratio (x) = -0.23546 0.50503
# Poissons Ratio (y) = -0.30539 0.70495
# Poissons Ratio (z) = 0.47366 0.50977
#
# Static dielectric constant tensor:
#      x y z
#    x 1.656850 0.000000 -0.012020 
#    y 0.000000 1.650320 0.000000 
#    z -0.012020 0.000000 1.695770 
# 
# From -- ./inp_files/159568.got.cif
#   From: 2010.05.17/outbox.cif.g08.bks.cpg/sg12_80_cif.got.tgz:159568.got - 2010.06.03 13:09:07.
