data_PCOD9207881
_publ_section_title
;
Structure prediction by ZEFSAII (Michael W. Deem and Ramdas Pophale) SiO2 
 PCOD9207881
Probable space group: C 2/M
;
_chemical_formula_sum "Si O2"
_cell_formula_units_Z 56
_cell_length_a 24.027322
_cell_length_b 8.753063
_cell_length_c 16.053358
_cell_angle_alpha 90.000000
_cell_angle_beta 122.934168
_cell_angle_gamma 90.000000
_cell_volume 2833.651009
_symmetry_space_group_name_H-M "C 2/M"
_symmetry_group_IT_number 12
_symmetry_cell_setting 'monoclinic'
loop_
_space_group_symop_operation_xyz
x,y,z
-x,y,-z
-x,-y,-z
x,-y,z
1/2+x,1/2+y,z
1/2-x,1/2+y,-z
1/2-x,1/2-y,-z
1/2+x,1/2-y,z
loop_
_atom_site_type_symbol
_atom_site_label
_atom_site_fract_x
_atom_site_fract_y
_atom_site_fract_z
Si Si1 0.205886 0.183813 0.889059
Si Si2 0.187165 0.316775 0.157719
Si Si3 0.345599 0.176614 0.520948
Si Si4 0.525760 0.319374 0.431274
Si Si5 0.952359 0.685185 0.035426
Si Si6 0.058650 0.316453 0.787318
Si Si7 0.692750 0.321823 0.343060
O O1 0.245711 0.223272 0.836798
O O2 0.132482 0.251740 0.833153
O O3 0.203414 0.000000 0.893313
O O4 0.250000 0.250000 0.000000
O O5 0.186473 0.500000 0.169727
O O6 0.123548 0.277699 0.049346
O O7 0.180224 0.236058 0.240352
O O8 0.396964 0.281644 0.514533
O O9 0.344331 0.224821 0.616666
O O10 0.271178 0.195005 0.426211
O O11 0.365058 0.000000 0.528514
O O12 0.500000 0.265574 0.500000
O O13 0.513962 0.500000 0.415663
O O14 0.488271 0.239136 0.324714
O O15 0.957806 0.500000 0.039983
O O16 0.966286 0.735752 0.141196
O O17 0.000000 0.741788 0.000000
O O18 0.061728 0.500000 0.790400
O O19 0.675683 0.500000 0.338580
#
# Coordination Sequence:
#
# PCOD9207881 Si02
#       7
#     8   8   8   8   8   8   8
#     4  11  22  39  61  88 123 162 205 254 308 364
#     4  10  21  37  60  89 121 161 206 247 305 372
#     4  10  22  42  65  89 120 163 208 254 311 372
#     4  11  26  45  64  90 126 166 208 261 320 373
#     4   9  19  37  60  89 124 161 203 246 298 367
#     4  11  23  41  65  92 122 163 211 259 311 374
#     4  10  22  39  62  94 125 156 201 258 313 367
#
# _framework density 19.76249
#
# number of rings (size 3 to 8) (size 9 to 14) (size 15 to 20)
#    0.000    1.714    1.429    2.143    4.000    4.000 
#    0.000    0.000    0.000    2.143    0.000    0.000 
#    0.000    0.000    0.000    0.000    0.000    0.000 
#
# Total GULP energy -156476.059137 kJ/mol
# GULP energy per Si atom -5588.430683 kJ/mol
# Density = 1.971751 g / cm^3
# Si number density = 19.762490 Si / 1000 Ang^3
#
#
#
# Elastic Constant Matrix: (Units=GPa)
#
#
# Indices 1 2 3 4 5 6 
#
# 1 83.6727 14.2061 13.2729 0.0000 -22.8631 0.0000
# 2 14.2061 31.6422 21.9914 0.0000 -3.3859 0.0000
# 3 13.2729 21.9914 85.0713 0.0000 -29.5853 0.0000
# 4 0.0000 0.0000 0.0000 31.5409 0.0000 1.6345
# 5 -22.8631 -3.3859 -29.5853 0.0000 28.7420 0.0000
# 6 0.0000 0.0000 0.0000 1.6345 0.0000 30.0475
#
#
#
# Elastic Compliance Matrix: (Units=1/GPa)
#
#
# Indices 1 2 3 4 5 6 
#
# 1 0.018328 -0.011001 0.007171 0.000000 0.020664 0.000000
# 2 -0.011001 0.046647 -0.017872 0.000000 -0.021652 0.000000
# 3 0.007171 -0.017872 0.025712 0.000000 0.030065 0.000000
# 4 0.000000 0.000000 0.000000 0.031794 0.000000 -0.001730
# 5 0.020664 -0.021652 0.030065 0.000000 0.079626 0.000000
# 6 0.000000 0.000000 0.000000 -0.001730 0.000000 0.033375
#
#
# Mechanical properties :
#
#
# Convention : Reuss Voigt Hill
#
# Bulk Modulus (GPa) = 21.14979 33.25856 27.20418
# Shear Modulus (GPa) = 16.96946 28.12715 22.54830
#
# Velocity S-wave (km/s) = 2.93349 3.77670 3.38148
# Velocity P-wave (km/s) = 4.71158 5.99030 5.38900
#
# Compressibility (1/GPa) = 0.04728178
#
# Stress axis : x y z
#
# Youngs Moduli (GPa) = 54.56113 21.43780 38.89275
#
# Poissons Ratio (x) = 0.23584 -0.27889
# Poissons Ratio (y) = 0.60023 0.69509
# Poissons Ratio (z) = -0.39124 0.38314
#
# Static dielectric constant tensor:
#      x y z
#    x 1.696740 0.000000 -0.001630 
#    y 0.000000 1.665880 0.000000 
#    z -0.001630 0.000000 1.672500 
# 
# From -- ./inp_files/238910.got.cif
#   From: 2010.05.17/outbox.cif.g08.bks.cpg/sg12_120_cif.got.tgz:238910.got - 2010.06.03 13:09:07.
