data_PCOD9207340
_publ_section_title
;
Structure prediction by ZEFSAII (Michael W. Deem and Ramdas Pophale) SiO2 
 PCOD9207340
Probable space group: C 2/M
;
_chemical_formula_sum "Si O2"
_cell_formula_units_Z 64
_cell_length_a 31.318171
_cell_length_b 8.164133
_cell_length_c 15.747696
_cell_angle_alpha 90.000000
_cell_angle_beta 45.988080
_cell_angle_gamma 90.000000
_cell_volume 2895.811607
_symmetry_space_group_name_H-M "C 2/M"
_symmetry_group_IT_number 12
_symmetry_cell_setting 'monoclinic'
loop_
_space_group_symop_operation_xyz
x,y,z
-x,y,-z
-x,-y,-z
x,-y,z
1/2+x,1/2+y,z
1/2-x,1/2+y,-z
1/2-x,1/2-y,-z
1/2+x,1/2-y,z
loop_
_atom_site_type_symbol
_atom_site_label
_atom_site_fract_x
_atom_site_fract_y
_atom_site_fract_z
Si Si1 0.496611 0.188461 0.599298
Si Si2 0.942423 0.301578 0.846633
Si Si3 0.683304 0.304572 0.002865
Si Si4 0.282425 0.189305 0.587179
Si Si5 0.466804 0.801901 0.132652
Si Si6 0.382794 0.318072 0.564387
Si Si7 0.332935 0.694659 0.340723
Si Si8 0.314453 0.191583 0.807689
O O1 0.500000 0.264114 0.500000
O O2 0.458313 0.259070 0.729401
O O3 0.565122 0.195807 0.534318
O O4 0.476578 0.000000 0.615786
O O5 0.942800 0.500000 0.843908
O O6 0.876605 0.243950 0.961984
O O7 0.992611 0.249180 0.843815
O O8 0.685095 0.500000 0.012617
O O9 0.680587 0.220175 0.098927
O O10 0.747153 0.258487 0.875724
O O11 0.323194 0.290092 0.593936
O O12 0.312482 0.210034 0.453141
O O13 0.214067 0.239863 0.668088
O O14 0.283984 0.000000 0.612060
O O15 0.400843 0.731198 0.227223
O O16 0.462289 0.000000 0.141548
O O17 0.500000 0.756277 0.000000
O O18 0.405824 0.500000 0.518931
O O19 0.363397 0.288269 0.687883
O O20 0.324872 0.500000 0.367449
O O21 0.322483 0.000000 0.777681
#
# Coordination Sequence:
#
# PCOD9207340 Si02
#       8
#     8   8   8   8   8   8   8   8
#     4  10  21  37  58  84 116 156 195 234 290 354
#     4  10  21  37  58  83 114 154 194 235 289 350
#     4  10  21  37  59  85 111 145 191 239 286 337
#     4  10  21  38  60  85 116 151 184 228 290 354
#     4  10  22  39  58  82 115 157 199 238 288 350
#     4  12  24  36  56  87 118 149 191 239 283 332
#     4  10  21  38  61  87 112 143 188 240 292 342
#     4  10  21  38  58  81 115 154 188 230 287 346
#
# _framework density 22.100883
#
# number of rings (size 3 to 8) (size 9 to 14) (size 15 to 20)
#    0.000    1.750    0.000    4.125    0.000    7.500 
#    0.000    2.500    0.000    0.000    0.000    0.000 
#    0.000    0.000    0.000    0.000    0.000    0.000 
#
# Total GULP energy -178853.470390 kJ/mol
# GULP energy per Si atom -5589.170950 kJ/mol
# Density = 2.205058 g / cm^3
# Si number density = 22.100883 Si / 1000 Ang^3
#
#
#
# Elastic Constant Matrix: (Units=GPa)
#
#
# Indices 1 2 3 4 5 6 
#
# 1 83.8487 5.4090 25.7329 0.0000 -21.8566 0.0000
# 2 5.4090 25.2014 1.1520 0.0004 0.4881 0.0001
# 3 25.7329 1.1520 86.9067 0.0002 -29.6175 0.0001
# 4 0.0000 0.0004 0.0002 21.0981 0.0000 -6.9766
# 5 -21.8566 0.4881 -29.6175 0.0000 40.7227 0.0000
# 6 0.0000 0.0001 0.0001 -6.9766 0.0000 23.2991
#
#
#
# Elastic Compliance Matrix: (Units=1/GPa)
#
#
# Indices 1 2 3 4 5 6 
#
# 1 0.014397 -0.003115 -0.002095 0.000000 0.006241 0.000000
# 2 -0.003115 0.040418 -0.000463 -0.000001 -0.002493 0.000000
# 3 -0.002095 -0.000463 0.015624 0.000000 0.010245 0.000000
# 4 0.000000 -0.000001 0.000000 0.052607 0.000000 0.015752
# 5 0.006241 -0.002493 0.010245 0.000000 0.035387 0.000000
# 6 0.000000 0.000000 0.000000 0.015752 0.000000 0.047637
#
#
# Mechanical properties :
#
#
# Convention : Reuss Voigt Hill
#
# Bulk Modulus (GPa) = 16.92225 28.94941 22.93583
# Shear Modulus (GPa) = 21.08692 27.93484 24.51088
#
# Velocity S-wave (km/s) = 3.09224 3.55909 3.33385
# Velocity P-wave (km/s) = 4.51915 5.47875 5.02192
#
# Compressibility (1/GPa) = 0.05909381
#
# Stress axis : x y z
#
# Youngs Moduli (GPa) = 69.45955 24.74118 64.00265
#
# Poissons Ratio (x) = 0.07707 0.13407
# Poissons Ratio (y) = 0.21638 0.02964
# Poissons Ratio (z) = 0.14550 0.01146
#
# Static dielectric constant tensor:
#      x y z
#    x 1.852070 0.000000 -0.006310 
#    y 0.000000 1.798740 0.000000 
#    z -0.006310 0.000000 1.774840 
# 
# From -- ./inp_files/295532.got.cif
#   From: 2010.05.17/outbox.cif.g08.bks.cpg/sg12_148_cif.got.tgz:295532.got - 2010.06.03 13:09:07.
