data_PCOD9207402
_publ_section_title
;
Structure prediction by ZEFSAII (Michael W. Deem and Ramdas Pophale) SiO2 
 PCOD9207402
Probable space group: C 2/M
;
_chemical_formula_sum "Si O2"
_cell_formula_units_Z 56
_cell_length_a 12.973929
_cell_length_b 14.673903
_cell_length_c 18.043413
_cell_angle_alpha 90.000000
_cell_angle_beta 52.597422
_cell_angle_gamma 90.000000
_cell_volume 2728.777580
_symmetry_space_group_name_H-M "C 2/M"
_symmetry_group_IT_number 12
_symmetry_cell_setting 'monoclinic'
loop_
_space_group_symop_operation_xyz
x,y,z
-x,y,-z
-x,-y,-z
x,-y,z
1/2+x,1/2+y,z
1/2-x,1/2+y,-z
1/2-x,1/2-y,-z
1/2+x,1/2-y,z
loop_
_atom_site_type_symbol
_atom_site_label
_atom_site_fract_x
_atom_site_fract_y
_atom_site_fract_z
Si Si1 0.547612 0.789258 0.063347
Si Si2 0.317811 0.392565 0.947353
Si Si3 0.085833 0.894193 0.262363
Si Si4 0.335939 0.146174 0.406855
Si Si5 0.830075 0.396642 0.243498
Si Si6 0.928610 0.394299 0.610154
Si Si7 0.208771 0.844032 0.609126
O O1 0.586692 0.683247 0.058540
O O2 0.436509 0.826913 0.166209
O O3 0.500000 0.801767 0.000000
O O4 0.674082 0.852166 0.022661
O O5 0.330259 0.500000 0.963986
O O6 0.346244 0.387692 0.847125
O O7 0.189223 0.862195 0.277935
O O8 0.944658 0.851430 0.319792
O O9 0.060847 0.000000 0.289941
O O10 0.336689 0.096220 0.328810
O O11 0.485098 0.159510 0.368504
O O12 0.264158 0.106442 0.511004
O O13 0.261594 0.238758 0.418764
O O14 0.849113 0.500000 0.203993
O O15 0.939253 0.500000 0.626924
O O16 0.780915 0.373617 0.652571
O O17 0.000000 0.380694 0.500000
#
# Coordination Sequence:
#
# PCOD9207402 Si02
#       7
#     8   8   8   8   8   8   8
#     4  11  22  41  68  92 122 166 204 254 319 372
#     4  10  22  41  65  95 126 158 205 258 309 374
#     4  10  21  37  59  88 122 161 202 248 308 376
#     4  10  22  37  57  85 121 159 207 260 307 357
#     4  11  23  38  61  93 125 164 213 260 310 378
#     4   9  18  35  57  78 106 150 200 245 294 355
#     4  10  21  37  58  84 119 165 206 251 309 370
#
# _framework density 20.522010000000002
#
# number of rings (size 3 to 8) (size 9 to 14) (size 15 to 20)
#    0.000    1.857    1.429    2.143    2.000    3.143 
#    0.000    1.429    0.000    3.429    0.000    0.000 
#    0.000    0.000    0.000    0.000    0.000    0.000 
#
# Total GULP energy -156095.930098 kJ/mol
# GULP energy per Si atom -5574.854646 kJ/mol
# Density = 2.047530 g / cm^3
# Si number density = 20.522010 Si / 1000 Ang^3
#
#
#
# Elastic Constant Matrix: (Units=GPa)
#
#
# Indices 1 2 3 4 5 6 
#
# 1 92.1153 19.8398 22.3483 0.0000 -12.7207 0.0000
# 2 19.8398 95.7585 10.4541 0.0000 -3.8317 0.0000
# 3 22.3483 10.4541 44.5404 0.0000 -1.6383 0.0000
# 4 0.0000 0.0000 0.0000 25.8531 0.0000 -3.2352
# 5 -12.7207 -3.8317 -1.6383 0.0000 26.5149 0.0000
# 6 0.0000 0.0000 0.0000 -3.2352 0.0000 34.8373
#
#
#
# Elastic Compliance Matrix: (Units=1/GPa)
#
#
# Indices 1 2 3 4 5 6 
#
# 1 0.013565 -0.001906 -0.006144 0.000000 0.005853 0.000000
# 2 -0.001906 0.011037 -0.001613 0.000000 0.000581 0.000000
# 3 -0.006144 -0.001613 0.025855 0.000000 -0.001583 0.000000
# 4 0.000000 0.000000 0.000000 0.039135 0.000000 0.003634
# 5 0.005853 0.000581 -0.001583 0.000000 0.040509 0.000000
# 6 0.000000 0.000000 0.000000 0.003634 0.000000 0.029042
#
#
# Mechanical properties :
#
#
# Convention : Reuss Voigt Hill
#
# Bulk Modulus (GPa) = 32.12127 37.52207 34.82167
# Shear Modulus (GPa) = 26.47671 29.42587 27.95129
#
# Velocity S-wave (km/s) = 3.59578 3.79075 3.69455
# Velocity P-wave (km/s) = 5.73808 6.12236 5.93333
#
# Compressibility (1/GPa) = 0.03113202
#
# Stress axis : x y z
#
# Youngs Moduli (GPa) = 73.71778 90.60359 38.67781
#
# Poissons Ratio (x) = 0.17265 0.23763
# Poissons Ratio (y) = 0.14048 0.06239
# Poissons Ratio (z) = 0.45291 0.14614
#
# Static dielectric constant tensor:
#      x y z
#    x 1.743270 0.000000 -0.018360 
#    y 0.000000 1.801570 0.000000 
#    z -0.018360 0.000000 1.724360 
# 
# From -- ./inp_files/263237.got.cif
#   From: 2010.05.17/outbox.cif.g08.bks.cpg/sg12_132_cif.got.tgz:263237.got - 2010.06.03 13:09:07.
