data_PCOD9207224
_publ_section_title
;
Structure prediction by ZEFSAII (Michael W. Deem and Ramdas Pophale) SiO2 
 PCOD9207224
Probable space group: C 2/M
;
_chemical_formula_sum "Si O2"
_cell_formula_units_Z 56
_cell_length_a 15.229505
_cell_length_b 8.920820
_cell_length_c 18.987690
_cell_angle_alpha 90.000000
_cell_angle_beta 94.131031
_cell_angle_gamma 90.000000
_cell_volume 2572.959169
_symmetry_space_group_name_H-M "C 2/M"
_symmetry_group_IT_number 12
_symmetry_cell_setting 'monoclinic'
loop_
_space_group_symop_operation_xyz
x,y,z
-x,y,-z
-x,-y,-z
x,-y,z
1/2+x,1/2+y,z
1/2-x,1/2+y,-z
1/2-x,1/2-y,-z
1/2+x,1/2-y,z
loop_
_atom_site_type_symbol
_atom_site_label
_atom_site_fract_x
_atom_site_fract_y
_atom_site_fract_z
Si Si1 0.552076 0.181941 0.434650
Si Si2 0.444123 0.675975 0.191782
Si Si3 0.227668 0.675975 0.378207
Si Si4 0.392110 0.177804 0.326795
Si Si5 0.119175 0.328880 0.952503
Si Si6 0.373147 0.826625 0.776018
Si Si7 0.820460 0.170882 0.910353
O O1 0.500000 0.237119 0.500000
O O2 0.651753 0.233590 0.426769
O O3 0.487266 0.213636 0.365773
O O4 0.557859 0.000000 0.439666
O O5 0.429964 0.500000 0.186886
O O6 0.384278 0.744453 0.250569
O O7 0.428166 0.750259 0.115292
O O8 0.542745 0.719497 0.219408
O O9 0.245724 0.500000 0.393234
O O10 0.317400 0.766892 0.376289
O O11 0.182461 0.685745 0.298366
O O12 0.385853 0.000000 0.317471
O O13 0.089544 0.500000 0.959722
O O14 0.222002 0.333266 0.935531
O O15 0.117104 0.238745 0.025421
O O16 0.321052 0.776533 0.842427
O O17 0.402449 0.000000 0.783443
O O18 0.846176 0.000000 0.894030
#
# Coordination Sequence:
#
# PCOD9207224 Si02
#       7
#     8   8   8   8   8   8   8
#     4   9  19  39  65  92 127 168 206 248 303 367
#     4  12  24  38  59  86 118 156 202 257 309 362
#     4  10  21  39  63  92 125 165 209 254 306 366
#     4  11  22  39  63  93 125 164 209 254 306 367
#     4  10  21  38  59  83 115 155 199 250 306 367
#     4  11  22  38  59  84 117 158 204 253 308 367
#     4  10  21  37  57  84 116 153 199 252 306 364
#
# _framework density 21.764823
#
# number of rings (size 3 to 8) (size 9 to 14) (size 15 to 20)
#    0.000    1.571    1.429    3.857    0.000    6.286 
#    0.000    2.857    0.000    3.000    0.000    0.000 
#    0.000    0.000    0.000    0.000    0.000    0.000 
#
# Total GULP energy -156575.440139 kJ/mol
# GULP energy per Si atom -5591.980005 kJ/mol
# Density = 2.171529 g / cm^3
# Si number density = 21.764823 Si / 1000 Ang^3
#
#
#
# Elastic Constant Matrix: (Units=GPa)
#
#
# Indices 1 2 3 4 5 6 
#
# 1 68.7817 11.0993 -13.2588 0.0000 -20.6547 0.0000
# 2 11.0993 70.6936 3.7881 0.0000 3.1900 0.0000
# 3 -13.2588 3.7881 44.7206 0.0000 -19.9590 0.0000
# 4 0.0000 0.0000 0.0000 15.3504 0.0000 -7.6564
# 5 -20.6547 3.1900 -19.9590 0.0000 29.8768 0.0000
# 6 0.0000 0.0000 0.0000 -7.6564 0.0000 26.1085
#
#
#
# Elastic Compliance Matrix: (Units=1/GPa)
#
#
# Indices 1 2 3 4 5 6 
#
# 1 0.038045 -0.010115 0.034704 0.000000 0.050565 0.000000
# 2 -0.010115 0.017132 -0.011950 0.000000 -0.016805 0.000000
# 3 0.034704 -0.011950 0.064030 0.000000 0.068042 0.000000
# 4 0.000000 0.000000 0.000000 0.076306 0.000000 0.022377
# 5 0.050565 -0.016805 0.068042 0.000000 0.115677 0.000000
# 6 0.000000 0.000000 0.000000 0.022377 0.000000 0.044864
#
#
# Mechanical properties :
#
#
# Convention : Reuss Voigt Hill
#
# Bulk Modulus (GPa) = 6.92113 20.82812 13.87463
# Shear Modulus (GPa) = 13.19480 26.43828 19.81654
#
# Velocity S-wave (km/s) = 2.46487 3.48907 3.02070
# Velocity P-wave (km/s) = 3.35971 5.08153 4.30753
#
# Compressibility (1/GPa) = 0.14448511
#
# Stress axis : x y z
#
# Youngs Moduli (GPa) = 26.28470 58.36944 15.61774
#
# Poissons Ratio (x) = 0.59038 -0.54199
# Poissons Ratio (y) = 0.26586 0.18663
# Poissons Ratio (z) = -0.91218 0.69752
#
# Static dielectric constant tensor:
#      x y z
#    x 1.833630 0.000000 -0.037980 
#    y 0.000000 1.736910 0.000000 
#    z -0.037980 0.000000 1.805610 
# 
# From -- ./inp_files/308971.got.cif
#   From: 2010.05.17/outbox.cif.g08.bks.cpg/sg12_155_cif.got.tgz:308971.got - 2010.06.03 13:09:07.
