data_PCOD9207303
_publ_section_title
;
Structure prediction by ZEFSAII (Michael W. Deem and Ramdas Pophale) SiO2 
 PCOD9207303
Probable space group: C 2/M
;
_chemical_formula_sum "Si O2"
_cell_formula_units_Z 42
_cell_length_a 13.243549
_cell_length_b 12.344416
_cell_length_c 12.936589
_cell_angle_alpha 90.000000
_cell_angle_beta 76.446782
_cell_angle_gamma 90.000000
_cell_volume 2056.028761
_symmetry_space_group_name_H-M "C 2/M"
_symmetry_group_IT_number 12
_symmetry_cell_setting 'monoclinic'
loop_
_space_group_symop_operation_xyz
x,y,z
-x,y,-z
-x,-y,-z
x,-y,z
1/2+x,1/2+y,z
1/2-x,1/2+y,-z
1/2-x,1/2-y,-z
1/2+x,1/2-y,z
loop_
_atom_site_type_symbol
_atom_site_label
_atom_site_fract_x
_atom_site_fract_y
_atom_site_fract_z
Si Si1 0.448726 0.877049 0.152664
Si Si2 0.674623 0.881478 0.603599
Si Si3 0.145095 0.374070 0.239962
Si Si4 0.500000 0.500000 0.000000
Si Si5 0.832478 0.194368 0.059079
Si Si6 0.610374 0.716504 0.441157
O O1 0.382571 0.868357 0.274264
O O2 0.565747 0.859178 0.163596
O O3 0.403465 0.790179 0.086485
O O4 0.437263 0.000000 0.116715
O O5 0.638875 0.793569 0.530402
O O6 0.797074 0.868139 0.592017
O O7 0.649429 0.000000 0.568005
O O8 0.136146 0.500000 0.275255
O O9 0.260176 0.350468 0.170496
O O10 0.112339 0.292393 0.338967
O O11 0.591445 0.596543 0.993979
O O12 0.750000 0.250000 0.000000
O O13 0.500000 0.668272 0.500000
#
# Coordination Sequence:
#
# PCOD9207303 Si02
#       6
#     8   8   8   2   8   8
#     4  10  22  41  69  98 131 177 226 276 342 421
#     4  10  21  37  57  93 133 170 218 265 321 402
#     4  11  22  40  65  95 129 171 218 276 339 405
#     4  12  28  52  74 106 134 178 236 296 354 434
#     4  12  26  47  71  99 137 174 231 293 355 410
#     4  11  21  36  63  91 131 174 215 267 331 397
#
# _framework density 20.42773
#
# number of rings (size 3 to 8) (size 9 to 14) (size 15 to 20)
#    0.000    1.143    4.762    1.714    1.333    1.143 
#    0.000    2.381    0.000    0.000    0.000    0.000 
#    0.000    0.000    0.000    0.000    0.000    0.000 
#
# Total GULP energy -117028.187226 kJ/mol
# GULP energy per Si atom -5572.770820 kJ/mol
# Density = 2.038124 g / cm^3
# Si number density = 20.427730 Si / 1000 Ang^3
#
#
#
# Elastic Constant Matrix: (Units=GPa)
#
#
# Indices 1 2 3 4 5 6 
#
# 1 111.8913 37.5440 17.9290 0.0000 -18.7652 0.0000
# 2 37.5440 109.7457 26.0971 0.0000 16.4864 0.0000
# 3 17.9290 26.0971 61.0703 0.0000 -10.0927 0.0000
# 4 0.0000 0.0000 0.0000 11.5182 0.0000 0.7679
# 5 -18.7652 16.4864 -10.0927 0.0000 36.9169 0.0000
# 6 0.0000 0.0000 0.0000 0.7679 0.0000 37.1565
#
#
#
# Elastic Compliance Matrix: (Units=1/GPa)
#
#
# Indices 1 2 3 4 5 6 
#
# 1 0.012235 -0.005557 0.000231 0.000000 0.008764 0.000000
# 2 -0.005557 0.014109 -0.006185 0.000000 -0.010816 0.000000
# 3 0.000231 -0.006185 0.020345 0.000000 0.008442 0.000000
# 4 0.000000 0.000000 0.000000 0.086939 0.000000 -0.001797
# 5 0.008764 -0.010816 0.008442 0.000000 0.038681 0.000000
# 6 0.000000 0.000000 0.000000 -0.001797 0.000000 0.026950
#
#
# Mechanical properties :
#
#
# Convention : Reuss Voigt Hill
#
# Bulk Modulus (GPa) = 42.25426 49.53861 45.89643
# Shear Modulus (GPa) = 21.72321 30.52748 26.12535
#
# Velocity S-wave (km/s) = 3.26455 3.86996 3.58007
# Velocity P-wave (km/s) = 5.91095 6.65373 6.29331
#
# Compressibility (1/GPa) = 0.02366625
#
# Stress axis : x y z
#
# Youngs Moduli (GPa) = 81.73588 70.87849 49.15224
#
# Poissons Ratio (x) = 0.39387 -0.01136
# Poissons Ratio (y) = 0.45420 0.30402
# Poissons Ratio (z) = -0.01889 0.43840
#
# Static dielectric constant tensor:
#      x y z
#    x 1.753880 0.000000 -0.021370 
#    y 0.000000 1.700040 0.000000 
#    z -0.021370 0.000000 1.728910 
# 
# From -- ./inp_files/203359.got.cif
#   From: 2010.05.17/outbox.cif.g08.bks.cpg/sg12_102_cif.got.tgz:203359.got - 2010.06.03 13:09:07.
