data_PCOD9207379
_publ_section_title
;
Structure prediction by ZEFSAII (Michael W. Deem and Ramdas Pophale) SiO2 
 PCOD9207379
Probable space group: C 2/M
;
_chemical_formula_sum "Si O2"
_cell_formula_units_Z 56
_cell_length_a 21.016777
_cell_length_b 8.586767
_cell_length_c 30.997484
_cell_angle_alpha 90.000000
_cell_angle_beta 33.722039
_cell_angle_gamma 90.000000
_cell_volume 3105.588061
_symmetry_space_group_name_H-M "C 2/M"
_symmetry_group_IT_number 12
_symmetry_cell_setting 'monoclinic'
loop_
_space_group_symop_operation_xyz
x,y,z
-x,y,-z
-x,-y,-z
x,-y,z
1/2+x,1/2+y,z
1/2-x,1/2+y,-z
1/2-x,1/2-y,-z
1/2+x,1/2-y,z
loop_
_atom_site_type_symbol
_atom_site_label
_atom_site_fract_x
_atom_site_fract_y
_atom_site_fract_z
Si Si1 0.297792 0.813382 0.757749
Si Si2 0.183019 0.688125 0.996093
Si Si3 0.924290 0.686098 0.264741
Si Si4 0.073150 0.688173 0.837627
Si Si5 0.820042 0.311735 0.581250
Si Si6 0.044936 0.689067 0.407886
Si Si7 0.341894 0.313598 0.827830
O O1 0.178358 0.759812 0.804210
O O2 0.398394 0.757644 0.668438
O O3 0.314223 0.749689 0.796259
O O4 0.301137 0.000000 0.756941
O O5 0.185752 0.500000 0.996014
O O6 0.248751 0.739840 0.915955
O O7 0.250000 0.750000 0.000000
O O8 0.050277 0.735564 0.073830
O O9 0.933862 0.500000 0.260815
O O10 0.922913 0.734286 0.215026
O O11 0.804644 0.739475 0.352819
O O12 0.033926 0.758403 0.226141
O O13 0.081628 0.500000 0.834813
O O14 0.811130 0.500000 0.585443
O O15 0.873773 0.267068 0.597589
O O16 0.915782 0.262137 0.492377
O O17 0.043498 0.500000 0.408439
O O18 0.339385 0.500000 0.828149
#
# Coordination Sequence:
#
# PCOD9207379 Si02
#       7
#     8   8   8   8   8   8   8
#     4  11  22  38  59  85 116 151 190 231 280 337
#     4  10  21  38  60  84 112 147 189 235 281 331
#     4  11  21  35  57  87 117 146 186 235 282 333
#     4  10  21  37  58  84 115 148 184 232 283 334
#     4   9  16  32  57  84 112 144 188 233 278 332
#     4   8  16  31  55  83 112 147 185 230 279 330
#     4  11  24  40  59  82 113 154 191 230 285 340
#
# _framework density 18.032011000000001
#
# number of rings (size 3 to 8) (size 9 to 14) (size 15 to 20)
#    0.000    2.000    2.857    2.143    0.000    2.286 
#    0.000    6.429    0.000    0.000    0.000    0.000 
#    0.000    0.000    0.000    0.000    0.000    0.000 
#
# Total GULP energy -156306.191787 kJ/mol
# GULP energy per Si atom -5582.363992 kJ/mol
# Density = 1.799097 g / cm^3
# Si number density = 18.032011 Si / 1000 Ang^3
#
#
#
# Elastic Constant Matrix: (Units=GPa)
#
#
# Indices 1 2 3 4 5 6 
#
# 1 140.0831 35.4511 94.4264 0.0000 6.3926 -0.0001
# 2 35.4511 26.2228 34.2054 -0.0001 0.7377 -0.0004
# 3 94.4264 34.2054 189.6564 0.0000 -0.1888 -0.0001
# 4 0.0000 -0.0001 0.0000 22.4130 0.0000 -1.3119
# 5 6.3926 0.7377 -0.1888 0.0000 30.5125 -0.0001
# 6 -0.0001 -0.0004 -0.0001 -1.3119 -0.0001 31.4113
#
#
#
# Elastic Compliance Matrix: (Units=1/GPa)
#
#
# Indices 1 2 3 4 5 6 
#
# 1 0.013324 -0.012142 -0.004446 0.000000 -0.002525 0.000000
# 2 -0.012142 0.060979 -0.004952 0.000000 0.001039 0.000001
# 3 -0.004446 -0.004952 0.008381 0.000000 0.001103 0.000000
# 4 0.000000 0.000000 0.000000 0.044726 0.000000 0.001868
# 5 -0.002525 0.001039 0.001103 0.000000 0.033284 0.000000
# 6 0.000000 0.000001 0.000000 0.001868 0.000000 0.031914
#
#
# Mechanical properties :
#
#
# Convention : Reuss Voigt Hill
#
# Bulk Modulus (GPa) = 25.24996 76.01423 50.63210
# Shear Modulus (GPa) = 20.08929 29.65931 24.87430
#
# Velocity S-wave (km/s) = 3.34142 4.06003 3.71813
# Velocity P-wave (km/s) = 5.37774 8.01406 6.82441
#
# Compressibility (1/GPa) = 0.03960402
#
# Stress axis : x y z
#
# Youngs Moduli (GPa) = 75.05376 16.39903 119.32311
#
# Poissons Ratio (x) = 0.19911 0.53055
# Poissons Ratio (y) = 0.91129 0.59085
# Poissons Ratio (z) = 0.33372 0.08120
#
# Static dielectric constant tensor:
#      x y z
#    x 1.569420 0.000000 0.008350 
#    y 0.000000 1.612400 0.000000 
#    z 0.008350 0.000000 1.637680 
# 
# From -- ./inp_files/275026.got.cif
#   From: 2010.05.17/outbox.cif.g08.bks.cpg/sg12_138_cif.got.tgz:275026.got - 2010.06.03 13:09:07.
