data_PCOD9207720
_publ_section_title
;
Structure prediction by ZEFSAII (Michael W. Deem and Ramdas Pophale) SiO2 
 PCOD9207720
Probable space group: C 2/M
;
_chemical_formula_sum "Si O2"
_cell_formula_units_Z 40
_cell_length_a 19.581363
_cell_length_b 8.906220
_cell_length_c 11.404393
_cell_angle_alpha 90.000000
_cell_angle_beta 90.956351
_cell_angle_gamma 90.000000
_cell_volume 1988.602637
_symmetry_space_group_name_H-M "C 2/M"
_symmetry_group_IT_number 12
_symmetry_cell_setting 'monoclinic'
loop_
_space_group_symop_operation_xyz
x,y,z
-x,y,-z
-x,-y,-z
x,-y,z
1/2+x,1/2+y,z
1/2-x,1/2+y,-z
1/2-x,1/2-y,-z
1/2+x,1/2-y,z
loop_
_atom_site_type_symbol
_atom_site_label
_atom_site_fract_x
_atom_site_fract_y
_atom_site_fract_z
Si Si1 0.892758 0.675354 0.243828
Si Si2 0.152137 0.177871 0.244657
Si Si3 0.080127 0.180478 0.996711
Si Si4 0.533359 0.824556 0.376542
Si Si5 0.773932 0.821758 0.378170
O O1 0.874515 0.500000 0.245476
O O2 0.885584 0.743345 0.114531
O O3 0.972008 0.689287 0.282066
O O4 0.846646 0.760455 0.337127
O O5 0.219808 0.268308 0.278572
O O6 0.095747 0.222204 0.339854
O O7 0.165620 0.000000 0.247848
O O8 0.119070 0.217544 0.118173
O O9 0.081920 0.000000 0.982356
O O10 0.000000 0.224783 0.000000
O O11 0.500000 0.786512 0.500000
O O12 0.555457 0.000000 0.382075
O O13 0.750000 0.750000 0.500000
O O14 0.774762 0.000000 0.389225
#
# Coordination Sequence:
#
# PCOD9207720 Si02
#       5
#     8   8   8   8   8
#     4  11  23  39  64  95 128 168 214 262 318 377
#     4  11  23  40  65  93 125 167 213 260 316 377
#     4  10  21  40  64  93 130 169 212 264 317 372
#     4  10  21  37  59  89 124 162 207 262 318 376
#     4  12  26  45  67  92 129 168 210 262 319 380
#
# _framework density 20.114626999999999
#
# number of rings (size 3 to 8) (size 9 to 14) (size 15 to 20)
#    0.000    1.200    2.000    4.200    0.000    5.600 
#    0.000    0.000    0.000    0.000    0.000    0.000 
#    0.000    0.000    0.000    0.000    0.000    0.000 
#
# Total GULP energy -111879.304432 kJ/mol
# GULP energy per Si atom -5593.965222 kJ/mol
# Density = 2.006885 g / cm^3
# Si number density = 20.114627 Si / 1000 Ang^3
#
#
#
# Elastic Constant Matrix: (Units=GPa)
#
#
# Indices 1 2 3 4 5 6 
#
# 1 40.3451 25.0575 -8.5277 0.0000 -4.5735 0.0000
# 2 25.0575 69.9284 20.8076 0.0000 -4.2529 0.0000
# 3 -8.5277 20.8076 73.1008 0.0000 -3.8157 0.0000
# 4 0.0000 0.0000 0.0000 32.5790 0.0000 -6.3220
# 5 -4.5735 -4.2529 -3.8157 0.0000 32.7963 0.0000
# 6 0.0000 0.0000 0.0000 -6.3220 0.0000 31.5521
#
#
#
# Elastic Compliance Matrix: (Units=1/GPa)
#
#
# Indices 1 2 3 4 5 6 
#
# 1 0.036852 -0.015619 0.008962 0.000000 0.004156 0.000000
# 2 -0.015619 0.022319 -0.008187 0.000000 -0.000236 0.000000
# 3 0.008962 -0.008187 0.017170 0.000000 0.002186 0.000000
# 4 0.000000 0.000000 0.000000 0.031936 0.000000 0.006399
# 5 0.004156 -0.000236 0.002186 0.000000 0.031295 0.000000
# 6 0.000000 0.000000 0.000000 0.006399 0.000000 0.032976
#
#
# Mechanical properties :
#
#
# Convention : Reuss Voigt Hill
#
# Bulk Modulus (GPa) = 21.43540 28.67212 25.05376
# Shear Modulus (GPa) = 22.95813 29.12125 26.03969
#
# Velocity S-wave (km/s) = 3.38207 3.80908 3.60191
# Velocity P-wave (km/s) = 5.09225 5.79920 5.45718
#
# Compressibility (1/GPa) = 0.04665181
#
# Stress axis : x y z
#
# Youngs Moduli (GPa) = 27.13528 44.80488 58.24195
#
# Poissons Ratio (x) = 0.69982 -0.52196
# Poissons Ratio (y) = 0.42383 0.47685
# Poissons Ratio (z) = -0.24318 0.36683
#
# Static dielectric constant tensor:
#      x y z
#    x 1.708910 0.000000 0.023860 
#    y 0.000000 1.673820 0.000000 
#    z 0.023860 0.000000 1.706150 
# 
# From -- ./inp_files/151749.got.cif
#   From: 2010.05.17/outbox.cif.g08.bks.cpg/sg12_76_cif.got.tgz:151749.got - 2010.06.03 13:09:07.
