data_PCOD9207168
_publ_section_title
;
Structure prediction by ZEFSAII (Michael W. Deem and Ramdas Pophale) SiO2 
 PCOD9207168
Probable space group: C 2/M
;
_chemical_formula_sum "Si O2"
_cell_formula_units_Z 40
_cell_length_a 12.453353
_cell_length_b 29.955169
_cell_length_c 13.939999
_cell_angle_alpha 90.000000
_cell_angle_beta 20.861141
_cell_angle_gamma 90.000000
_cell_volume 1851.816980
_symmetry_space_group_name_H-M "C 2/M"
_symmetry_group_IT_number 12
_symmetry_cell_setting 'monoclinic'
loop_
_space_group_symop_operation_xyz
x,y,z
-x,y,-z
-x,-y,-z
x,-y,z
1/2+x,1/2+y,z
1/2-x,1/2+y,-z
1/2-x,1/2-y,-z
1/2+x,1/2-y,z
loop_
_atom_site_type_symbol
_atom_site_label
_atom_site_fract_x
_atom_site_fract_y
_atom_site_fract_z
Si Si1 0.854651 0.395328 0.844537
Si Si2 0.166440 0.218824 0.466319
Si Si3 0.249484 0.447288 0.374577
Si Si4 0.158628 0.306062 0.267675
Si Si5 0.663131 0.835671 0.965714
O O1 0.811733 0.349675 0.821065
O O2 0.131502 0.421798 0.567328
O O3 0.877542 0.378846 0.934742
O O4 0.560887 0.425963 0.080547
O O5 0.058159 0.267326 0.593392
O O6 0.000000 0.218812 0.500000
O O7 0.501363 0.205033 0.157600
O O8 0.003801 0.179521 0.661388
O O9 0.281234 0.500000 0.364756
O O10 0.000000 0.440668 0.500000
O O11 0.000000 0.319060 0.500000
O O12 0.500000 0.288663 0.000000
O O13 0.500000 0.841232 0.000000
#
# Coordination Sequence:
#
# PCOD9207168 Si02
#       5
#     8   8   8   8   8
#     4  12  23  37  62  90 116 151 196 242 287 344
#     4   9  18  34  53  76 115 163 199 234 281 326
#     4  11  24  43  65  89 118 147 179 230 302 374
#     4  11  21  34  54  83 120 155 195 245 289 336
#     4  10  21  37  57  82 117 160 203 238 274 326
#
# _framework density 21.600406
#
# number of rings (size 3 to 8) (size 9 to 14) (size 15 to 20)
#    0.000    1.400    0.000    8.400    0.000    3.200 
#    0.000    0.000    0.000    7.200    0.000    0.000 
#    0.000    0.000    0.000    0.000    0.000    0.000 
#
# Total GULP energy -111965.519191 kJ/mol
# GULP energy per Si atom -5598.275960 kJ/mol
# Density = 2.155124 g / cm^3
# Si number density = 21.600406 Si / 1000 Ang^3
#
#
#
# Elastic Constant Matrix: (Units=GPa)
#
#
# Indices 1 2 3 4 5 6 
#
# 1 62.0150 31.7710 19.2289 0.0014 16.2784 0.0002
# 2 31.7710 109.9090 21.1055 0.0006 8.3696 0.0000
# 3 19.2289 21.1055 110.4828 0.0007 6.7563 -0.0004
# 4 0.0014 0.0006 0.0007 27.1576 -0.0007 -16.5038
# 5 16.2784 8.3696 6.7563 -0.0007 36.3468 0.0000
# 6 0.0002 0.0000 -0.0004 -16.5038 0.0000 5.6265
#
#
#
# Elastic Compliance Matrix: (Units=1/GPa)
#
#
# Indices 1 2 3 4 5 6 
#
# 1 0.021607 -0.005195 -0.002275 0.000002 -0.008058 0.000005
# 2 -0.005195 0.010820 -0.001166 0.000000 0.000052 0.000000
# 3 -0.002275 -0.001166 0.009701 0.000000 -0.000516 -0.000001
# 4 0.000002 0.000000 0.000000 -0.047054 -0.000002 -0.138021
# 5 -0.008058 0.000052 -0.000516 -0.000002 0.031206 -0.000005
# 6 0.000005 0.000000 -0.000001 -0.138021 -0.000005 -0.227119
#
#
# Mechanical properties :
#
#
# Convention : Reuss Voigt Hill
#
# Bulk Modulus (GPa) = 40.23243 47.40195 43.81719
# Shear Modulus (GPa) = -28.52581 27.84626 -0.33978
#
# Velocity S-wave (km/s) = -3.63797 3.59437 -0.39704
# Velocity P-wave (km/s) = 1.00985 6.26248 4.48544
#
# Compressibility (1/GPa) = 0.02485557
#
# Stress axis : x y z
#
# Youngs Moduli (GPa) = 46.28035 92.41981 103.07711
#
# Poissons Ratio (x) = 0.48016 0.23454
# Poissons Ratio (y) = 0.24045 0.12018
# Poissons Ratio (z) = 0.10531 0.10775
#
# Static dielectric constant tensor:
#      x y z
#    x 1.929470 0.000000 0.029490 
#    y 0.000000 1.763890 0.000000 
#    z 0.029490 0.000000 1.758630 
# 
# From -- ./inp_files/219009.got.cif
#   From: 2010.05.17/outbox.cif.g08.bks.cpg/sg12_110_cif.got.tgz:219009.got - 2010.06.03 13:09:07.
