data_PCOD9207974
_publ_section_title
;
Structure prediction by ZEFSAII (Michael W. Deem and Ramdas Pophale) SiO2 
 PCOD9207974
Probable space group: C 2/M
;
_chemical_formula_sum "Si O2"
_cell_formula_units_Z 56
_cell_length_a 12.550129
_cell_length_b 28.405438
_cell_length_c 15.226840
_cell_angle_alpha 90.000000
_cell_angle_beta 29.911595
_cell_angle_gamma 90.000000
_cell_volume 2706.865974
_symmetry_space_group_name_H-M "C 2/M"
_symmetry_group_IT_number 12
_symmetry_cell_setting 'monoclinic'
loop_
_space_group_symop_operation_xyz
x,y,z
-x,y,-z
-x,-y,-z
x,-y,z
1/2+x,1/2+y,z
1/2-x,1/2+y,-z
1/2-x,1/2-y,-z
1/2+x,1/2-y,z
loop_
_atom_site_type_symbol
_atom_site_label
_atom_site_fract_x
_atom_site_fract_y
_atom_site_fract_z
Si Si1 0.119780 0.610842 0.054080
Si Si2 0.093170 0.711008 0.019509
Si Si3 0.217730 0.553379 0.289518
Si Si4 0.487447 0.444652 0.270136
Si Si5 0.206702 0.943606 0.411809
Si Si6 0.482362 0.762862 0.294744
Si Si7 0.240757 0.853466 0.858328
O O1 0.241533 0.631447 0.052816
O O2 0.918918 0.580586 0.226326
O O3 0.047016 0.656240 0.054681
O O4 0.288797 0.580667 0.880388
O O5 0.345442 0.720560 0.827693
O O6 0.987170 0.727934 0.186114
O O7 0.000000 0.734482 0.000000
O O8 0.246601 0.500000 0.229573
O O9 0.395315 0.561115 0.237992
O O10 0.210355 0.598143 0.230460
O O11 0.000000 0.551836 0.500000
O O12 0.517242 0.500000 0.262028
O O13 0.332550 0.428640 0.459043
O O14 0.000000 0.931839 0.500000
O O15 0.232926 0.000000 0.390314
O O16 0.593353 0.808850 0.262905
O O17 0.250000 0.750000 0.500000
O O18 0.000000 0.840664 0.000000
#
# Coordination Sequence:
#
# PCOD9207974 Si02
#       7
#     8   8   8   8   8   8   8
#     4  11  23  39  65  94 130 174 221 278 336 405
#     4  10  24  45  67  98 133 167 218 289 347 414
#     4  10  21  37  60  96 139 179 219 266 328 402
#     4  10  21  38  61  92 134 179 225 276 331 403
#     4  10  23  41  61  90 131 180 236 288 332 395
#     4  10  24  48  72  98 132 174 225 283 350 417
#     4  11  22  42  65  99 136 174 219 273 336 410
#
# _framework density 20.688132
#
# number of rings (size 3 to 8) (size 9 to 14) (size 15 to 20)
#    0.000    1.714    1.429    1.714    2.000    6.571 
#    5.143    2.143    0.000    0.000    0.000    0.000 
#    0.000    0.000    0.000    0.000    0.000    0.000 
#
# Total GULP energy -156136.170995 kJ/mol
# GULP energy per Si atom -5576.291821 kJ/mol
# Density = 2.064104 g / cm^3
# Si number density = 20.688132 Si / 1000 Ang^3
#
#
#
# Elastic Constant Matrix: (Units=GPa)
#
#
# Indices 1 2 3 4 5 6 
#
# 1 63.7640 0.9869 11.8061 0.0003 2.8088 0.0001
# 2 0.9869 42.6277 34.5765 0.0003 4.3819 0.0003
# 3 11.8061 34.5765 139.6499 -0.0001 -8.1386 -0.0004
# 4 0.0003 0.0003 -0.0001 14.3462 0.0001 -18.0504
# 5 2.8088 4.3819 -8.1386 0.0001 25.1564 0.0004
# 6 0.0001 0.0003 -0.0004 -18.0504 0.0004 -8.1853
#
#
#
# Elastic Compliance Matrix: (Units=1/GPa)
#
#
# Indices 1 2 3 4 5 6 
#
# 1 0.016124 0.001414 -0.001868 0.000000 -0.002651 0.000000
# 2 0.001414 0.030980 -0.008270 0.000000 -0.008230 0.000001
# 3 -0.001868 -0.008270 0.009644 0.000000 0.004769 0.000000
# 4 0.000000 0.000000 0.000000 0.018467 0.000000 -0.040723
# 5 -0.002651 -0.008230 0.004769 0.000000 0.043024 0.000000
# 6 0.000000 0.000001 0.000000 -0.040723 0.000000 -0.032366
#
#
# Mechanical properties :
#
#
# Convention : Reuss Voigt Hill
#
# Bulk Modulus (GPa) = 25.44454 37.86453 31.65454
# Shear Modulus (GPa) = 42.94859 19.50825 31.22842
#
# Velocity S-wave (km/s) = 4.56126 3.07411 3.88942
# Velocity P-wave (km/s) = 6.32976 5.56260 5.95854
#
# Compressibility (1/GPa) = 0.03930116
#
# Stress axis : x y z
#
# Youngs Moduli (GPa) = 62.02111 32.27908 103.69035
#
# Poissons Ratio (x) = -0.04565 0.19367
# Poissons Ratio (y) = -0.08771 0.85748
# Poissons Ratio (z) = 0.11584 0.26693
#
# Static dielectric constant tensor:
#      x y z
#    x 1.946380 0.000000 -0.052030 
#    y 0.000000 1.750200 0.000000 
#    z -0.052030 0.000000 1.702620 
# 
# From -- ./inp_files/210015.got.cif
#   From: 2010.05.17/outbox.cif.g08.bks.cpg/sg12_106_cif.got.tgz:210015.got - 2010.06.03 13:09:07.
