data_PCOD9207447
_publ_section_title
;
Structure prediction by ZEFSAII (Michael W. Deem and Ramdas Pophale) SiO2 
 PCOD9207447
Probable space group: C 2/M
;
_chemical_formula_sum "Si O2"
_cell_formula_units_Z 56
_cell_length_a 14.797540
_cell_length_b 20.973479
_cell_length_c 13.487074
_cell_angle_alpha 90.000000
_cell_angle_beta 134.601740
_cell_angle_gamma 90.000000
_cell_volume 2980.304321
_symmetry_space_group_name_H-M "C 2/M"
_symmetry_group_IT_number 12
_symmetry_cell_setting 'monoclinic'
loop_
_space_group_symop_operation_xyz
x,y,z
-x,y,-z
-x,-y,-z
x,-y,z
1/2+x,1/2+y,z
1/2-x,1/2+y,-z
1/2-x,1/2-y,-z
1/2+x,1/2-y,z
loop_
_atom_site_type_symbol
_atom_site_label
_atom_site_fract_x
_atom_site_fract_y
_atom_site_fract_z
Si Si1 0.119007 0.276970 0.440356
Si Si2 0.946270 0.154590 0.358645
Si Si3 0.740195 0.925160 0.890482
Si Si4 0.265354 0.648508 0.711762
Si Si5 0.784059 0.263192 0.861376
Si Si6 0.500168 0.423873 0.797038
Si Si7 0.594492 0.183910 0.862597
O O1 0.250000 0.250000 0.500000
O O2 0.034953 0.217258 0.411720
O O3 0.154219 0.325540 0.555368
O O4 0.041420 0.309789 0.292187
O O5 0.000000 0.123748 0.500000
O O6 0.802901 0.181431 0.252712
O O7 0.959285 0.108776 0.274533
O O8 0.719223 0.896657 0.765135
O O9 0.650627 0.886630 0.896123
O O10 0.718491 0.000000 0.875965
O O11 0.885717 0.912969 0.036482
O O12 0.321639 0.711559 0.808724
O O13 0.373689 0.611364 0.736032
O O14 0.688093 0.225800 0.863275
O O15 0.891988 0.290011 0.016283
O O16 0.482027 0.500000 0.774391
#
# Coordination Sequence:
#
# PCOD9207447 Si02
#       7
#     8   8   8   8   8   8   8
#     4  11  22  35  55  83 116 150 187 248 305 342
#     4  11  20  36  61  85 116 148 199 248 292 346
#     4  10  21  37  58  85 120 159 197 234 284 357
#     4  11  21  34  56  88 123 151 188 242 302 355
#     4   9  18  33  56  83 109 151 190 245 292 344
#     4  11  23  38  58  85 121 160 194 240 293 352
#     4   9  19  34  55  78 113 153 198 236 284 347
#
# _framework density 18.790028
#
# number of rings (size 3 to 8) (size 9 to 14) (size 15 to 20)
#    0.000    1.714    4.286    0.857    2.000    2.571 
#    0.000    2.143    0.000    0.000    0.000    0.000 
#    0.000    4.571    0.000    0.000    0.000    0.000 
#
# Total GULP energy -156371.680041 kJ/mol
# GULP energy per Si atom -5584.702859 kJ/mol
# Density = 1.874726 g / cm^3
# Si number density = 18.790028 Si / 1000 Ang^3
#
#
#
# Elastic Constant Matrix: (Units=GPa)
#
#
# Indices 1 2 3 4 5 6 
#
# 1 22.8122 27.8538 16.1815 0.0000 -1.7139 0.0000
# 2 27.8538 85.0860 61.9033 0.0000 -3.2000 0.0000
# 3 16.1815 61.9033 141.7941 0.0000 -12.4621 0.0000
# 4 0.0000 0.0000 0.0000 28.9654 0.0000 -1.0328
# 5 -1.7139 -3.2000 -12.4621 0.0000 25.7243 0.0000
# 6 0.0000 0.0000 0.0000 -1.0328 0.0000 21.4979
#
#
#
# Elastic Compliance Matrix: (Units=1/GPa)
#
#
# Indices 1 2 3 4 5 6 
#
# 1 0.074223 -0.026704 0.003479 0.000000 0.003309 0.000000
# 2 -0.026704 0.026892 -0.008936 0.000000 -0.002763 0.000000
# 3 0.003479 -0.008936 0.010945 0.000000 0.004423 0.000000
# 4 0.000000 0.000000 0.000000 0.034583 0.000000 0.001661
# 5 0.003309 -0.002763 0.004423 0.000000 0.040893 0.000000
# 6 0.000000 0.000000 0.000000 0.001661 0.000000 0.046596
#
#
# Mechanical properties :
#
#
# Convention : Reuss Voigt Hill
#
# Bulk Modulus (GPa) = 20.94757 51.28548 36.11652
# Shear Modulus (GPa) = 15.90496 24.82109 20.36303
#
# Velocity S-wave (km/s) = 2.91255 3.63846 3.29555
# Velocity P-wave (km/s) = 4.74163 6.70853 5.80894
#
# Compressibility (1/GPa) = 0.04773824
#
# Stress axis : x y z
#
# Youngs Moduli (GPa) = 13.47285 37.18609 91.36445
#
# Poissons Ratio (x) = 0.99303 -0.31784
# Poissons Ratio (y) = 0.35978 0.81639
# Poissons Ratio (z) = -0.04687 0.33228
#
# Static dielectric constant tensor:
#      x y z
#    x 1.667050 0.000000 -0.017380 
#    y 0.000000 1.640380 0.000000 
#    z -0.017380 0.000000 1.674650 
# 
# From -- ./inp_files/217721.got.cif
#   From: 2010.05.17/outbox.cif.g08.bks.cpg/sg12_109_cif.got.tgz:217721.got - 2010.06.03 13:09:07.
