data_PCOD9207307
_publ_section_title
;
Structure prediction by ZEFSAII (Michael W. Deem and Ramdas Pophale) SiO2 
 PCOD9207307
Probable space group: C 2/M
;
_chemical_formula_sum "Si O2"
_cell_formula_units_Z 64
_cell_length_a 16.821279
_cell_length_b 7.910833
_cell_length_c 19.743782
_cell_angle_alpha 90.000000
_cell_angle_beta 89.885342
_cell_angle_gamma 90.000000
_cell_volume 2627.306306
_symmetry_space_group_name_H-M "C 2/M"
_symmetry_group_IT_number 12
_symmetry_cell_setting 'monoclinic'
loop_
_space_group_symop_operation_xyz
x,y,z
-x,y,-z
-x,-y,-z
x,-y,z
1/2+x,1/2+y,z
1/2-x,1/2+y,-z
1/2-x,1/2-y,-z
1/2+x,1/2-y,z
loop_
_atom_site_type_symbol
_atom_site_label
_atom_site_fract_x
_atom_site_fract_y
_atom_site_fract_z
Si Si1 0.365592 0.200010 0.970183
Si Si2 0.379693 0.305671 0.228839
Si Si3 0.628010 0.293180 0.271389
Si Si4 0.962021 0.794180 0.600480
Si Si5 0.533156 0.295715 0.146147
Si Si6 0.123651 0.202001 0.528445
Si Si7 0.793145 0.301994 0.105628
Si Si8 0.280474 0.195047 0.349687
O O1 0.445546 0.233593 0.928578
O O2 0.292938 0.280777 0.928091
O O3 0.351412 0.000000 0.972572
O O4 0.354951 0.259858 0.047494
O O5 0.397213 0.500000 0.246677
O O6 0.453434 0.237873 0.184445
O O7 0.307556 0.293579 0.175301
O O8 0.354129 0.216904 0.297906
O O9 0.633035 0.500000 0.267782
O O10 0.557562 0.246237 0.323330
O O11 0.604176 0.239252 0.196591
O O12 0.706857 0.227662 0.308258
O O13 0.892264 0.739759 0.548323
O O14 0.045425 0.736671 0.569679
O O15 0.963953 0.000000 0.600035
O O16 0.530638 0.500000 0.143529
O O17 0.197710 0.243647 0.575564
O O18 0.120275 0.000000 0.525596
O O19 0.805154 0.500000 0.120451
O O20 0.261111 0.000000 0.358370
#
# Coordination Sequence:
#
# PCOD9207307 Si02
#       8
#     8   8   8   8   8   8   8   8
#     4  10  21  37  59  85 113 147 185 223 266 325
#     4  11  23  38  58  82 107 141 188 235 276 327
#     4   9  18  33  52  75 104 139 178 219 269 327
#     4   8  15  31  55  78 101 136 181 222 263 318
#     4  10  21  37  58  81 107 142 184 232 281 328
#     4   9  17  32  56  80 102 135 179 224 267 319
#     4  10  21  38  59  83 114 149 182 222 274 325
#     4  11  22  34  52  78 109 144 177 219 278 335
#
# _framework density 24.359551
#
# number of rings (size 3 to 8) (size 9 to 14) (size 15 to 20)
#    0.000    2.250    0.000    3.750    0.000    6.500 
#    0.000    4.375    0.000    3.000    0.000    0.000 
#    0.000    0.000    0.000    0.000    0.000    0.000 
#
# Total GULP energy -178818.384386 kJ/mol
# GULP energy per Si atom -5588.074512 kJ/mol
# Density = 2.430411 g / cm^3
# Si number density = 24.359551 Si / 1000 Ang^3
#
#
#
# Elastic Constant Matrix: (Units=GPa)
#
#
# Indices 1 2 3 4 5 6 
#
# 1 50.0541 -8.7657 -8.9756 0.0000 5.0503 0.0000
# 2 -8.7657 24.4648 -2.7336 0.0000 4.6176 0.0000
# 3 -8.9756 -2.7336 107.5137 0.0000 6.7243 0.0000
# 4 0.0000 0.0000 0.0000 20.9954 0.0000 -0.9332
# 5 5.0503 4.6176 6.7243 0.0000 37.1204 0.0000
# 6 0.0000 0.0000 0.0000 -0.9332 0.0000 4.6912
#
#
#
# Elastic Compliance Matrix: (Units=1/GPa)
#
#
# Indices 1 2 3 4 5 6 
#
# 1 0.022489 0.009202 0.002402 0.000000 -0.004639 0.000000
# 2 0.009202 0.045834 0.002396 0.000000 -0.007387 0.000000
# 3 0.002402 0.002396 0.009712 0.000000 -0.002384 0.000000
# 4 0.000000 0.000000 0.000000 0.048054 0.000000 0.009559
# 5 -0.004639 -0.007387 -0.002384 0.000000 0.028921 0.000000
# 6 0.000000 0.000000 0.000000 0.009559 0.000000 0.215065
#
#
# Mechanical properties :
#
#
# Convention : Reuss Voigt Hill
#
# Bulk Modulus (GPa) = 9.43117 15.67588 12.55352
# Shear Modulus (GPa) = 13.24780 26.06190 19.65485
#
# Velocity S-wave (km/s) = 2.33458 3.27446 2.84362
# Velocity P-wave (km/s) = 3.33872 4.55470 3.99326
#
# Compressibility (1/GPa) = 0.10603143
#
# Stress axis : x y z
#
# Youngs Moduli (GPa) = 44.46708 21.81789 102.96927
#
# Poissons Ratio (x) = -0.20076 -0.24728
# Poissons Ratio (y) = -0.40917 -0.24667
# Poissons Ratio (z) = -0.10679 -0.05227
#
# Static dielectric constant tensor:
#      x y z
#    x 2.038110 0.000000 0.003140 
#    y 0.000000 1.889650 0.000000 
#    z 0.003140 0.000000 1.895030 
# 
# From -- ./inp_files/314072.got.cif
#   From: 2010.05.17/outbox.cif.g08.bks.cpg/sg12_158_cif.got.tgz:314072.got - 2010.06.03 13:09:07.
