data_PCOD9207676
_publ_section_title
;
Structure prediction by ZEFSAII (Michael W. Deem and Ramdas Pophale) SiO2 
 PCOD9207676
Probable space group: C 2/M
;
_chemical_formula_sum "Si O2"
_cell_formula_units_Z 50
_cell_length_a 17.646719
_cell_length_b 14.841853
_cell_length_c 6.901079
_cell_angle_alpha 90.000000
_cell_angle_beta 87.948053
_cell_angle_gamma 90.000000
_cell_volume 1806.302675
_symmetry_space_group_name_H-M "C 2/M"
_symmetry_group_IT_number 12
_symmetry_cell_setting 'monoclinic'
loop_
_space_group_symop_operation_xyz
x,y,z
-x,y,-z
-x,-y,-z
x,-y,z
1/2+x,1/2+y,z
1/2-x,1/2+y,-z
1/2-x,1/2-y,-z
1/2+x,1/2-y,z
loop_
_atom_site_type_symbol
_atom_site_label
_atom_site_fract_x
_atom_site_fract_y
_atom_site_fract_z
Si Si1 0.029754 0.186902 0.755392
Si Si2 0.294244 0.896433 0.707384
Si Si3 0.000000 0.500000 0.000000
Si Si4 0.105959 0.901490 0.084698
Si Si5 0.355119 0.392303 0.514398
Si Si6 0.593182 0.177780 0.038626
Si Si7 0.074202 0.602704 0.623765
O O1 0.075499 0.172605 0.554833
O O2 0.092589 0.330760 0.800545
O O3 0.976096 0.099383 0.800473
O O4 0.964881 0.259159 0.827594
O O5 0.216264 0.870600 0.611616
O O6 0.324978 0.830678 0.871207
O O7 0.356341 0.896535 0.529459
O O8 0.286497 0.000000 0.778289
O O9 0.944514 0.580237 0.914784
O O10 0.161615 0.879938 0.256156
O O11 0.095759 0.830807 0.913708
O O12 0.123260 0.000000 0.005431
O O13 0.372148 0.500000 0.489873
O O14 0.064807 0.500000 0.712763
O O15 0.000000 0.620569 0.500000
#
# Coordination Sequence:
#
# PCOD9207676 Si02
#       7
#     8   8   2   8   8   8   8
#     4  11  23  38  62  98 130 162 212 272 334 380
#     4  10  22  41  63  91 126 170 222 259 317 393
#     4  12  20  40  66  88 122 174 218 264 320 370
#     4  10  21  41  66  93 124 163 213 271 321 386
#     4  10  22  41  67  92 125 174 215 264 322 393
#     4  12  24  38  63  92 130 168 210 271 323 379
#     4  10  21  37  59  88 117 164 218 267 313 369
#
# _framework density 27.680855999999999
#
# number of rings (size 3 to 8) (size 9 to 14) (size 15 to 20)
#    0.000    1.440    1.600    4.320    2.240    5.760 
#    0.000    4.800    0.000    0.000    0.000    0.000 
#    0.000    0.000    0.000    0.000    0.000    0.000 
#
# Total GULP energy -139458.745451 kJ/mol
# GULP energy per Si atom -5578.349818 kJ/mol
# Density = 2.761785 g / cm^3
# Si number density = 27.680856 Si / 1000 Ang^3
#
#
#
# Elastic Constant Matrix: (Units=GPa)
#
#
# Indices 1 2 3 4 5 6 
#
# 1 115.7680 31.6761 43.0910 0.0000 17.0550 0.0000
# 2 31.6761 134.7186 76.6687 0.0000 -12.1487 0.0000
# 3 43.0910 76.6687 194.4235 0.0000 19.7858 0.0000
# 4 0.0000 0.0000 0.0000 59.9566 0.0000 14.7510
# 5 17.0550 -12.1487 19.7858 0.0000 54.3145 0.0000
# 6 0.0000 0.0000 0.0000 14.7510 0.0000 48.5990
#
#
#
# Elastic Compliance Matrix: (Units=1/GPa)
#
#
# Indices 1 2 3 4 5 6 
#
# 1 0.010079 -0.002031 -0.001106 0.000000 -0.003216 0.000000
# 2 -0.002031 0.010732 -0.004249 0.000000 0.004586 0.000000
# 3 -0.001106 -0.004249 0.007400 0.000000 -0.003299 0.000000
# 4 0.000000 0.000000 0.000000 0.018025 0.000000 -0.005471
# 5 -0.003216 0.004586 -0.003299 0.000000 0.021649 0.000000
# 6 0.000000 0.000000 0.000000 -0.005471 0.000000 0.022237
#
#
# Mechanical properties :
#
#
# Convention : Reuss Voigt Hill
#
# Bulk Modulus (GPa) = 74.40266 83.08686 78.74476
# Shear Modulus (GPa) = 45.71612 52.13896 48.92754
#
# Velocity S-wave (km/s) = 4.06833 4.34473 4.20880
# Velocity P-wave (km/s) = 7.00039 7.43304 7.21995
#
# Compressibility (1/GPa) = 0.01344038
#
# Stress axis : x y z
#
# Youngs Moduli (GPa) = 99.21645 93.18178 135.14315
#
# Poissons Ratio (x) = 0.18921 0.14945
# Poissons Ratio (y) = 0.20146 0.57416
# Poissons Ratio (z) = 0.10972 0.39589
#
# Static dielectric constant tensor:
#      x y z
#    x 2.145850 0.000000 0.134170 
#    y 0.000000 2.566790 0.000000 
#    z 0.134170 0.000000 2.317570 
# 
# From -- ./inp_files/166286.got.cif
#   From: 2010.05.17/outbox.cif.g08.bks.cpg/sg12_84_cif.got.tgz:166286.got - 2010.06.03 13:09:07.
