data_PCOD9207498
_publ_section_title
;
Structure prediction by ZEFSAII (Michael W. Deem and Ramdas Pophale) SiO2 
 PCOD9207498
Probable space group: C 2/M
;
_chemical_formula_sum "Si O2"
_cell_formula_units_Z 64
_cell_length_a 14.757626
_cell_length_b 8.608066
_cell_length_c 29.044363
_cell_angle_alpha 90.000000
_cell_angle_beta 64.076456
_cell_angle_gamma 90.000000
_cell_volume 3318.381446
_symmetry_space_group_name_H-M "C 2/M"
_symmetry_group_IT_number 12
_symmetry_cell_setting 'monoclinic'
loop_
_space_group_symop_operation_xyz
x,y,z
-x,y,-z
-x,-y,-z
x,-y,z
1/2+x,1/2+y,z
1/2-x,1/2+y,-z
1/2-x,1/2-y,-z
1/2+x,1/2-y,z
loop_
_atom_site_type_symbol
_atom_site_label
_atom_site_fract_x
_atom_site_fract_y
_atom_site_fract_z
Si Si1 0.771582 0.682715 0.589328
Si Si2 0.908212 0.820693 0.484375
Si Si3 0.556505 0.686453 0.940370
Si Si4 0.564772 0.182965 0.620431
Si Si5 0.804319 0.313310 0.218489
Si Si6 0.341473 0.812949 0.672466
Si Si7 0.522872 0.186763 0.138097
Si Si8 0.730258 0.686568 0.133780
O O1 0.790933 0.500000 0.579350
O O2 0.811783 0.769185 0.535286
O O3 0.654336 0.717789 0.621688
O O4 0.825587 0.741102 0.623533
O O5 0.929257 0.714926 0.435685
O O6 0.000000 0.808742 0.500000
O O7 0.898095 0.000000 0.471536
O O8 0.558547 0.500000 0.935968
O O9 0.498402 0.755035 0.909032
O O10 0.670854 0.749132 0.914066
O O11 0.500000 0.728846 0.000000
O O12 0.454348 0.230808 0.662063
O O13 0.579933 0.000000 0.625807
O O14 0.802913 0.500000 0.221115
O O15 0.743826 0.247646 0.274862
O O16 0.748915 0.267384 0.183077
O O17 0.921483 0.265107 0.188448
O O18 0.337216 0.000000 0.672383
O O19 0.625689 0.251575 0.136626
O O20 0.527080 0.000000 0.136971
O O21 0.731155 0.500000 0.131186
#
# Coordination Sequence:
#
# PCOD9207498 Si02
#       8
#     8   8   8   8   8   8   8   8
#     4  11  23  40  59  83 113 146 184 226 276 334
#     4  11  22  37  60  86 110 144 184 223 275 333
#     4  10  21  37  58  87 122 159 198 242 291 341
#     4  11  23  40  59  83 113 146 184 226 276 334
#     4   9  21  39  59  83 113 147 189 240 289 338
#     4  10  23  40  59  82 112 148 185 229 285 339
#     4  10  21  38  60  87 117 155 199 241 290 343
#     4  10  21  38  60  87 117 155 199 241 290 343
#
# _framework density 19.28651
#
# number of rings (size 3 to 8) (size 9 to 14) (size 15 to 20)
#    0.000    1.750    1.250    3.375    0.000    8.000 
#    0.000    5.000    0.000    0.000    0.000    0.000 
#    0.000    0.000    0.000    0.000    0.000    0.000 
#
# Total GULP energy -178766.289885 kJ/mol
# GULP energy per Si atom -5586.446559 kJ/mol
# Density = 1.924261 g / cm^3
# Si number density = 19.286510 Si / 1000 Ang^3
#
#
#
# Elastic Constant Matrix: (Units=GPa)
#
#
# Indices 1 2 3 4 5 6 
#
# 1 117.3346 12.7834 28.3730 0.0000 -19.2626 0.0000
# 2 12.7834 27.0673 7.4538 0.0000 -4.2541 0.0000
# 3 28.3730 7.4538 88.7844 0.0000 -18.7767 0.0000
# 4 0.0000 0.0000 0.0000 30.6985 0.0000 -1.0186
# 5 -19.2626 -4.2541 -18.7767 0.0000 15.3339 0.0000
# 6 0.0000 0.0000 0.0000 -1.0186 0.0000 29.6058
#
#
#
# Elastic Compliance Matrix: (Units=1/GPa)
#
#
# Indices 1 2 3 4 5 6 
#
# 1 0.011021 -0.003107 -0.000696 0.000000 0.012131 0.000000
# 2 -0.003107 0.039620 -0.001126 0.000000 0.005710 0.000000
# 3 -0.000696 -0.001126 0.015288 0.000000 0.017535 0.000000
# 4 0.000000 0.000000 0.000000 0.032612 0.000000 0.001122
# 5 0.012131 0.005710 0.017535 0.000000 0.103510 0.000000
# 6 0.000000 0.000000 0.000000 0.001122 0.000000 0.033816
#
#
# Mechanical properties :
#
#
# Convention : Reuss Voigt Hill
#
# Bulk Modulus (GPa) = 17.83405 36.71187 27.27296
# Shear Modulus (GPa) = 18.90976 27.43272 23.17124
#
# Velocity S-wave (km/s) = 3.13464 3.77553 3.46991
# Velocity P-wave (km/s) = 4.72951 6.17111 5.49776
#
# Compressibility (1/GPa) = 0.05607252
#
# Stress axis : x y z
#
# Youngs Moduli (GPa) = 90.73746 25.24000 65.40883
#
# Poissons Ratio (x) = 0.07842 0.04550
# Poissons Ratio (y) = 0.28191 0.07363
# Poissons Ratio (z) = 0.06312 0.02841
#
# Static dielectric constant tensor:
#      x y z
#    x 1.695360 0.000000 -0.003700 
#    y 0.000000 1.651100 0.000000 
#    z -0.003700 0.000000 1.651130 
# 
# From -- ./inp_files/375065.got.cif
#   From: 2010.05.17/outbox.cif.g08.bks.cpg/sg12_188_cif.got.tgz:375065.got - 2010.06.03 13:09:07.
