data_PCOD9207936
_publ_section_title
;
Structure prediction by ZEFSAII (Michael W. Deem and Ramdas Pophale) SiO2 
 PCOD9207936
Probable space group: C 2/M
;
_chemical_formula_sum "Si O2"
_cell_formula_units_Z 48
_cell_length_a 22.630381
_cell_length_b 11.648930
_cell_length_c 9.429323
_cell_angle_alpha 90.000000
_cell_angle_beta 115.052594
_cell_angle_gamma 90.000000
_cell_volume 2251.894325
_symmetry_space_group_name_H-M "C 2/M"
_symmetry_group_IT_number 12
_symmetry_cell_setting 'monoclinic'
loop_
_space_group_symop_operation_xyz
x,y,z
-x,y,-z
-x,-y,-z
x,-y,z
1/2+x,1/2+y,z
1/2-x,1/2+y,-z
1/2-x,1/2-y,-z
1/2+x,1/2-y,z
loop_
_atom_site_type_symbol
_atom_site_label
_atom_site_fract_x
_atom_site_fract_y
_atom_site_fract_z
Si Si1 0.991675 0.131835 0.656450
Si Si2 0.566162 0.275925 0.139554
Si Si3 0.780973 0.163027 0.334891
Si Si4 0.294842 0.378184 0.676072
Si Si5 0.857523 0.868926 0.131713
Si Si6 0.648800 0.872148 0.039568
O O1 0.064574 0.130895 0.792596
O O2 0.000000 0.161087 0.500000
O O3 0.949882 0.218812 0.709544
O O4 0.965749 0.000000 0.640875
O O5 0.633062 0.347841 0.194322
O O6 0.587171 0.160902 0.077420
O O7 0.500000 0.321808 0.000000
O O8 0.762643 0.295026 0.336697
O O9 0.798402 0.122513 0.509158
O O10 0.833919 0.138205 0.270496
O O11 0.711999 0.118762 0.204484
O O12 0.275988 0.500000 0.711076
O O13 0.836238 0.000000 0.063400
O O14 0.838493 0.743677 0.043425
O O15 0.640174 0.000000 0.964538
#
# Coordination Sequence:
#
# PCOD9207936 Si02
#       6
#     8   8   8   8   8   8
#     4  10  21  37  60  91 127 163 202 256 317 369
#     4  11  22  40  61  94 121 161 210 263 308 371
#     4  10  22  39  59  90 125 162 211 258 313 378
#     4  10  21  37  62  90 123 164 207 260 318 373
#     4  11  22  38  62  92 125 162 210 263 313 368
#     4  11  24  41  63  90 126 170 209 254 315 375
#
# _framework density 21.315387999999999
#
# number of rings (size 3 to 8) (size 9 to 14) (size 15 to 20)
#    0.000    1.500    1.667    3.500    0.000    7.000 
#    0.000    0.000    0.000    4.000    0.000    0.000 
#    0.000    0.000    0.000    0.000    0.000    0.000 
#
# Total GULP energy -133640.348869 kJ/mol
# GULP energy per Si atom -5568.347870 kJ/mol
# Density = 2.126687 g / cm^3
# Si number density = 21.315388 Si / 1000 Ang^3
#
#
#
# Elastic Constant Matrix: (Units=GPa)
#
#
# Indices 1 2 3 4 5 6 
#
# 1 70.6755 15.5026 -7.7900 0.0000 -20.6706 0.0000
# 2 15.5026 156.8815 29.9099 0.0000 -7.8962 0.0000
# 3 -7.7900 29.9099 59.8346 0.0000 -13.7223 0.0000
# 4 0.0000 0.0000 0.0000 17.2600 0.0000 -54.0197
# 5 -20.6706 -7.8962 -13.7223 0.0000 45.3641 0.0000
# 6 0.0000 0.0000 0.0000 -54.0197 0.0000 78.8547
#
#
#
# Elastic Compliance Matrix: (Units=1/GPa)
#
#
# Indices 1 2 3 4 5 6 
#
# 1 0.018112 -0.002405 0.005756 0.000000 0.009575 0.000000
# 2 -0.002405 0.007366 -0.004247 0.000000 -0.001099 0.000000
# 3 0.005756 -0.004247 0.021510 0.000000 0.008390 0.000000
# 4 0.000000 0.000000 0.000000 -0.050642 0.000000 -0.034693
# 5 0.009575 -0.001099 0.008390 0.000000 0.028754 0.000000
# 6 0.000000 0.000000 0.000000 -0.034693 0.000000 -0.011085
#
#
# Mechanical properties :
#
#
# Convention : Reuss Voigt Hill
#
# Bulk Modulus (GPa) = 22.12631 40.29296 31.20963
# Shear Modulus (GPa) = 161.95726 44.94702 103.45214
#
# Velocity S-wave (km/s) = 8.72619 4.59700 6.97419
# Velocity P-wave (km/s) = 10.57976 6.86446 8.91774
#
# Compressibility (1/GPa) = 0.04519506
#
# Stress axis : x y z
#
# Youngs Moduli (GPa) = 55.21272 135.75148 46.49108
#
# Poissons Ratio (x) = 0.32652 -0.26762
# Poissons Ratio (y) = 0.13280 0.19747
# Poissons Ratio (z) = -0.31782 0.57659
#
# Static dielectric constant tensor:
#      x y z
#    x 1.755200 0.000000 -0.013670 
#    y 0.000000 1.848320 0.000000 
#    z -0.013670 0.000000 1.836260 
# 
# From -- ./inp_files/94995.got.cif
#   From: 2010.05.17/outbox.cif.g08.bks.cpg/sg12_48_cif.got.tgz:94995.got - 2010.06.03 13:09:07.
