data_PCOD9207545
_publ_section_title
;
Structure prediction by ZEFSAII (Michael W. Deem and Ramdas Pophale) SiO2 
 PCOD9207545
Probable space group: C 2/M
;
_chemical_formula_sum "Si O2"
_cell_formula_units_Z 34
_cell_length_a 8.262840
_cell_length_b 27.632094
_cell_length_c 7.478919
_cell_angle_alpha 90.000000
_cell_angle_beta 112.297066
_cell_angle_gamma 90.000000
_cell_volume 1579.906103
_symmetry_space_group_name_H-M "C 2/M"
_symmetry_group_IT_number 12
_symmetry_cell_setting 'monoclinic'
loop_
_space_group_symop_operation_xyz
x,y,z
-x,y,-z
-x,-y,-z
x,-y,z
1/2+x,1/2+y,z
1/2-x,1/2+y,-z
1/2-x,1/2-y,-z
1/2+x,1/2-y,z
loop_
_atom_site_type_symbol
_atom_site_label
_atom_site_fract_x
_atom_site_fract_y
_atom_site_fract_z
Si Si1 0.000000 0.500000 0.500000
Si Si2 0.657624 0.678897 0.175566
Si Si3 0.012424 0.276921 0.288556
Si Si4 0.201082 0.144467 0.563508
Si Si5 0.129859 0.552821 0.214647
O O1 0.974143 0.541231 0.646787
O O2 0.828589 0.700135 0.149139
O O3 0.565539 0.726104 0.226074
O O4 0.727189 0.643662 0.360059
O O5 0.500000 0.655314 0.000000
O O6 0.000000 0.272192 0.500000
O O7 0.168010 0.314300 0.314404
O O8 0.238177 0.095178 0.682659
O O9 0.000000 0.157583 0.500000
O O10 0.212104 0.500000 0.201595
O O11 0.000000 0.566123 0.000000
#
# Coordination Sequence:
#
# PCOD9207545 Si02
#       5
#     2   8   8   8   8
#     4   8  18  40  70  88 126 142 208 250 302 372
#     4  11  22  36  57  87 120 158 207 250 303 361
#     4  10  21  37  59  78 120 164 205 253 303 353
#     4  11  23  39  57  86 124 158 202 250 297 364
#     4   9  21  40  67  91 118 159 200 246 314 363
#
# _framework density 21.520267
#
# number of rings (size 3 to 8) (size 9 to 14) (size 15 to 20)
#    0.706    1.176    0.000    5.647    4.941    3.294 
#    0.000    0.000    0.000    2.118    0.000    0.000 
#    0.000    0.000    0.000    0.000    0.000    0.000 
#
# Total GULP energy -94645.614867 kJ/mol
# GULP energy per Si atom -5567.389110 kJ/mol
# Density = 2.147129 g / cm^3
# Si number density = 21.520267 Si / 1000 Ang^3
#
#
#
# Elastic Constant Matrix: (Units=GPa)
#
#
# Indices 1 2 3 4 5 6 
#
# 1 96.5859 22.5442 27.7147 0.0000 18.2818 0.0000
# 2 22.5442 82.9672 27.3826 0.0000 19.7915 0.0000
# 3 27.7147 27.3826 88.4172 0.0000 14.8518 0.0000
# 4 0.0000 0.0000 0.0000 26.7286 0.0000 3.6393
# 5 18.2818 19.7915 14.8518 0.0000 28.8659 0.0000
# 6 0.0000 0.0000 0.0000 3.6393 0.0000 -0.2085
#
#
#
# Elastic Compliance Matrix: (Units=1/GPa)
#
#
# Indices 1 2 3 4 5 6 
#
# 1 0.012455 -0.001158 -0.002576 0.000000 -0.005769 0.000000
# 2 -0.001158 0.015320 -0.003000 0.000000 -0.008227 0.000000
# 3 -0.002576 -0.003000 0.013603 0.000000 -0.003310 0.000000
# 4 0.000000 0.000000 0.000000 0.011079 0.000000 0.193409
# 5 -0.005769 -0.008227 -0.003310 0.000000 0.045641 0.000000
# 6 0.000000 0.000000 0.000000 0.193409 0.000000 -1.420494
#
#
# Mechanical properties :
#
#
# Convention : Reuss Voigt Hill
#
# Bulk Modulus (GPa) = 35.82985 47.02815 41.42900
# Shear Modulus (GPa) = -3.84726 23.76579 9.95927
#
# Velocity S-wave (km/s) = -1.33851 3.32677 2.15358
# Velocity P-wave (km/s) = 3.78109 6.05450 5.04746
#
# Compressibility (1/GPa) = 0.02790969
#
# Stress axis : x y z
#
# Youngs Moduli (GPa) = 80.28947 65.27315 73.51510
#
# Poissons Ratio (x) = 0.07558 0.18941
# Poissons Ratio (y) = 0.09297 0.22052
# Poissons Ratio (z) = 0.20686 0.19580
#
# Static dielectric constant tensor:
#      x y z
#    x 1.824880 0.000000 -0.043360 
#    y 0.000000 1.783980 0.000000 
#    z -0.043360 0.000000 1.766590 
# 
# From -- ./inp_files/40638.got.cif
#   From: 2010.05.17/outbox.cif.g08.bks.cpg/sg12_21_cif.got.tgz:40638.got - 2010.06.03 13:09:07.
