data_PCOD9207339
_publ_section_title
;
Structure prediction by ZEFSAII (Michael W. Deem and Ramdas Pophale) SiO2 
 PCOD9207339
Probable space group: C 2/M
;
_chemical_formula_sum "Si O2"
_cell_formula_units_Z 36
_cell_length_a 22.283584
_cell_length_b 11.158131
_cell_length_c 8.082554
_cell_angle_alpha 90.000000
_cell_angle_beta 64.476605
_cell_angle_gamma 90.000000
_cell_volume 1813.546663
_symmetry_space_group_name_H-M "C 2/M"
_symmetry_group_IT_number 12
_symmetry_cell_setting 'monoclinic'
loop_
_space_group_symop_operation_xyz
x,y,z
-x,y,-z
-x,-y,-z
x,-y,z
1/2+x,1/2+y,z
1/2-x,1/2+y,-z
1/2-x,1/2-y,-z
1/2+x,1/2-y,z
loop_
_atom_site_type_symbol
_atom_site_label
_atom_site_fract_x
_atom_site_fract_y
_atom_site_fract_z
Si Si1 0.280299 0.194062 0.797720
Si Si2 0.097478 0.369870 0.134992
Si Si3 0.500000 0.773707 0.500000
Si Si4 0.375228 0.638354 0.495129
Si Si5 0.635850 0.366795 0.879933
O O1 0.344311 0.126663 0.794921
O O2 0.310960 0.290252 0.635761
O O3 0.216378 0.132239 0.794083
O O4 0.250000 0.250000 0.000000
O O5 0.098707 0.500000 0.046153
O O6 0.029174 0.351183 0.315071
O O7 0.110203 0.249548 0.011462
O O8 0.439478 0.692850 0.507762
O O9 0.367528 0.500000 0.549627
O O10 0.383326 0.647340 0.288521
O O11 0.612796 0.500000 0.966744
#
# Coordination Sequence:
#
# PCOD9207339 Si02
#       5
#     8   8   4   8   8
#     4   9  19  34  56  84 112 144 181 225 276 331
#     4  10  21  38  59  83 113 150 187 229 279 334
#     4  10  22  38  56  80 109 150 195 234 275 328
#     4  10  21  37  58  83 114 150 188 231 279 331
#     4  10  21  37  58  87 116 145 184 231 281 334
#
# _framework density 19.850605999999999
#
# number of rings (size 3 to 8) (size 9 to 14) (size 15 to 20)
#    0.000    2.222    0.000    2.000    0.000   13.333 
#    0.000   10.000    0.000    0.000    0.000    0.000 
#    0.000    0.000    0.000    0.000    0.000    0.000 
#
# Total GULP energy -100295.922003 kJ/mol
# GULP energy per Si atom -5571.995667 kJ/mol
# Density = 1.980543 g / cm^3
# Si number density = 19.850606 Si / 1000 Ang^3
#
#
#
# Elastic Constant Matrix: (Units=GPa)
#
#
# Indices 1 2 3 4 5 6 
#
# 1 33.1556 19.4846 14.6192 0.0000 6.7886 0.0000
# 2 19.4846 184.9411 63.6432 0.0000 -2.2930 0.0000
# 3 14.6192 63.6432 68.3741 0.0000 -12.8413 0.0000
# 4 0.0000 0.0000 0.0000 26.8549 0.0000 -0.5441
# 5 6.7886 -2.2930 -12.8413 0.0000 31.1025 0.0000
# 6 0.0000 0.0000 0.0000 -0.5441 0.0000 7.2599
#
#
#
# Elastic Compliance Matrix: (Units=1/GPa)
#
#
# Indices 1 2 3 4 5 6 
#
# 1 0.037309 -0.000813 -0.009498 0.000000 -0.012124 0.000000
# 2 -0.000813 0.008184 -0.007911 0.000000 -0.002486 0.000000
# 3 -0.009498 -0.007911 0.026342 0.000000 0.012366 0.000000
# 4 0.000000 0.000000 0.000000 0.037294 0.000000 0.002795
# 5 -0.012124 -0.002486 0.012366 0.000000 0.039720 0.000000
# 6 0.000000 0.000000 0.000000 0.002795 0.000000 0.137952
#
#
# Mechanical properties :
#
#
# Convention : Reuss Voigt Hill
#
# Bulk Modulus (GPa) = 28.25469 53.55164 40.90316
# Shear Modulus (GPa) = 14.92350 25.62504 20.27427
#
# Velocity S-wave (km/s) = 2.74485 3.59680 3.19931
# Velocity P-wave (km/s) = 4.93054 6.65471 5.85642
#
# Compressibility (1/GPa) = 0.03539236
#
# Stress axis : x y z
#
# Youngs Moduli (GPa) = 26.80348 122.18426 37.96173
#
# Poissons Ratio (x) = 0.09928 0.36055
# Poissons Ratio (y) = 0.02178 0.30032
# Poissons Ratio (z) = 0.25457 0.96662
#
# Static dielectric constant tensor:
#      x y z
#    x 1.627510 0.000000 -0.074220 
#    y 0.000000 1.561050 0.000000 
#    z -0.074220 0.000000 1.617090 
# 
# From -- ./inp_files/93592.got.cif
#   From: 2010.05.17/outbox.cif.g08.bks.cpg/sg12_47_cif.got.tgz:93592.got - 2010.06.03 13:09:07.
