data_PCOD9207429
_publ_section_title
;
Structure prediction by ZEFSAII (Michael W. Deem and Ramdas Pophale) SiO2 
 PCOD9207429
Probable space group: C 2/M
;
_chemical_formula_sum "Si O2"
_cell_formula_units_Z 56
_cell_length_a 20.945995
_cell_length_b 8.679144
_cell_length_c 14.316189
_cell_angle_alpha 90.000000
_cell_angle_beta 75.322273
_cell_angle_gamma 90.000000
_cell_volume 2517.655350
_symmetry_space_group_name_H-M "C 2/M"
_symmetry_group_IT_number 12
_symmetry_cell_setting 'monoclinic'
loop_
_space_group_symop_operation_xyz
x,y,z
-x,y,-z
-x,-y,-z
x,-y,z
1/2+x,1/2+y,z
1/2-x,1/2+y,-z
1/2-x,1/2-y,-z
1/2+x,1/2-y,z
loop_
_atom_site_type_symbol
_atom_site_label
_atom_site_fract_x
_atom_site_fract_y
_atom_site_fract_z
Si Si1 0.576986 0.314362 0.982193
Si Si2 0.120382 0.313498 0.775580
Si Si3 0.505857 0.317517 0.687552
Si Si4 0.865285 0.682137 0.715366
Si Si5 0.089711 0.674791 0.501575
Si Si6 0.789586 0.332104 0.405598
Si Si7 0.310466 0.683748 0.916337
O O1 0.577529 0.500000 0.972816
O O2 0.616086 0.237597 0.882918
O O3 0.500000 0.265832 0.000000
O O4 0.619585 0.276401 0.058406
O O5 0.117670 0.500000 0.768290
O O6 0.058457 0.235656 0.745626
O O7 0.188008 0.258624 0.699790
O O8 0.494147 0.500000 0.699609
O O9 0.438869 0.222988 0.723242
O O10 0.534383 0.275314 0.574021
O O11 0.852929 0.500000 0.718760
O O12 0.871423 0.736017 0.604246
O O13 0.815928 0.757970 0.807719
O O14 0.068127 0.500000 0.485381
O O15 0.140808 0.655405 0.566949
O O16 0.760329 0.500000 0.398899
O O17 0.750000 0.250000 0.500000
O O18 0.304429 0.500000 0.917835
O O19 0.250000 0.750000 0.000000
#
# Coordination Sequence:
#
# PCOD9207429 Si02
#       7
#     8   8   8   8   8   8   8
#     4  10  22  41  65  92 120 154 202 259 312 361
#     4  10  21  37  58  85 116 151 193 244 300 358
#     4  11  21  34  56  88 123 155 191 238 294 361
#     4  11  22  38  61  85 114 155 199 246 301 357
#     4   9  20  37  55  80 115 152 191 237 291 354
#     4   9  19  35  53  77 109 144 184 229 281 343
#     4  11  25  44  64  89 125 165 208 259 312 369
#
# _framework density 22.242916999999998
#
# number of rings (size 3 to 8) (size 9 to 14) (size 15 to 20)
#    0.000    1.857    0.000    4.714    0.000    9.429 
#    0.000    4.286    0.000    0.000    0.000    0.000 
#    0.000    0.000    0.000    0.000    0.000    0.000 
#
# Total GULP energy -156213.591298 kJ/mol
# GULP energy per Si atom -5579.056832 kJ/mol
# Density = 2.219229 g / cm^3
# Si number density = 22.242917 Si / 1000 Ang^3
#
#
#
# Elastic Constant Matrix: (Units=GPa)
#
#
# Indices 1 2 3 4 5 6 
#
# 1 39.1990 8.1190 15.1784 0.0000 -4.3160 0.0000
# 2 8.1190 20.8444 26.4718 0.0000 -1.7467 0.0000
# 3 15.1784 26.4718 168.7622 0.0000 -13.1326 0.0000
# 4 0.0000 0.0000 0.0000 38.5007 0.0000 -2.3270
# 5 -4.3160 -1.7467 -13.1326 0.0000 39.7679 0.0000
# 6 0.0000 0.0000 0.0000 -2.3270 0.0000 17.4463
#
#
#
# Elastic Compliance Matrix: (Units=1/GPa)
#
#
# Indices 1 2 3 4 5 6 
#
# 1 0.028098 -0.009703 -0.000822 0.000000 0.002352 0.000000
# 2 -0.009703 0.063268 -0.009152 0.000000 -0.001297 0.000000
# 3 -0.000822 -0.009152 0.007592 0.000000 0.002016 0.000000
# 4 0.000000 0.000000 0.000000 0.026185 0.000000 0.003493
# 5 0.002352 -0.001297 0.002016 0.000000 0.026010 0.000000
# 6 0.000000 0.000000 0.000000 0.003493 0.000000 0.057785
#
#
# Mechanical properties :
#
#
# Convention : Reuss Voigt Hill
#
# Bulk Modulus (GPa) = 16.77765 36.48264 26.63015
# Shear Modulus (GPa) = 18.64556 31.07875 24.86216
#
# Velocity S-wave (km/s) = 2.89843 3.74203 3.34691
# Velocity P-wave (km/s) = 4.33134 5.92519 5.18981
#
# Compressibility (1/GPa) = 0.05960310
#
# Stress axis : x y z
#
# Youngs Moduli (GPa) = 35.58992 15.80567 131.71879
#
# Poissons Ratio (x) = 0.15336 0.10828
# Poissons Ratio (y) = 0.34533 1.20554
# Poissons Ratio (z) = 0.02926 0.14466
#
# Static dielectric constant tensor:
#      x y z
#    x 1.895840 0.000000 -0.025530 
#    y 0.000000 1.780050 0.000000 
#    z -0.025530 0.000000 1.866150 
# 
# From -- ./inp_files/237411.got.cif
#   From: 2010.05.17/outbox.cif.g08.bks.cpg/sg12_119_cif.got.tgz:237411.got - 2010.06.03 13:09:07.
