data_PCOD9207199
_publ_section_title
;
Structure prediction by ZEFSAII (Michael W. Deem and Ramdas Pophale) SiO2 
 PCOD9207199
Probable space group: C 2/M
;
_chemical_formula_sum "Si O2"
_cell_formula_units_Z 56
_cell_length_a 13.570438
_cell_length_b 27.559970
_cell_length_c 8.375774
_cell_angle_alpha 90.000000
_cell_angle_beta 66.205477
_cell_angle_gamma 90.000000
_cell_volume 2866.274728
_symmetry_space_group_name_H-M "C 2/M"
_symmetry_group_IT_number 12
_symmetry_cell_setting 'monoclinic'
loop_
_space_group_symop_operation_xyz
x,y,z
-x,y,-z
-x,-y,-z
x,-y,z
1/2+x,1/2+y,z
1/2-x,1/2+y,-z
1/2-x,1/2-y,-z
1/2+x,1/2-y,z
loop_
_atom_site_type_symbol
_atom_site_label
_atom_site_fract_x
_atom_site_fract_y
_atom_site_fract_z
Si Si1 0.405464 0.874439 0.680690
Si Si2 0.103285 0.055243 0.837724
Si Si3 0.589769 0.792539 0.074482
Si Si4 0.771596 0.853783 0.785833
Si Si5 0.206451 0.445209 0.025508
Si Si6 0.304657 0.643097 0.393909
Si Si7 0.017347 0.198756 0.302421
O O1 0.500000 0.886574 0.500000
O O2 0.438193 0.829298 0.766357
O O3 0.385763 0.919927 0.809383
O O4 0.295472 0.857740 0.662641
O O5 0.195485 0.053375 0.912156
O O6 0.139444 0.090973 0.674145
O O7 0.081834 0.000000 0.797286
O O8 0.000000 0.074466 0.000000
O O9 0.576142 0.739554 0.159367
O O10 0.500000 0.796963 0.000000
O O11 0.700084 0.812862 0.923339
O O12 0.762219 0.850311 0.601228
O O13 0.897022 0.845115 0.744831
O O14 0.734288 0.906323 0.871225
O O15 0.184298 0.500000 0.986304
O O16 0.401310 0.682243 0.309180
O O17 0.000000 0.214208 0.500000
#
# Coordination Sequence:
#
# PCOD9207199 Si02
#       7
#     8   8   8   8   8   8   8
#     4  10  21  39  60  82 113 148 187 233 281 331
#     4   9  17  31  53  82 115 150 187 226 273 330
#     4  11  23  38  58  82 110 146 188 231 280 335
#     4  10  21  37  57  83 117 149 186 231 278 330
#     4   9  19  34  54  81 112 148 188 230 276 328
#     4  10  21  37  59  85 114 148 187 231 278 332
#     4  10  22  38  56  83 115 149 187 229 278 334
#
# _framework density 19.537555999999999
#
# number of rings (size 3 to 8) (size 9 to 14) (size 15 to 20)
#    0.000    2.143    0.000    2.571    0.000    6.000 
#    0.000    3.571    0.000   19.714    0.000    0.000 
#    0.000    0.000    0.000    0.000    0.000    0.000 
#
# Total GULP energy -156147.975330 kJ/mol
# GULP energy per Si atom -5576.713405 kJ/mol
# Density = 1.949309 g / cm^3
# Si number density = 19.537556 Si / 1000 Ang^3
#
#
#
# Elastic Constant Matrix: (Units=GPa)
#
#
# Indices 1 2 3 4 5 6 
#
# 1 28.4063 24.6051 -13.2929 0.0000 1.3712 0.0000
# 2 24.6051 102.4136 47.4793 0.0000 6.5393 0.0000
# 3 -13.2929 47.4793 71.4922 0.0000 -8.7312 0.0000
# 4 0.0000 0.0000 0.0000 10.4551 0.0000 8.7206
# 5 1.3712 6.5393 -8.7312 0.0000 18.0836 0.0000
# 6 0.0000 0.0000 0.0000 8.7206 0.0000 10.8850
#
#
#
# Elastic Compliance Matrix: (Units=1/GPa)
#
#
# Indices 1 2 3 4 5 6 
#
# 1 0.130109 -0.070616 0.077578 0.000000 0.053126 0.000000
# 2 -0.070616 0.054472 -0.054257 0.000000 -0.040540 0.000000
# 3 0.077578 -0.054257 0.070266 0.000000 0.047664 0.000000
# 4 0.000000 0.000000 0.000000 0.288308 0.000000 -0.230981
# 5 0.053126 -0.040540 0.047664 0.000000 0.088944 0.000000
# 6 0.000000 0.000000 0.000000 -0.230981 0.000000 0.276922
#
#
# Mechanical properties :
#
#
# Convention : Reuss Voigt Hill
#
# Bulk Modulus (GPa) = 6.24004 35.54388 20.89196
# Shear Modulus (GPa) = 4.73023 17.45278 11.09151
#
# Velocity S-wave (km/s) = 1.55768 2.99205 2.38523
# Velocity P-wave (km/s) = 2.53692 5.49259 4.27811
#
# Compressibility (1/GPa) = 0.16025527
#
# Stress axis : x y z
#
# Youngs Moduli (GPa) = 7.68589 18.35791 14.23157
#
# Poissons Ratio (x) = 1.29637 -1.10405
# Poissons Ratio (y) = 0.54275 0.77217
# Poissons Ratio (z) = -0.59625 0.99605
#
# Static dielectric constant tensor:
#      x y z
#    x 1.694650 0.000000 -0.015850 
#    y 0.000000 1.688090 0.000000 
#    z -0.015850 0.000000 1.672050 
# 
# From -- ./inp_files/53164.got.cif
#   From: 2010.05.17/outbox.cif.g08.bks.cpg/sg12_27_cif.got.tgz:53164.got - 2010.06.03 13:09:07.
