data_PCOD9207189
_publ_section_title
;
Structure prediction by ZEFSAII (Michael W. Deem and Ramdas Pophale) SiO2 
 PCOD9207189
Probable space group: C 2/M
;
_chemical_formula_sum "Si O2"
_cell_formula_units_Z 56
_cell_length_a 18.211104
_cell_length_b 8.788811
_cell_length_c 18.944424
_cell_angle_alpha 90.000000
_cell_angle_beta 103.877560
_cell_angle_gamma 90.000000
_cell_volume 2943.623536
_symmetry_space_group_name_H-M "C 2/M"
_symmetry_group_IT_number 12
_symmetry_cell_setting 'monoclinic'
loop_
_space_group_symop_operation_xyz
x,y,z
-x,y,-z
-x,-y,-z
x,-y,z
1/2+x,1/2+y,z
1/2-x,1/2+y,-z
1/2-x,1/2-y,-z
1/2+x,1/2-y,z
loop_
_atom_site_type_symbol
_atom_site_label
_atom_site_fract_x
_atom_site_fract_y
_atom_site_fract_z
Si Si1 0.234570 0.683286 0.279814
Si Si2 0.384856 0.681700 0.857189
Si Si3 0.092052 0.181995 0.717590
Si Si4 0.952345 0.318439 0.141798
Si Si5 0.520215 0.183368 0.423984
Si Si6 0.307334 0.816700 0.570327
Si Si7 0.667552 0.317772 0.995636
O O1 0.225375 0.500000 0.272594
O O2 0.177689 0.761361 0.212368
O O3 0.321191 0.720185 0.281255
O O4 0.215366 0.729007 0.355587
O O5 0.394026 0.500000 0.853677
O O6 0.464340 0.760703 0.859082
O O7 0.358008 0.717492 0.930405
O O8 0.068357 0.259477 0.785165
O O9 0.037244 0.238751 0.643064
O O10 0.086366 0.000000 0.723519
O O11 0.949802 0.500000 0.139590
O O12 0.892332 0.250911 0.072776
O O13 0.500000 0.221433 0.500000
O O14 0.606413 0.228102 0.426565
O O15 0.514283 0.000000 0.414636
O O16 0.250000 0.750000 0.500000
O O17 0.303440 0.000000 0.565824
O O18 0.669609 0.500000 0.988054
O O19 0.750000 0.250000 0.000000
#
# Coordination Sequence:
#
# PCOD9207189 Si02
#       7
#     8   8   8   8   8   8   8
#     4  10  22  39  59  86 120 157 198 245 296 352
#     4  11  24  41  63  91 121 156 199 246 295 352
#     4  11  23  39  61  88 119 157 203 253 302 356
#     4  12  25  41  63  89 120 159 200 246 303 361
#     4  10  21  37  58  86 120 158 201 249 302 360
#     4  10  21  37  57  83 115 152 194 242 296 353
#     4  11  24  42  64  92 125 159 200 247 295 353
#
# _framework density 19.024173000000001
#
# number of rings (size 3 to 8) (size 9 to 14) (size 15 to 20)
#    0.000    1.286    0.000    5.571    0.000   10.000 
#    0.000    0.000    0.000    0.000    0.000    0.000 
#    0.000    0.000    0.000    0.000    0.000    0.000 
#
# Total GULP energy -156673.726922 kJ/mol
# GULP energy per Si atom -5595.490247 kJ/mol
# Density = 1.898087 g / cm^3
# Si number density = 19.024173 Si / 1000 Ang^3
#
#
#
# Elastic Constant Matrix: (Units=GPa)
#
#
# Indices 1 2 3 4 5 6 
#
# 1 215.4508 89.0125 131.5298 0.0000 -1.1141 0.0000
# 2 89.0125 69.2513 88.4443 0.0000 -5.1148 0.0000
# 3 131.5298 88.4443 216.7711 0.0000 3.4400 0.0000
# 4 0.0000 0.0000 0.0000 39.8155 0.0000 9.3343
# 5 -1.1141 -5.1148 3.4400 0.0000 43.8099 0.0000
# 6 0.0000 0.0000 0.0000 9.3343 0.0000 25.5120
#
#
#
# Elastic Compliance Matrix: (Units=1/GPa)
#
#
# Indices 1 2 3 4 5 6 
#
# 1 0.010242 -0.011093 -0.001674 0.000000 -0.000903 0.000000
# 2 -0.011093 0.043077 -0.010934 0.000000 0.005606 0.000000
# 3 -0.001674 -0.010934 0.010123 0.000000 -0.002114 0.000000
# 4 0.000000 0.000000 0.000000 0.027472 0.000000 -0.010052
# 5 -0.000903 0.005606 -0.002114 0.000000 0.023623 0.000000
# 6 0.000000 0.000000 0.000000 -0.010052 0.000000 0.042875
#
#
# Mechanical properties :
#
#
# Convention : Reuss Voigt Hill
#
# Bulk Modulus (GPa) = 62.34250 124.38294 93.36272
# Shear Modulus (GPa) = 23.79135 34.65990 29.22562
#
# Velocity S-wave (km/s) = 3.54020 4.27299 3.92374
# Velocity P-wave (km/s) = 7.03932 9.47988 8.34925
#
# Compressibility (1/GPa) = 0.01604042
#
# Stress axis : x y z
#
# Youngs Moduli (GPa) = 97.63954 23.21447 98.78087
#
# Poissons Ratio (x) = 0.25752 0.16536
# Poissons Ratio (y) = 1.08312 1.08003
# Poissons Ratio (z) = 0.16345 0.25382
#
# Static dielectric constant tensor:
#      x y z
#    x 1.629640 0.000000 -0.014550 
#    y 0.000000 1.640090 0.000000 
#    z -0.014550 0.000000 1.614970 
# 
# From -- ./inp_files/275660.got.cif
#   From: 2010.05.17/outbox.cif.g08.bks.cpg/sg12_138_cif.got.tgz:275660.got - 2010.06.03 13:09:07.
