data_PCOD9207464
_publ_section_title
;
Structure prediction by ZEFSAII (Michael W. Deem and Ramdas Pophale) SiO2 
 PCOD9207464
Probable space group: C 2/M
;
_chemical_formula_sum "Si O2"
_cell_formula_units_Z 40
_cell_length_a 12.242384
_cell_length_b 30.235247
_cell_length_c 5.031787
_cell_angle_alpha 90.000000
_cell_angle_beta 77.594054
_cell_angle_gamma 90.000000
_cell_volume 1819.033581
_symmetry_space_group_name_H-M "C 2/M"
_symmetry_group_IT_number 12
_symmetry_cell_setting 'monoclinic'
loop_
_space_group_symop_operation_xyz
x,y,z
-x,y,-z
-x,-y,-z
x,-y,z
1/2+x,1/2+y,z
1/2-x,1/2+y,-z
1/2-x,1/2-y,-z
1/2+x,1/2-y,z
loop_
_atom_site_type_symbol
_atom_site_label
_atom_site_fract_x
_atom_site_fract_y
_atom_site_fract_z
Si Si1 0.795350 0.680266 0.932713
Si Si2 0.920244 0.771700 0.790081
Si Si3 0.876085 0.947249 0.107038
Si Si4 0.730996 0.051638 0.696851
Si Si5 0.384575 0.134667 0.407179
O O1 0.673028 0.691321 0.107930
O O2 0.865988 0.661174 0.143751
O O3 0.852071 0.725776 0.800745
O O4 0.793998 0.649453 0.674377
O O5 0.000000 0.779720 0.500000
O O6 0.000000 0.767734 0.000000
O O7 0.783745 0.931640 0.944711
O O8 0.883806 0.000000 0.042675
O O9 0.829340 0.943805 0.427389
O O10 0.000000 0.928343 0.000000
O O11 0.631885 0.083494 0.658316
O O12 0.698962 0.000000 0.728820
O O13 0.500000 0.143030 0.500000
#
# Coordination Sequence:
#
# PCOD9207464 Si02
#       5
#     8   8   8   8   8
#     4  11  24  41  64  94 124 160 203 243 296 368
#     4  11  22  41  68  95 126 159 195 243 300 362
#     4   9  17  33  57  82 110 147 193 245 301 359
#     4  10  21  37  58  86 118 156 207 255 295 349
#     4  12  24  41  62  86 122 163 207 255 304 356
#
# _framework density 21.989699000000002
#
# number of rings (size 3 to 8) (size 9 to 14) (size 15 to 20)
#    0.000    1.400    0.000    6.600    0.000    6.000 
#    0.000   10.000    0.000    6.000    0.000    0.000 
#    0.000    0.000    0.000    0.000    0.000    0.000 
#
# Total GULP energy -111853.006863 kJ/mol
# GULP energy per Si atom -5592.650343 kJ/mol
# Density = 2.193965 g / cm^3
# Si number density = 21.989699 Si / 1000 Ang^3
#
#
#
# Elastic Constant Matrix: (Units=GPa)
#
#
# Indices 1 2 3 4 5 6 
#
# 1 21.0038 1.5147 -10.5686 0.0000 -13.7999 0.0000
# 2 1.5147 62.5339 13.7847 0.0000 -8.0232 0.0000
# 3 -10.5686 13.7847 100.9555 0.0000 -4.7783 0.0000
# 4 0.0000 0.0000 0.0000 25.6546 0.0000 6.3056
# 5 -13.7999 -8.0232 -4.7783 0.0000 31.6439 0.0000
# 6 0.0000 0.0000 0.0000 6.3056 0.0000 25.3955
#
#
#
# Elastic Compliance Matrix: (Units=1/GPa)
#
#
# Indices 1 2 3 4 5 6 
#
# 1 0.074706 0.000504 0.009367 0.000000 0.034121 0.000000
# 2 0.000504 0.016975 -0.002066 0.000000 0.004212 0.000000
# 3 0.009367 -0.002066 0.011418 0.000000 0.005285 0.000000
# 4 0.000000 0.000000 0.000000 0.041513 0.000000 -0.010308
# 5 0.034121 0.004212 0.005285 0.000000 0.048348 0.000000
# 6 0.000000 0.000000 0.000000 -0.010308 0.000000 0.041936
#
#
# Mechanical properties :
#
#
# Convention : Reuss Voigt Hill
#
# Bulk Modulus (GPa) = 8.42401 21.55052 14.98727
# Shear Modulus (GPa) = 19.31574 28.52295 23.91934
#
# Velocity S-wave (km/s) = 2.96700 3.60544 3.30169
# Velocity P-wave (km/s) = 3.94672 5.21093 4.62225
#
# Compressibility (1/GPa) = 0.11870827
#
# Stress axis : x y z
#
# Youngs Moduli (GPa) = 13.38583 58.91069 87.57977
#
# Poissons Ratio (x) = -0.02966 -0.82035
# Poissons Ratio (y) = -0.00674 0.18092
# Poissons Ratio (z) = -0.12538 0.12169
#
# Static dielectric constant tensor:
#      x y z
#    x 1.801670 0.000000 -0.018870 
#    y 0.000000 1.828940 0.000000 
#    z -0.018870 0.000000 1.765550 
# 
# From -- ./inp_files/8304.got.cif
#   From: 2010.05.17/outbox.cif.g08.bks.cpg/sg12_5_cif.got.tgz:8304.got - 2010.06.03 13:09:07.
