data_PCOD9207108
_publ_section_title
;
Structure prediction by ZEFSAII (Michael W. Deem and Ramdas Pophale) SiO2 
 PCOD9207108
Probable space group: C 2/M
;
_chemical_formula_sum "Si O2"
_cell_formula_units_Z 64
_cell_length_a 20.874875
_cell_length_b 8.876874
_cell_length_c 20.090109
_cell_angle_alpha 90.000000
_cell_angle_beta 82.491193
_cell_angle_gamma 90.000000
_cell_volume 3690.846678
_symmetry_space_group_name_H-M "C 2/M"
_symmetry_group_IT_number 12
_symmetry_cell_setting 'monoclinic'
loop_
_space_group_symop_operation_xyz
x,y,z
-x,y,-z
-x,-y,-z
x,-y,z
1/2+x,1/2+y,z
1/2-x,1/2+y,-z
1/2-x,1/2-y,-z
1/2+x,1/2-y,z
loop_
_atom_site_type_symbol
_atom_site_label
_atom_site_fract_x
_atom_site_fract_y
_atom_site_fract_z
Si Si1 0.313637 0.820082 0.458600
Si Si2 0.915057 0.680899 0.077176
Si Si3 0.431348 0.183720 0.536514
Si Si4 0.938497 0.680978 0.919124
Si Si5 0.285562 0.322171 0.326211
Si Si6 0.844233 0.179275 0.823064
Si Si7 0.865397 0.320618 0.678831
Si Si8 0.203851 0.819285 0.827740
O O1 0.250000 0.750000 0.500000
O O2 0.374998 0.770551 0.493594
O O3 0.317125 0.768207 0.381827
O O4 0.309237 0.000000 0.462761
O O5 0.908311 0.500000 0.084839
O O6 0.855739 0.761159 0.120957
O O7 0.985642 0.722658 0.096741
O O8 0.917743 0.714593 0.997951
O O9 0.500000 0.235645 0.500000
O O10 0.413324 0.229925 0.613950
O O11 0.431751 0.000000 0.537601
O O12 0.934060 0.500000 0.911030
O O13 0.892250 0.761210 0.873195
O O14 0.297809 0.500000 0.333738
O O15 0.207839 0.300885 0.338176
O O16 0.306255 0.278425 0.248804
O O17 0.869775 0.234627 0.747666
O O18 0.772364 0.248996 0.840289
O O19 0.839825 0.000000 0.825334
O O20 0.873594 0.500000 0.690034
O O21 0.209411 0.000000 0.830316
#
# Coordination Sequence:
#
# PCOD9207108 Si02
#       8
#     8   8   8   8   8   8   8   8
#     4  11  20  32  54  80 103 134 178 222 264 316
#     4   9  19  37  61  85 110 141 183 227 265 319
#     4   9  18  34  54  76 103 135 177 221 263 317
#     4   9  19  38  60  82 111 147 181 219 271 325
#     4   9  18  34  53  77 105 138 176 217 267 320
#     4  11  22  35  55  83 111 142 188 231 265 321
#     4   9  17  34  56  75 104 142 177 218 273 326
#     4  10  21  37  57  80 113 149 180 222 279 326
#
# _framework density 17.340194
#
# number of rings (size 3 to 8) (size 9 to 14) (size 15 to 20)
#    0.000    2.375    1.250    3.375    0.000    4.000 
#    2.250    1.250    0.000    2.625    0.000    0.000 
#    0.000    0.000    0.000    0.000    0.000    0.000 
#
# Total GULP energy -178536.401416 kJ/mol
# GULP energy per Si atom -5579.262544 kJ/mol
# Density = 1.730073 g / cm^3
# Si number density = 17.340194 Si / 1000 Ang^3
#
#
#
# Elastic Constant Matrix: (Units=GPa)
#
#
# Indices 1 2 3 4 5 6 
#
# 1 144.4155 57.5493 104.5048 0.0000 -5.7837 0.0000
# 2 57.5493 55.5735 60.9081 0.0000 3.6274 0.0000
# 3 104.5048 60.9081 126.9024 0.0000 -0.2542 0.0000
# 4 0.0000 0.0000 0.0000 30.3226 0.0000 -0.8533
# 5 -5.7837 3.6274 -0.2542 0.0000 32.0714 0.0000
# 6 0.0000 0.0000 0.0000 -0.8533 0.0000 26.2145
#
#
#
# Elastic Compliance Matrix: (Units=1/GPa)
#
#
# Indices 1 2 3 4 5 6 
#
# 1 0.018219 -0.005657 -0.012280 0.000000 0.003828 0.000000
# 2 -0.005657 0.040364 -0.014726 0.000000 -0.005702 0.000000
# 3 -0.012280 -0.014726 0.025060 0.000000 -0.000350 0.000000
# 4 0.000000 0.000000 0.000000 0.033009 0.000000 0.001074
# 5 0.003828 -0.005702 -0.000350 0.000000 0.032513 0.000000
# 6 0.000000 0.000000 0.000000 0.001074 0.000000 0.038182
#
#
# Mechanical properties :
#
#
# Convention : Reuss Voigt Hill
#
# Bulk Modulus (GPa) = 54.59645 85.86841 70.23243
# Shear Modulus (GPa) = 19.32155 24.65033 21.98594
#
# Velocity S-wave (km/s) = 3.34168 3.77446 3.56465
# Velocity P-wave (km/s) = 6.81491 8.28389 7.58504
#
# Compressibility (1/GPa) = 0.01831621
#
# Stress axis : x y z
#
# Youngs Moduli (GPa) = 54.88898 24.77447 39.90414
#
# Poissons Ratio (x) = 0.14015 0.49003
# Poissons Ratio (y) = 0.31051 0.58762
# Poissons Ratio (z) = 0.67405 0.36483
#
# Static dielectric constant tensor:
#      x y z
#    x 1.568030 0.000000 -0.005630 
#    y 0.000000 1.580810 0.000000 
#    z -0.005630 0.000000 1.584700 
# 
# From -- ./inp_files/281336.got.cif
#   From: 2010.05.17/outbox.cif.g08.bks.cpg/sg12_141_cif.got.tgz:281336.got - 2010.06.03 13:09:07.
