data_PCOD9207250
_publ_section_title
;
Structure prediction by ZEFSAII (Michael W. Deem and Ramdas Pophale) SiO2 
 PCOD9207250
Probable space group: C 2/M
;
_chemical_formula_sum "Si O2"
_cell_formula_units_Z 56
_cell_length_a 14.968927
_cell_length_b 7.820269
_cell_length_c 25.655993
_cell_angle_alpha 90.000000
_cell_angle_beta 62.904818
_cell_angle_gamma 90.000000
_cell_volume 2673.706390
_symmetry_space_group_name_H-M "C 2/M"
_symmetry_group_IT_number 12
_symmetry_cell_setting 'monoclinic'
loop_
_space_group_symop_operation_xyz
x,y,z
-x,y,-z
-x,-y,-z
x,-y,z
1/2+x,1/2+y,z
1/2-x,1/2+y,-z
1/2-x,1/2-y,-z
1/2+x,1/2-y,z
loop_
_atom_site_type_symbol
_atom_site_label
_atom_site_fract_x
_atom_site_fract_y
_atom_site_fract_z
Si Si1 0.307491 0.799683 0.915102
Si Si2 0.434987 0.304981 0.563029
Si Si3 0.663493 0.709824 0.310717
Si Si4 0.404779 0.800077 0.994527
Si Si5 0.218909 0.689645 0.565204
Si Si6 0.629308 0.791848 0.690479
Si Si7 0.408964 0.701843 0.781757
O O1 0.374078 0.729231 0.945692
O O2 0.363814 0.780816 0.845776
O O3 0.289693 0.000000 0.930307
O O4 0.197898 0.714751 0.945331
O O5 0.500000 0.220725 0.500000
O O6 0.475685 0.500000 0.558885
O O7 0.418263 0.229388 0.624688
O O8 0.323087 0.317108 0.569550
O O9 0.659098 0.500000 0.313204
O O10 0.773621 0.759395 0.301550
O O11 0.640536 0.767622 0.258703
O O12 0.428717 0.000000 0.979385
O O13 0.500000 0.724690 0.000000
O O14 0.178567 0.500000 0.567272
O O15 0.250000 0.750000 0.500000
O O16 0.144749 0.775806 0.626861
O O17 0.527016 0.732643 0.743307
O O18 0.629655 0.000000 0.688126
O O19 0.389587 0.500000 0.789952
#
# Coordination Sequence:
#
# PCOD9207250 Si02
#       7
#     8   8   8   8   8   8   8
#     4  10  21  37  57  85 118 148 180 222 269 317
#     4   8  14  26  46  70  92 120 165 217 260 311
#     4   8  17  33  50  71 100 137 179 220 265 320
#     4   9  19  38  63  87 114 149 187 223 259 305
#     4   9  18  30  48  72  97 126 163 215 272 327
#     4   9  19  37  53  71 103 140 178 222 275 328
#     4  11  22  35  56  82 108 143 186 228 267 318
#
# _framework density 20.944707000000001
#
# number of rings (size 3 to 8) (size 9 to 14) (size 15 to 20)
#    0.000    2.857    0.000    2.571    2.000    2.571 
#    0.000    7.143    0.000    2.143    0.000    0.000 
#    0.000    0.000    0.000    0.000    0.000    0.000 
#
# Total GULP energy -156062.751273 kJ/mol
# GULP energy per Si atom -5573.669688 kJ/mol
# Density = 2.089704 g / cm^3
# Si number density = 20.944707 Si / 1000 Ang^3
#
#
#
# Elastic Constant Matrix: (Units=GPa)
#
#
# Indices 1 2 3 4 5 6 
#
# 1 117.3001 -2.6708 64.5900 0.0000 6.5134 0.0000
# 2 -2.6708 25.4565 -5.4552 0.0000 7.4216 -0.0001
# 3 64.5900 -5.4552 176.9791 0.0000 8.4764 0.0000
# 4 0.0000 0.0000 0.0000 17.1398 0.0000 -3.9405
# 5 6.5134 7.4216 8.4764 0.0000 18.3771 0.0000
# 6 0.0000 -0.0001 0.0000 -3.9405 0.0000 12.3475
#
#
#
# Elastic Compliance Matrix: (Units=1/GPa)
#
#
# Indices 1 2 3 4 5 6 
#
# 1 0.010768 0.001048 -0.003778 0.000000 -0.002497 0.000000
# 2 0.001048 0.045549 0.001964 0.000000 -0.019672 0.000000
# 3 -0.003778 0.001964 0.007223 0.000000 -0.002786 0.000000
# 4 0.000000 0.000000 0.000000 0.062963 0.000000 0.020094
# 5 -0.002497 -0.019672 -0.002786 0.000000 0.064530 0.000000
# 6 0.000000 0.000000 0.000000 0.020094 0.000000 0.087401
#
#
# Mechanical properties :
#
#
# Convention : Reuss Voigt Hill
#
# Bulk Modulus (GPa) = 16.12706 48.07372 32.10039
# Shear Modulus (GPa) = 16.63146 27.12434 21.87790
#
# Velocity S-wave (km/s) = 2.82097 3.60258 3.23546
# Velocity P-wave (km/s) = 4.28101 6.34880 5.41453
#
# Compressibility (1/GPa) = 0.06200758
#
# Stress axis : x y z
#
# Youngs Moduli (GPa) = 92.86820 21.95450 138.44431
#
# Poissons Ratio (x) = -0.02301 0.52303
# Poissons Ratio (y) = -0.09734 -0.27186
# Poissons Ratio (z) = 0.35085 -0.04311
#
# Static dielectric constant tensor:
#      x y z
#    x 1.755330 0.000000 0.025220 
#    y 0.000000 1.800760 0.000000 
#    z 0.025220 0.000000 1.761540 
# 
# From -- ./inp_files/338521.got.cif
#   From: 2010.05.17/outbox.cif.g08.bks.cpg/sg12_170_cif.got.tgz:338521.got - 2010.06.03 13:09:07.
