data_PCOD9207870
_publ_section_title
;
Structure prediction by ZEFSAII (Michael W. Deem and Ramdas Pophale) SiO2 
 PCOD9207870
Probable space group: C 2/M
;
_chemical_formula_sum "Si O2"
_cell_formula_units_Z 56
_cell_length_a 15.657266
_cell_length_b 14.604608
_cell_length_c 12.789729
_cell_angle_alpha 90.000000
_cell_angle_beta 116.672452
_cell_angle_gamma 90.000000
_cell_volume 2613.389693
_symmetry_space_group_name_H-M "C 2/M"
_symmetry_group_IT_number 12
_symmetry_cell_setting 'monoclinic'
loop_
_space_group_symop_operation_xyz
x,y,z
-x,y,-z
-x,-y,-z
x,-y,z
1/2+x,1/2+y,z
1/2-x,1/2+y,-z
1/2-x,1/2-y,-z
1/2+x,1/2-y,z
loop_
_atom_site_type_symbol
_atom_site_label
_atom_site_fract_x
_atom_site_fract_y
_atom_site_fract_z
Si Si1 0.896652 0.605320 0.176854
Si Si2 0.388019 0.101143 0.776810
Si Si3 0.377598 0.719808 0.281584
Si Si4 0.890308 0.104672 0.903359
Si Si5 0.820342 0.292554 0.929887
Si Si6 0.558583 0.604016 0.304798
Si Si7 0.290065 0.667256 0.451917
O O1 0.865628 0.500000 0.168218
O O2 0.877730 0.671104 0.264160
O O3 0.010666 0.605580 0.223098
O O4 0.852899 0.656894 0.051963
O O5 0.384573 0.171964 0.869407
O O6 0.301761 0.119001 0.649735
O O7 0.376247 0.000000 0.817303
O O8 0.287501 0.684483 0.163819
O O9 0.474025 0.672863 0.291858
O O10 0.354409 0.698263 0.388692
O O11 0.834899 0.182975 0.935997
O O12 0.894698 0.126286 0.781922
O O13 0.855927 0.000000 0.898901
O O14 0.000000 0.107485 0.000000
O O15 0.520209 0.500000 0.276284
O O16 0.641767 0.608890 0.436196
O O17 0.250000 0.750000 0.500000
#
# Coordination Sequence:
#
# PCOD9207870 Si02
#       7
#     8   8   8   8   8   8   8
#     4  11  23  40  62  89 124 164 205 250 304 364
#     4  10  21  37  60  89 118 154 203 254 298 350
#     4  11  24  39  59  88 123 160 201 256 309 359
#     4  10  21  38  63  93 125 161 201 249 303 363
#     4  11  21  37  62  89 124 164 205 248 298 363
#     4  11  23  40  64  93 125 162 203 250 308 367
#     4  11  23  41  64  86 117 160 205 256 308 365
#
# _framework density 21.42811
#
# number of rings (size 3 to 8) (size 9 to 14) (size 15 to 20)
#    0.000    1.286    0.000    7.286    0.000    5.714 
#    0.000    2.857    0.000    3.429    0.000    0.000 
#    0.000    0.000    0.000    0.000    0.000    0.000 
#
# Total GULP energy -156606.817181 kJ/mol
# GULP energy per Si atom -5593.100614 kJ/mol
# Density = 2.137934 g / cm^3
# Si number density = 21.428110 Si / 1000 Ang^3
#
#
#
# Elastic Constant Matrix: (Units=GPa)
#
#
# Indices 1 2 3 4 5 6 
#
# 1 62.2625 20.0488 22.0247 0.0000 13.6559 0.0000
# 2 20.0488 130.1344 31.5139 0.0000 -8.4527 0.0000
# 3 22.0247 31.5139 109.5555 0.0000 -1.3444 0.0000
# 4 0.0000 0.0000 0.0000 28.6526 0.0000 5.7924
# 5 13.6559 -8.4527 -1.3444 0.0000 19.9685 0.0000
# 6 0.0000 0.0000 0.0000 5.7924 0.0000 9.0482
#
#
#
# Elastic Compliance Matrix: (Units=1/GPa)
#
#
# Indices 1 2 3 4 5 6 
#
# 1 0.022253 -0.003654 -0.003631 0.000000 -0.017009 0.000000
# 2 -0.003654 0.009088 -0.001803 0.000000 0.006224 0.000000
# 3 -0.003631 -0.001803 0.010406 0.000000 0.002421 0.000000
# 4 0.000000 0.000000 0.000000 0.040089 0.000000 -0.025664
# 5 -0.017009 0.006224 0.002421 0.000000 0.064509 0.000000
# 6 0.000000 0.000000 0.000000 -0.025664 0.000000 0.126949
#
#
# Mechanical properties :
#
#
# Convention : Reuss Voigt Hill
#
# Bulk Modulus (GPa) = 42.42610 49.90303 46.16456
# Shear Modulus (GPa) = 16.70410 26.75817 21.73114
#
# Velocity S-wave (km/s) = 2.79506 3.53759 3.18801
# Velocity P-wave (km/s) = 5.50079 6.32655 5.92806
#
# Compressibility (1/GPa) = 0.02357040
#
# Stress axis : x y z
#
# Youngs Moduli (GPa) = 44.93839 110.03195 96.09588
#
# Poissons Ratio (x) = 0.40203 0.34896
# Poissons Ratio (y) = 0.16419 0.17329
# Poissons Ratio (z) = 0.16319 0.19843
#
# Static dielectric constant tensor:
#      x y z
#    x 1.770800 0.000000 0.000070 
#    y 0.000000 1.806760 0.000000 
#    z 0.000070 0.000000 1.751650 
# 
# From -- ./inp_files/156729.got.cif
#   From: 2010.05.17/outbox.cif.g08.bks.cpg/sg12_79_cif.got.tgz:156729.got - 2010.06.03 13:09:07.
