data_PCOD9207203
_publ_section_title
;
Structure prediction by ZEFSAII (Michael W. Deem and Ramdas Pophale) SiO2 
 PCOD9207203
Probable space group: C 2/M
;
_chemical_formula_sum "Si O2"
_cell_formula_units_Z 42
_cell_length_a 32.547236
_cell_length_b 7.486878
_cell_length_c 7.451907
_cell_angle_alpha 90.000000
_cell_angle_beta 78.534349
_cell_angle_gamma 90.000000
_cell_volume 1779.622516
_symmetry_space_group_name_H-M "C 2/M"
_symmetry_group_IT_number 12
_symmetry_cell_setting 'monoclinic'
loop_
_space_group_symop_operation_xyz
x,y,z
-x,y,-z
-x,-y,-z
x,-y,z
1/2+x,1/2+y,z
1/2-x,1/2+y,-z
1/2-x,1/2-y,-z
1/2+x,1/2-y,z
loop_
_atom_site_type_symbol
_atom_site_label
_atom_site_fract_x
_atom_site_fract_y
_atom_site_fract_z
Si Si1 0.203872 0.786167 0.111557
Si Si2 0.500000 0.500000 0.500000
Si Si3 0.347248 0.284916 0.526630
Si Si4 0.938744 0.291178 0.534222
Si Si5 0.543787 0.787519 0.889009
Si Si6 0.364955 0.284971 0.109127
O O1 0.192183 0.722652 0.321907
O O2 0.199542 0.000000 0.119979
O O3 0.250000 0.750000 0.000000
O O4 0.168466 0.717749 0.005346
O O5 0.468898 0.658075 0.610374
O O6 0.346369 0.500000 0.515039
O O7 0.389260 0.234164 0.599076
O O8 0.352347 0.217404 0.319345
O O9 0.949087 0.500000 0.547771
O O10 0.946302 0.222732 0.321197
O O11 0.586193 0.758313 0.964355
O O12 0.538965 0.000000 0.875346
O O13 0.500000 0.714761 0.000000
O O14 0.362437 0.500000 0.113731
#
# Coordination Sequence:
#
# PCOD9207203 Si02
#       6
#     8   2   8   8   8   8
#     4  10  22  38  58  89 119 151 201 252 307 377
#     4  12  22  36  54  82 124 160 206 262 304 354
#     4   9  18  38  60  80 116 157 196 252 309 362
#     4  10  21  37  57  83 117 164 213 254 307 372
#     4   9  19  36  56  84 118 152 202 258 300 359
#     4   9  19  36  58  82 112 156 200 241 302 366
#
# _framework density 23.600512999999999
#
# number of rings (size 3 to 8) (size 9 to 14) (size 15 to 20)
#    0.000    2.476    0.952    0.286    1.333    4.190 
#    3.429    1.905    0.000    0.000    0.000    0.000 
#    0.000    0.000    0.000    0.000    0.000    0.000 
#
# Total GULP energy -117087.154814 kJ/mol
# GULP energy per Si atom -5575.578801 kJ/mol
# Density = 2.354680 g / cm^3
# Si number density = 23.600513 Si / 1000 Ang^3
#
#
#
# Elastic Constant Matrix: (Units=GPa)
#
#
# Indices 1 2 3 4 5 6 
#
# 1 108.6292 -14.3947 63.7223 0.0000 -24.5406 0.0000
# 2 -14.3947 94.0928 3.7487 0.0000 -3.1960 0.0000
# 3 63.7223 3.7487 110.2588 0.0000 -36.4019 0.0000
# 4 0.0000 0.0000 0.0000 11.6917 0.0000 -8.2918
# 5 -24.5406 -3.1960 -36.4019 0.0000 42.9195 0.0000
# 6 0.0000 0.0000 0.0000 -8.2918 0.0000 25.2443
#
#
#
# Elastic Compliance Matrix: (Units=1/GPa)
#
#
# Indices 1 2 3 4 5 6 
#
# 1 0.014619 0.002615 -0.007936 0.000000 0.001823 0.000000
# 2 0.002615 0.011124 -0.001559 0.000000 0.001001 0.000000
# 3 -0.007936 -0.001559 0.016907 0.000000 0.009686 0.000000
# 4 0.000000 0.000000 0.000000 0.111505 0.000000 0.036625
# 5 0.001823 0.001001 0.009686 0.000000 0.032631 0.000000
# 6 0.000000 0.000000 0.000000 0.036625 0.000000 0.051643
#
#
# Mechanical properties :
#
#
# Convention : Reuss Voigt Hill
#
# Bulk Modulus (GPa) = 34.61445 46.57037 40.59241
# Shear Modulus (GPa) = 19.09715 33.29805 26.19760
#
# Velocity S-wave (km/s) = 2.84770 3.76027 3.33535
# Velocity P-wave (km/s) = 5.05086 6.21518 5.66302
#
# Compressibility (1/GPa) = 0.02888967
#
# Stress axis : x y z
#
# Youngs Moduli (GPa) = 68.40320 89.89643 59.14782
#
# Poissons Ratio (x) = -0.23504 0.46940
# Poissons Ratio (y) = -0.17885 0.09219
# Poissons Ratio (z) = 0.54285 0.14012
#
# Static dielectric constant tensor:
#      x y z
#    x 1.922360 0.000000 0.036130 
#    y 0.000000 1.883200 0.000000 
#    z 0.036130 0.000000 1.998010 
# 
# From -- ./inp_files/107847.got.cif
#   From: 2010.05.17/outbox.cif.g08.bks.cpg/sg12_54_cif.got.tgz:107847.got - 2010.06.03 13:09:07.
