data_PCOD9207211
_publ_section_title
;
Structure prediction by ZEFSAII (Michael W. Deem and Ramdas Pophale) SiO2 
 PCOD9207211
Probable space group: C 2/M
;
_chemical_formula_sum "Si O2"
_cell_formula_units_Z 64
_cell_length_a 20.792701
_cell_length_b 23.975395
_cell_length_c 16.972217
_cell_angle_alpha 90.000000
_cell_angle_beta 23.701911
_cell_angle_gamma 90.000000
_cell_volume 3401.088106
_symmetry_space_group_name_H-M "C 2/M"
_symmetry_group_IT_number 12
_symmetry_cell_setting 'monoclinic'
loop_
_space_group_symop_operation_xyz
x,y,z
-x,y,-z
-x,-y,-z
x,-y,z
1/2+x,1/2+y,z
1/2-x,1/2+y,-z
1/2-x,1/2-y,-z
1/2+x,1/2-y,z
loop_
_atom_site_type_symbol
_atom_site_label
_atom_site_fract_x
_atom_site_fract_y
_atom_site_fract_z
Si Si1 0.084234 0.611668 0.567772
Si Si2 0.265210 0.815602 0.462001
Si Si3 0.840789 0.784063 0.723786
Si Si4 0.907535 0.837373 0.812144
Si Si5 0.184401 0.936682 0.818754
Si Si6 0.041335 0.637340 0.041421
Si Si7 0.180445 0.564361 0.020152
Si Si8 0.298294 0.836896 0.801000
O O1 0.178410 0.650572 0.523738
O O2 0.204245 0.575109 0.381670
O O3 0.952706 0.576068 0.763290
O O4 0.976327 0.648835 0.630569
O O5 0.250000 0.750000 0.500000
O O6 0.398520 0.830015 0.246581
O O7 0.093872 0.836764 0.623474
O O8 0.871634 0.793706 0.782445
O O9 0.803320 0.719991 0.747051
O O10 0.000000 0.801980 0.500000
O O11 0.690678 0.820996 0.869181
O O12 0.832394 0.895982 0.867073
O O13 0.810166 0.824798 0.000798
O O14 0.229114 0.889860 0.832356
O O15 0.211282 0.000000 0.817648
O O16 0.000000 0.931352 0.000000
O O17 0.097666 0.586689 0.033514
O O18 0.000000 0.619446 0.000000
O O19 0.222918 0.500000 0.969450
#
# Coordination Sequence:
#
# PCOD9207211 Si02
#       8
#     8   8   8   8   8   8   8   8
#     4  10  21  37  57  84 113 148 194 235 281 336
#     4  11  21  37  60  86 119 154 186 230 287 345
#     4  11  21  36  58  84 116 150 186 230 280 339
#     4  10  21  37  58  85 117 147 187 234 281 339
#     4  11  24  39  55  80 114 150 193 241 283 333
#     4  10  22  37  57  87 117 147 187 235 285 337
#     4   9  20  39  61  81 109 151 193 235 284 338
#     4  11  22  37  58  84 112 150 191 229 281 337
#
# _framework density 18.817508
#
# number of rings (size 3 to 8) (size 9 to 14) (size 15 to 20)
#    0.000    1.625    0.000    5.625    0.000    4.750 
#    0.000    3.125    0.000   12.750    0.000    0.000 
#    0.000    0.000    0.000    0.000    0.000    0.000 
#
# Total GULP energy -178787.822865 kJ/mol
# GULP energy per Si atom -5587.119465 kJ/mol
# Density = 1.877468 g / cm^3
# Si number density = 18.817508 Si / 1000 Ang^3
#
#
#
# Elastic Constant Matrix: (Units=GPa)
#
#
# Indices 1 2 3 4 5 6 
#
# 1 83.4803 30.5077 34.1446 0.0124 -2.2785 -0.0040
# 2 30.5077 109.9320 47.5741 0.0030 -4.0220 -0.0008
# 3 34.1446 47.5741 128.1355 -0.0094 -5.8972 0.0090
# 4 0.0124 0.0030 -0.0094 12.2430 -0.0010 0.6659
# 5 -2.2785 -4.0220 -5.8972 -0.0010 34.1805 -0.0001
# 6 -0.0040 -0.0008 0.0090 0.6659 -0.0001 14.6602
#
#
#
# Elastic Compliance Matrix: (Units=1/GPa)
#
#
# Indices 1 2 3 4 5 6 
#
# 1 0.014098 -0.002721 -0.002740 -0.000016 0.000147 0.000006
# 2 -0.002721 0.011375 -0.003472 -0.000003 0.000558 0.000002
# 3 -0.002740 -0.003472 0.009875 0.000012 0.001112 -0.000008
# 4 -0.000016 -0.000003 0.000012 0.081882 0.000003 -0.003719
# 5 0.000147 0.000558 0.001112 0.000003 0.029524 0.000000
# 6 0.000006 0.000002 -0.000008 -0.003719 0.000000 0.068381
#
#
# Mechanical properties :
#
#
# Convention : Reuss Voigt Hill
#
# Bulk Modulus (GPa) = 57.20578 60.66675 58.93627
# Shear Modulus (GPa) = 20.93559 26.17150 23.55355
#
# Velocity S-wave (km/s) = 3.33912 3.73340 3.54175
# Velocity P-wave (km/s) = 6.73295 7.13399 6.93637
#
# Compressibility (1/GPa) = 0.01748075
#
# Stress axis : x y z
#
# Youngs Moduli (GPa) = 70.93236 87.91293 101.26913
#
# Poissons Ratio (x) = 0.23925 0.27743
# Poissons Ratio (y) = 0.19304 0.35165
# Poissons Ratio (z) = 0.19432 0.30527
#
# Static dielectric constant tensor:
#      x y z
#    x 1.658100 0.000000 0.019950 
#    y 0.000000 1.635500 0.000010 
#    z 0.019950 0.000010 1.641190 
# 
# From -- ./inp_files/286433.got.cif
#   From: 2010.05.17/outbox.cif.g08.bks.cpg/sg12_144_cif.got.tgz:286433.got - 2010.06.03 13:09:07.
