data_PCOD9207821
_publ_section_title
;
Structure prediction by ZEFSAII (Michael W. Deem and Ramdas Pophale) SiO2 
 PCOD9207821
Probable space group: C 2/M
;
_chemical_formula_sum "Si O2"
_cell_formula_units_Z 64
_cell_length_a 22.349566
_cell_length_b 13.669713
_cell_length_c 11.742037
_cell_angle_alpha 90.000000
_cell_angle_beta 108.655831
_cell_angle_gamma 90.000000
_cell_volume 3398.846216
_symmetry_space_group_name_H-M "C 2/M"
_symmetry_group_IT_number 12
_symmetry_cell_setting 'monoclinic'
loop_
_space_group_symop_operation_xyz
x,y,z
-x,y,-z
-x,-y,-z
x,-y,z
1/2+x,1/2+y,z
1/2-x,1/2+y,-z
1/2-x,1/2-y,-z
1/2+x,1/2-y,z
loop_
_atom_site_type_symbol
_atom_site_label
_atom_site_fract_x
_atom_site_fract_y
_atom_site_fract_z
Si Si1 0.424084 0.886870 0.087603
Si Si2 0.159756 0.700108 0.771373
Si Si3 0.568002 0.748613 0.511727
Si Si4 0.319923 0.385036 0.498170
Si Si5 0.135506 0.708330 0.149412
Si Si6 0.442464 0.114012 0.702734
Si Si7 0.232186 0.113401 0.785446
Si Si8 0.716022 0.384598 0.270589
O O1 0.368440 0.859800 0.141465
O O2 0.490027 0.876029 0.193933
O O3 0.419893 0.000000 0.045995
O O4 0.416610 0.813707 0.977492
O O5 0.104065 0.717058 0.646732
O O6 0.187354 0.807587 0.819832
O O7 0.217631 0.645313 0.745096
O O8 0.500000 0.703689 0.500000
O O9 0.616057 0.675532 0.478337
O O10 0.555454 0.838798 0.420088
O O11 0.334807 0.500000 0.512413
O O12 0.280371 0.370258 0.357921
O O13 0.284626 0.360530 0.594326
O O14 0.108578 0.669938 0.251973
O O15 0.195750 0.642581 0.150405
O O16 0.162215 0.817319 0.180713
O O17 0.426207 0.000000 0.687316
O O18 0.219697 0.000000 0.804403
O O19 0.705129 0.500000 0.250504
#
# Coordination Sequence:
#
# PCOD9207821 Si02
#       8
#     8   8   8   8   8   8   8   8
#     4  11  23  40  57  80 116 154 192 231 276 334
#     4  10  22  36  57  84 120 152 183 229 289 333
#     4  11  21  37  59  86 117 146 186 234 283 337
#     4   9  19  36  58  85 118 148 182 232 282 338
#     4  11  22  38  61  82 111 150 194 233 277 330
#     4  11  23  37  58  85 112 148 190 235 283 333
#     4   9  19  34  56  87 116 145 188 234 279 333
#     4  10  21  37  60  87 114 147 185 230 287 340
#
# _framework density 18.829920000000001
#
# number of rings (size 3 to 8) (size 9 to 14) (size 15 to 20)
#    0.000    1.750    2.500    1.875    1.750    6.000 
#    0.000    1.875    0.000    3.000    0.000    0.000 
#    0.000    0.000    0.000    0.000    0.000    0.000 
#
# Total GULP energy -178694.843326 kJ/mol
# GULP energy per Si atom -5584.213854 kJ/mol
# Density = 1.878706 g / cm^3
# Si number density = 18.829920 Si / 1000 Ang^3
#
#
#
# Elastic Constant Matrix: (Units=GPa)
#
#
# Indices 1 2 3 4 5 6 
#
# 1 67.4393 11.9020 -1.9846 0.0000 3.2784 0.0000
# 2 11.9020 72.7432 2.8712 0.0000 12.7801 0.0000
# 3 -1.9846 2.8712 19.8304 0.0000 5.6543 0.0000
# 4 0.0000 0.0000 0.0000 27.4535 0.0000 -2.2781
# 5 3.2784 12.7801 5.6543 0.0000 21.9614 0.0000
# 6 0.0000 0.0000 0.0000 -2.2781 0.0000 19.1987
#
#
#
# Elastic Compliance Matrix: (Units=1/GPa)
#
#
# Indices 1 2 3 4 5 6 
#
# 1 0.015384 -0.002339 0.002315 0.000000 -0.001531 0.000000
# 2 -0.002339 0.015671 -0.000003 0.000000 -0.008769 0.000000
# 3 0.002315 -0.000003 0.054779 0.000000 -0.014448 0.000000
# 4 0.000000 0.000000 0.000000 0.036787 0.000000 0.004365
# 5 -0.001531 -0.008769 -0.014448 0.000000 0.054586 0.000000
# 6 0.000000 0.000000 0.000000 0.004365 0.000000 0.052605
#
#
# Mechanical properties :
#
#
# Convention : Reuss Voigt Hill
#
# Bulk Modulus (GPa) = 11.65786 20.62112 16.13949
# Shear Modulus (GPa) = 19.34546 23.53769 21.44157
#
# Velocity S-wave (km/s) = 3.20875 3.53939 3.37812
# Velocity P-wave (km/s) = 4.46460 5.26100 4.87908
#
# Compressibility (1/GPa) = 0.08577901
#
# Stress axis : x y z
#
# Youngs Moduli (GPa) = 65.00442 63.81412 18.25511
#
# Poissons Ratio (x) = 0.14929 -0.04226
# Poissons Ratio (y) = 0.15207 0.00005
# Poissons Ratio (z) = -0.15048 0.00017
#
# Static dielectric constant tensor:
#      x y z
#    x 1.643610 0.000000 -0.008660 
#    y 0.000000 1.636610 0.000000 
#    z -0.008660 0.000000 1.671790 
# 
# From -- ./inp_files/167279.got.cif
#   From: 2010.05.17/outbox.cif.g08.bks.cpg/sg12_84_cif.got.tgz:167279.got - 2010.06.03 13:09:07.
