data_PCOD9207509
_publ_section_title
;
Structure prediction by ZEFSAII (Michael W. Deem and Ramdas Pophale) SiO2 
 PCOD9207509
Probable space group: C 2/M
;
_chemical_formula_sum "Si O2"
_cell_formula_units_Z 64
_cell_length_a 28.053724
_cell_length_b 8.413432
_cell_length_c 22.530148
_cell_angle_alpha 90.000000
_cell_angle_beta 147.140285
_cell_angle_gamma 90.000000
_cell_volume 2885.324847
_symmetry_space_group_name_H-M "C 2/M"
_symmetry_group_IT_number 12
_symmetry_cell_setting 'monoclinic'
loop_
_space_group_symop_operation_xyz
x,y,z
-x,y,-z
-x,-y,-z
x,-y,z
1/2+x,1/2+y,z
1/2-x,1/2+y,-z
1/2-x,1/2-y,-z
1/2+x,1/2-y,z
loop_
_atom_site_type_symbol
_atom_site_label
_atom_site_fract_x
_atom_site_fract_y
_atom_site_fract_z
Si Si1 0.612530 0.688845 0.198306
Si Si2 0.988866 0.192659 0.167031
Si Si3 0.717056 0.309341 0.198052
Si Si4 0.595961 0.318021 0.612153
Si Si5 0.755231 0.814398 0.438072
Si Si6 0.565650 0.817381 0.365106
Si Si7 0.293376 0.308369 0.950608
Si Si8 0.391417 0.321174 0.232137
O O1 0.601252 0.500000 0.178478
O O2 0.524578 0.744644 0.139857
O O3 0.646027 0.755100 0.170590
O O4 0.690758 0.721040 0.326895
O O5 0.050666 0.266608 0.281414
O O6 0.994537 0.000000 0.175529
O O7 0.888356 0.237587 0.074751
O O8 0.710979 0.500000 0.191580
O O9 0.816480 0.264398 0.320364
O O10 0.703446 0.259412 0.115755
O O11 0.500000 0.244990 0.500000
O O12 0.594354 0.500000 0.587966
O O13 0.606573 0.321836 0.694326
O O14 0.750000 0.750000 0.500000
O O15 0.856759 0.787182 0.526290
O O16 0.733168 0.000000 0.413545
O O17 0.471369 0.787482 0.295704
O O18 0.591798 0.000000 0.396724
O O19 0.285291 0.500000 0.944693
O O20 0.206138 0.233867 0.887064
O O21 0.407574 0.500000 0.226647
#
# Coordination Sequence:
#
# PCOD9207509 Si02
#       8
#     8   8   8   8   8   8   8   8
#     4  10  21  37  58  88 121 156 196 238 287 345
#     4  10  21  38  61  85 116 156 199 243 290 346
#     4   9  19  35  56  85 118 150 192 239 286 340
#     4   9  19  35  54  79 110 148 192 236 289 348
#     4  12  24  40  61  85 118 157 194 239 290 344
#     4  12  25  40  60  87 118 153 195 242 293 351
#     4   9  19  38  61  86 117 155 196 244 293 341
#     4  10  21  38  59  84 116 153 193 242 295 349
#
# _framework density 22.181211999999999
#
# number of rings (size 3 to 8) (size 9 to 14) (size 15 to 20)
#    0.000    1.875    1.250    2.625    1.750    2.750 
#    0.000    2.500    0.000    0.000    0.000    5.250 
#    0.000    0.000    0.000    0.000    0.000    0.000 
#
# Total GULP energy -178791.720832 kJ/mol
# GULP energy per Si atom -5587.241276 kJ/mol
# Density = 2.213073 g / cm^3
# Si number density = 22.181212 Si / 1000 Ang^3
#
#
#
# Elastic Constant Matrix: (Units=GPa)
#
#
# Indices 1 2 3 4 5 6 
#
# 1 74.8787 -0.2531 -10.8306 0.0000 18.7113 0.0000
# 2 -0.2531 18.8056 -9.7143 0.0000 2.5958 0.0000
# 3 -10.8306 -9.7143 59.9370 0.0000 19.8743 0.0000
# 4 0.0000 0.0000 0.0000 24.1049 0.0000 5.0803
# 5 18.7113 2.5958 19.8743 0.0000 30.1529 0.0000
# 6 0.0000 0.0000 0.0000 5.0803 0.0000 19.3724
#
#
#
# Elastic Compliance Matrix: (Units=1/GPa)
#
#
# Indices 1 2 3 4 5 6 
#
# 1 0.020731 0.009862 0.012658 0.000000 -0.022057 0.000000
# 2 0.009862 0.068002 0.021466 0.000000 -0.026123 0.000000
# 3 0.012658 0.021466 0.032847 0.000000 -0.031353 0.000000
# 4 0.000000 0.000000 0.000000 0.043912 0.000000 -0.011516
# 5 -0.022057 -0.026123 -0.031353 0.000000 0.069765 0.000000
# 6 0.000000 0.000000 0.000000 -0.011516 0.000000 0.054640
#
#
# Mechanical properties :
#
#
# Convention : Reuss Voigt Hill
#
# Bulk Modulus (GPa) = 4.77208 12.44726 8.60967
# Shear Modulus (GPa) = 18.39751 26.35400 22.37576
#
# Velocity S-wave (km/s) = 2.88309 3.45066 3.17956
# Velocity P-wave (km/s) = 3.63854 4.63679 4.16766
#
# Compressibility (1/GPa) = 0.20955220
#
# Stress axis : x y z
#
# Youngs Moduli (GPa) = 48.23720 14.70537 30.44448
#
# Poissons Ratio (x) = -0.14503 -0.38537
# Poissons Ratio (y) = -0.47573 -0.65351
# Poissons Ratio (z) = -0.61060 -0.31566
#
# Static dielectric constant tensor:
#      x y z
#    x 1.876590 0.000000 0.002970 
#    y 0.000000 1.776240 0.000000 
#    z 0.002970 0.000000 1.807640 
# 
# From -- ./inp_files/353555.got.cif
#   From: 2010.05.17/outbox.cif.g08.bks.cpg/sg12_177_cif.got.tgz:353555.got - 2010.06.03 13:09:07.
