data_PCOD9207887
_publ_section_title
;
Structure prediction by ZEFSAII (Michael W. Deem and Ramdas Pophale) SiO2 
 PCOD9207887
Probable space group: C 2/M
;
_chemical_formula_sum "Si O2"
_cell_formula_units_Z 56
_cell_length_a 30.183228
_cell_length_b 8.275272
_cell_length_c 11.810432
_cell_angle_alpha 90.000000
_cell_angle_beta 68.356314
_cell_angle_gamma 90.000000
_cell_volume 2741.959606
_symmetry_space_group_name_H-M "C 2/M"
_symmetry_group_IT_number 12
_symmetry_cell_setting 'monoclinic'
loop_
_space_group_symop_operation_xyz
x,y,z
-x,y,-z
-x,-y,-z
x,-y,z
1/2+x,1/2+y,z
1/2-x,1/2+y,-z
1/2-x,1/2-y,-z
1/2+x,1/2-y,z
loop_
_atom_site_type_symbol
_atom_site_label
_atom_site_fract_x
_atom_site_fract_y
_atom_site_fract_z
Si Si1 0.732009 0.306571 0.342350
Si Si2 0.444938 0.690496 0.566890
Si Si3 0.706101 0.806373 0.117201
Si Si4 0.077702 0.691840 0.651980
Si Si5 0.676773 0.693272 0.621693
Si Si6 0.602512 0.808825 0.162410
Si Si7 0.512515 0.197808 0.114502
O O1 0.732436 0.500000 0.342186
O O2 0.713013 0.247384 0.240251
O O3 0.699515 0.252256 0.479427
O O4 0.785262 0.245349 0.319519
O O5 0.500000 0.742562 0.500000
O O6 0.444337 0.500000 0.593460
O O7 0.419244 0.722477 0.472193
O O8 0.420126 0.783088 0.692377
O O9 0.655912 0.741668 0.115426
O O10 0.704443 0.000000 0.117328
O O11 0.750000 0.750000 0.000000
O O12 0.074611 0.500000 0.636407
O O13 0.124605 0.731263 0.679862
O O14 0.029695 0.746514 0.760588
O O15 0.672933 0.500000 0.624357
O O16 0.563590 0.743115 0.110990
O O17 0.606269 0.000000 0.136564
O O18 0.513149 0.000000 0.114569
O O19 0.500000 0.250038 0.000000
#
# Coordination Sequence:
#
# PCOD9207887 Si02
#       7
#     8   8   8   8   8   8   8
#     4  10  21  39  61  85 116 155 199 246 298 357
#     4  11  22  35  56  86 121 156 192 243 302 353
#     4  11  24  40  61  87 118 158 204 254 304 359
#     4  11  21  34  58  87 117 154 196 240 290 352
#     4  10  21  37  60  89 123 154 189 242 301 359
#     4  10  21  39  62  87 116 155 201 246 294 353
#     4   9  19  36  57  82 113 150 194 239 281 336
#
# _framework density 20.423349999999999
#
# number of rings (size 3 to 8) (size 9 to 14) (size 15 to 20)
#    0.000    1.714    1.429    3.000    0.000    6.857 
#    0.000    2.857    0.000    3.857    0.000    0.000 
#    0.000    0.000    0.000    0.000    0.000    0.000 
#
# Total GULP energy -156490.860338 kJ/mol
# GULP energy per Si atom -5588.959298 kJ/mol
# Density = 2.037687 g / cm^3
# Si number density = 20.423350 Si / 1000 Ang^3
#
#
#
# Elastic Constant Matrix: (Units=GPa)
#
#
# Indices 1 2 3 4 5 6 
#
# 1 183.3054 4.6002 53.1014 0.0000 -0.5336 0.0000
# 2 4.6002 15.6897 -3.7816 0.0000 -0.4325 0.0000
# 3 53.1014 -3.7816 63.1259 0.0000 12.9610 0.0000
# 4 0.0000 0.0000 0.0000 14.1855 0.0000 2.9494
# 5 -0.5336 -0.4325 12.9610 0.0000 33.0438 0.0000
# 6 0.0000 0.0000 0.0000 2.9494 0.0000 27.3151
#
#
#
# Elastic Compliance Matrix: (Units=1/GPa)
#
#
# Indices 1 2 3 4 5 6 
#
# 1 0.007676 -0.003928 -0.007294 0.000000 0.002934 0.000000
# 2 -0.003928 0.066696 0.007758 0.000000 -0.002233 0.000000
# 3 -0.007294 0.007758 0.024411 0.000000 -0.009591 0.000000
# 4 0.000000 0.000000 0.000000 0.072114 0.000000 -0.007787
# 5 0.002934 -0.002233 -0.009591 0.000000 0.034043 0.000000
# 6 0.000000 0.000000 0.000000 -0.007787 0.000000 0.037451
#
#
# Mechanical properties :
#
#
# Convention : Reuss Voigt Hill
#
# Bulk Modulus (GPa) = 10.88673 41.10679 25.99676
# Shear Modulus (GPa) = 17.86119 28.78894 23.32506
#
# Velocity S-wave (km/s) = 2.96048 3.75855 3.38313
# Velocity P-wave (km/s) = 4.12651 6.24553 5.29314
#
# Compressibility (1/GPa) = 0.09185493
#
# Stress axis : x y z
#
# Youngs Moduli (GPa) = 130.28382 14.99338 40.96466
#
# Poissons Ratio (x) = 0.05889 0.29881
# Poissons Ratio (y) = 0.51171 -0.31780
# Poissons Ratio (z) = 0.95033 -0.11632
#
# Static dielectric constant tensor:
#      x y z
#    x 1.799000 0.000000 -0.039700 
#    y 0.000000 1.707590 0.000000 
#    z -0.039700 0.000000 1.714850 
# 
# From -- ./inp_files/180617.got.cif
#   From: 2010.05.17/outbox.cif.g08.bks.cpg/sg12_91_cif.got.tgz:180617.got - 2010.06.03 13:09:07.
