data_PCOD9207527
_publ_section_title
;
Structure prediction by ZEFSAII (Michael W. Deem and Ramdas Pophale) SiO2 
 PCOD9207527
Probable space group: C 2/M
;
_chemical_formula_sum "Si O2"
_cell_formula_units_Z 64
_cell_length_a 27.970969
_cell_length_b 14.380744
_cell_length_c 20.941599
_cell_angle_alpha 90.000000
_cell_angle_beta 20.312537
_cell_angle_gamma 90.000000
_cell_volume 2924.182321
_symmetry_space_group_name_H-M "C 2/M"
_symmetry_group_IT_number 12
_symmetry_cell_setting 'monoclinic'
loop_
_space_group_symop_operation_xyz
x,y,z
-x,y,-z
-x,-y,-z
x,-y,z
1/2+x,1/2+y,z
1/2-x,1/2+y,-z
1/2-x,1/2-y,-z
1/2+x,1/2-y,z
loop_
_atom_site_type_symbol
_atom_site_label
_atom_site_fract_x
_atom_site_fract_y
_atom_site_fract_z
Si Si1 0.796434 0.720173 0.723413
Si Si2 0.002543 0.759327 0.354540
Si Si3 0.999904 0.604219 0.187453
Si Si4 0.310445 0.391108 0.797336
Si Si5 0.991479 0.253934 0.081059
Si Si6 0.691030 0.891969 0.165104
Si Si7 0.722582 0.659922 0.577800
Si Si8 0.516668 0.602789 0.729521
O O1 0.812436 0.824633 0.732774
O O2 0.840258 0.651054 0.725539
O O3 0.885351 0.720812 0.548307
O O4 0.636135 0.702632 0.910973
O O5 0.082526 0.844687 0.288845
O O6 0.113079 0.675970 0.213610
O O7 0.948327 0.808877 0.358780
O O8 0.995113 0.500000 0.168109
O O9 0.981943 0.671706 0.149718
O O10 0.872830 0.615055 0.394997
O O11 0.154284 0.618823 0.019323
O O12 0.336736 0.500000 0.752517
O O13 0.860023 0.187980 0.255675
O O14 0.000000 0.295798 0.000000
O O15 0.651593 0.000000 0.209025
O O16 0.855868 0.885733 0.948677
O O17 0.750000 0.750000 0.500000
O O18 0.614013 0.604758 0.669508
O O19 0.533112 0.500000 0.678562
#
# Coordination Sequence:
#
# PCOD9207527 Si02
#       8
#     8   8   8   8   8   8   8   8
#     4  10  21  37  58  89 122 165 210 248 309 369
#     4  11  23  35  61  95 127 159 208 258 305 366
#     4   9  19  36  61  89 119 159 200 246 308 372
#     4   9  18  35  56  86 130 166 198 246 307 369
#     4  10  21  38  60  86 117 156 203 257 311 366
#     4  10  21  41  64  86 122 170 211 255 309 367
#     4  10  21  38  63  85 117 162 205 253 307 364
#     4  11  23  40  63  93 127 163 205 256 314 375
#
# _framework density 21.88646
#
# number of rings (size 3 to 8) (size 9 to 14) (size 15 to 20)
#    0.000    2.000    1.250    2.625    5.250    2.750 
#    0.000    0.000    0.000    4.125    0.000    0.000 
#    0.000    0.000    0.000    0.000    0.000    0.000 
#
# Total GULP energy -178681.805508 kJ/mol
# GULP energy per Si atom -5583.806422 kJ/mol
# Density = 2.183665 g / cm^3
# Si number density = 21.886460 Si / 1000 Ang^3
#
#
#
# Elastic Constant Matrix: (Units=GPa)
#
#
# Indices 1 2 3 4 5 6 
#
# 1 43.3560 9.6837 22.2514 0.0001 6.8698 0.0000
# 2 9.6837 102.8170 20.0789 0.0001 7.9040 0.0000
# 3 22.2514 20.0789 110.1346 0.0004 0.6256 -0.0001
# 4 0.0001 0.0001 0.0004 13.2037 -0.0002 -6.8855
# 5 6.8698 7.9040 0.6256 -0.0002 28.2907 0.0001
# 6 0.0000 0.0000 -0.0001 -6.8855 0.0001 6.3493
#
#
#
# Elastic Compliance Matrix: (Units=1/GPa)
#
#
# Indices 1 2 3 4 5 6 
#
# 1 0.026950 -0.001047 -0.005219 0.000000 -0.006136 0.000000
# 2 -0.001047 0.010349 -0.001660 0.000000 -0.002600 0.000000
# 3 -0.005219 -0.001660 0.010428 0.000000 0.001501 0.000000
# 4 0.000000 0.000000 0.000000 0.174311 0.000001 0.189030
# 5 -0.006136 -0.002600 0.001501 0.000001 0.037531 0.000001
# 6 0.000000 0.000000 0.000000 0.189030 0.000001 0.362488
#
#
# Mechanical properties :
#
#
# Convention : Reuss Voigt Hill
#
# Bulk Modulus (GPa) = 31.37408 40.03729 35.70568
# Shear Modulus (GPa) = 7.70968 23.18832 15.44900
#
# Velocity S-wave (km/s) = 1.87889 3.25850 2.65970
# Velocity P-wave (km/s) = 4.36727 5.70000 5.07755
#
# Compressibility (1/GPa) = 0.03187345
#
# Stress axis : x y z
#
# Youngs Moduli (GPa) = 37.10624 96.62962 95.89173
#
# Poissons Ratio (x) = 0.10120 0.50046
# Poissons Ratio (y) = 0.03886 0.15921
# Poissons Ratio (z) = 0.19366 0.16044
#
# Static dielectric constant tensor:
#      x y z
#    x 1.840150 0.000000 -0.025540 
#    y 0.000000 1.796450 0.000000 
#    z -0.025540 0.000000 1.836000 
# 
# From -- ./inp_files/330369.got.cif
#   From: 2010.05.17/outbox.cif.g08.bks.cpg/sg12_166_cif.got.tgz:330369.got - 2010.06.03 13:09:07.
