data_PCOD9207081
_publ_section_title
;
Structure prediction by ZEFSAII (Michael W. Deem and Ramdas Pophale) SiO2 
 PCOD9207081
Probable space group: C 2/M
;
_chemical_formula_sum "Si O2"
_cell_formula_units_Z 32
_cell_length_a 5.196710
_cell_length_b 24.783390
_cell_length_c 10.600916
_cell_angle_alpha 90.000000
_cell_angle_beta 105.604042
_cell_angle_gamma 90.000000
_cell_volume 1314.993561
_symmetry_space_group_name_H-M "C 2/M"
_symmetry_group_IT_number 12
_symmetry_cell_setting 'monoclinic'
loop_
_space_group_symop_operation_xyz
x,y,z
-x,y,-z
-x,-y,-z
x,-y,z
1/2+x,1/2+y,z
1/2-x,1/2+y,-z
1/2-x,1/2-y,-z
1/2+x,1/2-y,z
loop_
_atom_site_type_symbol
_atom_site_label
_atom_site_fract_x
_atom_site_fract_y
_atom_site_fract_z
Si Si1 0.370938 0.935675 0.856011
Si Si2 0.269624 0.436597 0.694600
Si Si3 0.007857 0.214863 0.136655
Si Si4 0.290403 0.668206 0.575441
O O1 0.529156 0.916880 0.753180
O O2 0.053767 0.930182 0.803877
O O3 0.425607 0.000000 0.864319
O O4 0.500000 0.912426 0.000000
O O5 0.239065 0.500000 0.659485
O O6 0.283704 0.396984 0.578881
O O7 0.214694 0.263755 0.134795
O O8 0.124232 0.185262 0.273319
O O9 0.000000 0.184940 0.000000
O O10 0.500000 0.686536 0.500000
O O11 0.000000 0.688313 0.500000
#
# Coordination Sequence:
#
# PCOD9207081 Si02
#       4
#     8   8   8   8
#     4   9  17  31  53  81 114 157 210 263 312 360
#     4  10  21  37  56  84 126 172 215 258 305 364
#     4  10  23  45  71  98 128 163 205 258 323 388
#     4  12  26  42  64  97 131 168 215 261 313 374
#
# _framework density 24.334719
#
# number of rings (size 3 to 8) (size 9 to 14) (size 15 to 20)
#    0.000    1.750    0.000    3.750    0.000    9.000 
#    0.000    2.500    0.000    0.000    0.000    0.000 
#    0.000    0.000    0.000    0.000    0.000    0.000 
#
# Total GULP energy -89543.003231 kJ/mol
# GULP energy per Si atom -5596.437702 kJ/mol
# Density = 2.427933 g / cm^3
# Si number density = 24.334719 Si / 1000 Ang^3
#
#
#
# Elastic Constant Matrix: (Units=GPa)
#
#
# Indices 1 2 3 4 5 6 
#
# 1 102.2943 16.7186 45.7585 0.0000 -4.1886 0.0000
# 2 16.7186 68.1951 39.5424 0.0000 -5.5245 0.0000
# 3 45.7585 39.5424 159.1995 0.0000 -4.8564 0.0000
# 4 0.0000 0.0000 0.0000 27.7912 0.0000 -20.8799
# 5 -4.1886 -5.5245 -4.8564 0.0000 37.6527 0.0000
# 6 0.0000 0.0000 0.0000 -20.8799 0.0000 54.1713
#
#
#
# Elastic Compliance Matrix: (Units=1/GPa)
#
#
# Indices 1 2 3 4 5 6 
#
# 1 0.011300 -0.000982 -0.002982 0.000000 0.000728 0.000000
# 2 -0.000982 0.017364 -0.003972 0.000000 0.001926 0.000000
# 3 -0.002982 -0.003972 0.008129 0.000000 0.000134 0.000000
# 4 0.000000 0.000000 0.000000 0.050650 0.000000 0.019523
# 5 0.000728 0.001926 0.000134 0.000000 0.026939 0.000000
# 6 0.000000 0.000000 0.000000 0.019523 0.000000 0.025985
#
#
# Mechanical properties :
#
#
# Convention : Reuss Voigt Hill
#
# Bulk Modulus (GPa) = 47.79877 59.30310 53.55093
# Shear Modulus (GPa) = 30.63495 39.10100 34.86797
#
# Velocity S-wave (km/s) = 3.55195 4.01284 3.78941
# Velocity P-wave (km/s) = 6.04207 6.77445 6.41871
#
# Compressibility (1/GPa) = 0.02092104
#
# Stress axis : x y z
#
# Youngs Moduli (GPa) = 88.49667 57.59162 123.01571
#
# Poissons Ratio (x) = 0.05657 0.36679
# Poissons Ratio (y) = 0.08693 0.48858
# Poissons Ratio (z) = 0.26387 0.22874
#
# Static dielectric constant tensor:
#      x y z
#    x 1.907690 0.000000 -0.008950 
#    y 0.000000 1.976140 0.000000 
#    z -0.008950 0.000000 1.921450 
# 
# From -- ./inp_files/34496.got.cif
#   From: 2010.05.17/outbox.cif.g08.bks.cpg/sg12_18_cif.got.tgz:34496.got - 2010.06.03 13:09:07.
