data_PCOD9207453
_publ_section_title
;
Structure prediction by ZEFSAII (Michael W. Deem and Ramdas Pophale) SiO2 
 PCOD9207453
Probable space group: C 2/M
;
_chemical_formula_sum "Si O2"
_cell_formula_units_Z 48
_cell_length_a 20.473479
_cell_length_b 24.585499
_cell_length_c 8.510630
_cell_angle_alpha 90.000000
_cell_angle_beta 145.804547
_cell_angle_gamma 90.000000
_cell_volume 2407.589319
_symmetry_space_group_name_H-M "C 2/M"
_symmetry_group_IT_number 12
_symmetry_cell_setting 'monoclinic'
loop_
_space_group_symop_operation_xyz
x,y,z
-x,y,-z
-x,-y,-z
x,-y,z
1/2+x,1/2+y,z
1/2-x,1/2+y,-z
1/2-x,1/2-y,-z
1/2+x,1/2-y,z
loop_
_atom_site_type_symbol
_atom_site_label
_atom_site_fract_x
_atom_site_fract_y
_atom_site_fract_z
Si Si1 0.808902 0.700066 0.723958
Si Si2 0.365217 0.935749 0.270349
Si Si3 0.553432 0.350248 0.800284
Si Si4 0.026260 0.728293 0.372496
Si Si5 0.205094 0.353536 0.604257
Si Si6 0.177323 0.871637 0.713302
O O1 0.750000 0.750000 0.500000
O O2 0.835682 0.652229 0.653930
O O3 0.730246 0.674335 0.705205
O O4 0.928667 0.712714 0.050990
O O5 0.500000 0.925233 0.500000
O O6 0.334171 0.904096 0.369277
O O7 0.347478 0.000000 0.251557
O O8 0.280689 0.912396 0.965941
O O9 0.488501 0.292828 0.665786
O O10 0.628337 0.354636 0.788827
O O11 0.446265 0.391822 0.604843
O O12 0.655130 0.351715 0.128189
O O13 0.147866 0.699496 0.574643
O O14 0.000000 0.711927 0.500000
#
# Coordination Sequence:
#
# PCOD9207453 Si02
#       6
#     8   8   8   8   8   8
#     4  12  24  36  58  94 139 175 208 254 327 395
#     4  10  22  45  72  93 117 165 226 281 322 371
#     4  10  21  37  58  85 126 171 218 252 306 384
#     4  12  22  36  59  84 127 178 218 254 304 390
#     4  11  23  39  57  90 131 165 213 266 323 380
#     4  10  21  39  58  90 124 162 211 268 307 375
#
# _framework density 19.936955000000001
#
# number of rings (size 3 to 8) (size 9 to 14) (size 15 to 20)
#    0.000    1.167    3.333    5.000    0.000    2.000 
#    0.000    7.500    0.000    4.000    0.000   11.667 
#    0.000    0.000    0.000    0.000    0.000    0.000 
#
# Total GULP energy -133602.850179 kJ/mol
# GULP energy per Si atom -5566.785424 kJ/mol
# Density = 1.989158 g / cm^3
# Si number density = 19.936955 Si / 1000 Ang^3
#
#
#
# Elastic Constant Matrix: (Units=GPa)
#
#
# Indices 1 2 3 4 5 6 
#
# 1 50.8949 35.9633 38.2374 0.0000 7.5576 0.0000
# 2 35.9633 95.0806 49.6649 0.0000 9.3391 0.0000
# 3 38.2374 49.6649 153.9878 0.0000 6.3363 0.0000
# 4 0.0000 0.0000 0.0000 22.7146 0.0000 0.1083
# 5 7.5576 9.3391 6.3363 0.0000 37.7563 0.0000
# 6 0.0000 0.0000 0.0000 0.1083 0.0000 14.5792
#
#
#
# Elastic Compliance Matrix: (Units=1/GPa)
#
#
# Indices 1 2 3 4 5 6 
#
# 1 0.029460 -0.008524 -0.004441 0.000000 -0.003043 0.000000
# 2 -0.008524 0.015346 -0.002766 0.000000 -0.001625 0.000000
# 3 -0.004441 -0.002766 0.008483 0.000000 0.000149 0.000000
# 4 0.000000 0.000000 0.000000 0.044026 0.000000 -0.000327
# 5 -0.003043 -0.001625 0.000149 0.000000 0.027472 0.000000
# 6 0.000000 0.000000 0.000000 -0.000327 0.000000 0.068593
#
#
# Mechanical properties :
#
#
# Convention : Reuss Voigt Hill
#
# Bulk Modulus (GPa) = 45.81566 60.85498 53.33532
# Shear Modulus (GPa) = 21.54076 26.74985 24.14530
#
# Velocity S-wave (km/s) = 3.29058 3.66693 3.48384
# Velocity P-wave (km/s) = 6.12106 6.96552 6.55690
#
# Compressibility (1/GPa) = 0.02182660
#
# Stress axis : x y z
#
# Youngs Moduli (GPa) = 33.94409 65.16321 117.88772
#
# Poissons Ratio (x) = 0.55548 0.52352
# Poissons Ratio (y) = 0.28936 0.32606
# Poissons Ratio (z) = 0.15074 0.18023
#
# Static dielectric constant tensor:
#      x y z
#    x 1.746850 0.000000 -0.000360 
#    y 0.000000 1.748280 0.000000 
#    z -0.000360 0.000000 1.861480 
# 
# From -- ./inp_files/91275.got.cif
#   From: 2010.05.17/outbox.cif.g08.bks.cpg/sg12_46_cif.got.tgz:91275.got - 2010.06.03 13:09:07.
