data_PCOD9207875
_publ_section_title
;
Structure prediction by ZEFSAII (Michael W. Deem and Ramdas Pophale) SiO2 
 PCOD9207875
Probable space group: C 2/M
;
_chemical_formula_sum "Si O2"
_cell_formula_units_Z 64
_cell_length_a 21.968493
_cell_length_b 15.484548
_cell_length_c 8.449235
_cell_angle_alpha 90.000000
_cell_angle_beta 98.291743
_cell_angle_gamma 90.000000
_cell_volume 2844.149568
_symmetry_space_group_name_H-M "C 2/M"
_symmetry_group_IT_number 12
_symmetry_cell_setting 'monoclinic'
loop_
_space_group_symop_operation_xyz
x,y,z
-x,y,-z
-x,-y,-z
x,-y,z
1/2+x,1/2+y,z
1/2-x,1/2+y,-z
1/2-x,1/2-y,-z
1/2+x,1/2-y,z
loop_
_atom_site_type_symbol
_atom_site_label
_atom_site_fract_x
_atom_site_fract_y
_atom_site_fract_z
Si Si1 0.978633 0.104201 0.821996
Si Si2 0.099308 0.102160 0.703472
Si Si3 0.344639 0.261971 0.114215
Si Si4 0.969845 0.597838 0.839984
Si Si5 0.216723 0.745488 0.244092
Si Si6 0.147588 0.603665 0.390401
Si Si7 0.350590 0.395624 0.620156
Si Si8 0.442071 0.166080 0.371441
O O1 0.028495 0.126523 0.707122
O O2 0.910729 0.127248 0.745949
O O3 0.979030 0.000000 0.831633
O O4 0.000000 0.138290 0.000000
O O5 0.137857 0.137139 0.866064
O O6 0.129498 0.130855 0.550247
O O7 0.101129 0.000000 0.699595
O O8 0.285260 0.249460 0.202393
O O9 0.403075 0.219693 0.226008
O O10 0.325290 0.236650 0.930972
O O11 0.954865 0.500000 0.881553
O O12 0.905899 0.631486 0.753163
O O13 0.019163 0.598599 0.718264
O O14 0.000000 0.644210 0.000000
O O15 0.203321 0.664768 0.356266
O O16 0.201116 0.834151 0.328730
O O17 0.160083 0.500000 0.388619
O O18 0.111498 0.626342 0.538595
O O19 0.339213 0.500000 0.621137
O O20 0.500000 0.203384 0.500000
#
# Coordination Sequence:
#
# PCOD9207875 Si02
#       8
#     8   8   8   8   8   8   8   8
#     4   9  17  31  55  88 124 160 199 245 298 358
#     4  10  21  37  60  89 120 157 199 249 307 360
#     4  11  25  43  61  86 122 160 206 256 298 355
#     4   9  17  32  57  89 123 156 195 246 302 361
#     4  11  25  44  63  86 121 165 209 251 294 355
#     4  10  21  38  62  91 123 160 202 249 304 363
#     4  10  21  39  63  91 124 160 200 248 303 361
#     4  10  21  38  62  91 121 154 197 249 308 360
#
# _framework density 22.502331999999999
#
# number of rings (size 3 to 8) (size 9 to 14) (size 15 to 20)
#    0.000    2.000    0.000    3.000    0.000   10.000 
#    0.000    8.750    0.000    0.000    0.000    0.000 
#    0.000    0.000    0.000    0.000    0.000    0.000 
#
# Total GULP energy -178478.981614 kJ/mol
# GULP energy per Si atom -5577.468175 kJ/mol
# Density = 2.245112 g / cm^3
# Si number density = 22.502332 Si / 1000 Ang^3
#
#
#
# Elastic Constant Matrix: (Units=GPa)
#
#
# Indices 1 2 3 4 5 6 
#
# 1 74.9503 30.9584 39.4032 0.0000 -13.3480 0.0000
# 2 30.9584 69.9169 35.6376 0.0000 -10.9002 0.0000
# 3 39.4032 35.6376 93.8119 0.0000 2.4662 0.0000
# 4 0.0000 0.0000 0.0000 35.0145 0.0000 0.5356
# 5 -13.3480 -10.9002 2.4662 0.0000 49.4967 0.0000
# 6 0.0000 0.0000 0.0000 0.5356 0.0000 17.0823
#
#
#
# Elastic Compliance Matrix: (Units=1/GPa)
#
#
# Indices 1 2 3 4 5 6 
#
# 1 0.019503 -0.004569 -0.006576 0.000000 0.004581 0.000000
# 2 -0.004569 0.019747 -0.005672 0.000000 0.003399 0.000000
# 3 -0.006576 -0.005672 0.015676 0.000000 -0.003803 0.000000
# 4 0.000000 0.000000 0.000000 0.028573 0.000000 -0.000896
# 5 0.004581 0.003399 -0.003803 0.000000 0.022377 0.000000
# 6 0.000000 0.000000 0.000000 -0.000896 0.000000 0.058568
#
#
# Mechanical properties :
#
#
# Convention : Reuss Voigt Hill
#
# Bulk Modulus (GPa) = 46.96729 50.07527 48.52128
# Shear Modulus (GPa) = 24.36942 29.16403 26.76672
#
# Velocity S-wave (km/s) = 3.29443 3.60397 3.45267
# Velocity P-wave (km/s) = 5.94882 6.29443 6.12406
#
# Compressibility (1/GPa) = 0.02129141
#
# Stress axis : x y z
#
# Youngs Moduli (GPa) = 51.27512 50.64117 63.79075
#
# Poissons Ratio (x) = 0.23140 0.41950
# Poissons Ratio (y) = 0.23430 0.36179
# Poissons Ratio (z) = 0.33719 0.28721
#
# Static dielectric constant tensor:
#      x y z
#    x 1.801320 0.000000 0.030290 
#    y 0.000000 1.867180 0.000000 
#    z 0.030290 0.000000 1.884830 
# 
# From -- ./inp_files/87983.got.cif
#   From: 2010.05.17/outbox.cif.g08.bks.cpg/sg12_44_cif.got.tgz:87983.got - 2010.06.03 13:09:07.
