data_PCOD9207762
_publ_section_title
;
Structure prediction by ZEFSAII (Michael W. Deem and Ramdas Pophale) SiO2 
 PCOD9207762
Probable space group: C 2/M
;
_chemical_formula_sum "Si O2"
_cell_formula_units_Z 40
_cell_length_a 31.977334
_cell_length_b 8.512865
_cell_length_c 11.344502
_cell_angle_alpha 90.000000
_cell_angle_beta 138.816966
_cell_angle_gamma 90.000000
_cell_volume 2033.467366
_symmetry_space_group_name_H-M "C 2/M"
_symmetry_group_IT_number 12
_symmetry_cell_setting 'monoclinic'
loop_
_space_group_symop_operation_xyz
x,y,z
-x,y,-z
-x,-y,-z
x,-y,z
1/2+x,1/2+y,z
1/2-x,1/2+y,-z
1/2-x,1/2-y,-z
1/2+x,1/2-y,z
loop_
_atom_site_type_symbol
_atom_site_label
_atom_site_fract_x
_atom_site_fract_y
_atom_site_fract_z
Si Si1 0.383032 0.180679 0.521279
Si Si2 0.138021 0.176734 0.996883
Si Si3 0.506128 0.811696 0.652934
Si Si4 0.761046 0.186641 0.392497
Si Si5 0.816957 0.177193 0.170751
O O1 0.451479 0.249469 0.627450
O O2 0.330993 0.260660 0.495664
O O3 0.349255 0.198075 0.323571
O O4 0.390191 0.000000 0.573904
O O5 0.072638 0.272860 0.857905
O O6 0.148783 0.164556 0.880182
O O7 0.129585 0.000000 0.027373
O O8 0.202162 0.248291 0.188963
O O9 0.500000 0.756870 0.500000
O O10 0.498197 0.000000 0.629806
O O11 0.750000 0.250000 0.500000
O O12 0.757988 0.000000 0.384299
O O13 0.813504 0.000000 0.215866
O O14 0.750000 0.250000 0.000000
#
# Coordination Sequence:
#
# PCOD9207762 Si02
#       5
#     8   8   8   8   8
#     4  11  22  38  61  90 127 163 205 252 303 366
#     4  11  23  38  60  91 128 163 204 252 304 364
#     4  10  21  37  59  91 131 170 202 242 303 369
#     4  12  26  45  68  89 118 158 210 262 311 363
#     4  11  21  32  54  88 125 162 200 251 307 365
#
# _framework density 19.670833999999999
#
# number of rings (size 3 to 8) (size 9 to 14) (size 15 to 20)
#    0.000    1.000    4.000    3.600    0.000    3.600 
#    0.000    1.000    0.000    6.000    0.000    0.000 
#    0.000    0.000    0.000    0.000    0.000    0.000 
#
# Total GULP energy -111399.776904 kJ/mol
# GULP energy per Si atom -5569.988845 kJ/mol
# Density = 1.962606 g / cm^3
# Si number density = 19.670834 Si / 1000 Ang^3
#
#
#
# Elastic Constant Matrix: (Units=GPa)
#
#
# Indices 1 2 3 4 5 6 
#
# 1 134.4990 29.9336 44.1135 0.0000 17.0437 0.0000
# 2 29.9336 62.7650 6.9341 0.0000 1.6497 0.0000
# 3 44.1135 6.9341 32.2576 0.0000 20.9852 0.0000
# 4 0.0000 0.0000 0.0000 27.3489 0.0000 -0.2851
# 5 17.0437 1.6497 20.9852 0.0000 39.9433 0.0000
# 6 0.0000 0.0000 0.0000 -0.2851 0.0000 27.0582
#
#
#
# Elastic Compliance Matrix: (Units=1/GPa)
#
#
# Indices 1 2 3 4 5 6 
#
# 1 0.015881 -0.004997 -0.024869 0.000000 0.006496 0.000000
# 2 -0.004997 0.017976 0.003138 0.000000 -0.000259 0.000000
# 3 -0.024869 0.003138 0.087382 0.000000 -0.035426 0.000000
# 4 0.000000 0.000000 0.000000 0.036569 0.000000 0.000385
# 5 0.006496 -0.000259 -0.035426 0.000000 0.040886 0.000000
# 6 0.000000 0.000000 0.000000 0.000385 0.000000 0.036961
#
#
# Mechanical properties :
#
#
# Convention : Reuss Voigt Hill
#
# Bulk Modulus (GPa) = 14.75325 43.49824 29.12574
# Shear Modulus (GPa) = 16.04084 28.77277 22.40680
#
# Velocity S-wave (km/s) = 2.85873 3.82869 3.37870
# Velocity P-wave (km/s) = 4.29101 6.45804 5.48266
#
# Compressibility (1/GPa) = 0.06778168
#
# Stress axis : x y z
#
# Youngs Moduli (GPa) = 62.97001 55.63057 11.44406
#
# Poissons Ratio (x) = 0.27798 0.28460
# Poissons Ratio (y) = 0.31466 -0.03591
# Poissons Ratio (z) = 1.56599 -0.17456
#
# Static dielectric constant tensor:
#      x y z
#    x 1.796120 0.000000 0.220550 
#    y 0.000000 1.734560 0.000000 
#    z 0.220550 0.000000 2.424420 
# 
# From -- ./inp_files/162484.got.cif
#   From: 2010.05.17/outbox.cif.g08.bks.cpg/sg12_82_cif.got.tgz:162484.got - 2010.06.03 13:09:07.
