data_PCOD9207228
_publ_section_title
;
Structure prediction by ZEFSAII (Michael W. Deem and Ramdas Pophale) SiO2 
 PCOD9207228
Probable space group: C 2/M
;
_chemical_formula_sum "Si O2"
_cell_formula_units_Z 64
_cell_length_a 28.104946
_cell_length_b 8.884783
_cell_length_c 24.106740
_cell_angle_alpha 90.000000
_cell_angle_beta 146.761141
_cell_angle_gamma 90.000000
_cell_volume 3299.530266
_symmetry_space_group_name_H-M "C 2/M"
_symmetry_group_IT_number 12
_symmetry_cell_setting 'monoclinic'
loop_
_space_group_symop_operation_xyz
x,y,z
-x,y,-z
-x,-y,-z
x,-y,z
1/2+x,1/2+y,z
1/2-x,1/2+y,-z
1/2-x,1/2-y,-z
1/2+x,1/2-y,z
loop_
_atom_site_type_symbol
_atom_site_label
_atom_site_fract_x
_atom_site_fract_y
_atom_site_fract_z
Si Si1 0.165809 0.319398 0.946083
Si Si2 0.031173 0.181158 0.591837
Si Si3 0.622301 0.680563 0.022931
Si Si4 0.057236 0.320799 0.168668
Si Si5 0.791186 0.680315 0.256632
Si Si6 0.888048 0.179609 0.543255
Si Si7 0.025702 0.321955 0.268605
Si Si8 0.742498 0.319851 0.331276
O O1 0.172850 0.500000 0.958174
O O2 0.076942 0.287549 0.825798
O O3 0.250000 0.250000 0.000000
O O4 0.152312 0.246480 0.993111
O O5 0.127519 0.244468 0.694220
O O6 0.000000 0.230463 0.500000
O O7 0.963152 0.228155 0.572764
O O8 0.034435 0.000000 0.595137
O O9 0.615007 0.500000 0.012937
O O10 0.698103 0.720033 0.139930
O O11 0.528113 0.750618 0.942723
O O12 0.058322 0.500000 0.161559
O O13 0.146185 0.246452 0.236246
O O14 0.048369 0.292206 0.226396
O O15 0.800456 0.500000 0.261835
O O16 0.789698 0.723941 0.319816
O O17 0.798795 0.254168 0.436329
O O18 0.917831 0.230195 0.632951
O O19 0.879601 0.000000 0.532086
O O20 0.038103 0.500000 0.290571
O O21 0.738759 0.500000 0.330584
#
# Coordination Sequence:
#
# PCOD9207228 Si02
#       8
#     8   8   8   8   8   8   8   8
#     4  10  21  37  57  84 117 154 198 243 290 347
#     4  10  21  38  58  83 119 156 191 240 294 342
#     4  10  21  39  60  86 119 154 194 241 292 348
#     4  10  22  42  64  87 116 153 196 245 297 348
#     4  10  23  39  59  88 119 156 198 238 288 351
#     4  11  23  38  59  89 119 153 196 241 291 350
#     4   9  21  40  59  82 115 152 192 239 290 348
#     4  11  23  40  62  87 116 155 198 243 294 348
#
# _framework density 19.396701
#
# number of rings (size 3 to 8) (size 9 to 14) (size 15 to 20)
#    0.000    1.875    1.250    2.625    1.750    6.750 
#    0.000    2.500    0.000    0.000    0.000    0.000 
#    0.000    0.000    0.000    0.000    0.000    0.000 
#
# Total GULP energy -178790.397425 kJ/mol
# GULP energy per Si atom -5587.199920 kJ/mol
# Density = 1.935255 g / cm^3
# Si number density = 19.396701 Si / 1000 Ang^3
#
#
#
# Elastic Constant Matrix: (Units=GPa)
#
#
# Indices 1 2 3 4 5 6 
#
# 1 23.2419 8.8537 1.6859 0.0000 22.1160 0.0000
# 2 8.8537 38.7629 30.8638 0.0000 3.4671 0.0000
# 3 1.6859 30.8638 97.4249 0.0000 9.3172 0.0000
# 4 0.0000 0.0000 0.0000 35.6051 0.0000 7.7238
# 5 22.1160 3.4671 9.3172 0.0000 33.8989 0.0000
# 6 0.0000 0.0000 0.0000 7.7238 0.0000 25.5285
#
#
#
# Elastic Compliance Matrix: (Units=1/GPa)
#
#
# Indices 1 2 3 4 5 6 
#
# 1 0.155912 -0.042919 0.020752 0.000000 -0.103033 0.000000
# 2 -0.042919 0.046324 -0.016594 0.000000 0.027824 0.000000
# 3 0.020752 -0.016594 0.016734 0.000000 -0.016441 0.000000
# 4 0.000000 0.000000 0.000000 0.030059 0.000000 -0.009094
# 5 -0.103033 0.027824 -0.016441 0.000000 0.098393 0.000000
# 6 0.000000 0.000000 0.000000 -0.009094 0.000000 0.041924
#
#
# Mechanical properties :
#
#
# Convention : Reuss Voigt Hill
#
# Bulk Modulus (GPa) = 7.06962 26.91517 16.99240
# Shear Modulus (GPa) = 9.72730 26.87490 18.30110
#
# Velocity S-wave (km/s) = 2.24183 3.72632 3.07500
# Velocity P-wave (km/s) = 3.21772 5.69388 4.62461
#
# Compressibility (1/GPa) = 0.14145025
#
# Stress axis : x y z
#
# Youngs Moduli (GPa) = 6.41386 21.58692 59.75733
#
# Poissons Ratio (x) = 0.92649 -1.24009
# Poissons Ratio (y) = 0.27528 0.99159
# Poissons Ratio (z) = -0.13310 0.35820
#
# Static dielectric constant tensor:
#      x y z
#    x 1.674760 0.000000 -0.001810 
#    y 0.000000 1.644610 0.000000 
#    z -0.001810 0.000000 1.668090 
# 
# From -- ./inp_files/353455.got.cif
#   From: 2010.05.17/outbox.cif.g08.bks.cpg/sg12_177_cif.got.tgz:353455.got - 2010.06.03 13:09:07.
