data_PCOD9207514
_publ_section_title
;
Structure prediction by ZEFSAII (Michael W. Deem and Ramdas Pophale) SiO2 
 PCOD9207514
Probable space group: C 2/M
;
_chemical_formula_sum "Si O2"
_cell_formula_units_Z 52
_cell_length_a 5.211195
_cell_length_b 24.261712
_cell_length_c 22.978986
_cell_angle_alpha 90.000000
_cell_angle_beta 69.530757
_cell_angle_gamma 90.000000
_cell_volume 2721.851004
_symmetry_space_group_name_H-M "C 2/M"
_symmetry_group_IT_number 12
_symmetry_cell_setting 'monoclinic'
loop_
_space_group_symop_operation_xyz
x,y,z
-x,y,-z
-x,-y,-z
x,-y,z
1/2+x,1/2+y,z
1/2-x,1/2+y,-z
1/2-x,1/2-y,-z
1/2+x,1/2-y,z
loop_
_atom_site_type_symbol
_atom_site_label
_atom_site_fract_x
_atom_site_fract_y
_atom_site_fract_z
Si Si1 0.856237 0.562579 0.218281
Si Si2 0.315415 0.436623 0.957296
Si Si3 0.657588 0.712770 0.735911
Si Si4 0.000000 0.287781 0.500000
Si Si5 0.872998 0.633007 0.616934
Si Si6 0.843393 0.063233 0.633417
Si Si7 0.069778 0.120098 0.829928
O O1 0.918726 0.500000 0.195533
O O2 0.794742 0.563722 0.291666
O O3 0.589560 0.583550 0.205571
O O4 0.119660 0.599926 0.185636
O O5 0.351506 0.500000 0.932006
O O6 0.408165 0.392866 0.901784
O O7 0.500000 0.431456 0.000000
O O8 0.000000 0.430169 0.000000
O O9 0.394174 0.742908 0.729993
O O10 0.772396 0.667678 0.681157
O O11 0.579358 0.680675 0.801322
O O12 0.250000 0.250000 0.500000
O O13 0.088091 0.325272 0.439000
O O14 0.642048 0.588879 0.618245
O O15 0.154321 0.601726 0.608857
O O16 0.853001 0.000000 0.612427
#
# Coordination Sequence:
#
# PCOD9207514 Si02
#       7
#     8   8   8   4   8   8   8
#     4  11  20  34  58  92 124 156 197 243 302 374
#     4  10  21  37  58  88 124 160 197 243 304 376
#     4  12  24  40  61  88 120 157 206 267 313 354
#     4  12  26  46  69  96 121 170 226 270 310 368
#     4  12  23  44  65  93 128 167 204 264 318 370
#     4  11  22  39  63  95 131 164 198 247 314 392
#     4  12  22  38  60  90 122 163 206 250 313 365
#
# _framework density 19.104644
#
# number of rings (size 3 to 8) (size 9 to 14) (size 15 to 20)
#    0.000    0.615    3.077    6.462    0.000    3.692 
#    0.000    2.308    0.000    2.769    0.000    0.000 
#    0.000    0.000    0.000    0.000    0.000    0.000 
#
# Total GULP energy -145441.562690 kJ/mol
# GULP energy per Si atom -5593.906257 kJ/mol
# Density = 1.906116 g / cm^3
# Si number density = 19.104644 Si / 1000 Ang^3
#
#
#
# Elastic Constant Matrix: (Units=GPa)
#
#
# Indices 1 2 3 4 5 6 
#
# 1 61.0469 -3.1006 0.0425 0.0000 7.4571 0.0000
# 2 -3.1006 60.9605 23.0726 0.0000 8.2466 0.0000
# 3 0.0425 23.0726 62.4931 0.0000 3.7697 0.0000
# 4 0.0000 0.0000 0.0000 25.1020 0.0000 -0.6592
# 5 7.4571 8.2466 3.7697 0.0000 22.5364 0.0000
# 6 0.0000 0.0000 0.0000 -0.6592 0.0000 43.2275
#
#
#
# Elastic Compliance Matrix: (Units=1/GPa)
#
#
# Indices 1 2 3 4 5 6 
#
# 1 0.017249 0.001853 -0.000314 0.000000 -0.006333 0.000000
# 2 0.001853 0.020066 -0.007000 0.000000 -0.006785 0.000000
# 3 -0.000314 -0.007000 0.018614 0.000000 -0.000448 0.000000
# 4 0.000000 0.000000 0.000000 0.039853 0.000000 0.000608
# 5 -0.006333 -0.006785 -0.000448 0.000000 0.049026 0.000000
# 6 0.000000 0.000000 0.000000 0.000608 0.000000 0.023143
#
#
# Mechanical properties :
#
#
# Convention : Reuss Voigt Hill
#
# Bulk Modulus (GPa) = 22.21958 24.94775 23.58366
# Shear Modulus (GPa) = 25.78994 29.13892 27.46443
#
# Velocity S-wave (km/s) = 3.67813 3.90965 3.79565
# Velocity P-wave (km/s) = 5.44921 5.78510 5.61966
#
# Compressibility (1/GPa) = 0.04500535
#
# Stress axis : x y z
#
# Youngs Moduli (GPa) = 57.97521 49.83656 53.72432
#
# Poissons Ratio (x) = -0.09234 0.01686
# Poissons Ratio (y) = -0.10741 0.37608
# Poissons Ratio (z) = 0.01819 0.34887
#
# Static dielectric constant tensor:
#      x y z
#    x 1.636830 0.000000 0.000690 
#    y 0.000000 1.657690 0.000000 
#    z 0.000690 0.000000 1.660330 
# 
# From -- ./inp_files/331170.got.cif
#   From: 2010.05.17/outbox.cif.g08.bks.cpg/sg12_166_cif.got.tgz:331170.got - 2010.06.03 13:09:07.
