data_PCOD9207060
_publ_section_title
;
Structure prediction by ZEFSAII (Michael W. Deem and Ramdas Pophale) SiO2 
 PCOD9207060
Probable space group: C 2/M
;
_chemical_formula_sum "Si O2"
_cell_formula_units_Z 48
_cell_length_a 9.575078
_cell_length_b 16.303902
_cell_length_c 13.474586
_cell_angle_alpha 90.000000
_cell_angle_beta 110.936352
_cell_angle_gamma 90.000000
_cell_volume 1964.653337
_symmetry_space_group_name_H-M "C 2/M"
_symmetry_group_IT_number 12
_symmetry_cell_setting 'monoclinic'
loop_
_space_group_symop_operation_xyz
x,y,z
-x,y,-z
-x,-y,-z
x,-y,z
1/2+x,1/2+y,z
1/2-x,1/2+y,-z
1/2-x,1/2-y,-z
1/2+x,1/2-y,z
loop_
_atom_site_type_symbol
_atom_site_label
_atom_site_fract_x
_atom_site_fract_y
_atom_site_fract_z
Si Si1 0.847384 0.095195 0.686139
Si Si2 0.676861 0.904155 0.232291
Si Si3 0.422503 0.735257 0.575688
Si Si4 0.819423 0.670412 0.967050
Si Si5 0.140096 0.590919 0.437510
Si Si6 0.333151 0.094639 0.167531
O O1 0.942461 0.173524 0.671580
O O2 0.734235 0.089444 0.562694
O O3 0.773150 0.124503 0.770864
O O4 0.906993 0.000000 0.711810
O O5 0.739807 0.852512 0.157023
O O6 0.736549 0.900886 0.360012
O O7 0.504356 0.875678 0.203610
O O8 0.676501 0.000000 0.201653
O O9 0.500000 0.698549 0.500000
O O10 0.250000 0.750000 0.500000
O O11 0.469408 0.830810 0.595554
O O12 0.750000 0.750000 0.000000
O O13 0.778549 0.604022 0.040783
O O14 0.000000 0.676240 0.000000
O O15 0.068733 0.500000 0.411966
O O16 0.345466 0.000000 0.195164
#
# Coordination Sequence:
#
# PCOD9207060 Si02
#       6
#     8   8   8   8   8   8
#     4   9  19  35  54  80 114 152 188 226 276 337
#     4   9  18  32  55  82 108 144 186 233 277 326
#     4  10  22  36  52  79 110 149 185 226 272 325
#     4  10  21  37  56  83 112 145 183 229 281 332
#     4   9  19  33  53  82 115 144 182 231 282 328
#     4   9  18  33  56  81 107 143 189 234 273 323
#
# _framework density 24.431792000000002
#
# number of rings (size 3 to 8) (size 9 to 14) (size 15 to 20)
#    0.000    2.667    0.000    0.500    7.000    2.667 
#    0.000    0.000    0.000    2.000    0.000    0.000 
#    0.000    0.000    0.000    0.000    0.000    0.000 
#
# Total GULP energy -133636.838605 kJ/mol
# GULP energy per Si atom -5568.201609 kJ/mol
# Density = 2.437618 g / cm^3
# Si number density = 24.431792 Si / 1000 Ang^3
#
#
#
# Elastic Constant Matrix: (Units=GPa)
#
#
# Indices 1 2 3 4 5 6 
#
# 1 50.8754 18.7862 49.6516 0.0000 -19.7464 0.0000
# 2 18.7862 113.7252 34.3729 0.0000 -20.5112 0.0000
# 3 49.6516 34.3729 188.0802 0.0000 -52.4631 0.0000
# 4 0.0000 0.0000 0.0000 44.4192 0.0000 -22.0789
# 5 -19.7464 -20.5112 -52.4631 0.0000 37.6786 0.0000
# 6 0.0000 0.0000 0.0000 -22.0789 0.0000 5.7923
#
#
#
# Elastic Compliance Matrix: (Units=1/GPa)
#
#
# Indices 1 2 3 4 5 6 
#
# 1 0.027940 -0.001890 -0.005286 0.000000 0.006253 0.000000
# 2 -0.001890 0.009906 -0.000137 0.000000 0.004212 0.000000
# 3 -0.005286 -0.000137 0.009718 0.000000 0.010687 0.000000
# 4 0.000000 0.000000 0.000000 -0.025163 0.000000 -0.095917
# 5 0.006253 0.004212 0.010687 0.000000 0.046991 0.000000
# 6 0.000000 0.000000 0.000000 -0.095917 0.000000 -0.192969
#
#
# Mechanical properties :
#
#
# Convention : Reuss Voigt Hill
#
# Bulk Modulus (GPa) = 30.35891 62.03357 46.19624
# Shear Modulus (GPa) = -51.03480 34.23604 -8.39938
#
# Velocity S-wave (km/s) = -4.57537 3.74744 -1.85617
# Velocity P-wave (km/s) = 3.93180 6.64606 3.78886
#
# Compressibility (1/GPa) = 0.03293926
#
# Stress axis : x y z
#
# Youngs Moduli (GPa) = 35.79119 100.94615 102.89766
#
# Poissons Ratio (x) = 0.19077 0.54394
# Poissons Ratio (y) = 0.06764 0.01406
# Poissons Ratio (z) = 0.18920 0.01379
#
# Static dielectric constant tensor:
#      x y z
#    x 2.001490 0.000000 0.023820 
#    y 0.000000 2.148870 0.000000 
#    z 0.023820 0.000000 2.046850 
# 
# From -- ./inp_files/131079.got.cif
#   From: 2010.05.17/outbox.cif.g08.bks.cpg/sg12_66_cif.got.tgz:131079.got - 2010.06.03 13:09:07.
