data_PCOD9207459
_publ_section_title
;
Structure prediction by ZEFSAII (Michael W. Deem and Ramdas Pophale) SiO2 
 PCOD9207459
Probable space group: C 2/M
;
_chemical_formula_sum "Si O2"
_cell_formula_units_Z 64
_cell_length_a 20.331665
_cell_length_b 8.952589
_cell_length_c 29.888140
_cell_angle_alpha 90.000000
_cell_angle_beta 40.733437
_cell_angle_gamma 90.000000
_cell_volume 3549.997974
_symmetry_space_group_name_H-M "C 2/M"
_symmetry_group_IT_number 12
_symmetry_cell_setting 'monoclinic'
loop_
_space_group_symop_operation_xyz
x,y,z
-x,y,-z
-x,-y,-z
x,-y,z
1/2+x,1/2+y,z
1/2-x,1/2+y,-z
1/2-x,1/2-y,-z
1/2+x,1/2-y,z
loop_
_atom_site_type_symbol
_atom_site_label
_atom_site_fract_x
_atom_site_fract_y
_atom_site_fract_z
Si Si1 0.571951 0.679363 0.211545
Si Si2 0.790403 0.179265 0.524877
Si Si3 0.742379 0.677666 0.052384
Si Si4 0.500577 0.174495 0.553482
Si Si5 0.387078 0.675966 0.046798
Si Si6 0.716232 0.175848 0.208842
Si Si7 0.292167 0.679196 0.691386
Si Si8 0.352288 0.820628 0.316786
O O1 0.572102 0.500000 0.215314
O O2 0.643102 0.721329 0.132474
O O3 0.625198 0.749840 0.227786
O O4 0.459607 0.740282 0.263600
O O5 0.750000 0.250000 0.500000
O O6 0.715263 0.215028 0.604814
O O7 0.899673 0.245918 0.479756
O O8 0.796237 0.000000 0.518094
O O9 0.741696 0.500000 0.048513
O O10 0.836595 0.731334 0.033338
O O11 0.750000 0.750000 0.000000
O O12 0.500000 0.183201 0.500000
O O13 0.400492 0.254703 0.622358
O O14 0.500412 0.000000 0.566614
O O15 0.388264 0.500000 0.033819
O O16 0.314631 0.691683 0.126971
O O17 0.500000 0.722509 0.000000
O O18 0.733551 0.254846 0.247034
O O19 0.695872 0.000000 0.225681
O O20 0.297393 0.500000 0.690327
O O21 0.211489 0.720565 0.694567
O O22 0.367725 0.000000 0.308249
#
# Coordination Sequence:
#
# PCOD9207459 Si02
#       8
#     8   8   8   8   8   8   8   8
#     4  10  22  39  60  85 116 154 196 240 286 342
#     4  11  24  42  62  87 119 154 196 242 291 347
#     4  10  21  37  58  86 117 153 196 238 286 343
#     4  11  23  40  63  89 117 150 192 241 292 347
#     4   9  19  37  60  86 118 153 191 237 289 341
#     4  10  21  38  60  86 118 154 192 237 288 344
#     4  11  23  40  61  85 116 154 194 237 288 347
#     4  10  23  41  60  84 117 154 193 239 290 345
#
# _framework density 18.028179000000002
#
# number of rings (size 3 to 8) (size 9 to 14) (size 15 to 20)
#    0.000    1.750    1.250    2.250    1.750    5.750 
#    0.000    3.750    0.000    0.000    0.000    0.000 
#    0.000    0.000    0.000    0.000    0.000    0.000 
#
# Total GULP energy -178798.630823 kJ/mol
# GULP energy per Si atom -5587.457213 kJ/mol
# Density = 1.798715 g / cm^3
# Si number density = 18.028179 Si / 1000 Ang^3
#
#
#
# Elastic Constant Matrix: (Units=GPa)
#
#
# Indices 1 2 3 4 5 6 
#
# 1 172.5024 79.7754 91.8989 -0.0001 -4.6451 0.0002
# 2 79.7754 81.7327 56.5850 -0.0001 -0.6878 -0.0003
# 3 91.8989 56.5850 81.5466 0.0000 -12.6877 -0.0003
# 4 -0.0001 -0.0001 0.0000 30.3252 0.0000 1.0082
# 5 -4.6451 -0.6878 -12.6877 0.0000 42.1794 -0.0001
# 6 0.0002 -0.0003 -0.0003 1.0082 -0.0001 37.8523
#
#
#
# Elastic Compliance Matrix: (Units=1/GPa)
#
#
# Indices 1 2 3 4 5 6 
#
# 1 0.016187 -0.005573 -0.014804 0.000000 -0.002761 0.000000
# 2 -0.005573 0.026411 -0.012667 0.000000 -0.003993 0.000000
# 3 -0.014804 -0.012667 0.039289 0.000000 0.009981 0.000000
# 4 0.000000 0.000000 0.000000 0.033005 0.000000 -0.000879
# 5 -0.002761 -0.003993 0.009981 0.000000 0.026341 0.000000
# 6 0.000000 0.000000 0.000000 -0.000879 0.000000 0.026442
#
#
# Mechanical properties :
#
#
# Convention : Reuss Voigt Hill
#
# Bulk Modulus (GPa) = 63.29920 88.03335 75.66628
# Shear Modulus (GPa) = 20.91795 29.23955 25.07875
#
# Velocity S-wave (km/s) = 3.41000 4.03163 3.73377
# Velocity P-wave (km/s) = 7.11980 8.40292 7.78783
#
# Compressibility (1/GPa) = 0.01579799
#
# Stress axis : x y z
#
# Youngs Moduli (GPa) = 61.77863 37.86348 25.45249
#
# Poissons Ratio (x) = 0.21102 0.37680
# Poissons Ratio (y) = 0.34431 0.32240
# Poissons Ratio (z) = 0.91458 0.47961
#
# Static dielectric constant tensor:
#      x y z
#    x 1.582460 0.000000 0.011930 
#    y 0.000000 1.603480 0.000000 
#    z 0.011930 0.000000 1.604080 
# 
# From -- ./inp_files/378084.got.cif
#   From: 2010.05.17/outbox.cif.g08.bks.cpg/sg12_190_cif.got.tgz:378084.got - 2010.06.03 13:09:07.
