data_PCOD9207028
_publ_section_title
;
Structure prediction by ZEFSAII (Michael W. Deem and Ramdas Pophale) SiO2 
 PCOD9207028
Probable space group: C 2/M
;
_chemical_formula_sum "Si O2"
_cell_formula_units_Z 56
_cell_length_a 15.540687
_cell_length_b 8.882691
_cell_length_c 19.225424
_cell_angle_alpha 90.000000
_cell_angle_beta 87.250273
_cell_angle_gamma 90.000000
_cell_volume 2650.881819
_symmetry_space_group_name_H-M "C 2/M"
_symmetry_group_IT_number 12
_symmetry_cell_setting 'monoclinic'
loop_
_space_group_symop_operation_xyz
x,y,z
-x,y,-z
-x,-y,-z
x,-y,z
1/2+x,1/2+y,z
1/2-x,1/2+y,-z
1/2-x,1/2-y,-z
1/2+x,1/2-y,z
loop_
_atom_site_type_symbol
_atom_site_label
_atom_site_fract_x
_atom_site_fract_y
_atom_site_fract_z
Si Si1 0.454911 0.181129 0.429793
Si Si2 0.378804 0.674348 0.220253
Si Si3 0.111732 0.683903 0.329262
Si Si4 0.291193 0.323168 0.374020
Si Si5 0.180832 0.328893 0.910380
Si Si6 0.443309 0.822237 0.814975
Si Si7 0.878020 0.171390 0.955477
O O1 0.500000 0.226043 0.500000
O O2 0.521574 0.231126 0.367025
O O3 0.359733 0.243501 0.420902
O O4 0.450309 0.000000 0.428593
O O5 0.406179 0.500000 0.213569
O O6 0.328310 0.691401 0.294162
O O7 0.323136 0.720378 0.155555
O O8 0.460713 0.782922 0.213305
O O9 0.113432 0.500000 0.329518
O O10 0.193297 0.734486 0.371653
O O11 0.115380 0.729417 0.248189
O O12 0.288641 0.500000 0.391875
O O13 0.157198 0.500000 0.892401
O O14 0.277690 0.330361 0.935984
O O15 0.119560 0.267434 0.974086
O O16 0.426694 0.740314 0.887985
O O17 0.431247 0.000000 0.824878
O O18 0.904597 0.000000 0.967727
#
# Coordination Sequence:
#
# PCOD9207028 Si02
#       7
#     8   8   8   8   8   8   8
#     4  10  21  39  62  89 123 159 197 242 292 350
#     4  11  22  36  56  83 115 149 194 250 303 349
#     4   9  19  37  60  86 119 159 198 240 296 355
#     4  10  21  38  61  87 119 158 199 243 295 356
#     4  10  21  37  57  81 111 151 196 241 296 360
#     4  11  21  36  59  82 112 154 198 242 298 361
#     4  10  21  37  56  81 114 148 191 249 300 349
#
# _framework density 21.125046000000001
#
# number of rings (size 3 to 8) (size 9 to 14) (size 15 to 20)
#    0.000    1.857    1.429    2.571    0.000    4.857 
#    0.000    5.000    0.000    0.000    0.000    0.000 
#    0.000    0.000    0.000    0.000    0.000    0.000 
#
# Total GULP energy -156438.006131 kJ/mol
# GULP energy per Si atom -5587.071648 kJ/mol
# Density = 2.107696 g / cm^3
# Si number density = 21.125046 Si / 1000 Ang^3
#
#
#
# Elastic Constant Matrix: (Units=GPa)
#
#
# Indices 1 2 3 4 5 6 
#
# 1 64.3787 -0.9444 -13.7631 0.0000 18.3230 0.0000
# 2 -0.9444 23.7099 1.7898 0.0000 1.7942 0.0000
# 3 -13.7631 1.7898 42.4399 0.0000 14.1461 0.0000
# 4 0.0000 0.0000 0.0000 23.0307 0.0000 4.8226
# 5 18.3230 1.7942 14.1461 0.0000 30.1895 0.0000
# 6 0.0000 0.0000 0.0000 4.8226 0.0000 25.6382
#
#
#
# Elastic Compliance Matrix: (Units=1/GPa)
#
#
# Indices 1 2 3 4 5 6 
#
# 1 0.025496 0.001558 0.015870 0.000000 -0.023003 0.000000
# 2 0.001558 0.042507 -0.000154 0.000000 -0.003400 0.000000
# 3 0.015870 -0.000154 0.037832 0.000000 -0.027350 0.000000
# 4 0.000000 0.000000 0.000000 0.045201 0.000000 -0.008502
# 5 -0.023003 -0.003400 -0.027350 0.000000 0.060103 0.000000
# 6 0.000000 0.000000 0.000000 -0.008502 0.000000 0.040604
#
#
# Mechanical properties :
#
#
# Convention : Reuss Voigt Hill
#
# Bulk Modulus (GPa) = 7.12339 11.63258 9.37799
# Shear Modulus (GPa) = 18.94020 25.33476 22.13748
#
# Velocity S-wave (km/s) = 2.99754 3.46681 3.24068
# Velocity P-wave (km/s) = 3.91914 4.64150 4.29553
#
# Compressibility (1/GPa) = 0.14038259
#
# Stress axis : x y z
#
# Youngs Moduli (GPa) = 39.22256 23.52528 26.43268
#
# Poissons Ratio (x) = -0.03666 -0.41948
# Poissons Ratio (y) = -0.06112 0.00407
# Poissons Ratio (z) = -0.62245 0.00362
#
# Static dielectric constant tensor:
#      x y z
#    x 1.784710 0.000000 0.023020 
#    y 0.000000 1.719190 0.000000 
#    z 0.023020 0.000000 1.767460 
# 
# From -- ./inp_files/308970.got.cif
#   From: 2010.05.17/outbox.cif.g08.bks.cpg/sg12_155_cif.got.tgz:308970.got - 2010.06.03 13:09:07.
