data_PCOD9207891
_publ_section_title
;
Structure prediction by ZEFSAII (Michael W. Deem and Ramdas Pophale) SiO2 
 PCOD9207891
Probable space group: C 2/M
;
_chemical_formula_sum "Si O2"
_cell_formula_units_Z 48
_cell_length_a 14.389160
_cell_length_b 32.779815
_cell_length_c 13.523979
_cell_angle_alpha 90.000000
_cell_angle_beta 159.521548
_cell_angle_gamma 90.000000
_cell_volume 2231.693887
_symmetry_space_group_name_H-M "C 2/M"
_symmetry_group_IT_number 12
_symmetry_cell_setting 'monoclinic'
loop_
_space_group_symop_operation_xyz
x,y,z
-x,y,-z
-x,-y,-z
x,-y,z
1/2+x,1/2+y,z
1/2-x,1/2+y,-z
1/2-x,1/2-y,-z
1/2+x,1/2-y,z
loop_
_atom_site_type_symbol
_atom_site_label
_atom_site_fract_x
_atom_site_fract_y
_atom_site_fract_z
Si Si1 0.110105 0.367265 0.805987
Si Si2 0.745543 0.259186 0.676777
Si Si3 0.392623 0.564170 0.499013
Si Si4 0.890072 0.544861 0.123254
Si Si5 0.880875 0.174396 0.770597
Si Si6 0.172114 0.348705 0.272180
O O1 0.897671 0.348324 0.518875
O O2 0.018290 0.353467 0.823467
O O3 0.084658 0.416215 0.780604
O O4 0.400116 0.349573 0.074047
O O5 0.500000 0.245479 0.500000
O O6 0.824580 0.221627 0.685410
O O7 0.689739 0.304534 0.582316
O O8 0.000000 0.265223 0.000000
O O9 0.500000 0.550315 0.500000
O O10 0.600660 0.549300 0.787096
O O11 0.372691 0.613362 0.476604
O O12 0.103094 0.549979 0.246245
O O13 0.925883 0.500000 0.203023
O O14 0.000000 0.175203 0.000000
O O15 0.000000 0.352723 0.000000
#
# Coordination Sequence:
#
# PCOD9207891 Si02
#       6
#     8   8   8   8   8   8
#     4  11  23  40  65  90 117 162 205 246 312 365
#     4  10  21  37  60  89 124 164 202 247 297 344
#     4  11  21  36  58  85 123 168 207 240 284 347
#     4  11  24  40  59  86 119 154 199 255 308 363
#     4  11  23  42  64  89 120 155 206 262 307 356
#     4  10  22  39  61  91 133 170 203 241 284 353
#
# _framework density 21.508327000000001
#
# number of rings (size 3 to 8) (size 9 to 14) (size 15 to 20)
#    0.000    1.333    0.000    8.000    0.000    8.667 
#    0.000    0.000    0.000    3.000    0.000    0.000 
#    0.000    0.000    0.000    0.000    0.000    0.000 
#
# Total GULP energy -134177.783208 kJ/mol
# GULP energy per Si atom -5590.740967 kJ/mol
# Density = 2.145937 g / cm^3
# Si number density = 21.508327 Si / 1000 Ang^3
#
#
#
# Elastic Constant Matrix: (Units=GPa)
#
#
# Indices 1 2 3 4 5 6 
#
# 1 52.9587 20.8172 5.4952 -0.0001 10.2444 0.0008
# 2 20.8172 204.8133 21.1128 0.0003 4.6959 0.0004
# 3 5.4952 21.1128 73.1407 0.0013 10.7852 0.0032
# 4 -0.0001 0.0003 0.0013 36.6202 -0.0006 -10.6321
# 5 10.2444 4.6959 10.7852 -0.0006 41.9033 0.0012
# 6 0.0008 0.0004 0.0032 -10.6321 0.0012 5.2323
#
#
#
# Elastic Compliance Matrix: (Units=1/GPa)
#
#
# Indices 1 2 3 4 5 6 
#
# 1 0.020598 -0.001956 -0.000284 -0.000001 -0.004744 -0.000004
# 2 -0.001956 0.005219 -0.001397 0.000000 0.000253 0.000002
# 3 -0.000284 -0.001397 0.014618 -0.000007 -0.003537 -0.000022
# 4 -0.000001 0.000000 -0.000007 0.066599 -0.000001 0.135332
# 5 -0.004744 0.000253 -0.003537 -0.000001 0.025906 -0.000006
# 6 -0.000004 0.000002 -0.000022 0.135332 -0.000006 0.466122
#
#
# Mechanical properties :
#
#
# Convention : Reuss Voigt Hill
#
# Bulk Modulus (GPa) = 30.15338 47.30703 38.73021
# Shear Modulus (GPa) = 8.09860 35.65031 21.87446
#
# Velocity S-wave (km/s) = 1.94255 4.07567 3.19254
# Velocity P-wave (km/s) = 4.36820 6.64760 5.62458
#
# Compressibility (1/GPa) = 0.03316378
#
# Stress axis : x y z
#
# Youngs Moduli (GPa) = 48.54746 191.59005 68.40722
#
# Poissons Ratio (x) = 0.37468 0.01940
# Poissons Ratio (y) = 0.09494 0.09556
# Poissons Ratio (z) = 0.01377 0.26765
#
# Static dielectric constant tensor:
#      x y z
#    x 1.772680 0.000000 -0.005010 
#    y 0.000000 1.837890 0.000000 
#    z -0.005010 0.000000 1.751010 
# 
# From -- ./inp_files/219598.got.cif
#   From: 2010.05.17/outbox.cif.g08.bks.cpg/sg12_110_cif.got.tgz:219598.got - 2010.06.03 13:09:07.
