data_PCOD9207142
_publ_section_title
;
Structure prediction by ZEFSAII (Michael W. Deem and Ramdas Pophale) SiO2 
 PCOD9207142
Probable space group: C 2/M
;
_chemical_formula_sum "Si O2"
_cell_formula_units_Z 40
_cell_length_a 28.004456
_cell_length_b 8.804116
_cell_length_c 19.566392
_cell_angle_alpha 90.000000
_cell_angle_beta 152.378642
_cell_angle_gamma 90.000000
_cell_volume 2236.617705
_symmetry_space_group_name_H-M "C 2/M"
_symmetry_group_IT_number 12
_symmetry_cell_setting 'monoclinic'
loop_
_space_group_symop_operation_xyz
x,y,z
-x,y,-z
-x,-y,-z
x,-y,z
1/2+x,1/2+y,z
1/2-x,1/2+y,-z
1/2-x,1/2-y,-z
1/2+x,1/2-y,z
loop_
_atom_site_type_symbol
_atom_site_label
_atom_site_fract_x
_atom_site_fract_y
_atom_site_fract_z
Si Si1 0.382224 0.817048 0.361977
Si Si2 0.272888 0.681544 0.955842
Si Si3 0.329340 0.817791 0.655266
Si Si4 0.214420 0.318390 0.242877
Si Si5 0.443322 0.317042 0.066405
O O1 0.500000 0.772126 0.500000
O O2 0.317005 0.778746 0.211672
O O3 0.321916 0.739453 0.347656
O O4 0.377924 0.000000 0.365911
O O5 0.275037 0.500000 0.964823
O O6 0.250000 0.750000 0.000000
O O7 0.378625 0.727814 0.052170
O O8 0.250000 0.750000 0.500000
O O9 0.296316 0.779665 0.691094
O O10 0.443485 0.751902 0.789411
O O11 0.331404 0.000000 0.651693
O O12 0.206550 0.500000 0.225504
O O13 0.123692 0.242419 0.082838
O O14 0.447477 0.500000 0.068503
#
# Coordination Sequence:
#
# PCOD9207142 Si02
#       5
#     8   8   8   8   8
#     4   9  19  36  56  79 107 141 183 225 267 320
#     4   9  19  34  53  79 108 139 177 220 265 317
#     4  11  24  39  56  82 113 143 180 226 274 324
#     4  10  21  37  57  82 110 142 184 228 269 321
#     4  10  21  38  59  82 109 144 185 224 268 326
#
# _framework density 17.884146999999999
#
# number of rings (size 3 to 8) (size 9 to 14) (size 15 to 20)
#    0.000    2.200    0.000    3.600    0.000   11.600 
#    0.000    4.000    0.000    0.000    0.000    0.000 
#    0.000    0.000    0.000    0.000    0.000    0.000 
#
# Total GULP energy -111656.294621 kJ/mol
# GULP energy per Si atom -5582.814731 kJ/mol
# Density = 1.784344 g / cm^3
# Si number density = 17.884147 Si / 1000 Ang^3
#
#
#
# Elastic Constant Matrix: (Units=GPa)
#
#
# Indices 1 2 3 4 5 6 
#
# 1 208.5256 73.1088 123.9387 0.0000 2.5273 0.0000
# 2 73.1088 50.1990 53.2334 0.0000 0.7226 0.0000
# 3 123.9387 53.2334 130.8913 0.0000 23.4116 0.0000
# 4 0.0000 0.0000 0.0000 27.4620 0.0000 1.9146
# 5 2.5273 0.7226 23.4116 0.0000 31.8349 0.0000
# 6 0.0000 0.0000 0.0000 1.9146 0.0000 36.8288
#
#
#
# Elastic Compliance Matrix: (Units=1/GPa)
#
#
# Indices 1 2 3 4 5 6 
#
# 1 0.014991 -0.009579 -0.011659 0.000000 0.007601 0.000000
# 2 -0.009579 0.044957 -0.010556 0.000000 0.007503 0.000000
# 3 -0.011659 -0.010556 0.026212 0.000000 -0.018111 0.000000
# 4 0.000000 0.000000 0.000000 0.036546 0.000000 -0.001900
# 5 0.007601 0.007503 -0.018111 0.000000 0.043957 0.000000
# 6 0.000000 0.000000 0.000000 -0.001900 0.000000 0.027251
#
#
# Mechanical properties :
#
#
# Convention : Reuss Voigt Hill
#
# Bulk Modulus (GPa) = 44.30054 98.90862 71.60458
# Shear Modulus (GPa) = 18.86596 28.51417 23.69006
#
# Velocity S-wave (km/s) = 3.25144 3.99730 3.64351
# Velocity P-wave (km/s) = 6.23863 8.75956 7.60428
#
# Compressibility (1/GPa) = 0.02257309
#
# Stress axis : x y z
#
# Youngs Moduli (GPa) = 66.70530 22.24342 38.15028
#
# Poissons Ratio (x) = 0.21306 0.44479
# Poissons Ratio (y) = 0.63896 0.40272
# Poissons Ratio (z) = 0.77771 0.23480
#
# Static dielectric constant tensor:
#      x y z
#    x 1.604030 0.000000 0.005430 
#    y 0.000000 1.604640 0.000000 
#    z 0.005430 0.000000 1.582940 
# 
# From -- ./inp_files/162401.got.cif
#   From: 2010.05.17/outbox.cif.g08.bks.cpg/sg12_82_cif.got.tgz:162401.got - 2010.06.03 13:09:07.
