data_PCOD9207310
_publ_section_title
;
Structure prediction by ZEFSAII (Michael W. Deem and Ramdas Pophale) SiO2 
 PCOD9207310
Probable space group: C 2/M
;
_chemical_formula_sum "Si O2"
_cell_formula_units_Z 56
_cell_length_a 17.926386
_cell_length_b 15.059324
_cell_length_c 12.755765
_cell_angle_alpha 90.000000
_cell_angle_beta 111.974593
_cell_angle_gamma 90.000000
_cell_volume 3193.363443
_symmetry_space_group_name_H-M "C 2/M"
_symmetry_group_IT_number 12
_symmetry_cell_setting 'monoclinic'
loop_
_space_group_symop_operation_xyz
x,y,z
-x,y,-z
-x,-y,-z
x,-y,z
1/2+x,1/2+y,z
1/2-x,1/2+y,-z
1/2-x,1/2-y,-z
1/2+x,1/2-y,z
loop_
_atom_site_type_symbol
_atom_site_label
_atom_site_fract_x
_atom_site_fract_y
_atom_site_fract_z
Si Si1 0.640937 0.400267 0.337373
Si Si2 0.563838 0.254377 0.446977
Si Si3 0.306054 0.174765 0.331054
Si Si4 0.710283 0.250056 0.092721
Si Si5 0.914084 0.100923 0.925280
Si Si6 0.582759 0.896231 0.980782
Si Si7 0.453136 0.102889 0.282065
O O1 0.642525 0.500000 0.382836
O O2 0.597256 0.329290 0.387575
O O3 0.730762 0.372383 0.347751
O O4 0.592692 0.401928 0.203009
O O5 0.500000 0.288427 0.500000
O O6 0.640414 0.219983 0.551878
O O7 0.517320 0.173216 0.363146
O O8 0.270278 0.241058 0.223168
O O9 0.369647 0.112875 0.302444
O O10 0.656677 0.338589 0.070465
O O11 0.750000 0.250000 0.000000
O O12 0.650972 0.166210 0.064966
O O13 0.908433 0.000000 0.962811
O O14 0.000000 0.139673 0.000000
O O15 0.566222 0.875803 0.849498
O O16 0.605921 0.000000 0.999088
O O17 0.500000 0.884316 0.000000
O O18 0.480898 0.000000 0.303562
#
# Coordination Sequence:
#
# PCOD9207310 Si02
#       7
#     8   8   8   8   8   8   8
#     4  10  21  37  58  81 111 151 184 230 284 329
#     4  10  23  38  57  85 114 145 194 233 279 340
#     4  10  21  38  57  85 114 144 191 236 279 336
#     4  11  21  34  59  83 114 151 176 228 293 324
#     4   9  20  35  55  82 107 140 190 228 266 328
#     4  10  22  38  57  85 117 153 192 228 279 345
#     4  10  21  38  61  85 114 150 190 239 284 329
#
# _framework density 17.536370000000002
#
# number of rings (size 3 to 8) (size 9 to 14) (size 15 to 20)
#    0.000    2.000    1.429    1.286    6.000    4.571 
#    0.000    0.714    0.000    0.857    0.000    0.000 
#    0.000    0.000    0.000    0.000    0.000    0.000 
#
# Total GULP energy -156141.351010 kJ/mol
# GULP energy per Si atom -5576.476822 kJ/mol
# Density = 1.749646 g / cm^3
# Si number density = 17.536370 Si / 1000 Ang^3
#
#
#
# Elastic Constant Matrix: (Units=GPa)
#
#
# Indices 1 2 3 4 5 6 
#
# 1 82.7184 54.1212 49.4283 0.0000 2.2477 0.0000
# 2 54.1212 100.7703 58.9661 0.0000 -2.6771 0.0000
# 3 49.4283 58.9661 80.4641 0.0000 9.4005 0.0000
# 4 0.0000 0.0000 0.0000 19.5666 0.0000 -12.6218
# 5 2.2477 -2.6771 9.4005 0.0000 35.3832 0.0000
# 6 0.0000 0.0000 0.0000 -12.6218 0.0000 20.7517
#
#
#
# Elastic Compliance Matrix: (Units=1/GPa)
#
#
# Indices 1 2 3 4 5 6 
#
# 1 0.021377 -0.006588 -0.008346 0.000000 0.000361 0.000000
# 2 -0.006588 0.020248 -0.011373 0.000000 0.004972 0.000000
# 3 -0.008346 -0.011373 0.026758 0.000000 -0.007439 0.000000
# 4 0.000000 0.000000 0.000000 0.084106 0.000000 0.051156
# 5 0.000361 0.004972 -0.007439 0.000000 0.030592 0.000000
# 6 0.000000 0.000000 0.000000 0.051156 0.000000 0.079303
#
#
# Mechanical properties :
#
#
# Convention : Reuss Voigt Hill
#
# Bulk Modulus (GPa) = 63.40968 65.44266 64.42617
# Shear Modulus (GPa) = 15.61258 21.90278 18.75768
#
# Velocity S-wave (km/s) = 2.98702 3.53794 3.27409
# Velocity P-wave (km/s) = 6.93786 7.35450 7.14921
#
# Compressibility (1/GPa) = 0.01577046
#
# Stress axis : x y z
#
# Youngs Moduli (GPa) = 46.77977 49.38648 37.37162
#
# Poissons Ratio (x) = 0.32533 0.31191
# Poissons Ratio (y) = 0.30816 0.42502
# Poissons Ratio (z) = 0.39043 0.56166
#
# Static dielectric constant tensor:
#      x y z
#    x 1.585100 0.000000 0.007040 
#    y 0.000000 1.604370 0.000000 
#    z 0.007040 0.000000 1.587740 
# 
# From -- ./inp_files/156195.got.cif
#   From: 2010.05.17/outbox.cif.g08.bks.cpg/sg12_79_cif.got.tgz:156195.got - 2010.06.03 13:09:07.
