data_PCOD9207296
_publ_section_title
;
Structure prediction by ZEFSAII (Michael W. Deem and Ramdas Pophale) SiO2 
 PCOD9207296
Probable space group: C 2/M
;
_chemical_formula_sum "Si O2"
_cell_formula_units_Z 56
_cell_length_a 22.084181
_cell_length_b 15.246330
_cell_length_c 24.018772
_cell_angle_alpha 90.000000
_cell_angle_beta 22.145201
_cell_angle_gamma 90.000000
_cell_volume 3048.505798
_symmetry_space_group_name_H-M "C 2/M"
_symmetry_group_IT_number 12
_symmetry_cell_setting 'monoclinic'
loop_
_space_group_symop_operation_xyz
x,y,z
-x,y,-z
-x,-y,-z
x,-y,z
1/2+x,1/2+y,z
1/2-x,1/2+y,-z
1/2-x,1/2-y,-z
1/2+x,1/2-y,z
loop_
_atom_site_type_symbol
_atom_site_label
_atom_site_fract_x
_atom_site_fract_y
_atom_site_fract_z
Si Si1 0.329953 0.600052 0.676736
Si Si2 0.546930 0.656216 0.134739
Si Si3 0.778768 0.343910 0.029650
Si Si4 0.746639 0.244129 0.436306
Si Si5 0.877527 0.758674 0.731530
Si Si6 0.623041 0.902219 0.747581
Si Si7 0.123334 0.101851 0.946173
O O1 0.500000 0.600321 0.500000
O O2 0.302569 0.500000 0.720569
O O3 0.337163 0.673011 0.717444
O O4 0.195471 0.622670 0.745698
O O5 0.671330 0.613835 0.072467
O O6 0.369324 0.669555 0.310333
O O7 0.625676 0.753683 0.066258
O O8 0.547398 0.617339 0.072411
O O9 0.662759 0.311702 0.177581
O O10 0.930916 0.402374 0.915519
O O11 0.750000 0.250000 0.500000
O O12 0.563744 0.232346 0.572851
O O13 0.811166 0.334344 0.353849
O O14 0.765960 0.672881 0.822011
O O15 0.682638 0.000000 0.683940
O O16 0.175425 0.000000 0.898248
O O17 0.000000 0.117346 0.000000
#
# Coordination Sequence:
#
# PCOD9207296 Si02
#       7
#     8   8   8   8   8   8   8
#     4  10  21  37  57  89 126 160 196 240 301 372
#     4   9  19  38  60  81 115 156 196 245 299 354
#     4   9  19  35  57  85 114 153 196 239 294 358
#     4  11  21  38  61  89 121 157 198 246 303 368
#     4  11  22  36  64  91 120 160 198 249 305 359
#     4  10  22  38  58  86 123 159 195 242 298 365
#     4  10  24  43  62  87 119 159 211 261 303 353
#
# _framework density 18.369655000000002
#
# number of rings (size 3 to 8) (size 9 to 14) (size 15 to 20)
#    0.000    2.000    2.857    0.000    8.000    1.143 
#    0.000    2.857    0.000    2.143    0.000    0.000 
#    0.000    0.000    0.000    0.000    0.000    0.000 
#
# Total GULP energy -156062.524939 kJ/mol
# GULP energy per Si atom -5573.661605 kJ/mol
# Density = 1.832784 g / cm^3
# Si number density = 18.369655 Si / 1000 Ang^3
#
#
#
# Elastic Constant Matrix: (Units=GPa)
#
#
# Indices 1 2 3 4 5 6 
#
# 1 144.2836 49.4977 70.2956 -0.0057 -21.7313 0.0021
# 2 49.4977 67.2572 30.1314 0.0264 -2.5041 -0.0350
# 3 70.2956 30.1314 118.5154 0.0099 -8.4949 -0.0036
# 4 -0.0057 0.0264 0.0099 20.1499 -0.0086 11.4408
# 5 -21.7313 -2.5041 -8.4949 -0.0086 22.1033 -0.0192
# 6 0.0021 -0.0350 -0.0036 11.4408 -0.0192 233.2259
#
#
#
# Elastic Compliance Matrix: (Units=1/GPa)
#
#
# Indices 1 2 3 4 5 6 
#
# 1 0.013675 -0.007196 -0.005529 0.000021 0.010505 -0.000001
# 2 -0.007196 0.020568 -0.001338 -0.000033 -0.005259 0.000004
# 3 -0.005529 -0.001338 0.011987 -0.000006 -0.000980 0.000000
# 4 0.000021 -0.000033 -0.000006 0.051050 0.000032 -0.002504
# 5 0.010505 -0.005259 -0.000980 0.000032 0.054598 0.000002
# 6 -0.000001 0.000004 0.000000 -0.002504 0.000002 0.004411
#
#
# Mechanical properties :
#
#
# Convention : Reuss Voigt Hill
#
# Bulk Modulus (GPa) = 55.23504 69.98952 62.61228
# Shear Modulus (GPa) = 26.25367 67.10457 46.67912
#
# Velocity S-wave (km/s) = 3.78456 6.05057 5.04640
# Velocity P-wave (km/s) = 7.01649 9.32716 8.25309
#
# Compressibility (1/GPa) = 0.01810445
#
# Stress axis : x y z
#
# Youngs Moduli (GPa) = 73.12352 48.61924 83.42447
#
# Poissons Ratio (x) = 0.34988 0.46124
# Poissons Ratio (y) = 0.52623 0.11160
# Poissons Ratio (z) = 0.40429 0.06504
#
# Static dielectric constant tensor:
#      x y z
#    x 1.659260 0.000000 -0.005850 
#    y 0.000000 1.660380 -0.000010 
#    z -0.005850 -0.000010 1.640420 
# 
# From -- ./inp_files/347788.got.cif
#   From: 2010.05.17/outbox.cif.g08.bks.cpg/sg12_174_cif.got.tgz:347788.got - 2010.06.03 13:09:07.
