data_PCOD9207574
_publ_section_title
;
Structure prediction by ZEFSAII (Michael W. Deem and Ramdas Pophale) SiO2 
 PCOD9207574
Probable space group: C 2/M
;
_chemical_formula_sum "Si O2"
_cell_formula_units_Z 40
_cell_length_a 28.929769
_cell_length_b 7.551430
_cell_length_c 7.354622
_cell_angle_alpha 90.000000
_cell_angle_beta 101.076825
_cell_angle_gamma 90.000000
_cell_volume 1576.766929
_symmetry_space_group_name_H-M "C 2/M"
_symmetry_group_IT_number 12
_symmetry_cell_setting 'monoclinic'
loop_
_space_group_symop_operation_xyz
x,y,z
-x,y,-z
-x,-y,-z
x,-y,z
1/2+x,1/2+y,z
1/2-x,1/2+y,-z
1/2-x,1/2-y,-z
1/2+x,1/2-y,z
loop_
_atom_site_type_symbol
_atom_site_label
_atom_site_fract_x
_atom_site_fract_y
_atom_site_fract_z
Si Si1 0.412925 0.708906 0.912450
Si Si2 0.043128 0.287110 0.411518
Si Si3 0.811892 0.783582 0.687439
Si Si4 0.715746 0.203713 0.747775
Si Si5 0.118127 0.706807 0.736068
O O1 0.409010 0.500000 0.930699
O O2 0.453536 0.745458 0.797922
O O3 0.362947 0.775978 0.793848
O O4 0.415800 0.783747 0.116356
O O5 0.043303 0.500000 0.426941
O O6 0.090517 0.215889 0.544038
O O7 0.000000 0.220579 0.500000
O O8 0.768565 0.721514 0.783241
O O9 0.800427 0.714254 0.476867
O O10 0.811069 0.000000 0.678310
O O11 0.669959 0.285816 0.810809
O O12 0.721308 0.000000 0.809129
O O13 0.126532 0.500000 0.704621
#
# Coordination Sequence:
#
# PCOD9207574 Si02
#       5
#     8   8   8   8   8
#     4  11  23  37  57  86 120 152 183 227 284 343
#     4  10  22  42  65  85 108 143 190 241 287 332
#     4   9  18  32  52  81 115 149 185 227 276 328
#     4   9  17  32  55  81 110 148 192 231 270 322
#     4  10  21  37  59  85 113 148 190 234 278 331
#
# _framework density 25.368366999999999
#
# number of rings (size 3 to 8) (size 9 to 14) (size 15 to 20)
#    0.000    2.200    2.000    0.600    0.000    4.400 
#    0.000    4.000    0.000    0.000    0.000    0.000 
#    0.000    0.000    0.000    0.000    0.000    0.000 
#
# Total GULP energy -111783.824962 kJ/mol
# GULP energy per Si atom -5589.191248 kJ/mol
# Density = 2.531063 g / cm^3
# Si number density = 25.368367 Si / 1000 Ang^3
#
#
#
# Elastic Constant Matrix: (Units=GPa)
#
#
# Indices 1 2 3 4 5 6 
#
# 1 89.1585 5.6558 17.2681 0.0000 -40.9768 0.0000
# 2 5.6558 79.5944 -8.3849 0.0000 1.2910 0.0000
# 3 17.2681 -8.3849 85.1204 0.0000 -25.4710 0.0000
# 4 0.0000 0.0000 0.0000 1.3907 0.0000 1.8344
# 5 -40.9768 1.2910 -25.4710 0.0000 47.6955 0.0000
# 6 0.0000 0.0000 0.0000 1.8344 0.0000 4.0653
#
#
#
# Elastic Compliance Matrix: (Units=1/GPa)
#
#
# Indices 1 2 3 4 5 6 
#
# 1 0.018812 -0.001498 0.001053 0.000000 0.016765 0.000000
# 2 -0.001498 0.012821 0.001283 0.000000 -0.000949 0.000000
# 3 0.001053 0.001283 0.014188 0.000000 0.008447 0.000000
# 4 0.000000 0.000000 0.000000 1.776232 0.000000 -0.801503
# 5 0.016765 -0.000949 0.008447 0.000000 0.039906 0.000000
# 6 0.000000 0.000000 0.000000 -0.801503 0.000000 0.607655
#
#
# Mechanical properties :
#
#
# Convention : Reuss Voigt Hill
#
# Bulk Modulus (GPa) = 21.05397 31.43903 26.24650
# Shear Modulus (GPa) = 2.01307 26.58592 14.29949
#
# Velocity S-wave (km/s) = 0.89177 3.24079 2.37676
# Velocity P-wave (km/s) = 3.06230 5.14038 4.23091
#
# Compressibility (1/GPa) = 0.04749698
#
# Stress axis : x y z
#
# Youngs Moduli (GPa) = 53.15704 77.99912 70.47980
#
# Poissons Ratio (x) = 0.11683 -0.07420
# Poissons Ratio (y) = 0.07962 -0.09042
# Poissons Ratio (z) = -0.05596 -0.10006
#
# Static dielectric constant tensor:
#      x y z
#    x 2.085930 0.000000 -0.025290 
#    y 0.000000 1.976730 0.000000 
#    z -0.025290 0.000000 1.987310 
# 
# From -- ./inp_files/101098.got.cif
#   From: 2010.05.17/outbox.cif.g08.bks.cpg/sg12_51_cif.got.tgz:101098.got - 2010.06.03 13:09:07.
