data_PCOD9207549
_publ_section_title
;
Structure prediction by ZEFSAII (Michael W. Deem and Ramdas Pophale) SiO2 
 PCOD9207549
Probable space group: C 2/M
;
_chemical_formula_sum "Si O2"
_cell_formula_units_Z 44
_cell_length_a 9.880325
_cell_length_b 28.852645
_cell_length_c 8.645238
_cell_angle_alpha 90.000000
_cell_angle_beta 122.012722
_cell_angle_gamma 90.000000
_cell_volume 2089.748529
_symmetry_space_group_name_H-M "C 2/M"
_symmetry_group_IT_number 12
_symmetry_cell_setting 'monoclinic'
loop_
_space_group_symop_operation_xyz
x,y,z
-x,y,-z
-x,-y,-z
x,-y,z
1/2+x,1/2+y,z
1/2-x,1/2+y,-z
1/2-x,1/2-y,-z
1/2+x,1/2-y,z
loop_
_atom_site_type_symbol
_atom_site_label
_atom_site_fract_x
_atom_site_fract_y
_atom_site_fract_z
Si Si1 0.141588 0.948225 0.459385
Si Si2 0.000000 0.748075 0.500000
Si Si3 0.197298 0.817913 0.788324
Si Si4 0.405844 0.638809 0.788114
Si Si5 0.906177 0.597769 0.791457
Si Si6 0.387054 0.822470 0.210402
O O1 0.134842 0.906925 0.332405
O O2 0.310458 0.941764 0.647316
O O3 0.000000 0.942387 0.500000
O O4 0.125783 0.000000 0.384293
O O5 0.847673 0.779770 0.365299
O O6 0.006994 0.714314 0.356194
O O7 0.275052 0.863700 0.762710
O O8 0.028122 0.830975 0.761924
O O9 0.315133 0.805375 0.002366
O O10 0.255256 0.668226 0.755102
O O11 0.500000 0.624793 0.000000
O O12 0.029365 0.628115 0.766305
O O13 0.000000 0.581606 0.000000
#
# Coordination Sequence:
#
# PCOD9207549 Si02
#       6
#     8   4   8   8   8   8
#     4  11  22  38  65  96 118 149 200 245 292 361
#     4  12  22  36  56  84 122 152 204 254 298 324
#     4  10  21  37  59  82 114 162 204 239 290 357
#     4  10  21  41  62  85 120 161 198 240 298 357
#     4  10  21  41  62  85 120 161 198 240 298 357
#     4  10  23  37  57  86 118 156 200 245 296 349
#
# _framework density 21.055164000000001
#
# number of rings (size 3 to 8) (size 9 to 14) (size 15 to 20)
#    0.000    1.636    1.818    2.727    0.000    3.636 
#    0.000    7.273    0.000    0.000    0.000    0.000 
#    0.000    0.000    0.000    0.000    0.000    0.000 
#
# Total GULP energy -122925.713848 kJ/mol
# GULP energy per Si atom -5587.532448 kJ/mol
# Density = 2.100724 g / cm^3
# Si number density = 21.055164 Si / 1000 Ang^3
#
#
#
# Elastic Constant Matrix: (Units=GPa)
#
#
# Indices 1 2 3 4 5 6 
#
# 1 84.2675 -0.5169 10.1501 0.0000 8.9726 0.0000
# 2 -0.5169 66.4465 64.8975 0.0000 -0.2841 0.0000
# 3 10.1501 64.8975 122.3266 0.0000 11.6674 0.0000
# 4 0.0000 0.0000 0.0000 10.0640 0.0000 9.4162
# 5 8.9726 -0.2841 11.6674 0.0000 19.3898 0.0000
# 6 0.0000 0.0000 0.0000 9.4162 0.0000 -33.4224
#
#
#
# Elastic Compliance Matrix: (Units=1/GPa)
#
#
# Indices 1 2 3 4 5 6 
#
# 1 0.012562 0.001296 -0.001249 0.000000 -0.005043 0.000000
# 2 0.001296 0.033777 -0.019114 0.000000 0.011397 0.000000
# 3 -0.001249 -0.019114 0.019510 0.000000 -0.011442 0.000000
# 4 0.000000 0.000000 0.000000 0.078636 0.000000 0.022154
# 5 -0.005043 0.011397 -0.011442 0.000000 0.060959 0.000000
# 6 0.000000 0.000000 0.000000 0.022154 0.000000 -0.023678
#
#
# Mechanical properties :
#
#
# Convention : Reuss Voigt Hill
#
# Bulk Modulus (GPa) = 36.08091 46.90023 41.49057
# Shear Modulus (GPa) = 21.82085 12.44027 17.13056
#
# Velocity S-wave (km/s) = 3.22276 2.43336 2.85547
# Velocity P-wave (km/s) = 5.56972 5.49712 5.53354
#
# Compressibility (1/GPa) = 0.02771549
#
# Stress axis : x y z
#
# Youngs Moduli (GPa) = 79.60336 29.60587 51.25478
#
# Poissons Ratio (x) = -0.03837 0.06402
# Poissons Ratio (y) = -0.10317 0.97969
# Poissons Ratio (z) = 0.09942 0.56589
#
# Static dielectric constant tensor:
#      x y z
#    x 1.771020 0.000000 0.003000 
#    y 0.000000 1.754020 0.000000 
#    z 0.003000 0.000000 1.788830 
# 
# From -- ./inp_files/42379.got.cif
#   From: 2010.05.17/outbox.cif.g08.bks.cpg/sg12_22_cif.got.tgz:42379.got - 2010.06.03 13:09:07.
