data_PCOD9207992
_publ_section_title
;
Structure prediction by ZEFSAII (Michael W. Deem and Ramdas Pophale) SiO2 
 PCOD9207992
Probable space group: C 2/M
;
_chemical_formula_sum "Si O2"
_cell_formula_units_Z 56
_cell_length_a 24.225409
_cell_length_b 9.095595
_cell_length_c 15.971091
_cell_angle_alpha 90.000000
_cell_angle_beta 58.740698
_cell_angle_gamma 90.000000
_cell_volume 3008.260012
_symmetry_space_group_name_H-M "C 2/M"
_symmetry_group_IT_number 12
_symmetry_cell_setting 'monoclinic'
loop_
_space_group_symop_operation_xyz
x,y,z
-x,y,-z
-x,-y,-z
x,-y,z
1/2+x,1/2+y,z
1/2-x,1/2+y,-z
1/2-x,1/2-y,-z
1/2+x,1/2-y,z
loop_
_atom_site_type_symbol
_atom_site_label
_atom_site_fract_x
_atom_site_fract_y
_atom_site_fract_z
Si Si1 0.789135 0.323740 0.894077
Si Si2 0.445482 0.177216 0.974423
Si Si3 0.519017 0.325125 0.577102
Si Si4 0.680527 0.675493 0.850819
Si Si5 0.161156 0.827612 0.526633
Si Si6 0.799178 0.326234 0.340065
Si Si7 0.560776 0.823083 0.211896
O O1 0.787868 0.500000 0.906464
O O2 0.748660 0.289099 0.842263
O O3 0.863994 0.278681 0.835986
O O4 0.750000 0.250000 0.000000
O O5 0.378140 0.252279 0.051941
O O6 0.437732 0.000000 0.983844
O O7 0.500000 0.217618 0.000000
O O8 0.461243 0.216153 0.865497
O O9 0.500000 0.270554 0.500000
O O10 0.505298 0.500000 0.591618
O O11 0.595179 0.304370 0.529928
O O12 0.481420 0.248598 0.682306
O O13 0.673021 0.500000 0.855818
O O14 0.680216 0.740388 0.758342
O O15 0.163178 0.729574 0.607953
O O16 0.224101 0.795803 0.421317
O O17 0.165562 0.000000 0.547630
O O18 0.807908 0.500000 0.321106
O O19 0.557252 0.000000 0.221713
#
# Coordination Sequence:
#
# PCOD9207992 Si02
#       7
#     8   8   8   8   8   8   8
#     4  10  21  38  59  84 115 149 190 236 284 338
#     4  10  22  40  61  87 121 158 197 238 287 353
#     4  10  23  41  61  86 118 156 197 240 291 350
#     4  11  23  37  58  89 119 150 193 240 290 345
#     4   9  20  40  60  84 116 150 194 244 291 344
#     4  10  21  37  61  87 114 152 193 238 295 348
#     4  10  22  40  60  86 119 155 195 243 292 343
#
# _framework density 18.615413
#
# number of rings (size 3 to 8) (size 9 to 14) (size 15 to 20)
#    0.000    2.000    1.429    0.857    4.000    3.429 
#    0.000    0.000    0.000    0.000    0.000    0.000 
#    0.000    0.000    0.000    0.000    0.000    0.000 
#
# Total GULP energy -156352.939977 kJ/mol
# GULP energy per Si atom -5584.033571 kJ/mol
# Density = 1.857304 g / cm^3
# Si number density = 18.615413 Si / 1000 Ang^3
#
#
#
# Elastic Constant Matrix: (Units=GPa)
#
#
# Indices 1 2 3 4 5 6 
#
# 1 95.6264 32.0500 43.0480 0.0000 13.1132 0.0000
# 2 32.0500 19.6228 33.0015 0.0000 8.9634 0.0000
# 3 43.0480 33.0015 109.4927 0.0000 26.5264 0.0000
# 4 0.0000 0.0000 0.0000 33.4814 0.0000 -3.7055
# 5 13.1132 8.9634 26.5264 0.0000 18.8914 0.0000
# 6 0.0000 0.0000 0.0000 -3.7055 0.0000 21.8306
#
#
#
# Elastic Compliance Matrix: (Units=1/GPa)
#
#
# Indices 1 2 3 4 5 6 
#
# 1 0.024361 -0.047873 0.005221 0.000000 -0.001527 0.000000
# 2 -0.047873 0.198233 -0.039693 0.000000 -0.005090 0.000000
# 3 0.005221 -0.039693 0.023278 0.000000 -0.017477 0.000000
# 4 0.000000 0.000000 0.000000 0.030439 0.000000 0.005167
# 5 -0.001527 -0.005090 -0.017477 0.000000 0.080949 0.000000
# 6 0.000000 0.000000 0.000000 0.005167 0.000000 0.046684
#
#
# Mechanical properties :
#
#
# Convention : Reuss Voigt Hill
#
# Bulk Modulus (GPa) = 12.31798 48.99346 30.65572
# Shear Modulus (GPa) = 8.39355 22.61684 15.50520
#
# Velocity S-wave (km/s) = 2.12573 3.48940 2.88917
# Velocity P-wave (km/s) = 3.55758 6.52767 5.25675
#
# Compressibility (1/GPa) = 0.08118214
#
# Stress axis : x y z
#
# Youngs Moduli (GPa) = 41.04871 5.04458 42.95880
#
# Poissons Ratio (x) = 0.24150 -0.22429
# Poissons Ratio (y) = 1.96511 1.70518
# Poissons Ratio (z) = -0.21432 0.20024
#
# Static dielectric constant tensor:
#      x y z
#    x 1.652180 0.000000 0.005860 
#    y 0.000000 1.621690 0.000000 
#    z 0.005860 0.000000 1.603620 
# 
# From -- ./inp_files/238287.got.cif
#   From: 2010.05.17/outbox.cif.g08.bks.cpg/sg12_120_cif.got.tgz:238287.got - 2010.06.03 13:09:07.
