data_PCOD9207766
_publ_section_title
;
Structure prediction by ZEFSAII (Michael W. Deem and Ramdas Pophale) SiO2 
 PCOD9207766
Probable space group: C 2/M
;
_chemical_formula_sum "Si O2"
_cell_formula_units_Z 28
_cell_length_a 10.287967
_cell_length_b 14.599455
_cell_length_c 8.920661
_cell_angle_alpha 90.000000
_cell_angle_beta 79.419190
_cell_angle_gamma 90.000000
_cell_volume 1317.089818
_symmetry_space_group_name_H-M "C 2/M"
_symmetry_group_IT_number 12
_symmetry_cell_setting 'monoclinic'
loop_
_space_group_symop_operation_xyz
x,y,z
-x,y,-z
-x,-y,-z
x,-y,z
1/2+x,1/2+y,z
1/2-x,1/2+y,-z
1/2-x,1/2-y,-z
1/2+x,1/2-y,z
loop_
_atom_site_type_symbol
_atom_site_label
_atom_site_fract_x
_atom_site_fract_y
_atom_site_fract_z
Si Si1 0.762270 0.000000 0.365313
Si Si2 0.581453 0.500000 0.293789
Si Si3 0.139288 0.693902 0.934238
Si Si4 0.725054 0.000000 0.020632
Si Si5 0.260182 0.154946 0.410399
O O1 0.741956 0.000000 0.193768
O O2 0.699154 0.085601 0.466137
O O3 0.923761 0.000000 0.341372
O O4 0.642272 0.592457 0.358796
O O5 0.642431 0.500000 0.112196
O O6 0.155675 0.681969 0.753146
O O7 0.250000 0.750000 0.000000
O O8 0.147691 0.591349 0.994830
O O9 0.000000 0.738947 0.000000
O O10 0.250000 0.250000 0.500000
#
# Coordination Sequence:
#
# PCOD9207766 Si02
#       5
#     4   4   8   4   8
#     4  11  21  39  63  94 125 164 211 259 308 368
#     4   9  21  38  62  91 127 166 211 255 305 375
#     4  11  25  44  65  91 126 168 210 254 311 378
#     4  10  22  41  62  89 125 168 204 252 316 375
#     4  10  21  37  59  92 124 158 204 261 310 357
#
# _framework density 21.258990000000001
#
# number of rings (size 3 to 8) (size 9 to 14) (size 15 to 20)
#    0.000    1.714    0.000    5.143    0.000   11.429 
#    0.000    5.714    0.000    0.000    0.000    0.000 
#    0.000    0.000    0.000    0.000    0.000    0.000 
#
# Total GULP energy -78007.184784 kJ/mol
# GULP energy per Si atom -5571.941770 kJ/mol
# Density = 2.121060 g / cm^3
# Si number density = 21.258990 Si / 1000 Ang^3
#
#
#
# Elastic Constant Matrix: (Units=GPa)
#
#
# Indices 1 2 3 4 5 6 
#
# 1 80.6320 24.0638 55.1142 0.0000 -17.1731 0.0000
# 2 24.0638 164.0155 57.6279 0.0000 13.7339 0.0000
# 3 55.1142 57.6279 245.3962 0.0000 15.8135 0.0000
# 4 0.0000 0.0000 0.0000 32.7151 0.0000 5.7436
# 5 -17.1731 13.7339 15.8135 0.0000 24.4344 0.0000
# 6 0.0000 0.0000 0.0000 5.7436 0.0000 2.5743
#
#
#
# Elastic Compliance Matrix: (Units=1/GPa)
#
#
# Indices 1 2 3 4 5 6 
#
# 1 0.021197 -0.002898 -0.005369 0.000000 0.020001 0.000000
# 2 -0.002898 0.007237 -0.000684 0.000000 -0.005662 0.000000
# 3 -0.005369 -0.000684 0.005906 0.000000 -0.007211 0.000000
# 4 0.000000 0.000000 0.000000 0.050251 0.000000 -0.112118
# 5 0.020001 -0.005662 -0.007211 0.000000 0.062833 0.000000
# 6 0.000000 0.000000 0.000000 -0.112118 0.000000 0.638616
#
#
# Mechanical properties :
#
#
# Convention : Reuss Voigt Hill
#
# Bulk Modulus (GPa) = 60.83576 84.85061 72.84318
# Shear Modulus (GPa) = 6.17726 35.49394 20.83560
#
# Velocity S-wave (km/s) = 1.70647 4.09050 3.13403
# Velocity P-wave (km/s) = 5.70625 7.89361 6.88732
#
# Compressibility (1/GPa) = 0.01643770
#
# Stress axis : x y z
#
# Youngs Moduli (GPa) = 47.17717 138.18806 169.31638
#
# Poissons Ratio (x) = 0.40051 0.90904
# Poissons Ratio (y) = 0.13673 0.11574
# Poissons Ratio (z) = 0.25329 0.09446
#
# Static dielectric constant tensor:
#      x y z
#    x 1.809140 0.000000 -0.018960 
#    y 0.000000 1.550930 0.000000 
#    z -0.018960 0.000000 1.818080 
# 
# From -- ./inp_files/44604.got.cif
#   From: 2010.05.17/outbox.cif.g08.bks.cpg/sg12_23_cif.got.tgz:44604.got - 2010.06.03 13:09:07.
