data_PCOD9207713
_publ_section_title
;
Structure prediction by ZEFSAII (Michael W. Deem and Ramdas Pophale) SiO2 
 PCOD9207713
Probable space group: C 2/M
;
_chemical_formula_sum "Si O2"
_cell_formula_units_Z 40
_cell_length_a 22.633279
_cell_length_b 8.985244
_cell_length_c 9.758020
_cell_angle_alpha 90.000000
_cell_angle_beta 88.469385
_cell_angle_gamma 90.000000
_cell_volume 1983.736892
_symmetry_space_group_name_H-M "C 2/M"
_symmetry_group_IT_number 12
_symmetry_cell_setting 'monoclinic'
loop_
_space_group_symop_operation_xyz
x,y,z
-x,y,-z
-x,-y,-z
x,-y,z
1/2+x,1/2+y,z
1/2-x,1/2+y,-z
1/2-x,1/2-y,-z
1/2+x,1/2-y,z
loop_
_atom_site_type_symbol
_atom_site_label
_atom_site_fract_x
_atom_site_fract_y
_atom_site_fract_z
Si Si1 0.866541 0.672408 0.210094
Si Si2 0.251612 0.176807 0.848806
Si Si3 0.134324 0.825383 0.287134
Si Si4 0.062738 0.823365 0.562223
Si Si5 0.439298 0.173449 0.931707
O O1 0.853661 0.500000 0.241321
O O2 0.807788 0.770337 0.223730
O O3 0.917470 0.732541 0.306620
O O4 0.889812 0.681136 0.052902
O O5 0.308666 0.233656 0.763082
O O6 0.253352 0.000000 0.863211
O O7 0.250000 0.250000 0.000000
O O8 0.112794 0.801526 0.443159
O O9 0.145978 0.000000 0.266034
O O10 0.080906 0.773706 0.192255
O O11 0.000000 0.779044 0.500000
O O12 0.059085 0.000000 0.594247
O O13 0.445299 0.000000 0.888672
O O14 0.500000 0.219582 0.000000
#
# Coordination Sequence:
#
# PCOD9207713 Si02
#       5
#     8   8   8   8   8
#     4  11  23  39  63  93 125 165 209 256 312 372
#     4  12  24  41  65  92 126 163 205 261 315 371
#     4  11  23  39  63  92 123 165 210 256 313 372
#     4  10  23  43  64  91 129 169 210 257 309 369
#     4  10  21  37  59  89 123 160 206 260 313 369
#
# _framework density 20.163964
#
# number of rings (size 3 to 8) (size 9 to 14) (size 15 to 20)
#    0.000    1.200    2.000    4.200    0.000    4.000 
#    0.000    0.000    0.000    0.000    0.000    0.000 
#    0.000    0.000    0.000    0.000    0.000    0.000 
#
# Total GULP energy -111878.793019 kJ/mol
# GULP energy per Si atom -5593.939651 kJ/mol
# Density = 2.011807 g / cm^3
# Si number density = 20.163964 Si / 1000 Ang^3
#
#
#
# Elastic Constant Matrix: (Units=GPa)
#
#
# Indices 1 2 3 4 5 6 
#
# 1 74.2946 13.9881 -15.8219 0.0000 0.9024 0.0000
# 2 13.9881 92.5980 27.1523 0.0000 -3.2099 0.0000
# 3 -15.8219 27.1523 46.6846 0.0000 9.0260 0.0000
# 4 0.0000 0.0000 0.0000 20.2074 0.0000 5.6494
# 5 0.9024 -3.2099 9.0260 0.0000 27.3378 0.0000
# 6 0.0000 0.0000 0.0000 5.6494 0.0000 35.0310
#
#
#
# Elastic Compliance Matrix: (Units=1/GPa)
#
#
# Indices 1 2 3 4 5 6 
#
# 1 0.016609 -0.005498 0.009675 0.000000 -0.004388 0.000000
# 2 -0.005498 0.015332 -0.011925 0.000000 0.005919 0.000000
# 3 0.009675 -0.011925 0.034147 0.000000 -0.012994 0.000000
# 4 0.000000 0.000000 0.000000 0.051823 0.000000 -0.008357
# 5 -0.004388 0.005919 -0.012994 0.000000 0.041709 0.000000
# 6 0.000000 0.000000 0.000000 -0.008357 0.000000 0.029894
#
#
# Mechanical properties :
#
#
# Convention : Reuss Voigt Hill
#
# Bulk Modulus (GPa) = 19.76598 29.35712 24.56155
# Shear Modulus (GPa) = 22.53531 29.06582 25.80057
#
# Velocity S-wave (km/s) = 3.34668 3.80079 3.58094
# Velocity P-wave (km/s) = 4.97570 5.81826 5.41340
#
# Compressibility (1/GPa) = 0.05059199
#
# Stress axis : x y z
#
# Youngs Moduli (GPa) = 60.20901 65.22399 29.28507
#
# Poissons Ratio (x) = 0.35861 -0.28333
# Poissons Ratio (y) = 0.33103 0.34922
# Poissons Ratio (z) = -0.58252 0.77778
#
# Static dielectric constant tensor:
#      x y z
#    x 1.732720 0.000000 -0.004910 
#    y 0.000000 1.675070 0.000000 
#    z -0.004910 0.000000 1.689870 
# 
# From -- ./inp_files/92794.got.cif
#   From: 2010.05.17/outbox.cif.g08.bks.cpg/sg12_47_cif.got.tgz:92794.got - 2010.06.03 13:09:07.
