data_PCOD9207100
_publ_section_title
;
Structure prediction by ZEFSAII (Michael W. Deem and Ramdas Pophale) SiO2 
 PCOD9207100
Probable space group: C 2/M
;
_chemical_formula_sum "Si O2"
_cell_formula_units_Z 40
_cell_length_a 7.934737
_cell_length_b 11.845004
_cell_length_c 27.734516
_cell_angle_alpha 90.000000
_cell_angle_beta 38.333944
_cell_angle_gamma 90.000000
_cell_volume 1616.779550
_symmetry_space_group_name_H-M "C 2/M"
_symmetry_group_IT_number 12
_symmetry_cell_setting 'monoclinic'
loop_
_space_group_symop_operation_xyz
x,y,z
-x,y,-z
-x,-y,-z
x,-y,z
1/2+x,1/2+y,z
1/2-x,1/2+y,-z
1/2-x,1/2-y,-z
1/2+x,1/2-y,z
loop_
_atom_site_type_symbol
_atom_site_label
_atom_site_fract_x
_atom_site_fract_y
_atom_site_fract_z
Si Si1 0.613761 0.125487 0.028374
Si Si2 0.029991 0.376724 0.257620
Si Si3 0.191746 0.652862 0.589734
Si Si4 0.956034 0.871479 0.792971
Si Si5 0.706164 0.887865 0.409271
O O1 0.356550 0.130489 0.121808
O O2 0.751752 0.000000 0.006039
O O3 0.500000 0.119010 0.000000
O O4 0.750000 0.250000 0.000000
O O5 0.004834 0.500000 0.236815
O O6 0.985080 0.250324 0.245881
O O7 0.340744 0.371712 0.207203
O O8 0.852377 0.389851 0.346647
O O9 0.500000 0.638370 0.500000
O O10 0.123103 0.782094 0.615534
O O11 0.981957 0.618387 0.595592
O O12 0.003516 0.000000 0.760479
O O13 0.500000 0.891286 0.500000
O O14 0.876035 0.000000 0.370647
#
# Coordination Sequence:
#
# PCOD9207100 Si02
#       5
#     8   8   8   8   8
#     4  10  21  39  66  98 130 164 203 250 302 359
#     4  11  24  41  62  88 123 168 212 258 313 372
#     4  11  22  39  60  86 118 153 205 267 318 367
#     4  10  23  43  64  91 129 168 206 250 304 369
#     4  10  21  37  57  80 109 145 187 246 316 376
#
# _framework density 24.740542000000001
#
# number of rings (size 3 to 8) (size 9 to 14) (size 15 to 20)
#    0.000    1.600    0.000    5.400    0.000    7.600 
#    0.000    6.000    0.000    0.600    0.000    0.000 
#    0.000    0.000    0.000    0.000    0.000    0.000 
#
# Total GULP energy -111335.486509 kJ/mol
# GULP energy per Si atom -5566.774325 kJ/mol
# Density = 2.468423 g / cm^3
# Si number density = 24.740542 Si / 1000 Ang^3
#
#
#
# Elastic Constant Matrix: (Units=GPa)
#
#
# Indices 1 2 3 4 5 6 
#
# 1 75.1789 64.8616 7.9941 0.0030 -5.3939 0.0110
# 2 64.8616 333.0772 41.4156 0.0008 -0.8440 0.0052
# 3 7.9941 41.4156 77.7998 0.0017 -9.3733 0.0109
# 4 0.0030 0.0008 0.0017 48.4866 -0.0014 104.2240
# 5 -5.3939 -0.8440 -9.3733 -0.0014 35.1658 -0.0070
# 6 0.0110 0.0052 0.0109 104.2240 -0.0070 418.8497
#
#
#
# Elastic Compliance Matrix: (Units=1/GPa)
#
#
# Indices 1 2 3 4 5 6 
#
# 1 0.016197 -0.003189 0.000334 0.000000 0.002497 0.000000
# 2 -0.003189 0.003848 -0.001827 0.000000 -0.000884 0.000000
# 3 0.000334 -0.001827 0.014250 0.000001 0.003806 0.000000
# 4 0.000000 0.000000 0.000001 0.044342 0.000000 -0.011034
# 5 0.002497 -0.000884 0.003806 0.000000 0.029813 0.000000
# 6 0.000000 0.000000 0.000000 -0.011034 0.000000 0.005133
#
#
# Mechanical properties :
#
#
# Convention : Reuss Voigt Hill
#
# Bulk Modulus (GPa) = 40.11084 79.39982 59.75533
# Shear Modulus (GPa) = 38.09284 125.28608 81.68946
#
# Velocity S-wave (km/s) = 3.92815 7.12390 5.75240
# Velocity P-wave (km/s) = 6.06808 9.99146 8.26592
#
# Compressibility (1/GPa) = 0.02493092
#
# Stress axis : x y z
#
# Youngs Moduli (GPa) = 61.74050 259.85077 70.17313
#
# Poissons Ratio (x) = 0.82875 -0.02346
# Poissons Ratio (y) = 0.19691 0.12823
# Poissons Ratio (z) = -0.02064 0.47485
#
# Static dielectric constant tensor:
#      x y z
#    x 1.898890 0.000000 0.012920 
#    y 0.000000 2.118080 0.000000 
#    z 0.012920 0.000000 1.960300 
# 
# From -- ./inp_files/371925.got.cif
#   From: 2010.05.17/outbox.cif.g08.bks.cpg/sg12_186_cif.got.tgz:371925.got - 2010.06.03 13:09:07.
