data_PCOD9207859
_publ_section_title
;
Structure prediction by ZEFSAII (Michael W. Deem and Ramdas Pophale) SiO2 
 PCOD9207859
Probable space group: C 2/M
;
_chemical_formula_sum "Si O2"
_cell_formula_units_Z 48
_cell_length_a 20.363975
_cell_length_b 7.901644
_cell_length_c 20.643290
_cell_angle_alpha 90.000000
_cell_angle_beta 131.378822
_cell_angle_gamma 90.000000
_cell_volume 2492.447234
_symmetry_space_group_name_H-M "C 2/M"
_symmetry_group_IT_number 12
_symmetry_cell_setting 'monoclinic'
loop_
_space_group_symop_operation_xyz
x,y,z
-x,y,-z
-x,-y,-z
x,-y,z
1/2+x,1/2+y,z
1/2-x,1/2+y,-z
1/2-x,1/2-y,-z
1/2+x,1/2-y,z
loop_
_atom_site_type_symbol
_atom_site_label
_atom_site_fract_x
_atom_site_fract_y
_atom_site_fract_z
Si Si1 0.238501 0.204182 0.592079
Si Si2 0.107022 0.299422 0.398563
Si Si3 0.747380 0.305478 0.748677
Si Si4 0.551090 0.500000 0.930580
Si Si5 0.337538 0.689501 0.092383
Si Si6 0.365285 0.500000 0.872791
Si Si7 0.410580 0.195833 0.272077
O O1 0.155486 0.271803 0.498353
O O2 0.325540 0.268117 0.611602
O O3 0.240080 0.244630 0.668550
O O4 0.236270 0.000000 0.584863
O O5 0.099045 0.500000 0.381222
O O6 0.008736 0.231406 0.333206
O O7 0.779361 0.500000 0.773527
O O8 0.808760 0.167950 0.823203
O O9 0.653269 0.292643 0.721265
O O10 0.585994 0.658458 0.910782
O O11 0.449149 0.500000 0.879922
O O12 0.600613 0.500000 0.031409
O O13 0.319757 0.500000 0.107042
O O14 0.369232 0.797474 0.173326
O O15 0.250000 0.750000 0.000000
O O16 0.413989 0.000000 0.295758
#
# Coordination Sequence:
#
# PCOD9207859 Si02
#       7
#     8   8   8   4   8   4   8
#     4   9  20  38  57  88 121 162 204 257 310 371
#     4   9  20  37  60  85 123 158 208 256 308 372
#     4  11  24  40  65  91 126 168 209 256 320 374
#     4   9  24  40  64  94 124 166 210 260 316 381
#     4  10  21  37  60  88 122 159 204 249 313 368
#     4  11  22  46  66  91 134 158 210 267 310 382
#     4  11  22  38  59  92 123 163 211 265 308 374
#
# _framework density 19.258181
#
# number of rings (size 3 to 8) (size 9 to 14) (size 15 to 20)
#    0.500    1.500    0.833    2.000    3.500    2.000 
#    0.000    6.667    0.000    0.000    0.000    0.000 
#    0.000    0.000    0.000    0.000    0.000    0.000 
#
# Total GULP energy -133887.415302 kJ/mol
# GULP energy per Si atom -5578.642304 kJ/mol
# Density = 1.921435 g / cm^3
# Si number density = 19.258181 Si / 1000 Ang^3
#
#
#
# Elastic Constant Matrix: (Units=GPa)
#
#
# Indices 1 2 3 4 5 6 
#
# 1 99.7919 18.2598 50.0189 0.0000 7.7209 0.0000
# 2 18.2598 52.9899 16.6157 0.0000 4.3632 0.0000
# 3 50.0189 16.6157 82.8675 0.0000 12.9506 0.0000
# 4 0.0000 0.0000 0.0000 22.2262 0.0000 -7.0334
# 5 7.7209 4.3632 12.9506 0.0000 34.8047 0.0000
# 6 0.0000 0.0000 0.0000 -7.0334 0.0000 18.5465
#
#
#
# Elastic Compliance Matrix: (Units=1/GPa)
#
#
# Indices 1 2 3 4 5 6 
#
# 1 0.014656 -0.002435 -0.008385 0.000000 0.000174 0.000000
# 2 -0.002435 0.020581 -0.002482 0.000000 -0.001116 0.000000
# 3 -0.008385 -0.002482 0.018355 0.000000 -0.004658 0.000000
# 4 0.000000 0.000000 0.000000 0.051128 0.000000 0.019389
# 5 0.000174 -0.001116 -0.004658 0.000000 0.030566 0.000000
# 6 0.000000 0.000000 0.000000 0.019389 0.000000 0.061271
#
#
# Mechanical properties :
#
#
# Convention : Reuss Voigt Hill
#
# Bulk Modulus (GPa) = 37.05660 45.04866 41.05263
# Shear Modulus (GPa) = 21.53709 25.16582 23.35146
#
# Velocity S-wave (km/s) = 3.34778 3.61884 3.48594
# Velocity P-wave (km/s) = 5.85041 6.39563 6.12908
#
# Compressibility (1/GPa) = 0.02698575
#
# Stress axis : x y z
#
# Youngs Moduli (GPa) = 68.23175 48.58857 54.48254
#
# Poissons Ratio (x) = 0.11833 0.45685
# Poissons Ratio (y) = 0.16617 0.13524
# Poissons Ratio (z) = 0.57214 0.12061
#
# Static dielectric constant tensor:
#      x y z
#    x 1.680980 0.000000 0.006130 
#    y 0.000000 1.670550 0.000000 
#    z 0.006130 0.000000 1.640710 
# 
# From -- ./inp_files/323886.got.cif
#   From: 2010.05.17/outbox.cif.g08.bks.cpg/sg12_162_cif.got.tgz:323886.got - 2010.06.03 13:09:07.
