data_PCOD9207336
_publ_section_title
;
Structure prediction by ZEFSAII (Michael W. Deem and Ramdas Pophale) SiO2 
 PCOD9207336
Probable space group: C 2/M
;
_chemical_formula_sum "Si O2"
_cell_formula_units_Z 56
_cell_length_a 18.803600
_cell_length_b 8.710288
_cell_length_c 29.891547
_cell_angle_alpha 90.000000
_cell_angle_beta 141.723996
_cell_angle_gamma 90.000000
_cell_volume 3032.692538
_symmetry_space_group_name_H-M "C 2/M"
_symmetry_group_IT_number 12
_symmetry_cell_setting 'monoclinic'
loop_
_space_group_symop_operation_xyz
x,y,z
-x,y,-z
-x,-y,-z
x,-y,z
1/2+x,1/2+y,z
1/2-x,1/2+y,-z
1/2-x,1/2-y,-z
1/2+x,1/2-y,z
loop_
_atom_site_type_symbol
_atom_site_label
_atom_site_fract_x
_atom_site_fract_y
_atom_site_fract_z
Si Si1 0.081930 0.813067 0.500084
Si Si2 0.507450 0.315517 0.641816
Si Si3 0.924019 0.815699 0.772361
Si Si4 0.761460 0.183914 0.776254
Si Si5 0.653221 0.816030 0.359874
Si Si6 0.458714 0.184054 0.930199
Si Si7 0.623065 0.684043 0.935444
O O1 0.034810 0.765818 0.428382
O O2 0.213761 0.765045 0.571440
O O3 0.000000 0.759958 0.500000
O O4 0.080735 0.000000 0.500387
O O5 0.509527 0.500000 0.644002
O O6 0.634869 0.252389 0.712887
O O7 0.421019 0.255141 0.636848
O O8 0.830982 0.775052 0.764972
O O9 0.896507 0.734586 0.712479
O O10 0.048719 0.776332 0.854516
O O11 0.919314 0.000000 0.763911
O O12 0.837131 0.247670 0.854566
O O13 0.757327 0.000000 0.776674
O O14 0.649944 0.000000 0.361988
O O15 0.550724 0.248476 0.940664
O O16 0.453478 0.000000 0.924746
O O17 0.500000 0.227230 0.000000
O O18 0.625334 0.500000 0.939603
O O19 0.750000 0.750000 0.000000
#
# Coordination Sequence:
#
# PCOD9207336 Si02
#       7
#     8   8   8   8   8   8   8
#     4   9  19  36  58  84 111 143 186 231 275 328
#     4  11  22  37  58  82 114 151 184 227 280 329
#     4   9  20  38  57  80 111 145 183 229 280 333
#     4  10  21  38  59  83 112 145 186 233 277 331
#     4  11  22  36  57  84 114 147 186 231 276 328
#     4  10  21  37  58  84 114 148 186 229 279 335
#     4  10  21  37  58  83 113 148 188 235 281 332
#
# _framework density 18.465439
#
# number of rings (size 3 to 8) (size 9 to 14) (size 15 to 20)
#    0.000    2.000    0.000    4.286    0.000    6.857 
#    0.000    3.571    0.000    5.143    0.000    0.000 
#    0.000    0.000    0.000    0.000    0.000    0.000 
#
# Total GULP energy -156400.644897 kJ/mol
# GULP energy per Si atom -5585.737318 kJ/mol
# Density = 1.842341 g / cm^3
# Si number density = 18.465439 Si / 1000 Ang^3
#
#
#
# Elastic Constant Matrix: (Units=GPa)
#
#
# Indices 1 2 3 4 5 6 
#
# 1 134.7689 46.9604 121.0151 0.0000 5.2878 0.0000
# 2 46.9604 51.0768 60.1876 0.0001 -3.6810 0.0000
# 3 121.0151 60.1876 207.3510 0.0000 0.7284 0.0000
# 4 0.0000 0.0001 0.0000 22.1386 0.0000 -1.1441
# 5 5.2878 -3.6810 0.7284 0.0000 38.7512 0.0000
# 6 0.0000 0.0000 0.0000 -1.1441 0.0000 24.2799
#
#
#
# Elastic Compliance Matrix: (Units=1/GPa)
#
#
# Indices 1 2 3 4 5 6 
#
# 1 0.016961 -0.006292 -0.008063 0.000000 -0.002761 0.000000
# 2 -0.006292 0.032441 -0.005759 0.000000 0.004048 0.000000
# 3 -0.008063 -0.005759 0.011199 0.000000 0.000343 0.000000
# 4 0.000000 0.000000 0.000000 0.045280 0.000000 0.002134
# 5 -0.002761 0.004048 0.000343 0.000000 0.026560 0.000000
# 6 0.000000 0.000000 0.000000 0.002134 0.000000 0.041287
#
#
# Mechanical properties :
#
#
# Convention : Reuss Voigt Hill
#
# Bulk Modulus (GPa) = 49.08282 94.39144 71.73713
# Shear Modulus (GPa) = 22.65052 28.03616 25.34334
#
# Velocity S-wave (km/s) = 3.50615 3.90077 3.70871
# Velocity P-wave (km/s) = 6.55968 8.45677 7.56790
#
# Compressibility (1/GPa) = 0.02037373
#
# Stress axis : x y z
#
# Youngs Moduli (GPa) = 58.96011 30.82530 89.29671
#
# Poissons Ratio (x) = 0.19395 0.71996
# Poissons Ratio (y) = 0.37097 0.51423
# Poissons Ratio (z) = 0.47537 0.17751
#
# Static dielectric constant tensor:
#      x y z
#    x 1.602900 0.000000 0.000220 
#    y 0.000000 1.620540 0.000000 
#    z 0.000220 0.000000 1.624020 
# 
# From -- ./inp_files/363152.got.cif
#   From: 2010.05.17/outbox.cif.g08.bks.cpg/sg12_182_cif.got.tgz:363152.got - 2010.06.03 13:09:07.
