data_PCOD9207472
_publ_section_title
;
Structure prediction by ZEFSAII (Michael W. Deem and Ramdas Pophale) SiO2 
 PCOD9207472
Probable space group: C 2/M
;
_chemical_formula_sum "Si O2"
_cell_formula_units_Z 56
_cell_length_a 27.171460
_cell_length_b 13.370476
_cell_length_c 13.263786
_cell_angle_alpha 90.000000
_cell_angle_beta 150.095881
_cell_angle_gamma 90.000000
_cell_volume 2402.349128
_symmetry_space_group_name_H-M "C 2/M"
_symmetry_group_IT_number 12
_symmetry_cell_setting 'monoclinic'
loop_
_space_group_symop_operation_xyz
x,y,z
-x,y,-z
-x,-y,-z
x,-y,z
1/2+x,1/2+y,z
1/2-x,1/2+y,-z
1/2-x,1/2-y,-z
1/2+x,1/2-y,z
loop_
_atom_site_type_symbol
_atom_site_label
_atom_site_fract_x
_atom_site_fract_y
_atom_site_fract_z
Si Si1 0.845581 0.886382 0.310716
Si Si2 0.705228 0.386948 0.015418
Si Si3 0.070853 0.324324 0.536582
Si Si4 0.259848 0.847295 0.450924
Si Si5 0.324460 0.770626 0.883804
Si Si6 0.430937 0.607070 0.780654
Si Si7 0.535088 0.179168 0.246293
O O1 0.923500 0.796869 0.456654
O O2 0.877931 0.000000 0.389393
O O3 0.809054 0.882341 0.129845
O O4 0.755747 0.851573 0.223425
O O5 0.679968 0.500000 0.003848
O O6 0.819443 0.363592 0.244152
O O7 0.647536 0.297781 0.969539
O O8 0.038373 0.355590 0.367686
O O9 0.000000 0.357383 0.500000
O O10 0.250000 0.750000 0.500000
O O11 0.175798 0.906339 0.358788
O O12 0.374353 0.876800 0.647787
O O13 0.223679 0.810589 0.276865
O O14 0.421453 0.822459 0.010410
O O15 0.461526 0.500000 0.789486
O O16 0.436700 0.702691 0.718458
O O17 0.500000 0.628965 0.000000
#
# Coordination Sequence:
#
# PCOD9207472 Si02
#       7
#     8   8   8   8   8   8   8
#     4  10  21  38  57  82 120 161 201 245 297 353
#     4  10  21  37  58  86 120 158 199 251 298 350
#     4  11  21  37  59  89 121 159 201 240 298 358
#     4  10  21  38  58  87 114 154 200 238 296 350
#     4  11  20  39  61  84 122 157 195 249 297 358
#     4  10  21  38  61  89 119 151 195 252 304 351
#     4  11  21  37  60  88 116 160 195 239 303 355
#
# _framework density 23.310516
#
# number of rings (size 3 to 8) (size 9 to 14) (size 15 to 20)
#    0.000    1.571    4.286    3.429    0.000    2.286 
#    0.000    1.429    0.000    0.000    0.000    4.000 
#    0.000    0.000    0.000    0.000    0.000    0.000 
#
# Total GULP energy -156280.863118 kJ/mol
# GULP energy per Si atom -5581.459397 kJ/mol
# Density = 2.325746 g / cm^3
# Si number density = 23.310516 Si / 1000 Ang^3
#
#
#
# Elastic Constant Matrix: (Units=GPa)
#
#
# Indices 1 2 3 4 5 6 
#
# 1 95.3462 -6.9532 8.2123 0.0000 18.9828 0.0000
# 2 -6.9532 53.0218 -12.9120 0.0000 -12.0183 0.0000
# 3 8.2123 -12.9120 46.7570 0.0000 19.7558 0.0000
# 4 0.0000 0.0000 0.0000 16.8974 0.0000 -8.1378
# 5 18.9828 -12.0183 19.7558 0.0000 43.0874 0.0000
# 6 0.0000 0.0000 0.0000 -8.1378 0.0000 4.8858
#
#
#
# Elastic Compliance Matrix: (Units=1/GPa)
#
#
# Indices 1 2 3 4 5 6 
#
# 1 0.011506 0.000419 0.000232 0.000000 -0.005059 0.000000
# 2 0.000419 0.020755 0.004080 0.000000 0.003734 0.000000
# 3 0.000232 0.004080 0.027330 0.000000 -0.011495 0.000000
# 4 0.000000 0.000000 0.000000 0.299146 0.000000 0.498263
# 5 -0.005059 0.003734 -0.011495 0.000000 0.031749 0.000000
# 6 0.000000 0.000000 0.000000 0.498263 0.000000 1.034593
#
#
# Mechanical properties :
#
#
# Convention : Reuss Voigt Hill
#
# Bulk Modulus (GPa) = 14.48152 19.09103 16.78627
# Shear Modulus (GPa) = 3.47552 26.75930 15.11741
#
# Velocity S-wave (km/s) = 1.22238 3.39182 2.54937
# Velocity P-wave (km/s) = 2.86674 4.85251 3.98529
#
# Compressibility (1/GPa) = 0.06905354
#
# Stress axis : x y z
#
# Youngs Moduli (GPa) = 86.91273 48.18097 36.58972
#
# Poissons Ratio (x) = -0.02018 -0.00850
# Poissons Ratio (y) = -0.03639 -0.14930
# Poissons Ratio (z) = -0.02018 -0.19660
#
# Static dielectric constant tensor:
#      x y z
#    x 1.859990 0.000000 0.038450 
#    y 0.000000 2.229710 0.000000 
#    z 0.038450 0.000000 1.888220 
# 
# From -- ./inp_files/214325.got.cif
#   From: 2010.05.17/outbox.cif.g08.bks.cpg/sg12_108_cif.got.tgz:214325.got - 2010.06.03 13:09:07.
