data_PCOD9207803
_publ_section_title
;
Structure prediction by ZEFSAII (Michael W. Deem and Ramdas Pophale) SiO2 
 PCOD9207803
Probable space group: C 2/M
;
_chemical_formula_sum "Si O2"
_cell_formula_units_Z 56
_cell_length_a 20.478787
_cell_length_b 7.611135
_cell_length_c 19.715710
_cell_angle_alpha 90.000000
_cell_angle_beta 59.680396
_cell_angle_gamma 90.000000
_cell_volume 2652.705363
_symmetry_space_group_name_H-M "C 2/M"
_symmetry_group_IT_number 12
_symmetry_cell_setting 'monoclinic'
loop_
_space_group_symop_operation_xyz
x,y,z
-x,y,-z
-x,-y,-z
x,-y,z
1/2+x,1/2+y,z
1/2-x,1/2+y,-z
1/2-x,1/2-y,-z
1/2+x,1/2-y,z
loop_
_atom_site_type_symbol
_atom_site_label
_atom_site_fract_x
_atom_site_fract_y
_atom_site_fract_z
Si Si1 0.123252 0.703952 0.761920
Si Si2 0.206069 0.702507 0.350671
Si Si3 0.916778 0.284521 0.066820
Si Si4 0.142494 0.210012 0.239544
Si Si5 0.768654 0.289465 0.067674
Si Si6 0.968768 0.289155 0.317450
Si Si7 0.930065 0.715378 0.488609
O O1 0.100118 0.500000 0.777728
O O2 0.212783 0.710453 0.701858
O O3 0.103510 0.776970 0.846482
O O4 0.078640 0.781514 0.721294
O O5 0.221770 0.500000 0.358904
O O6 0.161444 0.711962 0.302975
O O7 0.148973 0.774690 0.437218
O O8 0.916145 0.500000 0.067024
O O9 0.850210 0.226199 0.051040
O O10 0.000000 0.229290 0.000000
O O11 0.203120 0.274989 0.152685
O O12 0.057381 0.252084 0.263053
O O13 0.150330 0.000000 0.241973
O O14 0.769517 0.500000 0.073803
O O15 0.750000 0.250000 0.000000
O O16 0.958460 0.500000 0.324949
O O17 0.942745 0.224441 0.405107
O O18 0.929581 0.500000 0.489828
O O19 0.000000 0.769222 0.500000
#
# Coordination Sequence:
#
# PCOD9207803 Si02
#       7
#     8   8   8   8   8   8   8
#     4  10  21  38  58  83 116 149 189 237 285 337
#     4  11  21  36  61  83 111 156 195 230 283 347
#     4   9  18  35  57  80 110 147 182 226 279 332
#     4  11  22  38  58  84 120 151 185 240 289 329
#     4  10  22  38  58  84 115 144 182 233 283 335
#     4  10  21  37  60  86 112 153 199 234 278 344
#     4   9  17  33  55  83 116 146 188 242 284 324
#
# _framework density 21.110524999999999
#
# number of rings (size 3 to 8) (size 9 to 14) (size 15 to 20)
#    0.000    2.000    2.857    0.857    2.000    2.286 
#    0.000    2.143    0.000    0.857    0.000    0.000 
#    0.000    0.000    0.000    0.000    0.000    0.000 
#
# Total GULP energy -156426.783455 kJ/mol
# GULP energy per Si atom -5586.670838 kJ/mol
# Density = 2.106248 g / cm^3
# Si number density = 21.110525 Si / 1000 Ang^3
#
#
#
# Elastic Constant Matrix: (Units=GPa)
#
#
# Indices 1 2 3 4 5 6 
#
# 1 180.3790 -4.7730 107.3101 0.0003 2.0691 0.0002
# 2 -4.7730 38.3848 6.3792 0.0009 9.9538 0.0014
# 3 107.3101 6.3792 175.1514 0.0001 -14.3821 -0.0002
# 4 0.0003 0.0009 0.0001 15.6395 0.0000 -2.4309
# 5 2.0691 9.9538 -14.3821 0.0000 31.4395 -0.0001
# 6 0.0002 0.0014 -0.0002 -2.4309 -0.0001 25.1247
#
#
#
# Elastic Compliance Matrix: (Units=1/GPa)
#
#
# Indices 1 2 3 4 5 6 
#
# 1 0.009413 0.003394 -0.006265 0.000000 -0.004560 0.000000
# 2 0.003394 0.030189 -0.004138 -0.000002 -0.011674 -0.000002
# 3 -0.006265 -0.004138 0.010224 0.000000 0.006399 0.000000
# 4 0.000000 -0.000002 0.000000 0.064917 0.000001 0.006281
# 5 -0.004560 -0.011674 0.006399 0.000001 0.038731 0.000001
# 6 0.000000 -0.000002 0.000000 0.006281 0.000001 0.040409
#
#
# Mechanical properties :
#
#
# Convention : Reuss Voigt Hill
#
# Bulk Modulus (GPa) = 27.92595 67.97198 47.94897
# Shear Modulus (GPa) = 22.74410 33.44065 28.09237
#
# Velocity S-wave (km/s) = 3.28591 3.98436 3.65187
# Velocity P-wave (km/s) = 5.25865 7.30992 6.36743
#
# Compressibility (1/GPa) = 0.03580898
#
# Stress axis : x y z
#
# Youngs Moduli (GPa) = 106.23168 33.12465 97.80771
#
# Poissons Ratio (x) = -0.11244 0.61280
# Poissons Ratio (y) = -0.36059 0.40470
# Poissons Ratio (z) = 0.66558 0.13706
#
# Static dielectric constant tensor:
#      x y z
#    x 1.718500 0.000000 0.003880 
#    y 0.000000 1.816310 0.000000 
#    z 0.003880 0.000000 1.742660 
# 
# From -- ./inp_files/280900.got.cif
#   From: 2010.05.17/outbox.cif.g08.bks.cpg/sg12_141_cif.got.tgz:280900.got - 2010.06.03 13:09:07.
