data_PCOD9207546
_publ_section_title
;
Structure prediction by ZEFSAII (Michael W. Deem and Ramdas Pophale) SiO2 
 PCOD9207546
Probable space group: C 2/M
;
_chemical_formula_sum "Si O2"
_cell_formula_units_Z 48
_cell_length_a 14.405425
_cell_length_b 17.879549
_cell_length_c 20.266588
_cell_angle_alpha 90.000000
_cell_angle_beta 30.532867
_cell_angle_gamma 90.000000
_cell_volume 2651.885730
_symmetry_space_group_name_H-M "C 2/M"
_symmetry_group_IT_number 12
_symmetry_cell_setting 'monoclinic'
loop_
_space_group_symop_operation_xyz
x,y,z
-x,y,-z
-x,-y,-z
x,-y,z
1/2+x,1/2+y,z
1/2-x,1/2+y,-z
1/2-x,1/2-y,-z
1/2+x,1/2-y,z
loop_
_atom_site_type_symbol
_atom_site_label
_atom_site_fract_x
_atom_site_fract_y
_atom_site_fract_z
Si Si1 0.137953 0.412317 0.195881
Si Si2 0.352752 0.704144 0.149541
Si Si3 0.198056 0.584979 0.905563
Si Si4 0.271173 0.411832 0.594140
Si Si5 0.673775 0.666401 0.043047
Si Si6 0.145967 0.144133 0.316081
O O1 0.180396 0.500000 0.177901
O O2 0.227019 0.361402 0.197527
O O3 0.920247 0.402802 0.325210
O O4 0.220602 0.382231 0.076433
O O5 0.468473 0.675384 0.141351
O O6 0.231977 0.776143 0.242839
O O7 0.500000 0.720370 0.000000
O O8 0.174390 0.500000 0.942800
O O9 0.285965 0.631419 0.910659
O O10 0.324833 0.591157 0.764240
O O11 0.000000 0.610904 0.000000
O O12 0.322982 0.500000 0.559951
O O13 0.249874 0.387917 0.683594
O O14 0.433296 0.360997 0.465851
O O15 0.750000 0.750000 0.000000
#
# Coordination Sequence:
#
# PCOD9207546 Si02
#       6
#     8   8   8   8   8   8
#     4  10  21  38  58  81 110 146 188 225 264 322
#     4  10  22  37  57  82 109 145 184 225 271 319
#     4  11  21  32  52  81 110 140 175 220 276 328
#     4  10  21  37  59  82 108 145 184 225 271 324
#     4  11  21  35  55  80 112 144 177 223 275 322
#     4  11  20  35  55  80 112 141 178 225 273 323
#
# _framework density 18.100328000000001
#
# number of rings (size 3 to 8) (size 9 to 14) (size 15 to 20)
#    0.000    1.500    0.000    8.000    0.000    7.000 
#    0.000    1.667    0.000    0.000    0.000    5.833 
#    0.000    0.000    0.000    0.000    0.000    0.000 
#
# Total GULP energy -133978.879203 kJ/mol
# GULP energy per Si atom -5582.453300 kJ/mol
# Density = 1.805913 g / cm^3
# Si number density = 18.100328 Si / 1000 Ang^3
#
#
#
# Elastic Constant Matrix: (Units=GPa)
#
#
# Indices 1 2 3 4 5 6 
#
# 1 148.8228 73.3705 51.9383 0.0002 -8.2220 0.0069
# 2 73.3705 139.9470 55.6158 -0.0019 -16.3229 -0.0002
# 3 51.9383 55.6158 66.6509 -0.0006 -7.6287 0.0142
# 4 0.0002 -0.0019 -0.0006 22.3930 0.0006 -1.0708
# 5 -8.2220 -16.3229 -7.6287 0.0006 28.1076 -0.0084
# 6 0.0069 -0.0002 0.0142 -1.0708 -0.0084 32.2224
#
#
#
# Elastic Compliance Matrix: (Units=1/GPa)
#
#
# Indices 1 2 3 4 5 6 
#
# 1 0.010134 -0.003292 -0.005191 0.000000 -0.000356 0.000000
# 2 -0.003292 0.012193 -0.007130 0.000001 0.004183 0.000005
# 3 -0.005191 -0.007130 0.025132 0.000000 0.001162 -0.000010
# 4 0.000000 0.000001 0.000000 0.044728 0.000000 0.001486
# 5 -0.000356 0.004183 0.001162 0.000000 0.038218 0.000010
# 6 0.000000 0.000005 -0.000010 0.001486 0.000010 0.031084
#
#
# Mechanical properties :
#
#
# Convention : Reuss Voigt Hill
#
# Bulk Modulus (GPa) = 61.60599 79.69665 70.65132
# Shear Modulus (GPa) = 25.23658 28.17766 26.70712
#
# Velocity S-wave (km/s) = 3.73803 3.94985 3.84540
# Velocity P-wave (km/s) = 7.26225 8.05778 7.67033
#
# Compressibility (1/GPa) = 0.01623219
#
# Stress axis : x y z
#
# Youngs Moduli (GPa) = 98.67530 82.01626 39.79044
#
# Poissons Ratio (x) = 0.26996 0.20657
# Poissons Ratio (y) = 0.32480 0.28372
# Poissons Ratio (z) = 0.51226 0.58480
#
# Static dielectric constant tensor:
#      x y z
#    x 1.618370 0.000000 -0.013240 
#    y 0.000000 1.620220 0.000000 
#    z -0.013240 0.000000 1.642010 
# 
# From -- ./inp_files/311312.got.cif
#   From: 2010.05.17/outbox.cif.g08.bks.cpg/sg12_156_cif.got.tgz:311312.got - 2010.06.03 13:09:07.
