data_PCOD9207883
_publ_section_title
;
Structure prediction by ZEFSAII (Michael W. Deem and Ramdas Pophale) SiO2 
 PCOD9207883
Probable space group: C 2/M
;
_chemical_formula_sum "Si O2"
_cell_formula_units_Z 48
_cell_length_a 20.129523
_cell_length_b 16.071225
_cell_length_c 21.640479
_cell_angle_alpha 90.000000
_cell_angle_beta 19.377119
_cell_angle_gamma 90.000000
_cell_volume 2322.765339
_symmetry_space_group_name_H-M "C 2/M"
_symmetry_group_IT_number 12
_symmetry_cell_setting 'monoclinic'
loop_
_space_group_symop_operation_xyz
x,y,z
-x,y,-z
-x,-y,-z
x,-y,z
1/2+x,1/2+y,z
1/2-x,1/2+y,-z
1/2-x,1/2-y,-z
1/2+x,1/2-y,z
loop_
_atom_site_type_symbol
_atom_site_label
_atom_site_fract_x
_atom_site_fract_y
_atom_site_fract_z
Si Si1 0.021050 0.739282 0.409452
Si Si2 0.800472 0.361870 0.325975
Si Si3 0.072141 0.401789 0.269954
Si Si4 0.237249 0.406709 0.780572
Si Si5 0.266783 0.153969 0.000020
Si Si6 0.854018 0.092329 0.409450
O O1 0.797999 0.769788 0.585789
O O2 0.000000 0.715307 0.500000
O O3 0.113991 0.665278 0.287029
O O4 0.151502 0.824883 0.291048
O O5 0.740772 0.400259 0.312917
O O6 0.701197 0.407664 0.470469
O O7 0.037809 0.363534 0.129671
O O8 0.076392 0.500000 0.284030
O O9 0.202770 0.391337 0.092888
O O10 0.847214 0.375945 0.446359
O O11 0.298400 0.500000 0.748064
O O12 0.000000 0.398892 0.000000
O O13 0.250000 0.250000 0.000000
O O14 0.061987 0.135054 0.214219
O O15 0.881445 0.000000 0.361174
#
# Coordination Sequence:
#
# PCOD9207883 Si02
#       6
#     8   8   8   8   8   8
#     4  10  22  41  62  85 121 164 206 253 306 359
#     4  10  22  38  59  92 123 158 198 250 301 371
#     4  10  22  41  62  90 125 160 208 257 301 360
#     4  10  23  40  61  90 123 161 201 249 308 371
#     4  11  22  36  62  92 123 160 200 251 309 365
#     4  10  21  37  60  89 122 157 196 246 305 365
#
# _framework density 20.665023999999999
#
# number of rings (size 3 to 8) (size 9 to 14) (size 15 to 20)
#    0.000    1.833    0.000    3.000    4.667    8.667 
#    0.000    0.000    0.000    0.500    0.000    0.000 
#    0.000    0.000    0.000    0.000    0.000    0.000 
#
# Total GULP energy -133966.781678 kJ/mol
# GULP energy per Si atom -5581.949237 kJ/mol
# Density = 2.061799 g / cm^3
# Si number density = 20.665024 Si / 1000 Ang^3
#
#
#
# Elastic Constant Matrix: (Units=GPa)
#
#
# Indices 1 2 3 4 5 6 
#
# 1 66.9718 54.8754 15.4706 0.0165 0.5763 0.0150
# 2 54.8754 99.6673 35.4491 -0.0038 5.3990 0.0091
# 3 15.4706 35.4491 116.8159 -0.0099 10.3813 0.0495
# 4 0.0165 -0.0038 -0.0099 15.0380 0.0331 -1.7095
# 5 0.5763 5.3990 10.3813 0.0331 16.6848 0.0032
# 6 0.0150 0.0091 0.0495 -1.7095 0.0032 18.5796
#
#
#
# Elastic Compliance Matrix: (Units=1/GPa)
#
#
# Indices 1 2 3 4 5 6 
#
# 1 0.027526 -0.015628 0.000775 -0.000044 0.003624 -0.000021
# 2 -0.015628 0.020160 -0.003722 0.000030 -0.003668 0.000016
# 3 0.000775 -0.003722 0.010038 0.000013 -0.005068 -0.000023
# 4 -0.000044 0.000030 0.000013 0.067202 -0.000151 0.006183
# 5 0.003624 -0.003668 -0.005068 -0.000151 0.064150 -0.000013
# 6 -0.000021 0.000016 -0.000023 0.006183 -0.000013 0.054392
#
#
# Mechanical properties :
#
#
# Convention : Reuss Voigt Hill
#
# Bulk Modulus (GPa) = 48.60383 55.00502 51.80443
# Shear Modulus (GPa) = 17.39278 21.90446 19.64862
#
# Velocity S-wave (km/s) = 2.90427 3.25926 3.08687
# Velocity P-wave (km/s) = 5.90062 6.39054 6.15046
#
# Compressibility (1/GPa) = 0.02057451
#
# Stress axis : x y z
#
# Youngs Moduli (GPa) = 36.32878 49.60248 99.62326
#
# Poissons Ratio (x) = 0.77516 -0.07719
# Poissons Ratio (y) = 0.56773 0.37082
# Poissons Ratio (z) = -0.02815 0.18463
#
# Static dielectric constant tensor:
#      x y z
#    x 2.352100 -0.000510 -1.975850 
#    y -0.000510 1.750520 0.001720 
#    z -1.975850 0.001720 8.409540 
# 
# From -- ./inp_files/317464.got.cif
#   From: 2010.05.17/outbox.cif.g08.bks.cpg/sg12_159_cif.got.tgz:317464.got - 2010.06.03 13:09:07.
