data_PCOD9207418
_publ_section_title
;
Structure prediction by ZEFSAII (Michael W. Deem and Ramdas Pophale) SiO2 
 PCOD9207418
Probable space group: C 2/M
;
_chemical_formula_sum "Si O2"
_cell_formula_units_Z 56
_cell_length_a 24.485766
_cell_length_b 9.386468
_cell_length_c 12.036962
_cell_angle_alpha 90.000000
_cell_angle_beta 69.707165
_cell_angle_gamma 90.000000
_cell_volume 2594.802371
_symmetry_space_group_name_H-M "C 2/M"
_symmetry_group_IT_number 12
_symmetry_cell_setting 'monoclinic'
loop_
_space_group_symop_operation_xyz
x,y,z
-x,y,-z
-x,-y,-z
x,-y,z
1/2+x,1/2+y,z
1/2-x,1/2+y,-z
1/2-x,1/2-y,-z
1/2+x,1/2-y,z
loop_
_atom_site_type_symbol
_atom_site_label
_atom_site_fract_x
_atom_site_fract_y
_atom_site_fract_z
Si Si1 0.549624 0.838398 0.098278
Si Si2 0.953230 0.829276 0.295528
Si Si3 0.790824 0.153365 0.542023
Si Si4 0.084661 0.831312 0.449304
Si Si5 0.617410 0.169804 0.833115
Si Si6 0.757959 0.338825 0.173778
Si Si7 0.146214 0.336725 0.209670
O O1 0.508821 0.726140 0.187988
O O2 0.610739 0.838391 0.120830
O O3 0.525142 0.000000 0.127422
O O4 0.565929 0.812258 0.959235
O O5 0.961841 0.792476 0.421459
O O6 0.900752 0.752684 0.264875
O O7 0.946998 0.000000 0.295150
O O8 0.750000 0.250000 0.500000
O O9 0.857744 0.186599 0.514398
O O10 0.765833 0.148176 0.683728
O O11 0.788171 0.000000 0.489344
O O12 0.103465 0.741287 0.328929
O O13 0.078601 0.000000 0.424588
O O14 0.677049 0.218308 0.851060
O O15 0.624577 0.000000 0.805742
O O16 0.760616 0.500000 0.123782
O O17 0.707984 0.243309 0.153252
O O18 0.156143 0.500000 0.239157
#
# Coordination Sequence:
#
# PCOD9207418 Si02
#       7
#     8   8   8   8   8   8   8
#     4  10  23  41  58  80 114 153 191 233 280 332
#     4  11  23  38  59  87 114 144 189 240 284 329
#     4   9  16  27  45  71 103 136 171 214 265 322
#     4   9  20  37  54  77 112 147 180 227 285 338
#     4  10  21  39  61  83 113 153 189 226 281 341
#     4   9  19  35  55  80 111 147 184 225 279 337
#     4  10  21  37  58  85 114 147 190 233 275 331
#
# _framework density 21.581606000000001
#
# number of rings (size 3 to 8) (size 9 to 14) (size 15 to 20)
#    0.000    2.286    0.000    3.000    0.000    8.571 
#    0.000    2.857    0.000    0.000    0.000    0.000 
#    0.000    0.000    0.000    0.000    0.000    0.000 
#
# Total GULP energy -156197.087054 kJ/mol
# GULP energy per Si atom -5578.467395 kJ/mol
# Density = 2.153249 g / cm^3
# Si number density = 21.581606 Si / 1000 Ang^3
#
#
#
# Elastic Constant Matrix: (Units=GPa)
#
#
# Indices 1 2 3 4 5 6 
#
# 1 69.5464 23.1889 -0.5568 0.0000 -1.4366 0.0000
# 2 23.1889 47.0955 29.0758 0.0000 12.9976 0.0000
# 3 -0.5568 29.0758 87.7951 0.0000 2.6485 0.0000
# 4 0.0000 0.0000 0.0000 22.1557 0.0000 -1.3874
# 5 -1.4366 12.9976 2.6485 0.0000 36.6049 0.0000
# 6 0.0000 0.0000 0.0000 -1.3874 0.0000 27.3793
#
#
#
# Elastic Compliance Matrix: (Units=1/GPa)
#
#
# Indices 1 2 3 4 5 6 
#
# 1 0.019052 -0.013583 0.004461 0.000000 0.005248 0.000000
# 2 -0.013583 0.039585 -0.012784 0.000000 -0.013664 0.000000
# 3 0.004461 -0.012784 0.015544 0.000000 0.003590 0.000000
# 4 0.000000 0.000000 0.000000 0.045279 0.000000 0.002294
# 5 0.005248 -0.013664 0.003590 0.000000 0.032117 0.000000
# 6 0.000000 0.000000 0.000000 0.002294 0.000000 0.036640
#
#
# Mechanical properties :
#
#
# Convention : Reuss Voigt Hill
#
# Bulk Modulus (GPa) = 32.92838 34.20586 33.56712
# Shear Modulus (GPa) = 20.64819 27.40992 24.02906
#
# Velocity S-wave (km/s) = 3.09649 3.56766 3.34039
# Velocity P-wave (km/s) = 5.29859 5.73191 5.51951
#
# Compressibility (1/GPa) = 0.03036894
#
# Stress axis : x y z
#
# Youngs Moduli (GPa) = 52.48752 25.26201 64.33418
#
# Poissons Ratio (x) = 0.34315 -0.28700
# Poissons Ratio (y) = 0.71296 0.82243
# Poissons Ratio (z) = -0.23415 0.32294
#
# Static dielectric constant tensor:
#      x y z
#    x 1.842060 0.000000 -0.093200 
#    y 0.000000 1.762730 0.000000 
#    z -0.093200 0.000000 1.835770 
# 
# From -- ./inp_files/243681.got.cif
#   From: 2010.05.17/outbox.cif.g08.bks.cpg/sg12_122_cif.got.tgz:243681.got - 2010.06.03 13:09:07.
