data_PCOD9207031
_publ_section_title
;
Structure prediction by ZEFSAII (Michael W. Deem and Ramdas Pophale) SiO2 
 PCOD9207031
Probable space group: C 2/M
;
_chemical_formula_sum "Si O2"
_cell_formula_units_Z 56
_cell_length_a 21.342980
_cell_length_b 15.755828
_cell_length_c 9.260994
_cell_angle_alpha 90.000000
_cell_angle_beta 122.660552
_cell_angle_gamma 90.000000
_cell_volume 2621.835215
_symmetry_space_group_name_H-M "C 2/M"
_symmetry_group_IT_number 12
_symmetry_cell_setting 'monoclinic'
loop_
_space_group_symop_operation_xyz
x,y,z
-x,y,-z
-x,-y,-z
x,-y,z
1/2+x,1/2+y,z
1/2-x,1/2+y,-z
1/2-x,1/2-y,-z
1/2+x,1/2-y,z
loop_
_atom_site_type_symbol
_atom_site_label
_atom_site_fract_x
_atom_site_fract_y
_atom_site_fract_z
Si Si1 0.419590 0.399698 0.826697
Si Si2 0.807053 0.826042 0.176082
Si Si3 0.158327 0.596334 0.529652
Si Si4 0.924930 0.327886 0.321625
Si Si5 0.708720 0.310314 0.167761
Si Si6 0.068853 0.901368 0.486090
Si Si7 0.483160 0.102728 0.818537
O O1 0.392896 0.500000 0.794785
O O2 0.367926 0.337671 0.855958
O O3 0.425434 0.366050 0.668977
O O4 0.500000 0.400732 0.000000
O O5 0.866173 0.747944 0.235531
O O6 0.734809 0.785757 0.164036
O O7 0.853874 0.889726 0.332365
O O8 0.788637 0.853090 0.989750
O O9 0.179482 0.500000 0.522481
O O10 0.113463 0.601701 0.625209
O O11 0.229673 0.653287 0.645973
O O12 0.098498 0.629042 0.339364
O O13 0.000000 0.303549 0.500000
O O14 0.953268 0.362139 0.206098
O O15 0.000000 0.871974 0.500000
O O16 0.053659 0.000000 0.442364
O O17 0.483628 0.000000 0.810647
O O18 0.500000 0.130350 0.000000
#
# Coordination Sequence:
#
# PCOD9207031 Si02
#       7
#     8   8   8   8   8   8   8
#     4  10  21  38  62  89 116 152 198 246 296 350
#     4  10  21  37  56  81 115 153 192 236 290 349
#     4   9  17  31  53  78 107 146 184 223 275 333
#     4   9  17  31  51  76 107 144 186 228 274 334
#     4  10  21  37  56  82 117 152 189 234 288 353
#     4  10  21  38  61  87 114 148 196 251 299 347
#     4   9  17  31  53  81 112 145 186 233 276 328
#
# _framework density 21.359085
#
# number of rings (size 3 to 8) (size 9 to 14) (size 15 to 20)
#    0.000    2.429    0.000    2.143    0.000    4.571 
#    0.000   10.714    0.000    5.143    0.000    0.000 
#    0.000    0.571    0.000    0.000    0.000    0.429 
#
# Total GULP energy -156217.349317 kJ/mol
# GULP energy per Si atom -5579.191047 kJ/mol
# Density = 2.131047 g / cm^3
# Si number density = 21.359085 Si / 1000 Ang^3
#
#
#
# Elastic Constant Matrix: (Units=GPa)
#
#
# Indices 1 2 3 4 5 6 
#
# 1 105.8107 21.4672 31.9210 0.0000 -8.4123 0.0000
# 2 21.4672 21.9907 -2.2381 0.0000 -3.7830 0.0000
# 3 31.9210 -2.2381 98.0566 0.0000 -15.7507 0.0000
# 4 0.0000 0.0000 0.0000 23.6243 0.0000 5.8268
# 5 -8.4123 -3.7830 -15.7507 0.0000 34.8249 0.0000
# 6 0.0000 0.0000 0.0000 5.8268 0.0000 11.6579
#
#
#
# Elastic Compliance Matrix: (Units=1/GPa)
#
#
# Indices 1 2 3 4 5 6 
#
# 1 0.013710 -0.013945 -0.004845 0.000000 -0.000394 0.000000
# 2 -0.013945 0.060894 0.006956 0.000000 0.006393 0.000000
# 3 -0.004845 0.006956 0.012797 0.000000 0.005373 0.000000
# 4 0.000000 0.000000 0.000000 0.048281 0.000000 -0.024132
# 5 -0.000394 0.006393 0.005373 0.000000 0.031744 0.000000
# 6 0.000000 0.000000 0.000000 -0.024132 0.000000 0.097840
#
#
# Mechanical properties :
#
#
# Convention : Reuss Voigt Hill
#
# Bulk Modulus (GPa) = 15.68997 36.46203 26.07600
# Shear Modulus (GPa) = 16.11975 25.66862 20.89418
#
# Velocity S-wave (km/s) = 2.75016 3.47041 3.13107
# Velocity P-wave (km/s) = 4.17688 5.75902 5.03054
#
# Compressibility (1/GPa) = 0.06373497
#
# Stress axis : x y z
#
# Youngs Moduli (GPa) = 72.93831 16.42195 78.14202
#
# Poissons Ratio (x) = 0.22900 0.37858
# Poissons Ratio (y) = 1.01710 -0.54357
# Poissons Ratio (z) = 0.35337 -0.11423
#
# Static dielectric constant tensor:
#      x y z
#    x 1.775020 0.000000 0.005720 
#    y 0.000000 1.801560 0.000000 
#    z 0.005720 0.000000 1.774080 
# 
# From -- ./inp_files/88082.got.cif
#   From: 2010.05.17/outbox.cif.g08.bks.cpg/sg12_45_cif.got.tgz:88082.got - 2010.06.03 13:09:07.
