data_PCOD9207411
_publ_section_title
;
Structure prediction by ZEFSAII (Michael W. Deem and Ramdas Pophale) SiO2 
 PCOD9207411
Probable space group: C 2/M
;
_chemical_formula_sum "Si O2"
_cell_formula_units_Z 56
_cell_length_a 14.287619
_cell_length_b 19.908828
_cell_length_c 9.078927
_cell_angle_alpha 90.000000
_cell_angle_beta 101.457417
_cell_angle_gamma 90.000000
_cell_volume 2531.036045
_symmetry_space_group_name_H-M "C 2/M"
_symmetry_group_IT_number 12
_symmetry_cell_setting 'monoclinic'
loop_
_space_group_symop_operation_xyz
x,y,z
-x,y,-z
-x,-y,-z
x,-y,z
1/2+x,1/2+y,z
1/2-x,1/2+y,-z
1/2-x,1/2-y,-z
1/2+x,1/2-y,z
loop_
_atom_site_type_symbol
_atom_site_label
_atom_site_fract_x
_atom_site_fract_y
_atom_site_fract_z
Si Si1 0.563875 0.610200 0.326557
Si Si2 0.238616 0.074252 0.564422
Si Si3 0.140032 0.576047 0.688595
Si Si4 0.636659 0.340898 0.759870
Si Si5 0.170821 0.241555 0.348335
Si Si6 0.482173 0.204041 0.321170
Si Si7 0.812812 0.137004 0.889273
O O1 0.639876 0.567815 0.440039
O O2 0.451416 0.608176 0.305208
O O3 0.599476 0.683777 0.389976
O O4 0.592408 0.609917 0.163668
O O5 0.317297 0.090688 0.462868
O O6 0.220335 0.133497 0.676868
O O7 0.259405 0.000000 0.634267
O O8 0.103834 0.500000 0.677076
O O9 0.067532 0.632653 0.717414
O O10 0.230320 0.584911 0.824445
O O11 0.588388 0.266767 0.737329
O O12 0.789609 0.204901 0.786093
O O13 0.671182 0.350005 0.936737
O O14 0.250000 0.250000 0.500000
O O15 0.087604 0.293709 0.281431
O O16 0.500000 0.206335 0.500000
#
# Coordination Sequence:
#
# PCOD9207411 Si02
#       7
#     8   8   8   8   8   8   8
#     4   8  18  33  56  84 125 166 203 270 316 396
#     4  10  21  37  58  84 125 177 222 271 324 389
#     4  10  23  44  63  90 130 177 230 272 320 389
#     4  11  20  35  58  99 130 164 219 271 342 404
#     4   9  18  36  62  92 122 158 205 262 330 388
#     4  11  23  36  65  98 128 169 211 277 331 390
#     4   9  20  36  62  88 129 169 207 275 330 397
#
# _framework density 22.125326000000001
#
# number of rings (size 3 to 8) (size 9 to 14) (size 15 to 20)
#    0.857    1.429    0.000    3.429    0.000    3.143 
#    0.000    0.000    3.143    4.286    0.000    2.000 
#    0.000    6.857    0.000    0.000    0.000    0.000 
#
# Total GULP energy -155961.884048 kJ/mol
# GULP energy per Si atom -5570.067287 kJ/mol
# Density = 2.207497 g / cm^3
# Si number density = 22.125326 Si / 1000 Ang^3
#
#
#
# Elastic Constant Matrix: (Units=GPa)
#
#
# Indices 1 2 3 4 5 6 
#
# 1 83.3095 44.3030 8.3339 0.0000 2.0708 0.0000
# 2 44.3030 102.8603 25.7565 0.0000 -3.4411 0.0000
# 3 8.3339 25.7565 80.2510 0.0000 -10.9760 0.0000
# 4 0.0000 0.0000 0.0000 10.1303 0.0000 -10.6056
# 5 2.0708 -3.4411 -10.9760 0.0000 13.5552 0.0000
# 6 0.0000 0.0000 0.0000 -10.6056 0.0000 -90.0990
#
#
#
# Elastic Compliance Matrix: (Units=1/GPa)
#
#
# Indices 1 2 3 4 5 6 
#
# 1 0.015801 -0.006950 0.000021 0.000000 -0.004162 0.000000
# 2 -0.006950 0.013628 -0.003412 0.000000 0.001759 0.000000
# 3 0.000021 -0.003412 0.015108 0.000000 0.011364 0.000000
# 4 0.000000 0.000000 0.000000 0.087883 0.000000 -0.010345
# 5 -0.004162 0.001759 0.011364 0.000000 0.084057 0.000000
# 6 0.000000 0.000000 0.000000 -0.010345 0.000000 -0.009881
#
#
# Mechanical properties :
#
#
# Convention : Reuss Voigt Hill
#
# Bulk Modulus (GPa) = 41.91997 47.02306 44.47152
# Shear Modulus (GPa) = 21.25580 -0.74754 10.25413
#
# Velocity S-wave (km/s) = 3.10288 -0.58189 2.15514
# Velocity P-wave (km/s) = 5.64135 4.56593 5.13189
#
# Compressibility (1/GPa) = 0.02385498
#
# Stress axis : x y z
#
# Youngs Moduli (GPa) = 63.28842 73.37583 66.18973
#
# Poissons Ratio (x) = 0.50995 -0.00136
# Poissons Ratio (y) = 0.43985 0.22582
# Poissons Ratio (z) = -0.00130 0.25034
#
# Static dielectric constant tensor:
#      x y z
#    x 1.927430 0.000000 -0.023450 
#    y 0.000000 1.997120 0.000000 
#    z -0.023450 0.000000 1.787100 
# 
# From -- ./inp_files/147153.got.cif
#   From: 2010.05.17/outbox.cif.g08.bks.cpg/sg12_74_cif.got.tgz:147153.got - 2010.06.03 13:09:07.
