data_PCOD9207078
_publ_section_title
;
Structure prediction by ZEFSAII (Michael W. Deem and Ramdas Pophale) SiO2 
 PCOD9207078
Probable space group: C 2/M
;
_chemical_formula_sum "Si O2"
_cell_formula_units_Z 48
_cell_length_a 21.277538
_cell_length_b 11.025507
_cell_length_c 12.761656
_cell_angle_alpha 90.000000
_cell_angle_beta 132.620514
_cell_angle_gamma 90.000000
_cell_volume 2203.023055
_symmetry_space_group_name_H-M "C 2/M"
_symmetry_group_IT_number 12
_symmetry_cell_setting 'monoclinic'
loop_
_space_group_symop_operation_xyz
x,y,z
-x,y,-z
-x,-y,-z
x,-y,z
1/2+x,1/2+y,z
1/2-x,1/2+y,-z
1/2-x,1/2-y,-z
1/2+x,1/2-y,z
loop_
_atom_site_type_symbol
_atom_site_label
_atom_site_fract_x
_atom_site_fract_y
_atom_site_fract_z
Si Si1 0.683000 0.219865 0.515525
Si Si2 0.970783 0.131289 0.588360
Si Si3 0.940318 0.638678 0.796050
Si Si4 0.369263 0.852318 0.934994
Si Si5 0.746753 0.864646 0.806631
Si Si6 0.945080 0.631041 0.328932
O O1 0.750000 0.250000 0.500000
O O2 0.628347 0.330424 0.506164
O O3 0.609924 0.150427 0.368303
O O4 0.724063 0.147571 0.657277
O O5 0.000000 0.121966 0.500000
O O6 0.027350 0.243079 0.690884
O O7 0.985069 0.000000 0.654003
O O8 0.949373 0.500000 0.834593
O O9 0.881201 0.682792 0.825350
O O10 0.037738 0.680644 0.913970
O O11 0.299982 0.755530 0.897567
O O12 0.351120 0.000000 0.926884
O O13 0.654474 0.862206 0.757640
O O14 0.784643 0.000000 0.868485
O O15 0.959904 0.500000 0.292113
O O16 0.000000 0.626535 0.500000
#
# Coordination Sequence:
#
# PCOD9207078 Si02
#       6
#     8   8   8   8   8   8
#     4  12  22  35  57  94 129 153 191 254 313 354
#     4  10  21  37  56  84 122 162 199 241 298 358
#     4   9  19  36  57  79 115 165 207 241 290 363
#     4   9  19  38  58  79 114 165 210 239 288 362
#     4  11  21  34  57  89 119 150 192 246 304 357
#     4   9  17  33  54  79 110 151 193 232 287 359
#
# _framework density 21.788243000000001
#
# number of rings (size 3 to 8) (size 9 to 14) (size 15 to 20)
#    0.000    2.000    5.000    1.500    0.000    3.333 
#    0.000    2.500    0.000    1.000    0.000    0.000 
#    0.000    0.000    0.000    0.000    0.000    0.000 
#
# Total GULP energy -133614.691618 kJ/mol
# GULP energy per Si atom -5567.278817 kJ/mol
# Density = 2.173865 g / cm^3
# Si number density = 21.788243 Si / 1000 Ang^3
#
#
#
# Elastic Constant Matrix: (Units=GPa)
#
#
# Indices 1 2 3 4 5 6 
#
# 1 95.1127 49.5526 3.0485 0.0000 28.8662 0.0000
# 2 49.5526 177.8713 24.6409 0.0000 30.8611 0.0000
# 3 3.0485 24.6409 46.9217 0.0000 13.3393 0.0000
# 4 0.0000 0.0000 0.0000 14.3070 0.0000 14.3882
# 5 28.8662 30.8611 13.3393 0.0000 40.4660 0.0000
# 6 0.0000 0.0000 0.0000 14.3882 0.0000 22.1487
#
#
#
# Elastic Compliance Matrix: (Units=1/GPa)
#
#
# Indices 1 2 3 4 5 6 
#
# 1 0.014789 -0.002943 0.003250 0.000000 -0.009376 0.000000
# 2 -0.002943 0.007279 -0.002924 0.000000 -0.002487 0.000000
# 3 0.003250 -0.002924 0.025005 0.000000 -0.008331 0.000000
# 4 0.000000 0.000000 0.000000 0.201605 0.000000 -0.130966
# 5 -0.009376 -0.002487 -0.008331 0.000000 0.036044 0.000000
# 6 0.000000 0.000000 0.000000 -0.130966 0.000000 0.130228
#
#
# Mechanical properties :
#
#
# Convention : Reuss Voigt Hill
#
# Bulk Modulus (GPa) = 23.90143 52.70998 38.30570
# Shear Modulus (GPa) = 11.51730 31.56190 21.53960
#
# Velocity S-wave (km/s) = 2.30163 3.81014 3.14759
# Velocity P-wave (km/s) = 4.24935 6.60308 5.55237
#
# Compressibility (1/GPa) = 0.04183851
#
# Stress axis : x y z
#
# Youngs Moduli (GPa) = 67.61876 137.38698 39.99201
#
# Poissons Ratio (x) = 0.40439 -0.12999
# Poissons Ratio (y) = 0.19903 0.11694
# Poissons Ratio (z) = -0.21979 0.40172
#
# Static dielectric constant tensor:
#      x y z
#    x 1.974070 0.000000 -0.042280 
#    y 0.000000 1.836250 0.000000 
#    z -0.042280 0.000000 1.838090 
# 
# From -- ./inp_files/232861.got.cif
#   From: 2010.05.17/outbox.cif.g08.bks.cpg/sg12_117_cif.got.tgz:232861.got - 2010.06.03 13:09:07.
