data_PCOD9207151
_publ_section_title
;
Structure prediction by ZEFSAII (Michael W. Deem and Ramdas Pophale) SiO2 
 PCOD9207151
Probable space group: C 2/M
;
_chemical_formula_sum "Si O2"
_cell_formula_units_Z 48
_cell_length_a 32.556402
_cell_length_b 8.908239
_cell_length_c 16.274614
_cell_angle_alpha 90.000000
_cell_angle_beta 33.347808
_cell_angle_gamma 90.000000
_cell_volume 2594.660386
_symmetry_space_group_name_H-M "C 2/M"
_symmetry_group_IT_number 12
_symmetry_cell_setting 'monoclinic'
loop_
_space_group_symop_operation_xyz
x,y,z
-x,y,-z
-x,-y,-z
x,-y,z
1/2+x,1/2+y,z
1/2-x,1/2+y,-z
1/2-x,1/2-y,-z
1/2+x,1/2-y,z
loop_
_atom_site_type_symbol
_atom_site_label
_atom_site_fract_x
_atom_site_fract_y
_atom_site_fract_z
Si Si1 0.802351 0.679306 0.295687
Si Si2 0.225394 0.680170 0.127552
Si Si3 0.430906 0.319202 0.555852
Si Si4 0.645496 0.680499 0.958870
Si Si5 0.520458 0.680621 0.709715
Si Si6 0.852717 0.679319 0.393518
O O1 0.795613 0.500000 0.301402
O O2 0.842862 0.743574 0.148434
O O3 0.844711 0.716118 0.310158
O O4 0.720007 0.750442 0.441277
O O5 0.224093 0.500000 0.123338
O O6 0.144763 0.741056 0.288809
O O7 0.286888 0.722047 0.093477
O O8 0.250000 0.750000 0.000000
O O9 0.500000 0.281758 0.500000
O O10 0.420648 0.500000 0.576398
O O11 0.452159 0.277351 0.427179
O O12 0.647063 0.500000 0.946182
O O13 0.565785 0.721394 0.131317
O O14 0.526404 0.500000 0.706412
O O15 0.573699 0.755386 0.687859
O O16 0.850537 0.500000 0.405865
#
# Coordination Sequence:
#
# PCOD9207151 Si02
#       6
#     8   8   8   8   8   8
#     4  10  21  37  58  83 111 147 189 231 280 335
#     4  11  23  39  60  86 115 147 186 230 277 329
#     4  10  21  39  61  84 114 149 185 229 279 330
#     4  10  22  39  58  83 115 149 186 230 278 329
#     4  10  21  37  58  83 112 149 189 227 276 335
#     4  10  21  37  57  82 113 147 186 234 282 330
#
# _framework density 18.499531000000001
#
# number of rings (size 3 to 8) (size 9 to 14) (size 15 to 20)
#    0.000    1.833    0.000    3.500    0.000   11.000 
#    0.000    5.000    0.000    0.000    0.000    0.000 
#    0.000    0.000    0.000    0.000    0.000    0.000 
#
# Total GULP energy -134132.639615 kJ/mol
# GULP energy per Si atom -5588.859984 kJ/mol
# Density = 1.845743 g / cm^3
# Si number density = 18.499531 Si / 1000 Ang^3
#
#
#
# Elastic Constant Matrix: (Units=GPa)
#
#
# Indices 1 2 3 4 5 6 
#
# 1 130.4538 49.7600 94.3662 0.0000 -18.0159 0.0000
# 2 49.7600 33.3244 58.7613 0.0001 -2.5236 0.0000
# 3 94.3662 58.7613 182.1351 0.0000 -0.0998 0.0000
# 4 0.0000 0.0001 0.0000 37.3295 0.0000 -1.1782
# 5 -18.0159 -2.5236 -0.0998 0.0000 34.1861 0.0000
# 6 0.0000 0.0000 0.0000 -1.1782 0.0000 30.2338
#
#
#
# Elastic Compliance Matrix: (Units=1/GPa)
#
#
# Indices 1 2 3 4 5 6 
#
# 1 0.020298 -0.025766 -0.002199 0.000000 0.008789 0.000000
# 2 -0.025766 0.103204 -0.019950 0.000000 -0.006018 0.000000
# 3 -0.002199 -0.019950 0.013065 0.000000 -0.002593 0.000000
# 4 0.000000 0.000000 0.000000 0.026821 0.000000 0.001045
# 5 0.008789 -0.006018 -0.002593 0.000000 0.033431 0.000000
# 6 0.000000 0.000000 0.000000 0.001045 0.000000 0.033116
#
#
# Mechanical properties :
#
#
# Convention : Reuss Voigt Hill
#
# Bulk Modulus (GPa) = 24.54777 83.52092 54.03434
# Shear Modulus (GPa) = 14.73431 29.88493 22.30962
#
# Velocity S-wave (km/s) = 2.82524 4.02362 3.47645
# Velocity P-wave (km/s) = 4.89294 8.17506 6.73693
#
# Compressibility (1/GPa) = 0.04073690
#
# Stress axis : x y z
#
# Youngs Moduli (GPa) = 49.26557 9.68958 76.54202
#
# Poissons Ratio (x) = 0.24966 0.16833
# Poissons Ratio (y) = 1.26937 1.52699
# Poissons Ratio (z) = 0.10834 0.19330
#
# Static dielectric constant tensor:
#      x y z
#    x 1.619210 0.000000 0.003650 
#    y 0.000000 1.620220 0.000000 
#    z 0.003650 0.000000 1.602840 
# 
# From -- ./inp_files/248774.got.cif
#   From: 2010.05.17/outbox.cif.g08.bks.cpg/sg12_125_cif.got.tgz:248774.got - 2010.06.03 13:09:07.
