data_PCOD9207943
_publ_section_title
;
Structure prediction by ZEFSAII (Michael W. Deem and Ramdas Pophale) SiO2 
 PCOD9207943
Probable space group: C 2/M
;
_chemical_formula_sum "Si O2"
_cell_formula_units_Z 48
_cell_length_a 22.866934
_cell_length_b 10.667482
_cell_length_c 9.280635
_cell_angle_alpha 90.000000
_cell_angle_beta 97.199198
_cell_angle_gamma 90.000000
_cell_volume 2246.002331
_symmetry_space_group_name_H-M "C 2/M"
_symmetry_group_IT_number 12
_symmetry_cell_setting 'monoclinic'
loop_
_space_group_symop_operation_xyz
x,y,z
-x,y,-z
-x,-y,-z
x,-y,z
1/2+x,1/2+y,z
1/2-x,1/2+y,-z
1/2-x,1/2-y,-z
1/2+x,1/2-y,z
loop_
_atom_site_type_symbol
_atom_site_label
_atom_site_fract_x
_atom_site_fract_y
_atom_site_fract_z
Si Si1 0.321899 0.650177 0.917761
Si Si2 0.704890 0.865274 0.500914
Si Si3 0.597873 0.634632 0.618848
Si Si4 0.806315 0.741008 0.216550
Si Si5 0.899265 0.753585 0.693088
Si Si6 0.981052 0.639516 0.325328
O O1 0.313853 0.500000 0.943185
O O2 0.262164 0.709621 0.831883
O O3 0.373728 0.671436 0.819712
O O4 0.331070 0.731764 0.065118
O O5 0.750000 0.750000 0.500000
O O6 0.678907 0.861166 0.655690
O O7 0.651226 0.843055 0.375482
O O8 0.733251 0.000000 0.487841
O O9 0.572037 0.500000 0.646962
O O10 0.666016 0.641279 0.688800
O O11 0.592882 0.659998 0.446826
O O12 0.565466 0.747694 0.691230
O O13 0.960134 0.682342 0.739061
O O14 0.961147 0.500000 0.276325
O O15 0.000000 0.632796 0.500000
#
# Coordination Sequence:
#
# PCOD9207943 Si02
#       6
#     8   8   8   8   8   8
#     4  11  22  39  59  87 125 165 205 249 304 366
#     4  11  22  38  60  89 121 156 199 248 299 357
#     4  10  21  37  61  90 118 154 203 254 306 360
#     4  10  23  39  56  86 123 166 197 246 302 366
#     4  10  21  37  60  92 120 156 200 255 303 362
#     4   9  19  37  60  86 118 155 197 248 307 363
#
# _framework density 21.371303999999999
#
# number of rings (size 3 to 8) (size 9 to 14) (size 15 to 20)
#    0.000    1.833    1.667    2.000    0.000   11.667 
#    0.000    3.333    0.000    3.000    0.000    0.000 
#    0.000    0.000    0.000    0.000    0.000    0.000 
#
# Total GULP energy -133621.535242 kJ/mol
# GULP energy per Si atom -5567.563968 kJ/mol
# Density = 2.132266 g / cm^3
# Si number density = 21.371304 Si / 1000 Ang^3
#
#
#
# Elastic Constant Matrix: (Units=GPa)
#
#
# Indices 1 2 3 4 5 6 
#
# 1 85.2646 64.7894 21.9888 0.0000 -25.6995 0.0000
# 2 64.7894 180.1065 25.0473 0.0000 -12.6419 0.0000
# 3 21.9888 25.0473 75.8307 0.0000 -14.1041 0.0000
# 4 0.0000 0.0000 0.0000 -10.6819 0.0000 -16.6601
# 5 -25.6995 -12.6419 -14.1041 0.0000 24.6290 0.0000
# 6 0.0000 0.0000 0.0000 -16.6601 0.0000 19.1903
#
#
#
# Elastic Compliance Matrix: (Units=1/GPa)
#
#
# Indices 1 2 3 4 5 6 
#
# 1 0.023227 -0.006831 -0.000697 0.000000 0.020330 0.000000
# 2 -0.006831 0.007929 -0.001351 0.000000 -0.003832 0.000000
# 3 -0.000697 -0.001351 0.015189 0.000000 0.007277 0.000000
# 4 0.000000 0.000000 0.000000 -0.039769 0.000000 -0.034525
# 5 0.020330 -0.003832 0.007277 0.000000 0.064017 0.000000
# 6 0.000000 0.000000 0.000000 -0.034525 0.000000 0.022137
#
#
# Mechanical properties :
#
#
# Convention : Reuss Voigt Hill
#
# Bulk Modulus (GPa) = 34.98252 62.76144 48.87198
# Shear Modulus (GPa) = 41.66097 21.91921 31.79009
#
# Velocity S-wave (km/s) = 4.41998 3.20603 3.86101
# Velocity P-wave (km/s) = 6.51558 6.56778 6.54173
#
# Compressibility (1/GPa) = 0.02858571
#
# Stress axis : x y z
#
# Youngs Moduli (GPa) = 43.05407 126.12661 65.83638
#
# Poissons Ratio (x) = 0.86161 0.04591
# Poissons Ratio (y) = 0.29411 0.08893
# Poissons Ratio (z) = 0.03002 0.17036
#
# Static dielectric constant tensor:
#      x y z
#    x 1.841790 0.000000 -0.021100 
#    y 0.000000 1.819780 0.000000 
#    z -0.021100 0.000000 1.790580 
# 
# From -- ./inp_files/94429.got.cif
#   From: 2010.05.17/outbox.cif.g08.bks.cpg/sg12_48_cif.got.tgz:94429.got - 2010.06.03 13:09:07.
