data_PCOD9207287
_publ_section_title
;
Structure prediction by ZEFSAII (Michael W. Deem and Ramdas Pophale) SiO2 
 PCOD9207287
Probable space group: C 2/M
;
_chemical_formula_sum "Si O2"
_cell_formula_units_Z 56
_cell_length_a 20.515078
_cell_length_b 21.334180
_cell_length_c 17.002145
_cell_angle_alpha 90.000000
_cell_angle_beta 159.959417
_cell_angle_gamma 90.000000
_cell_volume 2550.050375
_symmetry_space_group_name_H-M "C 2/M"
_symmetry_group_IT_number 12
_symmetry_cell_setting 'monoclinic'
loop_
_space_group_symop_operation_xyz
x,y,z
-x,y,-z
-x,-y,-z
x,-y,z
1/2+x,1/2+y,z
1/2-x,1/2+y,-z
1/2-x,1/2-y,-z
1/2+x,1/2-y,z
loop_
_atom_site_type_symbol
_atom_site_label
_atom_site_fract_x
_atom_site_fract_y
_atom_site_fract_z
Si Si1 0.304165 0.075772 0.243535
Si Si2 0.457745 0.240287 0.198828
Si Si3 0.008515 0.606604 0.697938
Si Si4 0.520730 0.833237 0.934874
Si Si5 0.230331 0.072156 0.864712
Si Si6 0.384700 0.625907 0.577538
Si Si7 0.402372 0.572920 0.772205
O O1 0.500000 0.102657 0.500000
O O2 0.327656 0.093245 0.178674
O O3 0.311463 0.000000 0.261345
O O4 0.095079 0.101328 0.027449
O O5 0.531132 0.178462 0.325997
O O6 0.456746 0.220742 0.106006
O O7 0.570662 0.302493 0.346992
O O8 0.250000 0.250000 0.000000
O O9 0.809980 0.583140 0.437866
O O10 0.093741 0.575670 0.873252
O O11 0.326170 0.871542 0.697070
O O12 0.500000 0.809371 0.000000
O O13 0.697970 0.880723 0.121966
O O14 0.045177 0.099589 0.700070
O O15 0.200421 0.000000 0.807501
O O16 0.388396 0.588933 0.663897
O O17 0.434459 0.500000 0.817090
#
# Coordination Sequence:
#
# PCOD9207287 Si02
#       7
#     8   8   8   8   8   8   8
#     4  10  21  37  57  87 131 169 205 267 335 385
#     4  11  21  44  69  93 127 174 226 274 326 396
#     4  11  21  36  62  92 122 165 219 270 320 392
#     4  11  26  44  66 100 140 174 215 283 347 392
#     4  11  22  40  68 100 133 174 224 273 329 407
#     4  12  22  41  71  94 126 175 230 268 330 392
#     4  11  21  35  62  95 123 164 221 270 319 393
#
# _framework density 21.960350999999999
#
# number of rings (size 3 to 8) (size 9 to 14) (size 15 to 20)
#    0.000    1.000    7.143    2.143    0.000    2.000 
#    0.000    5.714    0.000    0.000    0.000    0.000 
#    0.000    0.000    0.000    0.000    0.000    0.000 
#
# Total GULP energy -156290.552227 kJ/mol
# GULP energy per Si atom -5581.805437 kJ/mol
# Density = 2.191037 g / cm^3
# Si number density = 21.960351 Si / 1000 Ang^3
#
#
#
# Elastic Constant Matrix: (Units=GPa)
#
#
# Indices 1 2 3 4 5 6 
#
# 1 144.8997 16.1449 13.1117 0.0000 31.0025 0.0000
# 2 16.1449 75.5751 -15.0970 0.0000 16.8810 0.0000
# 3 13.1117 -15.0970 111.5307 0.0001 25.3322 0.0000
# 4 0.0000 0.0000 0.0001 8.6613 0.0000 18.3849
# 5 31.0025 16.8810 25.3322 0.0000 36.4663 0.0000
# 6 0.0000 0.0000 0.0000 18.3849 0.0000 23.4447
#
#
#
# Elastic Compliance Matrix: (Units=1/GPa)
#
#
# Indices 1 2 3 4 5 6 
#
# 1 0.008490 0.000087 0.000786 0.000000 -0.007804 0.000000
# 2 0.000087 0.016640 0.004759 0.000000 -0.011083 0.000000
# 3 0.000786 0.004759 0.012075 0.000000 -0.011260 0.000000
# 4 0.000000 0.000000 0.000000 -0.173736 0.000000 0.136241
# 5 -0.007804 -0.011083 -0.011260 0.000000 0.047010 0.000000
# 6 0.000000 0.000000 0.000000 0.136241 0.000000 -0.064184
#
#
# Mechanical properties :
#
#
# Convention : Reuss Voigt Hill
#
# Bulk Modulus (GPa) = 20.63140 40.03609 30.33374
# Shear Modulus (GPa) = -33.59932 34.90418 0.65243
#
# Velocity S-wave (km/s) = -3.91576 3.99108 0.54566
# Velocity P-wave (km/s) = 3.32100 6.28561 3.77358
#
# Compressibility (1/GPa) = 0.04846981
#
# Stress axis : x y z
#
# Youngs Moduli (GPa) = 117.78050 60.09752 82.81239
#
# Poissons Ratio (x) = -0.00520 -0.06511
# Poissons Ratio (y) = -0.01019 -0.39414
# Poissons Ratio (z) = -0.09260 -0.28603
#
# Static dielectric constant tensor:
#      x y z
#    x 1.883320 0.000000 0.028930 
#    y 0.000000 1.850800 0.000000 
#    z 0.028930 0.000000 1.865160 
# 
# From -- ./inp_files/286053.got.cif
#   From: 2010.05.17/outbox.cif.g08.bks.cpg/sg12_144_cif.got.tgz:286053.got - 2010.06.03 13:09:07.
