data_PCOD9207534
_publ_section_title
;
Structure prediction by ZEFSAII (Michael W. Deem and Ramdas Pophale) SiO2 
 PCOD9207534
Probable space group: C 2/M
;
_chemical_formula_sum "Si O2"
_cell_formula_units_Z 58
_cell_length_a 29.182759
_cell_length_b 9.006382
_cell_length_c 24.406692
_cell_angle_alpha 90.000000
_cell_angle_beta 29.756363
_cell_angle_gamma 90.000000
_cell_volume 3183.766526
_symmetry_space_group_name_H-M "C 2/M"
_symmetry_group_IT_number 12
_symmetry_cell_setting 'monoclinic'
loop_
_space_group_symop_operation_xyz
x,y,z
-x,y,-z
-x,-y,-z
x,-y,z
1/2+x,1/2+y,z
1/2-x,1/2+y,-z
1/2-x,1/2-y,-z
1/2+x,1/2-y,z
loop_
_atom_site_type_symbol
_atom_site_label
_atom_site_fract_x
_atom_site_fract_y
_atom_site_fract_z
Si Si1 0.110423 0.831669 0.885852
Si Si2 0.705225 0.669741 0.495465
Si Si3 0.305509 0.823001 0.096017
Si Si4 0.453436 0.322303 0.866058
Si Si5 0.619034 0.828245 0.763074
Si Si6 0.888051 0.664118 0.710268
Si Si7 0.501046 0.678247 0.308069
Si Si8 0.000000 0.500000 0.500000
O O1 0.143979 0.734565 0.901677
O O2 0.133703 0.756272 0.804445
O O3 0.147489 0.000000 0.852050
O O4 0.000000 0.839701 0.000000
O O5 0.687527 0.500000 0.530645
O O6 0.750000 0.750000 0.500000
O O7 0.782727 0.672814 0.368884
O O8 0.605989 0.728973 0.580605
O O9 0.200964 0.764882 0.207984
O O10 0.308934 0.000000 0.088290
O O11 0.362282 0.749581 0.987040
O O12 0.453826 0.500000 0.874816
O O13 0.541415 0.251665 0.806481
O O14 0.462368 0.294698 0.791708
O O15 0.590622 0.000000 0.801333
O O16 0.853876 0.500000 0.763357
O O17 0.945259 0.736832 0.700218
O O18 0.951133 0.627875 0.591402
O O19 0.505916 0.500000 0.312817
#
# Coordination Sequence:
#
# PCOD9207534 Si02
#       8
#     8   8   8   8   8   8   8   2
#     4  11  23  39  61  89 126 173 218 266 323 383
#     4  10  21  37  58  89 129 170 217 266 321 382
#     4  12  25  42  67  96 131 169 214 271 329 388
#     4  11  22  38  63  94 133 175 214 265 325 391
#     4  11  22  36  58  91 130 171 221 267 323 386
#     4  10  23  46  71  94 127 163 215 264 320 383
#     4  10  22  41  65  95 132 172 220 270 324 384
#     4   8  24  48  74  96 126 164 222 270 316 378
#
# _framework density 18.217416
#
# number of rings (size 3 to 8) (size 9 to 14) (size 15 to 20)
#    0.414    0.966    2.759    2.897    0.000    4.414 
#    0.000    2.759    0.000    0.000    0.000    0.000 
#    0.000    0.000    0.000    0.000    0.000    0.000 
#
# Total GULP energy -161589.870674 kJ/mol
# GULP energy per Si atom -5572.064506 kJ/mol
# Density = 1.817595 g / cm^3
# Si number density = 18.217416 Si / 1000 Ang^3
#
#
#
# Elastic Constant Matrix: (Units=GPa)
#
#
# Indices 1 2 3 4 5 6 
#
# 1 87.1469 50.5958 55.0285 -0.0021 -6.3923 -0.0009
# 2 50.5958 122.3987 56.7849 -0.0046 4.8411 -0.0114
# 3 55.0285 56.7849 98.3190 -0.0037 3.1201 -0.0155
# 4 -0.0021 -0.0046 -0.0037 33.3964 -0.0004 8.4855
# 5 -6.3923 4.8411 3.1201 -0.0004 27.6081 0.0051
# 6 -0.0009 -0.0114 -0.0155 8.4855 0.0051 78.4638
#
#
#
# Elastic Compliance Matrix: (Units=1/GPa)
#
#
# Indices 1 2 3 4 5 6 
#
# 1 0.020167 -0.004453 -0.008920 0.000000 0.006458 -0.000003
# 2 -0.004453 0.012186 -0.004461 0.000001 -0.002664 0.000001
# 3 -0.008920 -0.004461 0.017845 0.000000 -0.003300 0.000003
# 4 0.000000 0.000001 0.000000 0.030789 0.000001 -0.003330
# 5 0.006458 -0.002664 -0.003300 0.000001 0.038557 -0.000004
# 6 -0.000003 0.000001 0.000003 -0.003330 -0.000004 0.013105
#
#
# Mechanical properties :
#
#
# Convention : Reuss Voigt Hill
#
# Bulk Modulus (GPa) = 68.83071 70.29812 69.56441
# Shear Modulus (GPa) = 28.87510 37.59068 33.23289
#
# Velocity S-wave (km/s) = 3.98556 4.54745 4.27574
# Velocity P-wave (km/s) = 7.68404 8.13908 7.91483
#
# Compressibility (1/GPa) = 0.01452840
#
# Stress axis : x y z
#
# Youngs Moduli (GPa) = 49.58676 82.06220 56.03924
#
# Poissons Ratio (x) = 0.36546 0.49987
# Poissons Ratio (y) = 0.22083 0.24999
# Poissons Ratio (z) = 0.44231 0.36608
#
# Static dielectric constant tensor:
#      x y z
#    x 1.581420 0.000000 -0.026820 
#    y 0.000000 1.634300 0.000000 
#    z -0.026820 0.000000 1.638800 
# 
# From -- ./inp_files/351395.got.cif
#   From: 2010.05.17/outbox.cif.g08.bks.cpg/sg12_176_cif.got.tgz:351395.got - 2010.06.03 13:09:07.
