data_PCOD9207420
_publ_section_title
;
Structure prediction by ZEFSAII (Michael W. Deem and Ramdas Pophale) SiO2 
 PCOD9207420
Probable space group: C 2/M
;
_chemical_formula_sum "Si O2"
_cell_formula_units_Z 48
_cell_length_a 27.515963
_cell_length_b 8.772924
_cell_length_c 15.589361
_cell_angle_alpha 90.000000
_cell_angle_beta 139.075376
_cell_angle_gamma 90.000000
_cell_volume 2465.143407
_symmetry_space_group_name_H-M "C 2/M"
_symmetry_group_IT_number 12
_symmetry_cell_setting 'monoclinic'
loop_
_space_group_symop_operation_xyz
x,y,z
-x,y,-z
-x,-y,-z
x,-y,z
1/2+x,1/2+y,z
1/2-x,1/2+y,-z
1/2-x,1/2-y,-z
1/2+x,1/2-y,z
loop_
_atom_site_type_symbol
_atom_site_label
_atom_site_fract_x
_atom_site_fract_y
_atom_site_fract_z
Si Si1 0.442638 0.682568 0.499089
Si Si2 0.536790 0.316369 0.139863
Si Si3 0.209694 0.816519 0.363825
Si Si4 0.191257 0.182713 0.988447
Si Si5 0.028257 0.318370 0.773333
Si Si6 0.219356 0.683520 0.721789
O O1 0.500000 0.724509 0.500000
O O2 0.441591 0.500000 0.505211
O O3 0.472517 0.753422 0.627280
O O4 0.360454 0.742014 0.369215
O O5 0.530350 0.500000 0.142428
O O6 0.623274 0.275030 0.251084
O O7 0.498086 0.237001 0.168465
O O8 0.500000 0.277275 0.000000
O O9 0.250000 0.750000 0.500000
O O10 0.248205 0.766578 0.326707
O O11 0.213955 0.000000 0.371904
O O12 0.222820 0.218552 0.125339
O O13 0.186874 0.000000 0.973711
O O14 0.250000 0.250000 0.000000
O O15 0.110411 0.253105 0.866687
O O16 0.029113 0.500000 0.769951
O O17 0.210167 0.500000 0.708143
#
# Coordination Sequence:
#
# PCOD9207420 Si02
#       6
#     8   8   8   8   8   8
#     4  11  24  41  62  88 119 157 202 251 302 359
#     4  10  21  40  64  87 116 157 202 248 301 357
#     4  10  21  37  58  85 115 150 191 236 290 350
#     4  11  23  41  64  90 122 159 200 247 301 360
#     4  12  25  40  61  90 124 161 203 250 299 357
#     4  10  22  40  62  88 119 155 195 242 299 361
#
# _framework density 19.471485000000001
#
# number of rings (size 3 to 8) (size 9 to 14) (size 15 to 20)
#    0.000    1.333    0.000    5.500    0.000   12.333 
#    0.000    1.667    0.000    0.000    0.000    0.000 
#    0.000    0.000    0.000    0.000    0.000    0.000 
#
# Total GULP energy -134280.220862 kJ/mol
# GULP energy per Si atom -5595.009203 kJ/mol
# Density = 1.942717 g / cm^3
# Si number density = 19.471485 Si / 1000 Ang^3
#
#
#
# Elastic Constant Matrix: (Units=GPa)
#
#
# Indices 1 2 3 4 5 6 
#
# 1 56.8432 9.8569 -22.8739 0.0000 -0.1752 0.0000
# 2 9.8569 34.3650 14.9819 0.0000 -1.9659 0.0000
# 3 -22.8739 14.9819 68.7878 0.0000 1.3630 0.0000
# 4 0.0000 0.0000 0.0000 25.1290 0.0000 1.8306
# 5 -0.1752 -1.9659 1.3630 0.0000 42.6510 0.0000
# 6 0.0000 0.0000 0.0000 1.8306 0.0000 31.2475
#
#
#
# Elastic Compliance Matrix: (Units=1/GPa)
#
#
# Indices 1 2 3 4 5 6 
#
# 1 0.023745 -0.011384 0.010390 0.000000 -0.000759 0.000000
# 2 -0.011384 0.037735 -0.012045 0.000000 0.002077 0.000000
# 3 0.010390 -0.012045 0.020639 0.000000 -0.001172 0.000000
# 4 0.000000 0.000000 0.000000 0.039965 0.000000 -0.002341
# 5 -0.000759 0.002077 -0.001172 0.000000 0.023576 0.000000
# 6 0.000000 0.000000 0.000000 -0.002341 0.000000 0.032140
#
#
# Mechanical properties :
#
#
# Convention : Reuss Voigt Hill
#
# Bulk Modulus (GPa) = 17.84401 18.21399 18.02900
# Shear Modulus (GPa) = 22.46600 30.34091 26.40346
#
# Velocity S-wave (km/s) = 3.40043 3.95172 3.68639
# Velocity P-wave (km/s) = 4.95997 5.49508 5.23437
#
# Compressibility (1/GPa) = 0.05604122
#
# Stress axis : x y z
#
# Youngs Moduli (GPa) = 42.11399 26.50074 48.45139
#
# Poissons Ratio (x) = 0.30169 -0.50343
# Poissons Ratio (y) = 0.47943 0.58361
# Poissons Ratio (z) = -0.43758 0.31921
#
# Static dielectric constant tensor:
#      x y z
#    x 1.655300 0.000000 -0.008500 
#    y 0.000000 1.656880 0.000000 
#    z -0.008500 0.000000 1.638840 
# 
# From -- ./inp_files/244908.got.cif
#   From: 2010.05.17/outbox.cif.g08.bks.cpg/sg12_123_cif.got.tgz:244908.got - 2010.06.03 13:09:07.
