data_PCOD9207625
_publ_section_title
;
Structure prediction by ZEFSAII (Michael W. Deem and Ramdas Pophale) SiO2 
 PCOD9207625
Probable space group: C 2/M
;
_chemical_formula_sum "Si O2"
_cell_formula_units_Z 58
_cell_length_a 25.917539
_cell_length_b 10.094710
_cell_length_c 11.615565
_cell_angle_alpha 90.000000
_cell_angle_beta 90.698299
_cell_angle_gamma 90.000000
_cell_volume 3038.755038
_symmetry_space_group_name_H-M "C 2/M"
_symmetry_group_IT_number 12
_symmetry_cell_setting 'monoclinic'
loop_
_space_group_symop_operation_xyz
x,y,z
-x,y,-z
-x,-y,-z
x,-y,z
1/2+x,1/2+y,z
1/2-x,1/2+y,-z
1/2-x,1/2-y,-z
1/2+x,1/2-y,z
loop_
_atom_site_type_symbol
_atom_site_label
_atom_site_fract_x
_atom_site_fract_y
_atom_site_fract_z
Si Si1 0.636192 0.849899 0.843769
Si Si2 0.114355 0.151413 0.407815
Si Si3 0.924041 0.348572 0.927845
Si Si4 0.229287 0.842442 0.895801
Si Si5 0.170299 0.649783 0.253765
Si Si6 0.481016 0.649795 0.774603
Si Si7 0.500000 0.000000 0.500000
Si Si8 0.430874 0.221387 0.367347
O O1 0.677763 0.733063 0.855234
O O2 0.609934 0.844482 0.719281
O O3 0.657381 0.000000 0.866044
O O4 0.593286 0.827987 0.941886
O O5 0.156450 0.246451 0.351480
O O6 0.064194 0.160588 0.323121
O O7 0.097393 0.198721 0.532647
O O8 0.131680 0.000000 0.409474
O O9 0.941981 0.500000 0.913651
O O10 0.871514 0.333284 0.850546
O O11 0.965369 0.250323 0.874767
O O12 0.273390 0.837312 0.799262
O O13 0.222067 0.000000 0.924554
O O14 0.250000 0.750000 0.000000
O O15 0.162966 0.500000 0.297683
O O16 0.481909 0.500000 0.817793
O O17 0.533291 0.686455 0.711254
O O18 0.467763 0.114837 0.428557
#
# Coordination Sequence:
#
# PCOD9207625 Si02
#       8
#     8   8   8   8   8   8   2   8
#     4  11  24  41  61  93 127 162 210 266 315 376
#     4  10  21  37  60  89 121 158 208 262 315 370
#     4   9  19  36  58  86 123 158 200 252 309 370
#     4  11  22  40  66  96 129 169 208 254 313 383
#     4   9  19  36  62  90 120 158 205 252 299 372
#     4  10  21  37  59  86 122 161 206 255 314 377
#     4  12  24  40  62  94 116 168 222 256 318 376
#     4  12  24  39  64  90 122 164 217 263 316 378
#
# _framework density 19.086763000000001
#
# number of rings (size 3 to 8) (size 9 to 14) (size 15 to 20)
#    0.000    1.655    3.448    0.828    1.931    4.414 
#    0.000    2.759    0.000    0.000    0.000    0.000 
#    0.000    0.000    0.000    0.000    0.000    0.000 
#
# Total GULP energy -161679.496005 kJ/mol
# GULP energy per Si atom -5575.155035 kJ/mol
# Density = 1.904332 g / cm^3
# Si number density = 19.086763 Si / 1000 Ang^3
#
#
#
# Elastic Constant Matrix: (Units=GPa)
#
#
# Indices 1 2 3 4 5 6 
#
# 1 57.2222 59.8324 39.7999 0.0000 -4.9161 0.0000
# 2 59.8324 159.4009 72.1795 0.0000 -15.8701 0.0000
# 3 39.7999 72.1795 80.5362 0.0000 -0.4802 0.0000
# 4 0.0000 0.0000 0.0000 11.0054 0.0000 12.5916
# 5 -4.9161 -15.8701 -0.4802 0.0000 30.1811 0.0000
# 6 0.0000 0.0000 0.0000 12.5916 0.0000 -11.1347
#
#
#
# Elastic Compliance Matrix: (Units=1/GPa)
#
#
# Indices 1 2 3 4 5 6 
#
# 1 0.031878 -0.007994 -0.008584 0.000000 0.000853 0.000000
# 2 -0.007994 0.013524 -0.008136 0.000000 0.005680 0.000000
# 3 -0.008584 -0.008136 0.023919 0.000000 -0.005296 0.000000
# 4 0.000000 0.000000 0.000000 0.039613 0.000000 0.044796
# 5 0.000853 0.005680 -0.005296 0.000000 0.036174 0.000000
# 6 0.000000 0.000000 0.000000 0.044796 0.000000 -0.039152
#
#
# Mechanical properties :
#
#
# Convention : Reuss Voigt Hill
#
# Bulk Modulus (GPa) = 50.26986 71.19813 60.73399
# Shear Modulus (GPa) = 30.86131 14.36683 22.61407
#
# Velocity S-wave (km/s) = 4.02543 2.74654 3.44583
# Velocity P-wave (km/s) = 6.92821 6.88776 6.90802
#
# Compressibility (1/GPa) = 0.01989263
#
# Stress axis : x y z
#
# Youngs Moduli (GPa) = 31.36963 73.94466 41.80692
#
# Poissons Ratio (x) = 0.59108 0.35889
# Poissons Ratio (y) = 0.25076 0.34015
# Poissons Ratio (z) = 0.26929 0.60163
#
# Static dielectric constant tensor:
#      x y z
#    x 1.657740 0.000000 0.017470 
#    y 0.000000 1.662180 0.000000 
#    z 0.017470 0.000000 1.643530 
# 
# From -- ./inp_files/180991.got.cif
#   From: 2010.05.17/outbox.cif.g08.bks.cpg/sg12_91_cif.got.tgz:180991.got - 2010.06.03 13:09:07.
