data_PCOD9207367
_publ_section_title
;
Structure prediction by ZEFSAII (Michael W. Deem and Ramdas Pophale) SiO2 
 PCOD9207367
Probable space group: C 2/M
;
_chemical_formula_sum "Si O2"
_cell_formula_units_Z 48
_cell_length_a 21.104698
_cell_length_b 21.295459
_cell_length_c 6.408944
_cell_angle_alpha 90.000000
_cell_angle_beta 117.053545
_cell_angle_gamma 90.000000
_cell_volume 2565.230950
_symmetry_space_group_name_H-M "C 2/M"
_symmetry_group_IT_number 12
_symmetry_cell_setting 'monoclinic'
loop_
_space_group_symop_operation_xyz
x,y,z
-x,y,-z
-x,-y,-z
x,-y,z
1/2+x,1/2+y,z
1/2-x,1/2+y,-z
1/2-x,1/2-y,-z
1/2+x,1/2-y,z
loop_
_atom_site_type_symbol
_atom_site_label
_atom_site_fract_x
_atom_site_fract_y
_atom_site_fract_z
Si Si1 0.358896 0.859410 0.929482
Si Si2 0.924614 0.249348 0.788571
Si Si3 0.922292 0.572960 0.378446
Si Si4 0.160115 0.256647 0.731973
Si Si5 0.712714 0.924687 0.535033
Si Si6 0.300696 0.320727 0.841228
O O1 0.395547 0.916513 0.103848
O O2 0.344123 0.810070 0.094498
O O3 0.408652 0.818813 0.853370
O O4 0.296023 0.888608 0.698054
O O5 0.908530 0.251956 0.517633
O O6 0.863528 0.203887 0.789172
O O7 0.000000 0.230435 0.000000
O O8 0.931333 0.500000 0.439531
O O9 0.859616 0.591278 0.443741
O O10 0.000000 0.604596 0.500000
O O11 0.229650 0.277536 0.705671
O O12 0.175323 0.193775 0.885836
O O13 0.776208 0.890862 0.754044
O O14 0.719129 0.000000 0.526546
#
# Coordination Sequence:
#
# PCOD9207367 Si02
#       6
#     8   8   8   8   8   8
#     4  11  21  33  56  81 116 149 191 230 284 332
#     4  11  24  36  58  88 118 150 187 239 295 346
#     4  10  22  36  50  73 113 159 198 234 272 325
#     4  10  21  37  58  84 113 150 190 237 293 337
#     4  11  23  39  57  84 114 152 198 236 280 338
#     4  10  21  37  61  83 114 152 191 241 286 340
#
# _framework density 18.711763999999999
#
# number of rings (size 3 to 8) (size 9 to 14) (size 15 to 20)
#    0.000    1.500    3.333    1.000    9.333    2.000 
#    0.000    2.500    0.000    0.500    0.000    1.167 
#    0.000    0.000    0.000    0.000    0.000    0.000 
#
# Total GULP energy -133745.692543 kJ/mol
# GULP energy per Si atom -5572.737189 kJ/mol
# Density = 1.866918 g / cm^3
# Si number density = 18.711764 Si / 1000 Ang^3
#
#
#
# Elastic Constant Matrix: (Units=GPa)
#
#
# Indices 1 2 3 4 5 6 
#
# 1 50.0873 39.9037 35.9575 0.0000 9.4625 0.0000
# 2 39.9037 67.2369 42.6795 0.0000 0.2496 0.0000
# 3 35.9575 42.6795 134.8664 0.0000 5.9963 0.0000
# 4 0.0000 0.0000 0.0000 27.2808 0.0000 2.9196
# 5 9.4625 0.2496 5.9963 0.0000 20.3215 0.0000
# 6 0.0000 0.0000 0.0000 2.9196 0.0000 15.9646
#
#
#
# Elastic Compliance Matrix: (Units=1/GPa)
#
#
# Indices 1 2 3 4 5 6 
#
# 1 0.046426 -0.025269 -0.003480 0.000000 -0.020280 0.000000
# 2 -0.025269 0.032412 -0.004079 0.000000 0.012571 0.000000
# 3 -0.003480 -0.004079 0.009686 0.000000 -0.001188 0.000000
# 4 0.000000 0.000000 0.000000 0.037388 0.000000 -0.006838
# 5 -0.020280 0.012571 -0.001188 0.000000 0.058848 0.000000
# 6 0.000000 0.000000 0.000000 -0.006838 0.000000 0.063889
#
#
# Mechanical properties :
#
#
# Convention : Reuss Voigt Hill
#
# Bulk Modulus (GPa) = 43.72712 54.36354 49.04533
# Shear Modulus (GPa) = 15.53155 21.62337 18.57746
#
# Velocity S-wave (km/s) = 2.88417 3.40310 3.15433
# Velocity P-wave (km/s) = 5.87459 6.67515 6.28763
#
# Compressibility (1/GPa) = 0.02286910
#
# Stress axis : x y z
#
# Youngs Moduli (GPa) = 21.53987 30.85324 103.24113
#
# Poissons Ratio (x) = 0.77961 0.35925
# Poissons Ratio (y) = 0.54428 0.42110
# Poissons Ratio (z) = 0.07495 0.12584
#
# Static dielectric constant tensor:
#      x y z
#    x 1.711970 0.000000 -0.021410 
#    y 0.000000 1.675160 0.000000 
#    z -0.021410 0.000000 1.714760 
# 
# From -- ./inp_files/21738.got.cif
#   From: 2010.05.17/outbox.cif.g08.bks.cpg/sg12_11_cif.got.tgz:21738.got - 2010.06.03 13:09:07.
