data_PCOD9207370
_publ_section_title
;
Structure prediction by ZEFSAII (Michael W. Deem and Ramdas Pophale) SiO2 
 PCOD9207370
Probable space group: C 2/M
;
_chemical_formula_sum "Si O2"
_cell_formula_units_Z 64
_cell_length_a 19.246667
_cell_length_b 8.442973
_cell_length_c 32.142469
_cell_angle_alpha 90.000000
_cell_angle_beta 138.501795
_cell_angle_gamma 90.000000
_cell_volume 3460.822767
_symmetry_space_group_name_H-M "C 2/M"
_symmetry_group_IT_number 12
_symmetry_cell_setting 'monoclinic'
loop_
_space_group_symop_operation_xyz
x,y,z
-x,y,-z
-x,-y,-z
x,-y,z
1/2+x,1/2+y,z
1/2-x,1/2+y,-z
1/2-x,1/2-y,-z
1/2+x,1/2-y,z
loop_
_atom_site_type_symbol
_atom_site_label
_atom_site_fract_x
_atom_site_fract_y
_atom_site_fract_z
Si Si1 0.915886 0.691477 0.567546
Si Si2 0.011432 0.311851 0.172925
Si Si3 0.378948 0.308382 0.940552
Si Si4 0.222778 0.811886 0.941820
Si Si5 0.736403 0.691537 0.428485
Si Si6 0.172355 0.191824 0.175685
Si Si7 0.679921 0.308384 0.310726
Si Si8 0.652229 0.807567 0.683546
O O1 0.918904 0.500000 0.568774
O O2 0.850765 0.740611 0.497217
O O3 0.847243 0.747348 0.575707
O O4 0.034259 0.751204 0.625330
O O5 0.005981 0.500000 0.167925
O O6 0.894964 0.243055 0.121314
O O7 0.078049 0.248970 0.163176
O O8 0.076593 0.261079 0.242974
O O9 0.376930 0.500000 0.940470
O O10 0.305096 0.249671 0.944485
O O11 0.340152 0.256077 0.877447
O O12 0.500000 0.258216 0.000000
O O13 0.226951 0.000000 0.944194
O O14 0.250000 0.750000 0.000000
O O15 0.734607 0.500000 0.427523
O O16 0.705452 0.745505 0.368666
O O17 0.281319 0.243454 0.246232
O O18 0.169522 0.000000 0.175093
O O19 0.670821 0.500000 0.306280
O O20 0.776215 0.265191 0.323736
O O21 0.647658 0.000000 0.682977
#
# Coordination Sequence:
#
# PCOD9207370 Si02
#       8
#     8   8   8   8   8   8   8   8
#     4   9  17  30  48  71 100 135 174 216 267 325
#     4  11  22  37  58  83 111 143 182 224 269 322
#     4  10  21  37  58  84 114 148 184 222 267 319
#     4  12  25  41  61  85 115 148 184 224 266 314
#     4   9  18  31  48  71 100 135 174 218 267 320
#     4   9  18  35  57  80 110 144 178 221 274 328
#     4   9  18  34  53  74 102 136 176 221 270 319
#     4   8  15  29  50  74  99 132 173 216 261 312
#
# _framework density 18.492713999999999
#
# number of rings (size 3 to 8) (size 9 to 14) (size 15 to 20)
#    0.000    2.375    0.000    3.750    0.000    3.750 
#    0.000    6.250    0.000    0.000    0.000    7.000 
#    0.000    0.000    0.000    0.000    0.000    0.000 
#
# Total GULP energy -178549.193679 kJ/mol
# GULP energy per Si atom -5579.662302 kJ/mol
# Density = 1.845062 g / cm^3
# Si number density = 18.492714 Si / 1000 Ang^3
#
#
#
# Elastic Constant Matrix: (Units=GPa)
#
#
# Indices 1 2 3 4 5 6 
#
# 1 119.1312 22.9038 122.9853 0.0000 -1.6591 0.0001
# 2 22.9038 27.0400 32.0173 -0.0001 -2.0167 0.0002
# 3 122.9853 32.0173 201.0542 0.0000 -0.6613 0.0000
# 4 0.0000 -0.0001 0.0000 17.4617 0.0000 -0.3166
# 5 -1.6591 -2.0167 -0.6613 0.0000 43.9632 0.0000
# 6 0.0001 0.0002 0.0000 -0.3166 0.0000 28.2500
#
#
#
# Elastic Compliance Matrix: (Units=1/GPa)
#
#
# Indices 1 2 3 4 5 6 
#
# 1 0.023053 -0.003443 -0.013552 0.000000 0.000508 0.000000
# 2 -0.003443 0.046264 -0.005255 0.000000 0.001913 0.000000
# 3 -0.013552 -0.005255 0.014099 0.000000 -0.000540 0.000000
# 4 0.000000 0.000000 0.000000 0.057280 0.000000 0.000642
# 5 0.000508 0.001913 -0.000540 0.000000 0.022845 0.000000
# 6 0.000000 0.000000 0.000000 0.000642 0.000000 0.035405
#
#
# Mechanical properties :
#
#
# Convention : Reuss Voigt Hill
#
# Bulk Modulus (GPa) = 25.69633 78.11536 51.90585
# Shear Modulus (GPa) = 19.49946 29.22291 24.36118
#
# Velocity S-wave (km/s) = 3.25074 3.97953 3.63345
# Velocity P-wave (km/s) = 5.29295 7.96545 6.76253
#
# Compressibility (1/GPa) = 0.03891606
#
# Stress axis : x y z
#
# Youngs Moduli (GPa) = 43.37752 21.61530 70.92892
#
# Poissons Ratio (x) = 0.07441 0.96122
# Poissons Ratio (y) = 0.14933 0.37274
# Poissons Ratio (z) = 0.58785 0.11359
#
# Static dielectric constant tensor:
#      x y z
#    x 1.595820 0.000000 0.000610 
#    y 0.000000 1.636790 0.000000 
#    z 0.000610 0.000000 1.647750 
# 
# From -- ./inp_files/378327.got.cif
#   From: 2010.05.17/outbox.cif.g08.bks.cpg/sg12_190_cif.got.tgz:378327.got - 2010.06.03 13:09:07.
