data_PCOD9207548
_publ_section_title
;
Structure prediction by ZEFSAII (Michael W. Deem and Ramdas Pophale) SiO2 
 PCOD9207548
Probable space group: C 2/M
;
_chemical_formula_sum "Si O2"
_cell_formula_units_Z 58
_cell_length_a 16.884908
_cell_length_b 13.226863
_cell_length_c 12.001228
_cell_angle_alpha 90.000000
_cell_angle_beta 84.049957
_cell_angle_gamma 90.000000
_cell_volume 2665.847010
_symmetry_space_group_name_H-M "C 2/M"
_symmetry_group_IT_number 12
_symmetry_cell_setting 'monoclinic'
loop_
_space_group_symop_operation_xyz
x,y,z
-x,y,-z
-x,-y,-z
x,-y,z
1/2+x,1/2+y,z
1/2-x,1/2+y,-z
1/2-x,1/2-y,-z
1/2+x,1/2-y,z
loop_
_atom_site_type_symbol
_atom_site_label
_atom_site_fract_x
_atom_site_fract_y
_atom_site_fract_z
Si Si1 0.989771 0.334945 0.370669
Si Si2 0.359002 0.818749 0.760875
Si Si3 0.573290 0.307843 0.046632
Si Si4 0.817676 0.170200 0.174988
Si Si5 0.806248 0.178516 0.566503
Si Si6 0.000000 0.000000 0.000000
Si Si7 0.071162 0.112235 0.636536
Si Si8 0.829906 0.607774 0.267270
O O1 0.063119 0.378703 0.289237
O O2 0.000000 0.355473 0.500000
O O3 0.983740 0.212230 0.354373
O O4 0.907268 0.375413 0.332945
O O5 0.273311 0.865893 0.802518
O O6 0.343566 0.750272 0.654378
O O7 0.385636 0.751680 0.861613
O O8 0.639007 0.345498 0.948344
O O9 0.500000 0.245836 0.000000
O O10 0.526947 0.410302 0.083847
O O11 0.870513 0.122298 0.265159
O O12 0.819835 0.291920 0.194383
O O13 0.750000 0.250000 0.500000
O O14 0.871691 0.127620 0.479237
O O15 0.746300 0.107280 0.641216
O O16 0.034906 0.000000 0.638217
O O17 0.835950 0.500000 0.206532
#
# Coordination Sequence:
#
# PCOD9207548 Si02
#       8
#     8   8   8   8   8   2   8   8
#     4  11  21  37  56  83 125 162 201 253 299 370
#     4  11  21  38  63  86 122 166 202 249 311 366
#     4  10  21  41  63  92 121 163 200 250 312 368
#     4  10  22  39  64  86 122 159 205 256 300 368
#     4  11  18  40  59  89 122 160 201 258 315 364
#     4   8  24  40  64  96 124 156 208 252 314 370
#     4  11  22  36  59  87 124 164 200 252 320 372
#     4  10  21  37  59  82 114 160 209 252 306 359
#
# _framework density 21.756688
#
# number of rings (size 3 to 8) (size 9 to 14) (size 15 to 20)
#    0.414    1.103    5.517    2.483    0.966    0.552 
#    6.207    0.690    0.000    3.724    0.000    0.000 
#    0.000    0.000    0.000    0.000    0.000    0.000 
#
# Total GULP energy -161606.407875 kJ/mol
# GULP energy per Si atom -5572.634754 kJ/mol
# Density = 2.170717 g / cm^3
# Si number density = 21.756688 Si / 1000 Ang^3
#
#
#
# Elastic Constant Matrix: (Units=GPa)
#
#
# Indices 1 2 3 4 5 6 
#
# 1 105.0733 -12.4605 14.3176 0.0000 -15.6197 0.0000
# 2 -12.4605 82.6532 -21.8989 0.0000 -0.3510 0.0000
# 3 14.3176 -21.8989 72.9187 0.0000 -1.1369 0.0000
# 4 0.0000 0.0000 0.0000 -57.3231 0.0000 79.0981
# 5 -15.6197 -0.3510 -1.1369 0.0000 43.6085 0.0000
# 6 0.0000 0.0000 0.0000 79.0981 0.0000 -114.1084
#
#
#
# Elastic Compliance Matrix: (Units=1/GPa)
#
#
# Indices 1 2 3 4 5 6 
#
# 1 0.010428 0.001152 -0.001644 0.000000 0.003702 0.000000
# 2 0.001152 0.013274 0.003770 0.000000 0.000618 0.000000
# 3 -0.001644 0.003770 0.015166 0.000000 -0.000163 0.000000
# 4 0.000000 0.000000 0.000000 -0.401031 0.000000 -0.277988
# 5 0.003702 0.000618 -0.000163 0.000000 0.024258 0.000000
# 6 0.000000 0.000000 0.000000 -0.277988 0.000000 -0.201460
#
#
# Mechanical properties :
#
#
# Convention : Reuss Voigt Hill
#
# Bulk Modulus (GPa) = 22.01443 24.50686 23.26064
# Shear Modulus (GPa) = -9.42009 -6.85214 -8.13612
#
# Velocity S-wave (km/s) = -2.08306 -1.77659 -1.93590
# Velocity P-wave (km/s) = 2.08684 2.66085 2.39113
#
# Compressibility (1/GPa) = 0.04542476
#
# Stress axis : x y z
#
# Youngs Moduli (GPa) = 95.89516 75.33591 65.93584
#
# Poissons Ratio (x) = -0.08681 0.10838
# Poissons Ratio (y) = -0.11050 -0.24856
# Poissons Ratio (z) = 0.15763 -0.28400
#
# Static dielectric constant tensor:
#      x y z
#    x 1.820680 0.000000 -0.000650 
#    y 0.000000 1.739870 0.000000 
#    z -0.000650 0.000000 1.799140 
# 
# From -- ./inp_files/156075.got.cif
#   From: 2010.05.17/outbox.cif.g08.bks.cpg/sg12_79_cif.got.tgz:156075.got - 2010.06.03 13:09:07.
