data_PCOD9207765
_publ_section_title
;
Structure prediction by ZEFSAII (Michael W. Deem and Ramdas Pophale) SiO2 
 PCOD9207765
Probable space group: C 2/M
;
_chemical_formula_sum "Si O2"
_cell_formula_units_Z 64
_cell_length_a 32.758677
_cell_length_b 18.612334
_cell_length_c 9.210219
_cell_angle_alpha 90.000000
_cell_angle_beta 35.325199
_cell_angle_gamma 90.000000
_cell_volume 3247.039984
_symmetry_space_group_name_H-M "C 2/M"
_symmetry_group_IT_number 12
_symmetry_cell_setting 'monoclinic'
loop_
_space_group_symop_operation_xyz
x,y,z
-x,y,-z
-x,-y,-z
x,-y,z
1/2+x,1/2+y,z
1/2-x,1/2+y,-z
1/2-x,1/2-y,-z
1/2+x,1/2-y,z
loop_
_atom_site_type_symbol
_atom_site_label
_atom_site_fract_x
_atom_site_fract_y
_atom_site_fract_z
Si Si1 0.596445 0.297568 0.943957
Si Si2 0.721529 0.334450 0.368193
Si Si3 0.648861 0.916705 0.912629
Si Si4 0.672207 0.417217 0.234984
Si Si5 0.508500 0.580833 0.801341
Si Si6 0.970716 0.357329 0.926609
Si Si7 0.568505 0.172494 0.390706
Si Si8 0.322486 0.714407 0.986556
O O1 0.650005 0.321468 0.662314
O O2 0.538435 0.358668 0.135357
O O3 0.558275 0.224162 0.007757
O O4 0.640596 0.288962 0.963213
O O5 0.780793 0.368642 0.301854
O O6 0.711898 0.389165 0.263170
O O7 0.751680 0.260237 0.215652
O O8 0.665535 0.000000 0.882736
O O9 0.594690 0.905220 0.937549
O O10 0.608032 0.883417 0.170555
O O11 0.689512 0.500000 0.151831
O O12 0.589248 0.413346 0.517308
O O13 0.687067 0.361683 0.062136
O O14 0.483582 0.500000 0.838964
O O15 0.500000 0.589993 0.000000
O O16 0.035589 0.364024 0.626468
O O17 0.000000 0.371131 0.000000
O O18 0.500000 0.200605 0.500000
O O19 0.623174 0.236194 0.263975
#
# Coordination Sequence:
#
# PCOD9207765 Si02
#       8
#     8   8   8   8   8   8   8   8
#     4  12  22  39  65  91 125 165 203 255 310 365
#     4  11  23  42  64  89 121 171 213 249 294 379
#     4  10  22  42  65  89 123 167 209 252 307 373
#     4  11  24  41  63  92 127 162 206 258 310 363
#     4  10  21  37  59  92 122 158 204 246 302 370
#     4  11  23  37  63  98 126 153 205 258 316 363
#     4   9  18  38  60  90 118 158 201 251 303 371
#     4  11  23  39  62  91 124 156 212 257 307 359
#
# _framework density 19.710259000000001
#
# number of rings (size 3 to 8) (size 9 to 14) (size 15 to 20)
#    0.000    1.375    5.000    2.250    1.750    3.500 
#    0.000    1.250    0.000    0.000    0.000    0.000 
#    0.000    0.000    0.000    0.000    0.000    0.000 
#
# Total GULP energy -178810.383211 kJ/mol
# GULP energy per Si atom -5587.824475 kJ/mol
# Density = 1.966540 g / cm^3
# Si number density = 19.710259 Si / 1000 Ang^3
#
#
#
# Elastic Constant Matrix: (Units=GPa)
#
#
# Indices 1 2 3 4 5 6 
#
# 1 52.2726 16.4731 16.5858 0.0000 2.3068 0.0000
# 2 16.4731 106.5225 12.3471 0.0000 -4.0028 0.0000
# 3 16.5858 12.3471 30.5488 0.0000 -3.4552 0.0000
# 4 0.0000 0.0000 0.0000 17.0635 0.0000 -4.8776
# 5 2.3068 -4.0028 -3.4552 0.0000 17.8965 0.0000
# 6 0.0000 0.0000 0.0000 -4.8776 0.0000 30.2042
#
#
#
# Elastic Compliance Matrix: (Units=1/GPa)
#
#
# Indices 1 2 3 4 5 6 
#
# 1 0.024272 -0.002494 -0.012868 0.000000 -0.006171 0.000000
# 2 -0.002494 0.010143 -0.002507 0.000000 0.002106 0.000000
# 3 -0.012868 -0.002507 0.041771 0.000000 0.009162 0.000000
# 4 0.000000 0.000000 0.000000 0.061441 0.000000 0.009922
# 5 -0.006171 0.002106 0.009162 0.000000 0.058912 0.000000
# 6 0.000000 0.000000 0.000000 0.009922 0.000000 0.034710
#
#
# Mechanical properties :
#
#
# Convention : Reuss Voigt Hill
#
# Bulk Modulus (GPa) = 24.72357 31.12844 27.92600
# Shear Modulus (GPa) = 17.82731 22.62870 20.22801
#
# Velocity S-wave (km/s) = 3.01070 3.39199 3.20702
# Velocity P-wave (km/s) = 4.96553 5.58284 5.28321
#
# Compressibility (1/GPa) = 0.04044724
#
# Stress axis : x y z
#
# Youngs Moduli (GPa) = 41.20055 98.58892 23.94033
#
# Poissons Ratio (x) = 0.24586 0.30806
# Poissons Ratio (y) = 0.10275 0.06003
# Poissons Ratio (z) = 0.53016 0.24721
#
# Static dielectric constant tensor:
#      x y z
#    x 1.703740 0.000000 0.002400 
#    y 0.000000 1.678520 0.000000 
#    z 0.002400 0.000000 1.688710 
# 
# From -- ./inp_files/112814.got.cif
#   From: 2010.05.17/outbox.cif.g08.bks.cpg/sg12_57_cif.got.tgz:112814.got - 2010.06.03 13:09:07.
