data_PCOD9207091
_publ_section_title
;
Structure prediction by ZEFSAII (Michael W. Deem and Ramdas Pophale) SiO2 
 PCOD9207091
Probable space group: C 2/M
;
_chemical_formula_sum "Si O2"
_cell_formula_units_Z 34
_cell_length_a 9.801070
_cell_length_b 7.427058
_cell_length_c 18.301193
_cell_angle_alpha 90.000000
_cell_angle_beta 82.534733
_cell_angle_gamma 90.000000
_cell_volume 1320.908859
_symmetry_space_group_name_H-M "C 2/M"
_symmetry_group_IT_number 12
_symmetry_cell_setting 'monoclinic'
loop_
_space_group_symop_operation_xyz
x,y,z
-x,y,-z
-x,-y,-z
x,-y,z
1/2+x,1/2+y,z
1/2-x,1/2+y,-z
1/2-x,1/2-y,-z
1/2+x,1/2-y,z
loop_
_atom_site_type_symbol
_atom_site_label
_atom_site_fract_x
_atom_site_fract_y
_atom_site_fract_z
Si Si1 0.428304 0.708669 0.433704
Si Si2 0.644958 0.715519 0.811312
Si Si3 0.298624 0.218696 0.655683
Si Si4 0.500000 0.000000 0.000000
Si Si5 0.126133 0.206750 0.094295
O O1 0.500000 0.792716 0.500000
O O2 0.400780 0.500000 0.452301
O O3 0.545654 0.718006 0.363261
O O4 0.289113 0.782898 0.408660
O O5 0.654206 0.500000 0.808821
O O6 0.719121 0.782391 0.733204
O O7 0.727848 0.782264 0.876017
O O8 0.486235 0.762034 0.835276
O O9 0.298847 0.000000 0.655492
O O10 0.596810 0.156524 0.032044
O O11 0.100061 0.000000 0.075032
#
# Coordination Sequence:
#
# PCOD9207091 Si02
#       5
#     8   8   8   2   8
#     4  10  21  37  56  88 129 167 211 263 316 375
#     4  10  22  43  64  94 129 164 220 272 316 382
#     4  10  21  37  61  89 122 165 211 264 313 371
#     4  12  26  48  68 100 136 168 212 262 324 394
#     4  11  25  45  69  97 131 173 210 269 322 382
#
# _framework density 25.739851999999999
#
# number of rings (size 3 to 8) (size 9 to 14) (size 15 to 20)
#    0.000    1.647    1.176    2.471    1.647    5.176 
#    0.000    0.000    0.000    0.000    0.000    0.000 
#    0.000    0.000    0.000    0.000    0.000    0.000 
#
# Total GULP energy -95001.291131 kJ/mol
# GULP energy per Si atom -5588.311243 kJ/mol
# Density = 2.568127 g / cm^3
# Si number density = 25.739852 Si / 1000 Ang^3
#
#
#
# Elastic Constant Matrix: (Units=GPa)
#
#
# Indices 1 2 3 4 5 6 
#
# 1 87.2349 -10.2574 -0.6906 0.0000 -5.9181 0.0000
# 2 -10.2574 104.6400 7.9901 0.0000 -1.1921 0.0000
# 3 -0.6906 7.9901 90.0546 0.0000 -8.9138 0.0000
# 4 0.0000 0.0000 0.0000 6.8772 0.0000 -3.2740
# 5 -5.9181 -1.1921 -8.9138 0.0000 48.5068 0.0000
# 6 0.0000 0.0000 0.0000 -3.2740 0.0000 10.7780
#
#
#
# Elastic Compliance Matrix: (Units=1/GPa)
#
#
# Indices 1 2 3 4 5 6 
#
# 1 0.011700 0.001154 0.000134 0.000000 0.001480 0.000000
# 2 0.001154 0.009736 -0.000832 0.000000 0.000227 0.000000
# 3 0.000134 -0.000832 0.011386 0.000000 0.002088 0.000000
# 4 0.000000 0.000000 0.000000 0.169992 0.000000 0.051638
# 5 0.001480 0.000227 0.002088 0.000000 0.021186 0.000000
# 6 0.000000 0.000000 0.000000 0.051638 0.000000 0.108468
#
#
# Mechanical properties :
#
#
# Convention : Reuss Voigt Hill
#
# Bulk Modulus (GPa) = 29.64524 30.66819 30.15671
# Shear Modulus (GPa) = 14.58569 32.22491 23.40530
#
# Velocity S-wave (km/s) = 2.38304 3.54212 3.01873
# Velocity P-wave (km/s) = 4.37197 5.35438 4.88792
#
# Compressibility (1/GPa) = 0.03373223
#
# Stress axis : x y z
#
# Youngs Moduli (GPa) = 85.46688 102.71365 87.82752
#
# Poissons Ratio (x) = -0.11849 -0.01176
# Poissons Ratio (y) = -0.09859 0.07312
# Poissons Ratio (z) = -0.01145 0.08551
#
# Static dielectric constant tensor:
#      x y z
#    x 1.953530 0.000000 -0.070170 
#    y 0.000000 1.924000 0.000000 
#    z -0.070170 0.000000 2.086080 
# 
# From -- ./inp_files/260794.got.cif
#   From: 2010.05.17/outbox.cif.g08.bks.cpg/sg12_131_cif.got.tgz:260794.got - 2010.06.03 13:09:07.
