data_PCOD9207825
_publ_section_title
;
Structure prediction by ZEFSAII (Michael W. Deem and Ramdas Pophale) SiO2 
 PCOD9207825
Probable space group: C 2/M
;
_chemical_formula_sum "Si O2"
_cell_formula_units_Z 56
_cell_length_a 19.518952
_cell_length_b 13.025282
_cell_length_c 13.040879
_cell_angle_alpha 90.000000
_cell_angle_beta 132.566300
_cell_angle_gamma 90.000000
_cell_volume 2441.857674
_symmetry_space_group_name_H-M "C 2/M"
_symmetry_group_IT_number 12
_symmetry_cell_setting 'monoclinic'
loop_
_space_group_symop_operation_xyz
x,y,z
-x,y,-z
-x,-y,-z
x,-y,z
1/2+x,1/2+y,z
1/2-x,1/2+y,-z
1/2-x,1/2-y,-z
1/2+x,1/2-y,z
loop_
_atom_site_type_symbol
_atom_site_label
_atom_site_fract_x
_atom_site_fract_y
_atom_site_fract_z
Si Si1 0.032197 0.884356 0.426142
Si Si2 0.205986 0.883317 0.485877
Si Si3 0.381061 0.885109 0.812695
Si Si4 0.011467 0.618436 0.749027
Si Si5 0.329699 0.122369 0.424502
Si Si6 0.720735 0.738443 0.143727
Si Si7 0.363023 0.682275 0.137295
O O1 0.944769 0.886800 0.263226
O O2 0.000000 0.833903 0.500000
O O3 0.116628 0.835332 0.449028
O O4 0.064082 0.000000 0.486594
O O5 0.286727 0.890263 0.650900
O O6 0.253593 0.841173 0.432483
O O7 0.177584 0.000000 0.428757
O O8 0.460047 0.865062 0.807123
O O9 0.358132 0.797806 0.871569
O O10 0.395617 0.000000 0.871553
O O11 0.044101 0.500000 0.779483
O O12 0.931975 0.628123 0.579860
O O13 0.090308 0.703468 0.815164
O O14 0.297919 0.183868 0.292490
O O15 0.316517 0.000000 0.393570
O O16 0.777810 0.817778 0.130197
O O17 0.672597 0.663099 0.013093
#
# Coordination Sequence:
#
# PCOD9207825 Si02
#       7
#     8   8   8   8   8   8   8
#     4  10  21  37  60  87 116 155 197 243 299 356
#     4   8  16  33  58  89 113 140 193 246 290 345
#     4   9  19  38  64  91 119 156 203 252 302 357
#     4   9  21  41  66  94 120 155 210 265 301 348
#     4   9  20  39  63  89 118 156 201 249 304 363
#     4  11  25  40  56  85 124 167 199 240 313 374
#     4  11  26  40  55  88 126 158 202 251 303 367
#
# _framework density 22.933358999999999
#
# number of rings (size 3 to 8) (size 9 to 14) (size 15 to 20)
#    0.000    2.429    0.000    2.571    6.000    5.143 
#    0.000    5.714    0.000    2.571    0.000    0.000 
#    0.000    0.000    0.000    0.000    0.000    0.000 
#
# Total GULP energy -156414.773023 kJ/mol
# GULP energy per Si atom -5586.241894 kJ/mol
# Density = 2.288116 g / cm^3
# Si number density = 22.933359 Si / 1000 Ang^3
#
#
#
# Elastic Constant Matrix: (Units=GPa)
#
#
# Indices 1 2 3 4 5 6 
#
# 1 53.9520 5.0733 40.7296 0.0000 -1.9364 0.0000
# 2 5.0733 80.2061 3.7262 0.0000 -5.1081 0.0000
# 3 40.7296 3.7262 104.1640 0.0000 -7.9240 0.0000
# 4 0.0000 0.0000 0.0000 -2.4114 0.0000 1.3473
# 5 -1.9364 -5.1081 -7.9240 0.0000 33.2867 0.0000
# 6 0.0000 0.0000 0.0000 1.3473 0.0000 5.2641
#
#
#
# Elastic Compliance Matrix: (Units=1/GPa)
#
#
# Indices 1 2 3 4 5 6 
#
# 1 0.026452 -0.001263 -0.010384 0.000000 -0.001127 0.000000
# 2 -0.001263 0.012661 0.000186 0.000000 0.001914 0.000000
# 3 -0.010384 0.000186 0.013861 0.000000 0.002724 0.000000
# 4 0.000000 0.000000 0.000000 -0.362809 0.000000 0.092858
# 5 -0.001127 0.001914 0.002724 0.000000 0.030919 0.000000
# 6 0.000000 0.000000 0.000000 0.092858 0.000000 0.166199
#
#
# Mechanical properties :
#
#
# Convention : Reuss Voigt Hill
#
# Bulk Modulus (GPa) = 33.27312 37.48671 35.37992
# Shear Modulus (GPa) = -62.67326 19.81408 -21.42959
#
# Velocity S-wave (km/s) = -5.23333 2.94255 -3.06016
# Velocity P-wave (km/s) = 4.68795 5.28453 1.72472
#
# Compressibility (1/GPa) = 0.03005429
#
# Stress axis : x y z
#
# Youngs Moduli (GPa) = 37.80404 78.98292 72.14484
#
# Poissons Ratio (x) = 0.09972 0.74913
# Poissons Ratio (y) = 0.04773 -0.01344
# Poissons Ratio (z) = 0.39255 -0.01472
#
# Static dielectric constant tensor:
#      x y z
#    x 1.867430 0.000000 -0.021400 
#    y 0.000000 1.906500 0.000000 
#    z -0.021400 0.000000 1.851140 
# 
# From -- ./inp_files/156736.got.cif
#   From: 2010.05.17/outbox.cif.g08.bks.cpg/sg12_79_cif.got.tgz:156736.got - 2010.06.03 13:09:07.
