data_PCOD9207650
_publ_section_title
;
Structure prediction by ZEFSAII (Michael W. Deem and Ramdas Pophale) SiO2 
 PCOD9207650
Probable space group: C 2/M
;
_chemical_formula_sum "Si O2"
_cell_formula_units_Z 44
_cell_length_a 26.732000
_cell_length_b 9.058196
_cell_length_c 26.551721
_cell_angle_alpha 90.000000
_cell_angle_beta 163.024478
_cell_angle_gamma 90.000000
_cell_volume 1877.127810
_symmetry_space_group_name_H-M "C 2/M"
_symmetry_group_IT_number 12
_symmetry_cell_setting 'monoclinic'
loop_
_space_group_symop_operation_xyz
x,y,z
-x,y,-z
-x,-y,-z
x,-y,z
1/2+x,1/2+y,z
1/2-x,1/2+y,-z
1/2-x,1/2-y,-z
1/2+x,1/2-y,z
loop_
_atom_site_type_symbol
_atom_site_label
_atom_site_fract_x
_atom_site_fract_y
_atom_site_fract_z
Si Si1 0.885541 0.668364 0.343997
Si Si2 0.480843 0.667238 0.253335
Si Si3 0.074801 0.337524 0.180022
Si Si4 0.500000 0.251269 0.000000
Si Si5 0.269499 0.175652 0.125219
Si Si6 0.760463 0.168132 0.584008
O O1 0.945339 0.500000 0.398494
O O2 0.679992 0.669246 0.158695
O O3 0.889559 0.719575 0.289193
O O4 0.000000 0.737636 0.500000
O O5 0.422586 0.500000 0.206792
O O6 0.347016 0.785369 0.145475
O O7 0.643597 0.711315 0.444594
O O8 0.559722 0.673251 0.273562
O O9 0.115337 0.500000 0.238718
O O10 0.058122 0.338438 0.104426
O O11 0.206044 0.216188 0.326906
O O12 0.892838 0.278808 0.023354
O O13 0.233150 0.000000 0.094089
O O14 0.694161 0.000000 0.515650
#
# Coordination Sequence:
#
# PCOD9207650 Si02
#       6
#     8   8   8   4   8   8
#     4   9  19  35  56  87 122 160 206 254 307 366
#     4  10  21  39  61  88 122 156 195 249 304 359
#     4  11  23  40  61  86 120 159 200 250 308 363
#     4  10  22  38  60  86 125 164 205 256 311 368
#     4  10  21  37  59  87 119 156 201 249 300 362
#     4  10  22  39  61  88 118 157 203 245 298 366
#
# _framework density 23.440065000000001
#
# number of rings (size 3 to 8) (size 9 to 14) (size 15 to 20)
#    0.000    2.000    0.000    2.727    2.545    5.091 
#    0.000    0.000    0.000    3.273    0.000    0.000 
#    0.000    0.000    0.000    0.000    0.000    0.000 
#
# Total GULP energy -122669.722231 kJ/mol
# GULP energy per Si atom -5575.896465 kJ/mol
# Density = 2.338671 g / cm^3
# Si number density = 23.440065 Si / 1000 Ang^3
#
#
#
# Elastic Constant Matrix: (Units=GPa)
#
#
# Indices 1 2 3 4 5 6 
#
# 1 78.3056 24.3163 9.0198 -0.0012 -15.7490 -0.0009
# 2 24.3163 85.7181 -2.8535 -0.0013 -5.4894 -0.0006
# 3 9.0198 -2.8535 50.0522 -0.0031 -13.5534 -0.0017
# 4 -0.0012 -0.0013 -0.0031 16.0856 -0.0011 -1.4900
# 5 -15.7490 -5.4894 -13.5534 -0.0011 50.2251 -0.0006
# 6 -0.0009 -0.0006 -0.0017 -1.4900 -0.0006 16.0601
#
#
#
# Elastic Compliance Matrix: (Units=1/GPa)
#
#
# Indices 1 2 3 4 5 6 
#
# 1 0.015013 -0.004083 -0.001925 0.000001 0.003742 0.000001
# 2 -0.004083 0.012915 0.001627 0.000001 0.000570 0.000001
# 3 -0.001925 0.001627 0.021904 0.000005 0.005485 0.000003
# 4 0.000001 0.000001 0.000005 0.062706 0.000003 0.005818
# 5 0.003742 0.000570 0.005485 0.000003 0.022626 0.000002
# 6 0.000001 0.000001 0.000003 0.005818 0.000002 0.062806
#
#
# Mechanical properties :
#
#
# Convention : Reuss Voigt Hill
#
# Bulk Modulus (GPa) = 24.34958 30.56012 27.45485
# Shear Modulus (GPa) = 22.68364 28.71372 25.69868
#
# Velocity S-wave (km/s) = 3.11421 3.50377 3.31472
# Velocity P-wave (km/s) = 4.83132 5.42535 5.13693
#
# Compressibility (1/GPa) = 0.04106846
#
# Stress axis : x y z
#
# Youngs Moduli (GPa) = 66.61007 77.42861 45.65369
#
# Poissons Ratio (x) = 0.31616 0.08788
# Poissons Ratio (y) = 0.27199 -0.07426
# Poissons Ratio (z) = 0.12822 -0.12594
#
# Static dielectric constant tensor:
#      x y z
#    x 1.955480 0.000000 -0.005950 
#    y 0.000000 1.785390 0.000000 
#    z -0.005950 0.000000 1.998050 
# 
# From -- ./inp_files/368994.got.cif
#   From: 2010.05.17/outbox.cif.g08.bks.cpg/sg12_185_cif.got.tgz:368994.got - 2010.06.03 13:09:07.
