data_PCOD9207743
_publ_section_title
;
Structure prediction by ZEFSAII (Michael W. Deem and Ramdas Pophale) SiO2 
 PCOD9207743
Probable space group: C 2/M
;
_chemical_formula_sum "Si O2"
_cell_formula_units_Z 52
_cell_length_a 20.455701
_cell_length_b 19.421851
_cell_length_c 8.731215
_cell_angle_alpha 90.000000
_cell_angle_beta 127.699210
_cell_angle_gamma 90.000000
_cell_volume 2744.628011
_symmetry_space_group_name_H-M "C 2/M"
_symmetry_group_IT_number 12
_symmetry_cell_setting 'monoclinic'
loop_
_space_group_symop_operation_xyz
x,y,z
-x,y,-z
-x,-y,-z
x,-y,z
1/2+x,1/2+y,z
1/2-x,1/2+y,-z
1/2-x,1/2-y,-z
1/2+x,1/2-y,z
loop_
_atom_site_type_symbol
_atom_site_label
_atom_site_fract_x
_atom_site_fract_y
_atom_site_fract_z
Si Si1 0.418751 0.174571 0.979263
Si Si2 0.168813 0.074364 0.628481
Si Si3 0.243942 0.669912 0.453662
Si Si4 0.832038 0.422321 0.074840
Si Si5 0.221818 0.917201 0.201374
Si Si6 0.051953 0.835025 0.915761
Si Si7 0.500000 0.377306 0.500000
O O1 0.340963 0.161992 0.758224
O O2 0.500000 0.155929 0.000000
O O3 0.398720 0.128738 0.098761
O O4 0.423740 0.255012 0.029042
O O5 0.180877 0.141132 0.540960
O O6 0.084489 0.080651 0.600177
O O7 0.168394 0.000000 0.544548
O O8 0.249663 0.075045 0.850697
O O9 0.250000 0.750000 0.500000
O O10 0.247716 0.619953 0.602716
O O11 0.865137 0.500000 0.130790
O O12 0.792434 0.401149 0.178235
O O13 0.213663 0.000000 0.199617
O O14 0.133654 0.882774 0.034528
O O15 0.011427 0.842080 0.686609
O O16 0.000000 0.851738 0.000000
#
# Coordination Sequence:
#
# PCOD9207743 Si02
#       7
#     8   8   8   8   8   8   4
#     4  10  23  43  63  90 126 163 214 275 322 380
#     4  10  21  37  59  90 124 165 210 252 309 386
#     4  11  22  39  65  87 123 169 212 262 324 381
#     4   9  20  40  62  87 121 162 214 265 317 380
#     4  11  22  40  63  93 128 166 214 265 320 391
#     4  11  24  41  60  96 139 171 217 263 317 389
#     4  12  23  36  66  96 133 180 210 258 323 388
#
# _framework density 18.946102
#
# number of rings (size 3 to 8) (size 9 to 14) (size 15 to 20)
#    0.000    1.538    3.077    1.615    2.154    3.692 
#    0.000    0.000    0.000    1.846    0.000    0.000 
#    0.000    0.000    0.000    0.000    0.000    0.000 
#
# Total GULP energy -144847.879372 kJ/mol
# GULP energy per Si atom -5571.072284 kJ/mol
# Density = 1.890298 g / cm^3
# Si number density = 18.946102 Si / 1000 Ang^3
#
#
#
# Elastic Constant Matrix: (Units=GPa)
#
#
# Indices 1 2 3 4 5 6 
#
# 1 140.0685 69.9725 28.6081 0.0000 -2.8256 0.0000
# 2 69.9725 64.7031 12.7052 0.0000 -0.7065 0.0000
# 3 28.6081 12.7052 76.0590 0.0000 -12.7736 0.0000
# 4 0.0000 0.0000 0.0000 686.3972 0.0000 -137.4067
# 5 -2.8256 -0.7065 -12.7736 0.0000 30.0668 0.0000
# 6 0.0000 0.0000 0.0000 -137.4067 0.0000 58.2370
#
#
#
# Elastic Compliance Matrix: (Units=1/GPa)
#
#
# Indices 1 2 3 4 5 6 
#
# 1 0.016291 -0.016965 -0.003342 0.000000 -0.000287 0.000000
# 2 -0.016965 0.033664 0.000670 0.000000 -0.000518 0.000000
# 3 -0.003342 0.000670 0.015337 0.000000 0.006217 0.000000
# 4 0.000000 0.000000 0.000000 0.002761 0.000000 0.006514
# 5 -0.000287 -0.000518 0.006217 0.000000 0.035861 0.000000
# 6 0.000000 0.000000 0.000000 0.006514 0.000000 0.032541
#
#
# Mechanical properties :
#
#
# Convention : Reuss Voigt Hill
#
# Bulk Modulus (GPa) = 38.43238 55.93357 47.18298
# Shear Modulus (GPa) = 27.11482 166.24319 96.67900
#
# Velocity S-wave (km/s) = 3.78717 9.37741 7.15117
# Velocity P-wave (km/s) = 6.28113 12.11752 9.65109
#
# Compressibility (1/GPa) = 0.02601972
#
# Stress axis : x y z
#
# Youngs Moduli (GPa) = 61.38379 29.70527 65.20230
#
# Poissons Ratio (x) = 0.50394 0.21790
# Poissons Ratio (y) = 1.04135 -0.04372
# Poissons Ratio (z) = 0.20514 -0.01992
#
# Static dielectric constant tensor:
#      x y z
#    x 1.557930 0.000000 0.022480 
#    y 0.000000 1.649290 0.000000 
#    z 0.022480 0.000000 1.657720 
# 
# From -- ./inp_files/88496.got.cif
#   From: 2010.05.17/outbox.cif.g08.bks.cpg/sg12_45_cif.got.tgz:88496.got - 2010.06.03 13:09:07.
