data_PCOD9207283
_publ_section_title
;
Structure prediction by ZEFSAII (Michael W. Deem and Ramdas Pophale) SiO2 
 PCOD9207283
Probable space group: C 2/M
;
_chemical_formula_sum "Si O2"
_cell_formula_units_Z 64
_cell_length_a 28.115798
_cell_length_b 8.458167
_cell_length_c 22.579662
_cell_angle_alpha 90.000000
_cell_angle_beta 146.711199
_cell_angle_gamma 90.000000
_cell_volume 2947.170394
_symmetry_space_group_name_H-M "C 2/M"
_symmetry_group_IT_number 12
_symmetry_cell_setting 'monoclinic'
loop_
_space_group_symop_operation_xyz
x,y,z
-x,y,-z
-x,-y,-z
x,-y,z
1/2+x,1/2+y,z
1/2-x,1/2+y,-z
1/2-x,1/2-y,-z
1/2+x,1/2-y,z
loop_
_atom_site_type_symbol
_atom_site_label
_atom_site_fract_x
_atom_site_fract_y
_atom_site_fract_z
Si Si1 0.532855 0.691385 0.321208
Si Si2 0.766247 0.191138 0.710712
Si Si3 0.721326 0.188661 0.534957
Si Si4 0.085241 0.325900 0.049435
Si Si5 0.796650 0.320056 0.992356
Si Si6 0.967428 0.820261 0.129556
Si Si7 0.094659 0.682566 0.596850
Si Si8 0.881436 0.181069 0.256692
O O1 0.538741 0.500000 0.325340
O O2 0.620967 0.761634 0.438860
O O3 0.523109 0.747216 0.242467
O O4 0.448338 0.727428 0.273615
O O5 0.772841 0.242625 0.648327
O O6 0.841491 0.241146 0.834739
O O7 0.673437 0.249054 0.640030
O O8 0.765162 0.000000 0.709675
O O9 0.750000 0.250000 0.500000
O O10 0.728473 0.000000 0.540545
O O11 0.120385 0.500000 0.071713
O O12 0.047126 0.255892 0.949156
O O13 0.000000 0.336075 0.000000
O O14 0.830544 0.500000 0.035598
O O15 0.718623 0.326419 0.865226
O O16 0.750000 0.250000 0.000000
O O17 0.870912 0.197207 0.054474
O O18 0.995753 0.000000 0.150051
O O19 0.084587 0.500000 0.566911
O O20 0.117563 0.695873 0.689283
O O21 0.000000 0.761076 0.500000
O O22 0.906103 0.000000 0.299781
#
# Coordination Sequence:
#
# PCOD9207283 Si02
#       8
#     8   8   8   8   8   8   8   8
#     4  10  22  41  62  91 129 168 210 259 314 375
#     4  10  23  44  67  93 127 169 214 260 317 386
#     4  11  25  44  68  96 124 160 208 261 323 382
#     4  11  26  45  66  95 127 163 214 272 328 385
#     4  11  21  36  57  87 126 167 209 253 308 368
#     4  11  23  41  64  92 129 171 216 263 318 381
#     4  10  21  38  61  90 125 163 208 254 300 364
#     4  10  21  37  57  87 126 163 205 250 302 365
#
# _framework density 21.715744000000001
#
# number of rings (size 3 to 8) (size 9 to 14) (size 15 to 20)
#    0.000    1.500    1.250    3.000    1.750    8.250 
#    0.000    0.000    0.000    0.000    0.000    0.000 
#    0.000    0.000    0.000    0.000    0.000    0.000 
#
# Total GULP energy -178420.366265 kJ/mol
# GULP energy per Si atom -5575.636446 kJ/mol
# Density = 2.166632 g / cm^3
# Si number density = 21.715744 Si / 1000 Ang^3
#
#
#
# Elastic Constant Matrix: (Units=GPa)
#
#
# Indices 1 2 3 4 5 6 
#
# 1 79.9844 2.7235 2.9703 0.0000 -22.0506 0.0000
# 2 2.7235 24.3400 9.7799 0.0000 -13.9884 0.0000
# 3 2.9703 9.7799 64.6708 0.0000 -15.2392 0.0000
# 4 0.0000 0.0000 0.0000 26.4887 0.0000 -3.1004
# 5 -22.0506 -13.9884 -15.2392 0.0000 38.9731 0.0000
# 6 0.0000 0.0000 0.0000 -3.1004 0.0000 27.1544
#
#
#
# Elastic Compliance Matrix: (Units=1/GPa)
#
#
# Indices 1 2 3 4 5 6 
#
# 1 0.015206 0.003822 0.001183 0.000000 0.010438 0.000000
# 2 0.003822 0.053584 -0.003566 0.000000 0.020001 0.000000
# 3 0.001183 -0.003566 0.017408 0.000000 0.006196 0.000000
# 4 0.000000 0.000000 0.000000 0.038263 0.000000 0.004369
# 5 0.010438 0.020001 0.006196 0.000000 0.041166 0.000000
# 6 0.000000 0.000000 0.000000 0.004369 0.000000 0.037325
#
#
# Mechanical properties :
#
#
# Convention : Reuss Voigt Hill
#
# Bulk Modulus (GPa) = 11.22629 22.21585 16.72107
# Shear Modulus (GPa) = 21.76119 28.75799 25.25959
#
# Velocity S-wave (km/s) = 3.16902 3.64303 3.41426
# Velocity P-wave (km/s) = 4.30942 5.28659 4.82282
#
# Compressibility (1/GPa) = 0.08907661
#
# Stress axis : x y z
#
# Youngs Moduli (GPa) = 65.76398 18.66213 57.44498
#
# Poissons Ratio (x) = -0.07132 -0.06797
# Poissons Ratio (y) = -0.25134 0.20484
# Poissons Ratio (z) = -0.07781 0.06655
#
# Static dielectric constant tensor:
#      x y z
#    x 1.773230 0.000000 -0.046450 
#    y 0.000000 1.803690 0.000000 
#    z -0.046450 0.000000 1.470430 
# 
# From -- ./inp_files/353541.got.cif
#   From: 2010.05.17/outbox.cif.g08.bks.cpg/sg12_177_cif.got.tgz:353541.got - 2010.06.03 13:09:07.
