data_PCOD9207169
_publ_section_title
;
Structure prediction by ZEFSAII (Michael W. Deem and Ramdas Pophale) SiO2 
 PCOD9207169
Probable space group: C 2/M
;
_chemical_formula_sum "Si O2"
_cell_formula_units_Z 56
_cell_length_a 22.294596
_cell_length_b 23.066702
_cell_length_c 5.978006
_cell_angle_alpha 90.000000
_cell_angle_beta 67.868226
_cell_angle_gamma 90.000000
_cell_volume 2847.753726
_symmetry_space_group_name_H-M "C 2/M"
_symmetry_group_IT_number 12
_symmetry_cell_setting 'monoclinic'
loop_
_space_group_symop_operation_xyz
x,y,z
-x,y,-z
-x,-y,-z
x,-y,z
1/2+x,1/2+y,z
1/2-x,1/2+y,-z
1/2-x,1/2-y,-z
1/2+x,1/2-y,z
loop_
_atom_site_type_symbol
_atom_site_label
_atom_site_fract_x
_atom_site_fract_y
_atom_site_fract_z
Si Si1 0.213237 0.229844 0.833570
Si Si2 0.172412 0.328609 0.610025
Si Si3 0.758570 0.067170 0.628436
Si Si4 0.395226 0.435031 0.165339
Si Si5 0.468985 0.798623 0.290441
Si Si6 0.447440 0.664092 0.384789
Si Si7 0.843808 0.873633 0.853263
O O1 0.169865 0.284373 0.823010
O O2 0.271290 0.205127 0.601808
O O3 0.250000 0.250000 0.000000
O O4 0.170039 0.173968 0.940612
O O5 0.201729 0.391514 0.619753
O O6 0.102183 0.327413 0.600627
O O7 0.822829 0.068602 0.379239
O O8 0.782487 0.095439 0.828460
O O9 0.740295 0.000000 0.678488
O O10 0.418757 0.500000 0.174136
O O11 0.439212 0.386061 0.215215
O O12 0.386577 0.421925 0.915091
O O13 0.500000 0.808387 0.500000
O O14 0.461171 0.728713 0.284251
O O15 0.500000 0.816079 0.000000
O O16 0.500000 0.649667 0.500000
O O17 0.378960 0.661889 0.609538
#
# Coordination Sequence:
#
# PCOD9207169 Si02
#       7
#     8   8   8   8   8   8   8
#     4  11  21  33  61  94 122 153 200 267 326 376
#     4  11  23  38  61  95 123 160 209 257 321 384
#     4  10  21  38  58  90 125 160 201 254 319 385
#     4  10  21  37  57  82 119 161 208 262 312 364
#     4  11  27  44  67  93 130 170 209 261 321 384
#     4  10  24  38  57  82 117 169 213 259 308 375
#     4  11  20  36  58  87 124 158 204 260 320 378
#
# _framework density 19.664622000000001
#
# number of rings (size 3 to 8) (size 9 to 14) (size 15 to 20)
#    0.000    1.429    2.857    2.143   14.000    0.857 
#    0.000    0.714    0.000    0.857    0.000    0.000 
#    0.000    0.000    0.000    0.000    0.000    0.000 
#
# Total GULP energy -156095.380385 kJ/mol
# GULP energy per Si atom -5574.835014 kJ/mol
# Density = 1.961986 g / cm^3
# Si number density = 19.664622 Si / 1000 Ang^3
#
#
#
# Elastic Constant Matrix: (Units=GPa)
#
#
# Indices 1 2 3 4 5 6 
#
# 1 115.9907 57.0231 16.3337 0.0000 12.6798 0.0000
# 2 57.0231 103.3695 11.0450 0.0000 3.7728 0.0000
# 3 16.3337 11.0450 46.4939 0.0000 -2.3415 0.0000
# 4 0.0000 0.0000 0.0000 19.0652 0.0000 -0.4380
# 5 12.6798 3.7728 -2.3415 0.0000 27.6784 0.0000
# 6 0.0000 0.0000 0.0000 -0.4380 0.0000 25.6142
#
#
#
# Elastic Compliance Matrix: (Units=1/GPa)
#
#
# Indices 1 2 3 4 5 6 
#
# 1 0.012883 -0.006569 -0.003231 0.000000 -0.005280 0.000000
# 2 -0.006569 0.013343 -0.000805 0.000000 0.001122 0.000000
# 3 -0.003231 -0.000805 0.023013 0.000000 0.003537 0.000000
# 4 0.000000 0.000000 0.000000 0.052472 0.000000 0.000897
# 5 -0.005280 0.001122 0.003537 0.000000 0.038694 0.000000
# 6 0.000000 0.000000 0.000000 0.000897 0.000000 0.039056
#
#
# Mechanical properties :
#
#
# Convention : Reuss Voigt Hill
#
# Bulk Modulus (GPa) = 35.67942 48.29529 41.98735
# Shear Modulus (GPa) = 23.80784 26.56838 25.18811
#
# Velocity S-wave (km/s) = 3.48328 3.67968 3.58283
# Velocity P-wave (km/s) = 5.86182 6.53194 6.20593
#
# Compressibility (1/GPa) = 0.02802736
#
# Stress axis : x y z
#
# Youngs Moduli (GPa) = 77.62209 74.94687 43.45397
#
# Poissons Ratio (x) = 0.49231 0.14041
# Poissons Ratio (y) = 0.50989 0.03500
# Poissons Ratio (z) = 0.25082 0.06037
#
# Static dielectric constant tensor:
#      x y z
#    x 1.627760 0.000000 0.109380 
#    y 0.000000 1.321210 0.000000 
#    z 0.109380 0.000000 1.725490 
# 
# From -- ./inp_files/21630.got.cif
#   From: 2010.05.17/outbox.cif.g08.bks.cpg/sg12_11_cif.got.tgz:21630.got - 2010.06.03 13:09:07.
