data_PCOD9207201
_publ_section_title
;
Structure prediction by ZEFSAII (Michael W. Deem and Ramdas Pophale) SiO2 
 PCOD9207201
Probable space group: C 2/M
;
_chemical_formula_sum "Si O2"
_cell_formula_units_Z 48
_cell_length_a 21.157472
_cell_length_b 21.184758
_cell_length_c 5.037838
_cell_angle_alpha 90.000000
_cell_angle_beta 87.673395
_cell_angle_gamma 90.000000
_cell_volume 2256.177806
_symmetry_space_group_name_H-M "C 2/M"
_symmetry_group_IT_number 12
_symmetry_cell_setting 'monoclinic'
loop_
_space_group_symop_operation_xyz
x,y,z
-x,y,-z
-x,-y,-z
x,-y,z
1/2+x,1/2+y,z
1/2-x,1/2+y,-z
1/2-x,1/2-y,-z
1/2+x,1/2-y,z
loop_
_atom_site_type_symbol
_atom_site_label
_atom_site_fract_x
_atom_site_fract_y
_atom_site_fract_z
Si Si1 0.265009 0.856236 0.553648
Si Si2 0.197445 0.570914 0.953224
Si Si3 0.107409 0.288308 0.553627
Si Si4 0.430465 0.135278 0.938094
Si Si5 0.924720 0.926931 0.059553
Si Si6 0.379973 0.352021 0.567315
O O1 0.288221 0.911665 0.352156
O O2 0.317483 0.802113 0.499778
O O3 0.193927 0.842909 0.482871
O O4 0.268560 0.880154 0.854838
O O5 0.216611 0.500000 0.010199
O O6 0.123232 0.582731 0.017305
O O7 0.074041 0.335830 0.353938
O O8 0.090492 0.216936 0.484885
O O9 0.088759 0.308830 0.852684
O O10 0.500000 0.113282 0.000000
O O11 0.891512 0.880875 0.854242
O O12 0.904744 0.000000 0.029685
O O13 0.908361 0.901712 0.353510
O O14 0.000000 0.923895 0.000000
#
# Coordination Sequence:
#
# PCOD9207201 Si02
#       6
#     8   8   8   8   8   8
#     4  10  22  38  57  86 119 146 184 239 284 326
#     4  10  21  37  57  83 117 153 189 234 280 326
#     4  10  22  38  57  86 119 146 184 239 284 326
#     4  10  21  37  57  83 117 153 189 234 280 326
#     4  11  26  44  59  84 118 146 185 240 284 327
#     4  12  23  39  66  86 108 154 192 221 283 356
#
# _framework density 21.274919000000001
#
# number of rings (size 3 to 8) (size 9 to 14) (size 15 to 20)
#    0.000    1.500    0.000    4.500    0.000    9.667 
#    0.000    6.667    0.000    6.000    0.000    0.000 
#    0.000    0.000    0.000    0.000    0.000    0.000 
#
# Total GULP energy -134221.867297 kJ/mol
# GULP energy per Si atom -5592.577804 kJ/mol
# Density = 2.122650 g / cm^3
# Si number density = 21.274919 Si / 1000 Ang^3
#
#
#
# Elastic Constant Matrix: (Units=GPa)
#
#
# Indices 1 2 3 4 5 6 
#
# 1 68.1505 -22.5891 -4.3598 0.0000 9.3650 0.0000
# 2 -22.5891 61.2987 -6.2177 0.0000 -5.0537 0.0000
# 3 -4.3598 -6.2177 50.4768 0.0000 -1.3699 0.0000
# 4 0.0000 0.0000 0.0000 14.6437 0.0000 3.5731
# 5 9.3650 -5.0537 -1.3699 0.0000 24.5905 0.0000
# 6 0.0000 0.0000 0.0000 3.5731 0.0000 1.7286
#
#
#
# Elastic Compliance Matrix: (Units=1/GPa)
#
#
# Indices 1 2 3 4 5 6 
#
# 1 0.017619 0.006274 0.002151 0.000000 -0.005301 0.000000
# 2 0.006274 0.019063 0.002936 0.000000 0.001692 0.000000
# 3 0.002151 0.002936 0.020383 0.000000 0.000920 0.000000
# 4 0.000000 0.000000 0.000000 0.137782 0.000000 -0.284802
# 5 -0.005301 0.001692 0.000920 0.000000 0.043084 0.000000
# 6 0.000000 0.000000 0.000000 -0.284802 0.000000 1.167191
#
#
# Mechanical properties :
#
#
# Convention : Reuss Voigt Hill
#
# Bulk Modulus (GPa) = 12.53344 12.62140 12.57742
# Shear Modulus (GPa) = 3.54862 22.39875 12.97369
#
# Velocity S-wave (km/s) = 1.29291 3.24825 2.47211
# Velocity P-wave (km/s) = 2.85180 4.47365 3.75142
#
# Compressibility (1/GPa) = 0.07978653
#
# Stress axis : x y z
#
# Youngs Moduli (GPa) = 56.75710 52.45804 49.05934
#
# Poissons Ratio (x) = -0.32912 -0.10552
# Poissons Ratio (y) = -0.35609 -0.14404
# Poissons Ratio (z) = -0.12207 -0.15402
#
# Static dielectric constant tensor:
#      x y z
#    x 1.779930 0.000000 -0.007940 
#    y 0.000000 1.720650 0.000000 
#    z -0.007940 0.000000 1.708110 
# 
# From -- ./inp_files/20939.got.cif
#   From: 2010.05.17/outbox.cif.g08.bks.cpg/sg12_11_cif.got.tgz:20939.got - 2010.06.03 13:09:07.
