data_PCOD9207541
_publ_section_title
;
Structure prediction by ZEFSAII (Michael W. Deem and Ramdas Pophale) SiO2 
 PCOD9207541
Probable space group: C 2/M
;
_chemical_formula_sum "Si O2"
_cell_formula_units_Z 60
_cell_length_a 28.574689
_cell_length_b 18.136223
_cell_length_c 5.613247
_cell_angle_alpha 90.000000
_cell_angle_beta 79.081852
_cell_angle_gamma 90.000000
_cell_volume 2856.335568
_symmetry_space_group_name_H-M "C 2/M"
_symmetry_group_IT_number 12
_symmetry_cell_setting 'monoclinic'
loop_
_space_group_symop_operation_xyz
x,y,z
-x,y,-z
-x,-y,-z
x,-y,z
1/2+x,1/2+y,z
1/2-x,1/2+y,-z
1/2-x,1/2-y,-z
1/2+x,1/2-y,z
loop_
_atom_site_type_symbol
_atom_site_label
_atom_site_fract_x
_atom_site_fract_y
_atom_site_fract_z
Si Si1 0.856268 0.415031 0.555815
Si Si2 0.331850 0.582451 0.725165
Si Si3 0.417677 0.420029 0.262701
Si Si4 0.743616 0.581331 0.582322
Si Si5 0.702971 0.287826 0.932483
Si Si6 0.500000 0.629009 0.500000
Si Si7 0.448631 0.286712 0.925753
Si Si8 0.126805 0.335871 0.949166
O O1 0.871289 0.500000 0.557107
O O2 0.799899 0.412669 0.550544
O O3 0.863612 0.379235 0.811071
O O4 0.878773 0.378977 0.295667
O O5 0.338773 0.500000 0.827784
O O6 0.373354 0.586739 0.486073
O O7 0.279273 0.580455 0.656530
O O8 0.329232 0.659253 0.867964
O O9 0.414016 0.500000 0.146371
O O10 0.468856 0.417333 0.346392
O O11 0.419709 0.351040 0.087347
O O12 0.730578 0.500000 0.697800
O O13 0.720935 0.652218 0.726474
O O14 0.750000 0.250000 0.000000
O O15 0.670319 0.221683 0.871495
O O16 0.539129 0.681396 0.343025
O O17 0.419886 0.212364 0.959667
O O18 0.500000 0.278589 0.000000
#
# Coordination Sequence:
#
# PCOD9207541 Si02
#       8
#     8   8   8   8   8   4   8   8
#     4  11  26  47  71  99 131 173 219 270 338 405
#     4  10  22  38  58  84 131 181 223 270 326 386
#     4  10  21  37  58  90 130 178 227 271 318 384
#     4  10  22  39  59  87 133 180 226 269 324 389
#     4  12  23  35  59  95 130 172 222 277 322 382
#     4  10  21  38  60  92 127 174 222 270 327 390
#     4  10  24  40  65  95 131 170 216 271 335 393
#     4  12  26  43  73  99 135 171 217 279 328 403
#
# _framework density 21.005932999999999
#
# number of rings (size 3 to 8) (size 9 to 14) (size 15 to 20)
#    0.000    1.333    1.333    3.400    7.467    4.000 
#    0.000    3.333    0.000    2.400    0.000    0.000 
#    0.000    0.000    0.000    0.000    0.000    0.000 
#
# Total GULP energy -167479.354222 kJ/mol
# GULP energy per Si atom -5582.645141 kJ/mol
# Density = 2.095812 g / cm^3
# Si number density = 21.005933 Si / 1000 Ang^3
#
#
#
# Elastic Constant Matrix: (Units=GPa)
#
#
# Indices 1 2 3 4 5 6 
#
# 1 68.9971 29.9612 9.2413 0.0000 4.3129 0.0000
# 2 29.9612 155.8967 55.3173 0.0000 4.4948 0.0000
# 3 9.2413 55.3173 79.8687 0.0000 -1.5446 0.0000
# 4 0.0000 0.0000 0.0000 0.3027 0.0000 27.8756
# 5 4.3129 4.4948 -1.5446 0.0000 27.3465 0.0000
# 6 0.0000 0.0000 0.0000 27.8756 0.0000 -1.1506
#
#
#
# Elastic Compliance Matrix: (Units=1/GPa)
#
#
# Indices 1 2 3 4 5 6 
#
# 1 0.015927 -0.003097 0.000264 0.000000 -0.001988 0.000000
# 2 -0.003097 0.009190 -0.006033 0.000000 -0.001363 0.000000
# 3 0.000264 -0.006033 0.016705 0.000000 0.001894 0.000000
# 4 0.000000 0.000000 0.000000 0.001480 0.000000 0.035858
# 5 -0.001988 -0.001363 0.001894 0.000000 0.037212 0.000000
# 6 0.000000 0.000000 0.000000 0.035858 0.000000 -0.000389
#
#
# Mechanical properties :
#
#
# Convention : Reuss Voigt Hill
#
# Bulk Modulus (GPa) = 41.51190 54.86690 48.18940
# Shear Modulus (GPa) = 47.22017 19.31592 33.26804
#
# Velocity S-wave (km/s) = 4.74639 3.03569 3.98395
# Velocity P-wave (km/s) = 7.05993 6.20191 6.64478
#
# Compressibility (1/GPa) = 0.02408948
#
# Stress axis : x y z
#
# Youngs Moduli (GPa) = 62.78544 108.81770 59.86249
#
# Poissons Ratio (x) = 0.33704 -0.01580
# Poissons Ratio (y) = 0.19447 0.36114
# Poissons Ratio (z) = -0.01657 0.65647
#
# Static dielectric constant tensor:
#      x y z
#    x 1.760430 0.000000 0.034170 
#    y 0.000000 1.733300 0.000000 
#    z 0.034170 0.000000 1.831210 
# 
# From -- ./inp_files/32017.got.cif
#   From: 2010.05.17/outbox.cif.g08.bks.cpg/sg12_17_cif.got.tgz:32017.got - 2010.06.03 13:09:07.
