data_PCOD9207253
_publ_section_title
;
Structure prediction by ZEFSAII (Michael W. Deem and Ramdas Pophale) SiO2 
 PCOD9207253
Probable space group: C 2/M
;
_chemical_formula_sum "Si O2"
_cell_formula_units_Z 40
_cell_length_a 20.349314
_cell_length_b 13.727516
_cell_length_c 20.713452
_cell_angle_alpha 90.000000
_cell_angle_beta 19.787888
_cell_angle_gamma 90.000000
_cell_volume 1958.857941
_symmetry_space_group_name_H-M "C 2/M"
_symmetry_group_IT_number 12
_symmetry_cell_setting 'monoclinic'
loop_
_space_group_symop_operation_xyz
x,y,z
-x,y,-z
-x,-y,-z
x,-y,z
1/2+x,1/2+y,z
1/2-x,1/2+y,-z
1/2-x,1/2-y,-z
1/2+x,1/2-y,z
loop_
_atom_site_type_symbol
_atom_site_label
_atom_site_fract_x
_atom_site_fract_y
_atom_site_fract_z
Si Si1 0.871670 0.887446 0.414570
Si Si2 0.704696 0.739644 0.149898
Si Si3 0.286227 0.611199 0.729521
Si Si4 0.889500 0.388379 0.472998
Si Si5 0.353809 0.780523 0.261372
O O1 0.744241 0.883444 0.467754
O O2 0.745807 0.842583 0.589416
O O3 0.065495 0.822818 0.231674
O O4 0.919132 0.000000 0.384644
O O5 0.703508 0.677895 0.217272
O O6 0.595827 0.841052 0.264133
O O7 0.926844 0.747179 0.924305
O O8 0.500000 0.610468 0.500000
O O9 0.234737 0.500000 0.793101
O O10 0.150662 0.656711 0.799683
O O11 0.903440 0.500000 0.481005
O O12 0.779974 0.315342 0.622897
#
# Coordination Sequence:
#
# PCOD9207253 Si02
#       5
#     8   8   8   8   8
#     4  10  21  37  57  85 118 152 187 228 282 338
#     4  11  22  37  59  87 116 148 188 233 282 336
#     4  11  21  37  61  87 117 148 179 224 286 348
#     4  10  23  41  58  79 113 154 196 238 278 324
#     4  11  22  37  59  87 116 148 188 233 282 336
#
# _framework density 20.420062000000001
#
# number of rings (size 3 to 8) (size 9 to 14) (size 15 to 20)
#    0.000    1.400    4.000    4.200    0.000    8.000 
#    0.000    6.000    0.000    2.400    0.000    0.000 
#    0.000    0.000    0.000    0.000    0.000    0.000 
#
# Total GULP energy -111831.720854 kJ/mol
# GULP energy per Si atom -5591.586043 kJ/mol
# Density = 2.037358 g / cm^3
# Si number density = 20.420062 Si / 1000 Ang^3
#
#
#
# Elastic Constant Matrix: (Units=GPa)
#
#
# Indices 1 2 3 4 5 6 
#
# 1 50.3492 8.2365 -0.2078 -0.0103 -1.8539 0.0016
# 2 8.2365 129.5743 11.8085 0.0085 -3.0627 -0.0091
# 3 -0.2078 11.8085 84.9088 0.0171 -33.6074 -0.0085
# 4 -0.0103 0.0085 0.0171 10.4507 -0.0103 -3.5518
# 5 -1.8539 -3.0627 -33.6074 -0.0103 28.9739 0.0032
# 6 0.0016 -0.0091 -0.0085 -3.5518 0.0032 27.7529
#
#
#
# Elastic Compliance Matrix: (Units=1/GPa)
#
#
# Indices 1 2 3 4 5 6 
#
# 1 0.020182 -0.001337 0.001277 0.000022 0.002631 0.000001
# 2 -0.001337 0.007915 -0.001492 -0.000006 -0.000979 0.000002
# 3 0.001277 -0.001492 0.022107 -0.000008 0.025567 0.000002
# 4 0.000022 -0.000006 -0.000008 0.100039 0.000026 0.012803
# 5 0.002631 -0.000979 0.025567 0.000026 0.064234 0.000003
# 6 0.000001 0.000002 0.000002 0.012803 0.000003 0.037671
#
#
# Mechanical properties :
#
#
# Convention : Reuss Voigt Hill
#
# Bulk Modulus (GPa) = 21.23105 33.83410 27.53258
# Shear Modulus (GPa) = 18.45342 29.76851 24.11097
#
# Velocity S-wave (km/s) = 3.00941 3.82227 3.43993
# Velocity P-wave (km/s) = 4.74290 6.00705 5.41201
#
# Compressibility (1/GPa) = 0.04710083
#
# Stress axis : x y z
#
# Youngs Moduli (GPa) = 49.54876 126.33654 45.23385
#
# Poissons Ratio (x) = 0.16892 -0.05775
# Poissons Ratio (y) = 0.06625 0.06747
# Poissons Ratio (z) = -0.06325 0.18844
#
# Static dielectric constant tensor:
#      x y z
#    x 1.746520 0.000000 -0.021270 
#    y 0.000000 1.721930 0.000010 
#    z -0.021270 0.000010 1.745140 
# 
# From -- ./inp_files/316620.got.cif
#   From: 2010.05.17/outbox.cif.g08.bks.cpg/sg12_159_cif.got.tgz:316620.got - 2010.06.03 13:09:07.
