data_PCOD9207443
_publ_section_title
;
Structure prediction by ZEFSAII (Michael W. Deem and Ramdas Pophale) SiO2 
 PCOD9207443
Probable space group: C 2/M
;
_chemical_formula_sum "Si O2"
_cell_formula_units_Z 48
_cell_length_a 23.208857
_cell_length_b 16.079232
_cell_length_c 9.369689
_cell_angle_alpha 90.000000
_cell_angle_beta 33.442466
_cell_angle_gamma 90.000000
_cell_volume 1926.966357
_symmetry_space_group_name_H-M "C 2/M"
_symmetry_group_IT_number 12
_symmetry_cell_setting 'monoclinic'
loop_
_space_group_symop_operation_xyz
x,y,z
-x,y,-z
-x,-y,-z
x,-y,z
1/2+x,1/2+y,z
1/2-x,1/2+y,-z
1/2-x,1/2-y,-z
1/2+x,1/2-y,z
loop_
_atom_site_type_symbol
_atom_site_label
_atom_site_fract_x
_atom_site_fract_y
_atom_site_fract_z
Si Si1 0.119572 0.180193 0.546533
Si Si2 0.649974 0.872213 0.425004
Si Si3 0.426767 0.268582 0.785056
Si Si4 0.270278 0.409098 0.448990
Si Si5 0.794161 0.907012 0.899545
Si Si6 0.591465 0.093037 0.045182
O O1 0.153050 0.273097 0.436285
O O2 0.154086 0.158104 0.634765
O O3 0.178442 0.115432 0.320066
O O4 0.997548 0.184041 0.756574
O O5 0.738442 0.903176 0.350949
O O6 0.534429 0.902103 0.707301
O O7 0.678667 0.901042 0.206387
O O8 0.500000 0.244324 0.500000
O O9 0.350102 0.334498 0.873294
O O10 0.383620 0.182195 0.933561
O O11 0.316463 0.500000 0.382391
O O12 0.158724 0.403393 0.761528
O O13 0.833677 0.000000 0.844881
O O14 0.615804 0.000000 0.056321
#
# Coordination Sequence:
#
# PCOD9207443 Si02
#       6
#     8   8   8   8   8   8
#     4  10  22  39  60  85 116 154 196 243 291 346
#     4  11  22  39  60  86 119 156 195 239 293 349
#     4   9  21  39  59  85 116 154 198 242 293 348
#     4  11  22  37  59  87 118 153 194 239 291 350
#     4  11  22  39  63  87 117 156 197 243 292 346
#     4  10  21  37  58  85 119 156 194 238 290 350
#
# _framework density 24.909621999999999
#
# number of rings (size 3 to 8) (size 9 to 14) (size 15 to 20)
#    0.000    1.667    0.000    4.500    0.000    8.000 
#    0.000    4.167    0.000    2.000    0.000    0.000 
#    0.000    0.000    0.000    0.000    0.000    0.000 
#
# Total GULP energy -134204.879993 kJ/mol
# GULP energy per Si atom -5591.870000 kJ/mol
# Density = 2.485293 g / cm^3
# Si number density = 24.909622 Si / 1000 Ang^3
#
#
#
# Elastic Constant Matrix: (Units=GPa)
#
#
# Indices 1 2 3 4 5 6 
#
# 1 96.1837 12.1696 12.2719 0.0000 -6.8182 0.0000
# 2 12.1696 140.3234 3.1556 0.0000 3.9464 0.0000
# 3 12.2719 3.1556 45.4348 0.0000 9.7683 0.0000
# 4 0.0000 0.0000 0.0000 5.1999 0.0000 -0.4924
# 5 -6.8182 3.9464 9.7683 0.0000 36.6814 0.0000
# 6 0.0000 0.0000 0.0000 -0.4924 0.0000 30.2925
#
#
#
# Elastic Compliance Matrix: (Units=1/GPa)
#
#
# Indices 1 2 3 4 5 6 
#
# 1 0.011209 -0.000979 -0.003638 0.000000 0.003158 0.000000
# 2 -0.000979 0.007239 -0.000034 0.000000 -0.000952 0.000000
# 3 -0.003638 -0.000034 0.024544 0.000000 -0.007209 0.000000
# 4 0.000000 0.000000 0.000000 0.192608 0.000000 0.003131
# 5 0.003158 -0.000952 -0.007209 0.000000 0.029871 0.000000
# 6 0.000000 0.000000 0.000000 0.003131 0.000000 0.033062
#
#
# Mechanical properties :
#
#
# Convention : Reuss Voigt Hill
#
# Bulk Modulus (GPa) = 29.68256 37.45957 33.57107
# Shear Modulus (GPa) = 15.67077 31.39109 23.53093
#
# Velocity S-wave (km/s) = 2.51092 3.55378 3.07685
# Velocity P-wave (km/s) = 4.51090 5.64889 5.11166
#
# Compressibility (1/GPa) = 0.03368981
#
# Stress axis : x y z
#
# Youngs Moduli (GPa) = 89.21649 138.14388 40.74238
#
# Poissons Ratio (x) = 0.13525 0.14823
# Poissons Ratio (y) = 0.08735 0.00137
# Poissons Ratio (z) = 0.32460 0.00465
#
# Static dielectric constant tensor:
#      x y z
#    x 2.006520 0.000000 -0.049880 
#    y 0.000000 1.938760 0.000000 
#    z -0.049880 0.000000 1.994220 
# 
# From -- ./inp_files/183677.got.cif
#   From: 2010.05.17/outbox.cif.g08.bks.cpg/sg12_92_cif.got.tgz:183677.got - 2010.06.03 13:09:07.
