data_PCOD9207785
_publ_section_title
;
Structure prediction by ZEFSAII (Michael W. Deem and Ramdas Pophale) SiO2 
 PCOD9207785
Probable space group: C 2/M
;
_chemical_formula_sum "Si O2"
_cell_formula_units_Z 58
_cell_length_a 18.874978
_cell_length_b 7.286880
_cell_length_c 20.914306
_cell_angle_alpha 90.000000
_cell_angle_beta 51.040209
_cell_angle_gamma 90.000000
_cell_volume 2236.767028
_symmetry_space_group_name_H-M "C 2/M"
_symmetry_group_IT_number 12
_symmetry_cell_setting 'monoclinic'
loop_
_space_group_symop_operation_xyz
x,y,z
-x,y,-z
-x,-y,-z
x,-y,z
1/2+x,1/2+y,z
1/2-x,1/2+y,-z
1/2-x,1/2-y,-z
1/2+x,1/2-y,z
loop_
_atom_site_type_symbol
_atom_site_label
_atom_site_fract_x
_atom_site_fract_y
_atom_site_fract_z
Si Si1 0.350234 0.223304 0.513746
Si Si2 0.838858 0.275750 0.660264
Si Si3 0.364956 0.790068 0.368827
Si Si4 0.869402 0.203756 0.224043
Si Si5 0.157664 0.777170 0.948647
Si Si6 0.000000 0.500000 0.000000
Si Si7 0.143922 0.717069 0.211947
Si Si8 0.440386 0.717406 0.873900
O O1 0.379554 0.280996 0.568443
O O2 0.395488 0.281006 0.421042
O O3 0.245468 0.286740 0.567757
O O4 0.351470 0.000000 0.510984
O O5 0.839214 0.500000 0.656772
O O6 0.731844 0.217626 0.725527
O O7 0.881852 0.214986 0.702748
O O8 0.384303 0.689163 0.292240
O O9 0.396565 0.000000 0.343976
O O10 0.964731 0.298155 0.152605
O O11 0.864000 0.000000 0.197921
O O12 0.256124 0.720504 0.866794
O O13 0.148857 0.000000 0.947092
O O14 0.080131 0.661723 0.958249
O O15 0.141440 0.729129 0.032851
O O16 0.150985 0.500000 0.215594
O O17 0.078974 0.745929 0.188794
O O18 0.450715 0.500000 0.874113
#
# Coordination Sequence:
#
# PCOD9207785 Si02
#       8
#     8   8   8   8   8   2   8   8
#     4   8  14  26  44  66 101 139 172 210 272 341
#     4   8  15  30  52  77 102 138 180 224 279 338
#     4   9  15  24  42  72 102 132 170 223 274 324
#     4   9  18  33  52  74 103 145 182 223 282 336
#     4  10  24  43  62  90 123 154 190 237 286 341
#     4  12  26  40  68  98 116 152 192 240 292 342
#     4  10  21  37  60  82 110 148 190 236 283 335
#     4  10  22  39  59  79 112 153 190 230 281 339
#
# _framework density 25.930281999999998
#
# number of rings (size 3 to 8) (size 9 to 14) (size 15 to 20)
#    0.000    2.759    0.000    1.862    3.862    1.103 
#    0.000    2.759    0.000    0.828    0.000    5.793 
#    0.000    0.000    0.000    0.000    0.000    0.000 
#
# Total GULP energy -161632.910403 kJ/mol
# GULP energy per Si atom -5573.548635 kJ/mol
# Density = 2.587126 g / cm^3
# Si number density = 25.930282 Si / 1000 Ang^3
#
#
#
# Elastic Constant Matrix: (Units=GPa)
#
#
# Indices 1 2 3 4 5 6 
#
# 1 105.7262 -5.3914 46.5183 0.0002 20.5678 0.0007
# 2 -5.3914 114.4141 -12.9963 -0.0005 -1.6185 0.0003
# 3 46.5183 -12.9963 106.0088 -0.0001 57.8442 0.0001
# 4 0.0002 -0.0005 -0.0001 -6.3738 0.0002 -1.8041
# 5 20.5678 -1.6185 57.8442 0.0002 58.1285 0.0002
# 6 0.0007 0.0003 0.0001 -1.8041 0.0002 11.5517
#
#
#
# Elastic Compliance Matrix: (Units=1/GPa)
#
#
# Indices 1 2 3 4 5 6 
#
# 1 0.011845 -0.000138 -0.006402 0.000001 0.002175 -0.000001
# 2 -0.000138 0.008955 0.002179 -0.000001 -0.001870 0.000000
# 3 -0.006402 0.002179 0.024595 -0.000001 -0.022149 0.000000
# 4 0.000001 -0.000001 -0.000001 -0.150250 0.000002 -0.023465
# 5 0.002175 -0.001870 -0.022149 0.000002 0.038422 0.000000
# 6 -0.000001 0.000000 0.000000 -0.023465 0.000000 0.082903
#
#
# Mechanical properties :
#
#
# Convention : Reuss Voigt Hill
#
# Bulk Modulus (GPa) = 27.26835 42.49004 34.87920
# Shear Modulus (GPa) = 133.63043 32.52917 83.07980
#
# Velocity S-wave (km/s) = 7.18654 3.54571 5.66650
# Velocity P-wave (km/s) = 8.91071 5.76061 7.50284
#
# Compressibility (1/GPa) = 0.03667256
#
# Stress axis : x y z
#
# Youngs Moduli (GPa) = 84.42527 111.67311 40.65822
#
# Poissons Ratio (x) = 0.01544 0.26028
# Poissons Ratio (y) = 0.01167 -0.08859
# Poissons Ratio (z) = 0.54046 -0.24331
#
# Static dielectric constant tensor:
#      x y z
#    x 2.040650 0.000000 0.018160 
#    y 0.000000 2.169260 0.000000 
#    z 0.018160 0.000000 2.109390 
# 
# From -- ./inp_files/313906.got.cif
#   From: 2010.05.17/outbox.cif.g08.bks.cpg/sg12_157_cif.got.tgz:313906.got - 2010.06.03 13:09:07.
