data_PCOD9207749
_publ_section_title
;
Structure prediction by ZEFSAII (Michael W. Deem and Ramdas Pophale) SiO2 
 PCOD9207749
Probable space group: C 2/M
;
_chemical_formula_sum "Si O2"
_cell_formula_units_Z 48
_cell_length_a 8.486590
_cell_length_b 22.682886
_cell_length_c 12.269517
_cell_angle_alpha 90.000000
_cell_angle_beta 106.227274
_cell_angle_gamma 90.000000
_cell_volume 2267.790629
_symmetry_space_group_name_H-M "C 2/M"
_symmetry_group_IT_number 12
_symmetry_cell_setting 'monoclinic'
loop_
_space_group_symop_operation_xyz
x,y,z
-x,y,-z
-x,-y,-z
x,-y,z
1/2+x,1/2+y,z
1/2-x,1/2+y,-z
1/2-x,1/2-y,-z
1/2+x,1/2-y,z
loop_
_atom_site_type_symbol
_atom_site_label
_atom_site_fract_x
_atom_site_fract_y
_atom_site_fract_z
Si Si1 0.058462 0.771798 0.888030
Si Si2 0.157505 0.775911 0.585335
Si Si3 0.207052 0.318918 0.764409
Si Si4 0.594977 0.069223 0.844005
Si Si5 0.883335 0.932701 0.068552
Si Si6 0.758411 0.359752 0.798705
O O1 0.115284 0.709145 0.852238
O O2 0.216108 0.811985 0.886272
O O3 0.897036 0.797961 0.796329
O O4 0.000000 0.770355 0.000000
O O5 0.250000 0.750000 0.500000
O O6 0.120969 0.717563 0.651063
O O7 0.237113 0.822756 0.684017
O O8 0.000000 0.804958 0.500000
O O9 0.186059 0.388712 0.773021
O O10 0.422166 0.101775 0.827856
O O11 0.577294 0.000000 0.811138
O O12 0.706400 0.069937 0.974874
O O13 0.878185 0.906222 0.187468
O O14 0.936172 0.000000 0.088884
O O15 0.000000 0.903021 0.000000
#
# Coordination Sequence:
#
# PCOD9207749 Si02
#       6
#     8   8   8   8   8   8
#     4  11  22  36  59  91 128 160 193 251 315 381
#     4  11  23  41  63  87 115 155 207 270 327 364
#     4  11  22  39  61  90 122 159 209 253 312 378
#     4  11  23  39  62  92 130 171 205 243 297 373
#     4  10  21  37  59  90 129 169 203 238 293 373
#     4  11  21  37  59  88 120 159 206 251 304 365
#
# _framework density 21.165975
#
# number of rings (size 3 to 8) (size 9 to 14) (size 15 to 20)
#    0.000    1.167    0.000    9.000    0.000    4.000 
#    0.000    0.833    0.000    7.500    0.000    0.000 
#    0.000    0.000    0.000    0.000    0.000    0.000 
#
# Total GULP energy -133821.142185 kJ/mol
# GULP energy per Si atom -5575.880924 kJ/mol
# Density = 2.111780 g / cm^3
# Si number density = 21.165975 Si / 1000 Ang^3
#
#
#
# Elastic Constant Matrix: (Units=GPa)
#
#
# Indices 1 2 3 4 5 6 
#
# 1 110.7250 47.8453 37.7853 0.0000 -0.4953 0.0000
# 2 47.8453 156.2362 33.0298 0.0000 -8.6232 0.0000
# 3 37.7853 33.0298 94.9120 0.0000 -19.9604 0.0000
# 4 0.0000 0.0000 0.0000 25.0094 0.0000 1.8355
# 5 -0.4953 -8.6232 -19.9604 0.0000 32.7893 0.0000
# 6 0.0000 0.0000 0.0000 1.8355 0.0000 34.2661
#
#
#
# Elastic Compliance Matrix: (Units=1/GPa)
#
#
# Indices 1 2 3 4 5 6 
#
# 1 0.011736 -0.002851 -0.004359 0.000000 -0.003226 0.000000
# 2 -0.002851 0.007606 -0.001262 0.000000 0.001189 0.000000
# 3 -0.004359 -0.001262 0.014481 0.000000 0.008417 0.000000
# 4 0.000000 0.000000 0.000000 0.040143 0.000000 -0.002150
# 5 -0.003226 0.001189 0.008417 0.000000 0.035886 0.000000
# 6 0.000000 0.000000 0.000000 -0.002150 0.000000 0.029299
#
#
# Mechanical properties :
#
#
# Convention : Reuss Voigt Hill
#
# Bulk Modulus (GPa) = 59.24072 66.57711 62.90892
# Shear Modulus (GPa) = 30.91780 34.62712 32.77246
#
# Velocity S-wave (km/s) = 3.82610 4.04911 3.93918
# Velocity P-wave (km/s) = 6.89696 7.30640 7.10463
#
# Compressibility (1/GPa) = 0.01688028
#
# Stress axis : x y z
#
# Youngs Moduli (GPa) = 85.20696 131.47588 69.05766
#
# Poissons Ratio (x) = 0.37479 0.30099
# Poissons Ratio (y) = 0.24289 0.08715
# Poissons Ratio (z) = 0.37138 0.16592
#
# Static dielectric constant tensor:
#      x y z
#    x 1.894980 0.000000 0.043070 
#    y 0.000000 1.858990 0.000000 
#    z 0.043070 0.000000 1.771490 
# 
# From -- ./inp_files/122554.got.cif
#   From: 2010.05.17/outbox.cif.g08.bks.cpg/sg12_62_cif.got.tgz:122554.got - 2010.06.03 13:09:07.
