data_PCOD9207835
_publ_section_title
;
Structure prediction by ZEFSAII (Michael W. Deem and Ramdas Pophale) SiO2 
 PCOD9207835
Probable space group: C 2/M
;
_chemical_formula_sum "Si O2"
_cell_formula_units_Z 56
_cell_length_a 10.353985
_cell_length_b 28.325350
_cell_length_c 9.051534
_cell_angle_alpha 90.000000
_cell_angle_beta 72.090558
_cell_angle_gamma 90.000000
_cell_volume 2526.002407
_symmetry_space_group_name_H-M "C 2/M"
_symmetry_group_IT_number 12
_symmetry_cell_setting 'monoclinic'
loop_
_space_group_symop_operation_xyz
x,y,z
-x,y,-z
-x,-y,-z
x,-y,z
1/2+x,1/2+y,z
1/2-x,1/2+y,-z
1/2-x,1/2-y,-z
1/2+x,1/2-y,z
loop_
_atom_site_type_symbol
_atom_site_label
_atom_site_fract_x
_atom_site_fract_y
_atom_site_fract_z
Si Si1 0.337228 0.553991 0.394549
Si Si2 0.982435 0.141037 0.251823
Si Si3 0.836230 0.448695 0.851268
Si Si4 0.581078 0.099057 0.626401
Si Si5 0.786352 0.852900 0.037854
Si Si6 0.011095 0.310504 0.168892
Si Si7 0.900686 0.235559 0.406803
O O1 0.368384 0.500000 0.424726
O O2 0.464532 0.588716 0.324238
O O3 0.254324 0.551526 0.267247
O O4 0.229902 0.579537 0.540526
O O5 0.889038 0.141696 0.137993
O O6 0.920220 0.179911 0.381325
O O7 0.129910 0.156559 0.140544
O O8 0.821072 0.500000 0.926952
O O9 0.786735 0.403438 0.958527
O O10 0.990292 0.438448 0.748570
O O11 0.500000 0.105298 0.500000
O O12 0.568328 0.148680 0.714825
O O13 0.672440 0.816741 0.134760
O O14 0.951162 0.260959 0.240551
O O15 0.000000 0.318039 0.000000
O O16 0.750000 0.250000 0.500000
O O17 0.000000 0.253461 0.500000
#
# Coordination Sequence:
#
# PCOD9207835 Si02
#       7
#     8   8   8   8   8   8   8
#     4   9  16  29  54  87 119 157 205 253 302 359
#     4  10  21  37  60  87 124 160 206 252 308 367
#     4   8  14  26  50  85 117 153 203 255 302 352
#     4   9  16  31  55  85 122 159 202 257 306 360
#     4   9  20  37  57  86 123 164 197 258 309 366
#     4  11  24  39  64  91 123 161 207 255 316 375
#     4  12  27  45  68  96 125 165 208 262 314 377
#
# _framework density 22.169415000000001
#
# number of rings (size 3 to 8) (size 9 to 14) (size 15 to 20)
#    0.000    2.286    0.000    3.429    4.000    2.857 
#    0.000    2.857    0.000   11.143    0.000    0.000 
#    0.000    0.000    0.000    0.000    0.000    0.000 
#
# Total GULP energy -156400.156137 kJ/mol
# GULP energy per Si atom -5585.719862 kJ/mol
# Density = 2.211896 g / cm^3
# Si number density = 22.169415 Si / 1000 Ang^3
#
#
#
# Elastic Constant Matrix: (Units=GPa)
#
#
# Indices 1 2 3 4 5 6 
#
# 1 58.4062 16.2038 28.6402 0.0000 -23.2453 0.0000
# 2 16.2038 108.5459 27.8914 0.0000 -19.5885 0.0000
# 3 28.6402 27.8914 65.6694 0.0000 -23.5271 0.0000
# 4 0.0000 0.0000 0.0000 -189.0856 0.0000 -38.1183
# 5 -23.2453 -19.5885 -23.5271 0.0000 32.0478 0.0000
# 6 0.0000 0.0000 0.0000 -38.1183 0.0000 9.2525
#
#
#
# Elastic Compliance Matrix: (Units=1/GPa)
#
#
# Indices 1 2 3 4 5 6 
#
# 1 0.025799 0.000344 -0.006266 0.000000 0.014323 0.000000
# 2 0.000344 0.010780 -0.003092 0.000000 0.004569 0.000000
# 3 -0.006266 -0.003092 0.023024 0.000000 0.010468 0.000000
# 4 0.000000 0.000000 0.000000 -0.002889 0.000000 -0.011903
# 5 0.014323 0.004569 0.010468 0.000000 0.052069 0.000000
# 6 0.000000 0.000000 0.000000 -0.011903 0.000000 0.059043
#
#
# Mechanical properties :
#
#
# Convention : Reuss Voigt Hill
#
# Bulk Modulus (GPa) = 24.05306 42.01025 33.03165
# Shear Modulus (GPa) = 25.03584 -18.89798 3.06893
#
# Velocity S-wave (km/s) = 3.36415 -2.92282 1.17784
# Velocity P-wave (km/s) = 5.09541 2.75687 4.09655
#
# Compressibility (1/GPa) = 0.04157475
#
# Stress axis : x y z
#
# Youngs Moduli (GPa) = 38.76074 92.76173 43.43285
#
# Poissons Ratio (x) = -0.03187 0.27216
# Poissons Ratio (y) = -0.01332 0.13428
# Poissons Ratio (z) = 0.24289 0.28679
#
# Static dielectric constant tensor:
#      x y z
#    x 1.896620 0.000000 0.003680 
#    y 0.000000 1.801370 0.000000 
#    z 0.003680 0.000000 1.832420 
# 
# From -- ./inp_files/53166.got.cif
#   From: 2010.05.17/outbox.cif.g08.bks.cpg/sg12_27_cif.got.tgz:53166.got - 2010.06.03 13:09:07.
