data_PCOD9207528
_publ_section_title
;
Structure prediction by ZEFSAII (Michael W. Deem and Ramdas Pophale) SiO2 
 PCOD9207528
Probable space group: C 2/M
;
_chemical_formula_sum "Si O2"
_cell_formula_units_Z 64
_cell_length_a 24.527931
_cell_length_b 8.927208
_cell_length_c 32.361045
_cell_angle_alpha 90.000000
_cell_angle_beta 27.275552
_cell_angle_gamma 90.000000
_cell_volume 3247.288378
_symmetry_space_group_name_H-M "C 2/M"
_symmetry_group_IT_number 12
_symmetry_cell_setting 'monoclinic'
loop_
_space_group_symop_operation_xyz
x,y,z
-x,y,-z
-x,-y,-z
x,-y,z
1/2+x,1/2+y,z
1/2-x,1/2+y,-z
1/2-x,1/2-y,-z
1/2+x,1/2-y,z
loop_
_atom_site_type_symbol
_atom_site_label
_atom_site_fract_x
_atom_site_fract_y
_atom_site_fract_z
Si Si1 0.488842 0.820121 0.556139
Si Si2 0.260596 0.179231 0.766195
Si Si3 0.121690 0.677365 0.078763
Si Si4 0.729564 0.179752 0.874239
Si Si5 0.572747 0.673702 0.192485
Si Si6 0.093298 0.667450 0.636565
Si Si7 0.373060 0.330092 0.467656
Si Si8 0.003718 0.681129 0.922328
O O1 0.500000 0.785307 0.500000
O O2 0.364384 0.780201 0.663337
O O3 0.589726 0.732187 0.513255
O O4 0.503744 0.000000 0.550444
O O5 0.279963 0.242202 0.799490
O O6 0.131914 0.245019 0.840613
O O7 0.255380 0.000000 0.771252
O O8 0.136410 0.500000 0.066516
O O9 0.051530 0.726573 0.166725
O O10 0.055997 0.724434 0.081172
O O11 0.250000 0.750000 0.000000
O O12 0.808493 0.213465 0.861636
O O13 0.734360 0.000000 0.865027
O O14 0.593568 0.220973 0.976968
O O15 0.580583 0.500000 0.175503
O O16 0.468758 0.707344 0.294405
O O17 0.044530 0.500000 0.676537
O O18 0.232016 0.665895 0.554890
O O19 0.078222 0.715808 0.599410
O O20 0.418208 0.500000 0.431177
O O21 0.016665 0.500000 0.914718
#
# Coordination Sequence:
#
# PCOD9207528 Si02
#       8
#     8   8   8   8   8   8   8   8
#     4  10  23  43  63  83 116 158 198 245 304 364
#     4  11  24  39  59  91 118 146 198 253 299 350
#     4  11  22  39  60  84 117 157 199 241 289 346
#     4  10  21  39  60  84 119 160 198 238 292 355
#     4  11  22  37  59  89 121 158 203 243 291 353
#     4  10  21  37  58  89 123 155 194 243 298 354
#     4  10  21  38  61  88 118 152 195 246 299 358
#     4  10  22  41  61  83 118 162 200 238 292 354
#
# _framework density 19.708750999999999
#
# number of rings (size 3 to 8) (size 9 to 14) (size 15 to 20)
#    0.000    1.625    1.250    3.000    0.000    9.750 
#    0.000    2.500    0.000    0.000    0.000    0.000 
#    0.000    0.000    0.000    0.000    0.000    0.000 
#
# Total GULP energy -178722.763810 kJ/mol
# GULP energy per Si atom -5585.086369 kJ/mol
# Density = 1.966389 g / cm^3
# Si number density = 19.708751 Si / 1000 Ang^3
#
#
#
# Elastic Constant Matrix: (Units=GPa)
#
#
# Indices 1 2 3 4 5 6 
#
# 1 103.7927 40.3620 33.2479 0.0059 15.6770 -0.0092
# 2 40.3620 42.6385 19.9120 0.0049 -0.1874 -0.0089
# 3 33.2479 19.9120 54.5982 0.0038 13.1273 -0.0142
# 4 0.0059 0.0049 0.0038 28.7353 0.0016 4.3034
# 5 15.6770 -0.1874 13.1273 0.0016 26.7142 -0.0030
# 6 -0.0092 -0.0089 -0.0142 4.3034 -0.0030 28.1588
#
#
#
# Elastic Compliance Matrix: (Units=1/GPa)
#
#
# Indices 1 2 3 4 5 6 
#
# 1 0.018160 -0.015796 -0.003071 0.000000 -0.009258 -0.000002
# 2 -0.015796 0.042873 -0.009432 -0.000004 0.014206 0.000006
# 3 -0.003071 -0.009432 0.026318 -0.000002 -0.011196 0.000008
# 4 0.000000 -0.000004 -0.000002 0.035616 -0.000002 -0.005443
# 5 -0.009258 0.014206 -0.011196 -0.000002 0.048468 0.000001
# 6 -0.000002 0.000006 0.000008 -0.005443 0.000001 0.036345
#
#
# Mechanical properties :
#
#
# Convention : Reuss Voigt Hill
#
# Bulk Modulus (GPa) = 32.51950 43.11925 37.81937
# Shear Modulus (GPa) = 18.20640 23.88884 21.04762
#
# Velocity S-wave (km/s) = 3.04266 3.48529 3.27147
# Velocity P-wave (km/s) = 5.37397 6.17431 5.78799
#
# Compressibility (1/GPa) = 0.03075078
#
# Stress axis : x y z
#
# Youngs Moduli (GPa) = 55.06718 23.32463 37.99711
#
# Poissons Ratio (x) = 0.36845 0.11671
# Poissons Ratio (y) = 0.86986 0.35839
# Poissons Ratio (z) = 0.16913 0.22000
#
# Static dielectric constant tensor:
#      x y z
#    x 1.685340 0.000000 0.005830 
#    y 0.000000 1.671820 0.000000 
#    z 0.005830 0.000000 1.734540 
# 
# From -- ./inp_files/382368.got.cif
#   From: 2010.05.17/outbox.cif.g08.bks.cpg/sg12_192_cif.got.tgz:382368.got - 2010.06.03 13:09:07.
