data_PCOD9207220
_publ_section_title
;
Structure prediction by ZEFSAII (Michael W. Deem and Ramdas Pophale) SiO2 
 PCOD9207220
Probable space group: C 2/M
;
_chemical_formula_sum "Si O2"
_cell_formula_units_Z 56
_cell_length_a 18.334322
_cell_length_b 8.572439
_cell_length_c 19.099289
_cell_angle_alpha 90.000000
_cell_angle_beta 103.941349
_cell_angle_gamma 90.000000
_cell_volume 2913.407125
_symmetry_space_group_name_H-M "C 2/M"
_symmetry_group_IT_number 12
_symmetry_cell_setting 'monoclinic'
loop_
_space_group_symop_operation_xyz
x,y,z
-x,y,-z
-x,-y,-z
x,-y,z
1/2+x,1/2+y,z
1/2-x,1/2+y,-z
1/2-x,1/2-y,-z
1/2+x,1/2-y,z
loop_
_atom_site_type_symbol
_atom_site_label
_atom_site_fract_x
_atom_site_fract_y
_atom_site_fract_z
Si Si1 0.476768 0.190253 0.572408
Si Si2 0.807951 0.311399 0.570810
Si Si3 0.598557 0.188855 0.716205
Si Si4 0.882505 0.187166 0.856347
Si Si5 0.262985 0.812802 0.717200
Si Si6 0.667704 0.687255 0.999299
Si Si7 0.952349 0.312747 0.139593
O O1 0.500000 0.241407 0.500000
O O2 0.392734 0.240538 0.572827
O O3 0.537649 0.239172 0.644200
O O4 0.476621 0.000000 0.572343
O O5 0.807142 0.500000 0.568780
O O6 0.750000 0.250000 0.500000
O O7 0.783944 0.262157 0.643182
O O8 0.680065 0.255668 0.717729
O O9 0.571742 0.234773 0.787530
O O10 0.602902 0.000000 0.715393
O O11 0.823152 0.246738 0.785742
O O12 0.856316 0.235993 0.927986
O O13 0.964856 0.251970 0.858829
O O14 0.884779 0.000000 0.855248
O O15 0.265760 0.000000 0.720232
O O16 0.668828 0.500000 0.997339
O O17 0.750000 0.750000 0.000000
O O18 0.607365 0.748835 0.929779
O O19 0.952391 0.500000 0.136906
#
# Coordination Sequence:
#
# PCOD9207220 Si02
#       7
#     8   8   8   8   8   8   8
#     4   9  17  32  56  81 107 145 189 230 277 335
#     4  10  21  37  57  84 116 150 191 239 290 345
#     4  10  21  38  59  84 115 151 193 238 287 348
#     4  11  24  41  61  86 117 154 195 238 288 349
#     4  11  23  38  58  86 119 153 193 242 291 342
#     4  11  24  41  61  87 118 153 196 243 291 348
#     4  11  23  39  61  88 118 153 193 241 295 348
#
# _framework density 19.221481000000001
#
# number of rings (size 3 to 8) (size 9 to 14) (size 15 to 20)
#    0.000    1.571    0.000    4.714    0.000   13.143 
#    0.000    0.714    0.000    2.571    0.000    0.000 
#    0.000    0.000    0.000    0.000    0.000    0.000 
#
# Total GULP energy -156582.923851 kJ/mol
# GULP energy per Si atom -5592.247280 kJ/mol
# Density = 1.917773 g / cm^3
# Si number density = 19.221481 Si / 1000 Ang^3
#
#
#
# Elastic Constant Matrix: (Units=GPa)
#
#
# Indices 1 2 3 4 5 6 
#
# 1 240.7424 44.5864 147.6136 0.0000 -0.5705 0.0000
# 2 44.5864 28.3461 47.8600 0.0000 -4.7726 0.0000
# 3 147.6136 47.8600 241.6171 0.0000 -0.7014 0.0000
# 4 0.0000 0.0000 0.0000 27.7606 0.0000 5.7893
# 5 -0.5705 -4.7726 -0.7014 0.0000 46.6416 0.0000
# 6 0.0000 0.0000 0.0000 5.7893 0.0000 35.6446
#
#
#
# Elastic Compliance Matrix: (Units=1/GPa)
#
#
# Indices 1 2 3 4 5 6 
#
# 1 0.007258 -0.006046 -0.003238 0.000000 -0.000579 0.000000
# 2 -0.006046 0.059368 -0.008049 0.000000 0.005880 0.000000
# 3 -0.003238 -0.008049 0.007709 0.000000 -0.000747 0.000000
# 4 0.000000 0.000000 0.000000 0.037285 0.000000 -0.006056
# 5 -0.000579 0.005880 -0.000747 0.000000 0.022023 0.000000
# 6 0.000000 0.000000 0.000000 -0.006056 0.000000 0.029038
#
#
# Mechanical properties :
#
#
# Convention : Reuss Voigt Hill
#
# Bulk Modulus (GPa) = 25.20862 110.09173 67.65018
# Shear Modulus (GPa) = 23.74499 40.05240 31.89869
#
# Velocity S-wave (km/s) = 3.51855 4.56974 4.07816
# Velocity P-wave (km/s) = 5.44520 9.23272 7.57936
#
# Compressibility (1/GPa) = 0.03966897
#
# Stress axis : x y z
#
# Youngs Moduli (GPa) = 137.78599 16.84407 129.71483
#
# Poissons Ratio (x) = 0.10184 0.42002
# Poissons Ratio (y) = 0.83305 1.04407
# Poissons Ratio (z) = 0.44616 0.13558
#
# Static dielectric constant tensor:
#      x y z
#    x 1.626030 0.000000 -0.017650 
#    y 0.000000 1.658090 0.000000 
#    z -0.017650 0.000000 1.641520 
# 
# From -- ./inp_files/275644.got.cif
#   From: 2010.05.17/outbox.cif.g08.bks.cpg/sg12_138_cif.got.tgz:275644.got - 2010.06.03 13:09:07.
