data_PCOD9207317
_publ_section_title
;
Structure prediction by ZEFSAII (Michael W. Deem and Ramdas Pophale) SiO2 
 PCOD9207317
Probable space group: C 2/M
;
_chemical_formula_sum "Si O2"
_cell_formula_units_Z 64
_cell_length_a 14.558062
_cell_length_b 9.238057
_cell_length_c 31.619831
_cell_angle_alpha 90.000000
_cell_angle_beta 130.503593
_cell_angle_gamma 90.000000
_cell_volume 3233.448886
_symmetry_space_group_name_H-M "C 2/M"
_symmetry_group_IT_number 12
_symmetry_cell_setting 'monoclinic'
loop_
_space_group_symop_operation_xyz
x,y,z
-x,y,-z
-x,-y,-z
x,-y,z
1/2+x,1/2+y,z
1/2-x,1/2+y,-z
1/2-x,1/2-y,-z
1/2+x,1/2-y,z
loop_
_atom_site_type_symbol
_atom_site_label
_atom_site_fract_x
_atom_site_fract_y
_atom_site_fract_z
Si Si1 0.250121 0.672827 0.293066
Si Si2 0.998767 0.167343 0.790917
Si Si3 0.651589 0.179208 0.502575
Si Si4 0.411922 0.150889 0.032454
Si Si5 0.800960 0.257965 0.085675
Si Si6 0.112653 0.821786 0.579936
Si Si7 0.190139 0.173136 0.778661
Si Si8 0.866330 0.839991 0.888698
O O1 0.240494 0.500000 0.290049
O O2 0.307595 0.711843 0.354995
O O3 0.328068 0.715704 0.275272
O O4 0.120097 0.738429 0.244652
O O5 0.086777 0.183005 0.857512
O O6 0.079290 0.215638 0.775077
O O7 0.965662 0.000000 0.776126
O O8 0.750000 0.250000 0.500000
O O9 0.669304 0.245307 0.555274
O O10 0.518671 0.246805 0.452644
O O11 0.652679 0.000000 0.502330
O O12 0.354940 0.156673 0.062163
O O13 0.506487 0.279617 0.057202
O O14 0.479635 0.000000 0.046736
O O15 0.302330 0.161266 0.966975
O O16 0.728174 0.339085 0.100789
O O17 0.102514 0.000000 0.572058
O O18 0.309491 0.240547 0.835323
O O19 0.201208 0.000000 0.784772
O O20 0.881511 0.000000 0.876210
#
# Coordination Sequence:
#
# PCOD9207317 Si02
#       8
#     8   8   8   8   8   8   8   8
#     4  10  22  39  60  86 119 156 193 236 287 339
#     4  10  21  37  58  82 110 147 193 240 284 338
#     4  11  22  39  64  94 127 166 206 246 294 345
#     4  11  23  38  58  81 106 140 181 227 285 351
#     4  10  23  39  57  79 109 143 182 230 286 346
#     4  10  21  39  61  91 128 164 204 249 293 344
#     4   9  20  39  58  79 110 150 191 232 284 344
#     4  11  23  38  57  82 110 141 181 231 287 345
#
# _framework density 19.793106999999999
#
# number of rings (size 3 to 8) (size 9 to 14) (size 15 to 20)
#    0.000    1.750    0.000    4.500    0.000   12.500 
#    0.000    1.250    0.000    0.000    0.000    0.000 
#    0.000    0.000    0.000    0.000    0.000    0.000 
#
# Total GULP energy -178509.421955 kJ/mol
# GULP energy per Si atom -5578.419436 kJ/mol
# Density = 1.974806 g / cm^3
# Si number density = 19.793107 Si / 1000 Ang^3
#
#
#
# Elastic Constant Matrix: (Units=GPa)
#
#
# Indices 1 2 3 4 5 6 
#
# 1 98.7798 34.0438 49.0312 0.0000 -19.9924 0.0000
# 2 34.0438 61.5442 9.1920 0.0000 -10.7181 0.0000
# 3 49.0312 9.1920 98.0491 0.0000 -27.3969 0.0000
# 4 0.0000 0.0000 0.0000 385.0173 0.0000 -147.1938
# 5 -19.9924 -10.7181 -27.3969 0.0000 21.7904 0.0000
# 6 0.0000 0.0000 0.0000 -147.1938 0.0000 85.3815
#
#
#
# Elastic Compliance Matrix: (Units=1/GPa)
#
#
# Indices 1 2 3 4 5 6 
#
# 1 0.016792 -0.007744 -0.006830 0.000000 0.003010 0.000000
# 2 -0.007744 0.021434 0.004353 0.000000 0.008911 0.000000
# 3 -0.006830 0.004353 0.018582 0.000000 0.019237 0.000000
# 4 0.000000 0.000000 0.000000 0.007618 0.000000 0.013134
# 5 0.003010 0.008911 0.019237 0.000000 0.077223 0.000000
# 6 0.000000 0.000000 0.000000 0.013134 0.000000 0.034354
#
#
# Mechanical properties :
#
#
# Convention : Reuss Voigt Hill
#
# Bulk Modulus (GPa) = 27.49906 49.21190 38.35548
# Shear Modulus (GPa) = 23.97305 109.51159 66.74232
#
# Velocity S-wave (km/s) = 3.48398 7.44636 5.81319
# Velocity P-wave (km/s) = 5.48704 9.94224 8.02981
#
# Compressibility (1/GPa) = 0.03636488
#
# Stress axis : x y z
#
# Youngs Moduli (GPa) = 59.55223 46.65479 53.81644
#
# Poissons Ratio (x) = 0.36131 0.36757
# Poissons Ratio (y) = 0.46120 -0.23427
# Poissons Ratio (z) = 0.40675 -0.20309
#
# Static dielectric constant tensor:
#      x y z
#    x 1.718780 0.000000 -0.030500 
#    y 0.000000 1.653020 0.000000 
#    z -0.030500 0.000000 1.689830 
# 
# From -- ./inp_files/375675.got.cif
#   From: 2010.05.17/outbox.cif.g08.bks.cpg/sg12_188_cif.got.tgz:375675.got - 2010.06.03 13:09:07.
