data_PCOD9207497
_publ_section_title
;
Structure prediction by ZEFSAII (Michael W. Deem and Ramdas Pophale) SiO2 
 PCOD9207497
Probable space group: C 2/M
;
_chemical_formula_sum "Si O2"
_cell_formula_units_Z 56
_cell_length_a 14.898519
_cell_length_b 8.619324
_cell_length_c 24.630764
_cell_angle_alpha 90.000000
_cell_angle_beta 80.938592
_cell_angle_gamma 90.000000
_cell_volume 3123.490125
_symmetry_space_group_name_H-M "C 2/M"
_symmetry_group_IT_number 12
_symmetry_cell_setting 'monoclinic'
loop_
_space_group_symop_operation_xyz
x,y,z
-x,y,-z
-x,-y,-z
x,-y,z
1/2+x,1/2+y,z
1/2-x,1/2+y,-z
1/2-x,1/2-y,-z
1/2+x,1/2-y,z
loop_
_atom_site_type_symbol
_atom_site_label
_atom_site_fract_x
_atom_site_fract_y
_atom_site_fract_z
Si Si1 0.610912 0.186596 0.645298
Si Si2 0.910926 0.185706 0.855883
Si Si3 0.186367 0.313375 0.354612
Si Si4 0.540237 0.688070 0.938766
Si Si5 0.439390 0.813421 0.733370
Si Si6 0.754969 0.814223 0.060667
Si Si7 0.016656 0.813816 0.435678
O O1 0.712095 0.249976 0.646030
O O2 0.536990 0.233401 0.698542
O O3 0.563808 0.247349 0.594572
O O4 0.614328 0.000000 0.643315
O O5 0.923873 0.248924 0.794489
O O6 0.818698 0.239988 0.893112
O O7 0.987479 0.243314 0.890906
O O8 0.913726 0.000000 0.853572
O O9 0.188897 0.500000 0.356528
O O10 0.140241 0.266606 0.301338
O O11 0.112758 0.252842 0.405325
O O12 0.530938 0.500000 0.940782
O O13 0.645547 0.724352 0.926868
O O14 0.500000 0.745411 0.000000
O O15 0.438569 0.000000 0.735549
O O16 0.744065 0.000000 0.060070
O O17 0.750000 0.750000 0.000000
O O18 0.000000 0.774010 0.500000
O O19 0.018176 0.000000 0.430059
#
# Coordination Sequence:
#
# PCOD9207497 Si02
#       7
#     8   8   8   8   8   8   8
#     4  10  21  38  61  86 116 154 195 242 292 343
#     4  11  22  37  58  82 107 143 185 225 277 338
#     4  10  21  38  61  85 115 156 197 239 292 346
#     4   9  18  35  55  75 105 140 173 211 264 332
#     4   9  21  40  57  80 113 146 184 235 288 335
#     4  11  21  36  57  79 107 140 176 221 272 331
#     4  10  21  37  58  87 122 158 198 242 288 340
#
# _framework density 17.928661999999999
#
# number of rings (size 3 to 8) (size 9 to 14) (size 15 to 20)
#    0.000    2.000    1.429    3.000    0.000    6.286 
#    0.000    7.857    0.000    0.000    0.000    0.000 
#    0.000    0.000    0.000    0.000    0.000    0.000 
#
# Total GULP energy -156270.362199 kJ/mol
# GULP energy per Si atom -5581.084364 kJ/mol
# Density = 1.788786 g / cm^3
# Si number density = 17.928662 Si / 1000 Ang^3
#
#
#
# Elastic Constant Matrix: (Units=GPa)
#
#
# Indices 1 2 3 4 5 6 
#
# 1 163.9369 43.4979 109.0607 0.0000 8.4457 0.0000
# 2 43.4979 41.2351 49.3216 0.0000 0.9800 0.0000
# 3 109.0607 49.3216 194.7487 0.0000 -2.9970 0.0000
# 4 0.0000 0.0000 0.0000 33.7022 0.0000 -1.4512
# 5 8.4457 0.9800 -2.9970 0.0000 14.3127 0.0000
# 6 0.0000 0.0000 0.0000 -1.4512 0.0000 29.2544
#
#
#
# Elastic Compliance Matrix: (Units=1/GPa)
#
#
# Indices 1 2 3 4 5 6 
#
# 1 0.011343 -0.005821 -0.004991 0.000000 -0.007340 0.000000
# 2 -0.005821 0.038036 -0.006381 0.000000 -0.000505 0.000000
# 3 -0.004991 -0.006381 0.009629 0.000000 0.005398 0.000000
# 4 0.000000 0.000000 0.000000 0.029735 0.000000 0.001475
# 5 -0.007340 -0.000505 0.005398 0.000000 0.075364 0.000000
# 6 0.000000 0.000000 0.000000 0.001475 0.000000 0.034256
#
#
# Mechanical properties :
#
#
# Convention : Reuss Voigt Hill
#
# Bulk Modulus (GPa) = 40.61414 89.29791 64.95603
# Shear Modulus (GPa) = 20.75074 28.65656 24.70365
#
# Velocity S-wave (km/s) = 3.40576 4.00229 3.71602
# Velocity P-wave (km/s) = 6.17802 8.44235 7.39734
#
# Compressibility (1/GPa) = 0.02462196
#
# Stress axis : x y z
#
# Youngs Moduli (GPa) = 88.16232 26.29089 103.85696
#
# Poissons Ratio (x) = 0.15305 0.51831
# Poissons Ratio (y) = 0.51323 0.66267
# Poissons Ratio (z) = 0.43999 0.16775
#
# Static dielectric constant tensor:
#      x y z
#    x 1.597710 0.000000 0.014810 
#    y 0.000000 1.613350 0.000000 
#    z 0.014810 0.000000 1.599830 
# 
# From -- ./inp_files/308936.got.cif
#   From: 2010.05.17/outbox.cif.g08.bks.cpg/sg12_155_cif.got.tgz:308936.got - 2010.06.03 13:09:07.
