data_PCOD9207685
_publ_section_title
;
Structure prediction by ZEFSAII (Michael W. Deem and Ramdas Pophale) SiO2 
 PCOD9207685
Probable space group: C 2/M
;
_chemical_formula_sum "Si O2"
_cell_formula_units_Z 48
_cell_length_a 14.766574
_cell_length_b 8.938357
_cell_length_c 18.603001
_cell_angle_alpha 90.000000
_cell_angle_beta 97.218447
_cell_angle_gamma 90.000000
_cell_volume 2435.929137
_symmetry_space_group_name_H-M "C 2/M"
_symmetry_group_IT_number 12
_symmetry_cell_setting 'monoclinic'
loop_
_space_group_symop_operation_xyz
x,y,z
-x,y,-z
-x,-y,-z
x,-y,z
1/2+x,1/2+y,z
1/2-x,1/2+y,-z
1/2-x,1/2-y,-z
1/2+x,1/2-y,z
loop_
_atom_site_type_symbol
_atom_site_label
_atom_site_fract_x
_atom_site_fract_y
_atom_site_fract_z
Si Si1 0.713923 0.821974 0.756888
Si Si2 0.731485 0.178138 0.386782
Si Si3 0.066985 0.176218 0.831342
Si Si4 0.649988 0.178037 0.982404
Si Si5 0.120619 0.175588 0.123904
Si Si6 0.102255 0.179349 0.487477
O O1 0.753854 0.751540 0.688914
O O2 0.617338 0.752843 0.769987
O O3 0.783237 0.789279 0.829581
O O4 0.707814 0.000000 0.749098
O O5 0.823091 0.210282 0.442763
O O6 0.645103 0.243494 0.421465
O O7 0.722772 0.000000 0.379643
O O8 0.958331 0.194632 0.824988
O O9 0.088128 0.000000 0.833523
O O10 0.103525 0.249656 0.908451
O O11 0.602613 0.224481 0.052453
O O12 0.654887 0.000000 0.974987
O O13 0.750000 0.250000 0.000000
O O14 0.120210 0.000000 0.101964
O O15 0.000000 0.226668 0.500000
O O16 0.100153 0.000000 0.475854
#
# Coordination Sequence:
#
# PCOD9207685 Si02
#       6
#     8   8   8   8   8   8
#     4  11  23  40  60  83 118 159 195 235 285 350
#     4  10  21  37  59  88 120 151 189 239 285 335
#     4  11  23  40  61  85 114 151 195 246 297 349
#     4  12  23  37  60  86 114 150 194 246 298 349
#     4  10  23  41  60  83 114 153 196 242 296 351
#     4   9  19  38  63  88 116 153 193 231 280 343
#
# _framework density 19.705006000000001
#
# number of rings (size 3 to 8) (size 9 to 14) (size 15 to 20)
#    0.000    1.500    1.667    3.500    0.000    6.333 
#    0.000    6.667    0.000    0.000    0.000    0.000 
#    0.000    0.000    0.000    0.000    0.000    0.000 
#
# Total GULP energy -134138.525754 kJ/mol
# GULP energy per Si atom -5589.105240 kJ/mol
# Density = 1.966016 g / cm^3
# Si number density = 19.705006 Si / 1000 Ang^3
#
#
#
# Elastic Constant Matrix: (Units=GPa)
#
#
# Indices 1 2 3 4 5 6 
#
# 1 102.8621 32.0249 21.3039 0.0000 -31.8434 0.0000
# 2 32.0249 55.1754 39.7984 0.0000 -13.3270 0.0000
# 3 21.3039 39.7984 85.7893 0.0000 -34.6323 0.0000
# 4 0.0000 0.0000 0.0000 34.4359 0.0000 -11.1316
# 5 -31.8434 -13.3270 -34.6323 0.0000 28.4463 0.0000
# 6 0.0000 0.0000 0.0000 -11.1316 0.0000 28.3636
#
#
#
# Elastic Compliance Matrix: (Units=1/GPa)
#
#
# Indices 1 2 3 4 5 6 
#
# 1 0.024534 -0.017993 0.019544 0.000000 0.042829 0.000000
# 2 -0.017993 0.040824 -0.029262 0.000000 -0.036641 0.000000
# 3 0.019544 -0.029262 0.046558 0.000000 0.064851 0.000000
# 4 0.000000 0.000000 0.000000 0.033259 0.000000 0.013053
# 5 0.042829 -0.036641 0.064851 0.000000 0.144885 0.000000
# 6 0.000000 0.000000 0.000000 0.013053 0.000000 0.040379
#
#
# Mechanical properties :
#
#
# Convention : Reuss Voigt Hill
#
# Bulk Modulus (GPa) = 17.70076 47.78679 32.74378
# Shear Modulus (GPa) = 12.35508 28.29581 20.32545
#
# Velocity S-wave (km/s) = 2.50672 3.79353 3.21516
# Velocity P-wave (km/s) = 4.16900 6.59481 5.51689
#
# Compressibility (1/GPa) = 0.05649475
#
# Stress axis : x y z
#
# Youngs Moduli (GPa) = 40.75901 24.49542 21.47872
#
# Poissons Ratio (x) = 0.44074 -0.41978
# Poissons Ratio (y) = 0.73336 0.62851
# Poissons Ratio (z) = -0.79659 0.71679
#
# Static dielectric constant tensor:
#      x y z
#    x 1.720790 0.000000 -0.020460 
#    y 0.000000 1.655840 0.000000 
#    z -0.020460 0.000000 1.676160 
# 
# From -- ./inp_files/267681.got.cif
#   From: 2010.05.17/outbox.cif.g08.bks.cpg/sg12_134_cif.got.tgz:267681.got - 2010.06.03 13:09:07.
