data_PCOD9207388
_publ_section_title
;
Structure prediction by ZEFSAII (Michael W. Deem and Ramdas Pophale) SiO2 
 PCOD9207388
Probable space group: C 2/M
;
_chemical_formula_sum "Si O2"
_cell_formula_units_Z 56
_cell_length_a 28.900021
_cell_length_b 9.097069
_cell_length_c 14.871488
_cell_angle_alpha 90.000000
_cell_angle_beta 129.230998
_cell_angle_gamma 90.000000
_cell_volume 3028.537328
_symmetry_space_group_name_H-M "C 2/M"
_symmetry_group_IT_number 12
_symmetry_cell_setting 'monoclinic'
loop_
_space_group_symop_operation_xyz
x,y,z
-x,y,-z
-x,-y,-z
x,-y,z
1/2+x,1/2+y,z
1/2-x,1/2+y,-z
1/2-x,1/2-y,-z
1/2+x,1/2-y,z
loop_
_atom_site_type_symbol
_atom_site_label
_atom_site_fract_x
_atom_site_fract_y
_atom_site_fract_z
Si Si1 0.345983 0.824200 0.939137
Si Si2 0.894173 0.669788 0.475735
Si Si3 0.570637 0.673255 0.104544
Si Si4 0.437512 0.170901 0.720468
Si Si5 0.991791 0.825388 0.337359
Si Si6 0.290771 0.675557 0.239351
Si Si7 0.357882 0.675511 0.146306
O O1 0.392142 0.747795 0.928982
O O2 0.277915 0.789458 0.826088
O O3 0.353702 0.000000 0.947578
O O4 0.353219 0.763566 0.048701
O O5 0.898982 0.500000 0.455111
O O6 0.890153 0.676384 0.580038
O O7 0.957620 0.751537 0.538471
O O8 0.838483 0.745168 0.360856
O O9 0.583835 0.500000 0.125727
O O10 0.583225 0.752436 0.214679
O O11 0.500000 0.690736 0.000000
O O12 0.492663 0.258815 0.742490
O O13 0.453023 0.000000 0.754700
O O14 0.922710 0.794564 0.270927
O O15 0.000763 0.000000 0.348241
O O16 0.298998 0.500000 0.258007
O O17 0.307595 0.713912 0.157114
O O18 0.355462 0.500000 0.124714
#
# Coordination Sequence:
#
# PCOD9207388 Si02
#       7
#     8   8   8   8   8   8   8
#     4  11  24  39  58  86 117 151 192 239 289 339
#     4   9  20  36  57  85 117 152 192 240 286 335
#     4  11  23  38  60  87 114 148 189 231 285 348
#     4   9  19  35  55  84 116 145 184 233 285 336
#     4   9  17  32  56  83 115 150 188 232 283 336
#     4  10  22  40  59  81 114 157 199 236 281 340
#     4  10  21  37  58  84 115 154 197 239 284 338
#
# _framework density 18.490773999999998
#
# number of rings (size 3 to 8) (size 9 to 14) (size 15 to 20)
#    0.857    1.286    0.000    3.000    0.000    8.000 
#    0.000    3.571    0.000    0.000    0.000    0.000 
#    0.000    0.000    0.000    0.000    0.000    0.000 
#
# Total GULP energy -156169.227369 kJ/mol
# GULP energy per Si atom -5577.472406 kJ/mol
# Density = 1.844869 g / cm^3
# Si number density = 18.490774 Si / 1000 Ang^3
#
#
#
# Elastic Constant Matrix: (Units=GPa)
#
#
# Indices 1 2 3 4 5 6 
#
# 1 103.8899 55.4890 28.9930 0.0000 4.3101 0.0000
# 2 55.4890 81.5745 44.8629 0.0000 12.9357 0.0000
# 3 28.9930 44.8629 65.1566 0.0000 7.4021 0.0000
# 4 0.0000 0.0000 0.0000 31.7136 0.0000 -9.5482
# 5 4.3101 12.9357 7.4021 0.0000 23.4910 0.0000
# 6 0.0000 0.0000 0.0000 -9.5482 0.0000 0.3081
#
#
#
# Elastic Compliance Matrix: (Units=1/GPa)
#
#
# Indices 1 2 3 4 5 6 
#
# 1 0.015349 -0.011254 0.000555 0.000000 0.003206 0.000000
# 2 -0.011254 0.029098 -0.013940 0.000000 -0.009565 0.000000
# 3 0.000555 -0.013940 0.024724 0.000000 -0.000216 0.000000
# 4 0.000000 0.000000 0.000000 -0.003785 0.000000 -0.117304
# 5 0.003206 -0.009565 -0.000216 0.000000 0.047317 0.000000
# 6 0.000000 0.000000 0.000000 -0.117304 0.000000 -0.389614
#
#
# Mechanical properties :
#
#
# Convention : Reuss Voigt Hill
#
# Bulk Modulus (GPa) = 50.27443 56.59008 53.43225
# Shear Modulus (GPa) = -22.62411 19.18762 -1.71825
#
# Velocity S-wave (km/s) = -3.50170 3.22481 -0.96502
# Velocity P-wave (km/s) = 3.30132 6.67359 5.26477
#
# Compressibility (1/GPa) = 0.01989083
#
# Stress axis : x y z
#
# Youngs Moduli (GPa) = 65.15213 34.36712 40.44695
#
# Poissons Ratio (x) = 0.38677 -0.02244
# Poissons Ratio (y) = 0.73323 0.56384
# Poissons Ratio (z) = -0.03615 0.47909
#
# Static dielectric constant tensor:
#      x y z
#    x 1.624960 0.000000 0.000420 
#    y 0.000000 1.618850 0.000000 
#    z 0.000420 0.000000 1.643200 
# 
# From -- ./inp_files/249278.got.cif
#   From: 2010.05.17/outbox.cif.g08.bks.cpg/sg12_125_cif.got.tgz:249278.got - 2010.06.03 13:09:07.
