data_PCOD9207243
_publ_section_title
;
Structure prediction by ZEFSAII (Michael W. Deem and Ramdas Pophale) SiO2 
 PCOD9207243
Probable space group: C 2/M
;
_chemical_formula_sum "Si O2"
_cell_formula_units_Z 44
_cell_length_a 16.656752
_cell_length_b 23.455153
_cell_length_c 14.468019
_cell_angle_alpha 90.000000
_cell_angle_beta 155.041929
_cell_angle_gamma 90.000000
_cell_volume 2385.084163
_symmetry_space_group_name_H-M "C 2/M"
_symmetry_group_IT_number 12
_symmetry_cell_setting 'monoclinic'
loop_
_space_group_symop_operation_xyz
x,y,z
-x,y,-z
-x,-y,-z
x,-y,z
1/2+x,1/2+y,z
1/2-x,1/2+y,-z
1/2-x,1/2-y,-z
1/2+x,1/2-y,z
loop_
_atom_site_type_symbol
_atom_site_label
_atom_site_fract_x
_atom_site_fract_y
_atom_site_fract_z
Si Si1 0.524362 0.373952 0.415478
Si Si2 0.164134 0.250356 0.513458
Si Si3 0.583195 0.067753 0.183205
Si Si4 0.138506 0.344602 0.728430
Si Si5 0.701381 0.068477 0.955487
Si Si6 0.000000 0.788961 0.000000
O O1 0.500000 0.374347 0.500000
O O2 0.561771 0.309597 0.424097
O O3 0.707393 0.411190 0.588617
O O4 0.363882 0.404427 0.188843
O O5 0.250000 0.250000 0.500000
O O6 0.998641 0.297561 0.362821
O O7 0.348325 0.256854 0.774250
O O8 0.479078 0.082047 0.168925
O O9 0.573043 0.000000 0.164508
O O10 0.500000 0.092185 0.000000
O O11 0.183794 0.396926 0.842841
O O12 0.000000 0.362561 0.500000
O O13 0.342424 0.321790 0.900630
O O14 0.722009 0.000000 0.965955
#
# Coordination Sequence:
#
# PCOD9207243 Si02
#       6
#     8   8   8   8   8   4
#     4  12  23  35  59  92 124 160 198 243 298 373
#     4  11  24  39  63  93 123 160 203 253 309 371
#     4  10  21  37  57  84 124 167 199 240 297 361
#     4  10  23  44  64  89 122 161 211 262 309 358
#     4  11  24  41  63  89 122 164 207 254 307 362
#     4  10  22  42  63  88 125 162 200 254 314 364
#
# _framework density 18.447986
#
# number of rings (size 3 to 8) (size 9 to 14) (size 15 to 20)
#    0.000    1.273    1.818    4.364    1.273    8.364 
#    0.000    0.455    0.000    0.000    0.000    0.000 
#    0.000    0.000    0.000    0.000    0.000    0.000 
#
# Total GULP energy -122603.060493 kJ/mol
# GULP energy per Si atom -5572.866386 kJ/mol
# Density = 1.840600 g / cm^3
# Si number density = 18.447986 Si / 1000 Ang^3
#
#
#
# Elastic Constant Matrix: (Units=GPa)
#
#
# Indices 1 2 3 4 5 6 
#
# 1 148.1600 77.4821 64.7906 0.0000 3.5884 0.0000
# 2 77.4821 182.3802 96.7658 0.0000 -11.5210 0.0000
# 3 64.7906 96.7658 83.9055 0.0000 9.7311 0.0000
# 4 0.0000 0.0000 0.0000 31.8037 0.0000 -7.7252
# 5 3.5884 -11.5210 9.7311 0.0000 36.1682 0.0000
# 6 0.0000 0.0000 0.0000 -7.7252 0.0000 50.6853
#
#
#
# Elastic Compliance Matrix: (Units=1/GPa)
#
#
# Indices 1 2 3 4 5 6 
#
# 1 0.010237 -0.000039 -0.007990 0.000000 0.001122 0.000000
# 2 -0.000039 0.017851 -0.021900 0.000000 0.011582 0.000000
# 3 -0.007990 -0.021900 0.045481 0.000000 -0.018420 0.000000
# 4 0.000000 0.000000 0.000000 0.032652 0.000000 0.004977
# 5 0.001122 0.011582 -0.018420 0.000000 0.036183 0.000000
# 6 0.000000 0.000000 0.000000 0.004977 0.000000 0.020488
#
#
# Mechanical properties :
#
#
# Convention : Reuss Voigt Hill
#
# Bulk Modulus (GPa) = 72.93584 99.16919 86.05251
# Shear Modulus (GPa) = 21.99565 35.42525 28.71045
#
# Velocity S-wave (km/s) = 3.45672 4.38685 3.94927
# Velocity P-wave (km/s) = 7.45344 8.91808 8.21845
#
# Compressibility (1/GPa) = 0.01371068
#
# Stress axis : x y z
#
# Youngs Moduli (GPa) = 97.68903 56.02014 21.98740
#
# Poissons Ratio (x) = 0.00218 0.17567
# Poissons Ratio (y) = 0.00380 0.48152
# Poissons Ratio (z) = 0.78051 1.22684
#
# Static dielectric constant tensor:
#      x y z
#    x 1.660700 0.000000 -0.010850 
#    y 0.000000 1.621790 0.000000 
#    z -0.010850 0.000000 1.602590 
# 
# From -- ./inp_files/12460.got.cif
#   From: 2010.05.17/outbox.cif.g08.bks.cpg/sg12_7_cif.got.tgz:12460.got - 2010.06.03 13:09:07.
