data_PCOD9207895
_publ_section_title
;
Structure prediction by ZEFSAII (Michael W. Deem and Ramdas Pophale) SiO2 
 PCOD9207895
Probable space group: C 2/M
;
_chemical_formula_sum "Si O2"
_cell_formula_units_Z 64
_cell_length_a 19.792880
_cell_length_b 28.479648
_cell_length_c 13.658012
_cell_angle_alpha 90.000000
_cell_angle_beta 151.646271
_cell_angle_gamma 90.000000
_cell_volume 3656.333201
_symmetry_space_group_name_H-M "C 2/M"
_symmetry_group_IT_number 12
_symmetry_cell_setting 'monoclinic'
loop_
_space_group_symop_operation_xyz
x,y,z
-x,y,-z
-x,-y,-z
x,-y,z
1/2+x,1/2+y,z
1/2-x,1/2+y,-z
1/2-x,1/2-y,-z
1/2+x,1/2-y,z
loop_
_atom_site_type_symbol
_atom_site_label
_atom_site_fract_x
_atom_site_fract_y
_atom_site_fract_z
Si Si1 0.149223 0.944427 0.133565
Si Si2 0.837748 0.195834 0.831302
Si Si3 0.656733 0.805813 0.152667
Si Si4 0.314548 0.881613 0.488176
Si Si5 0.656453 0.378814 0.490876
Si Si6 0.164772 0.055281 0.679378
Si Si7 0.144672 0.372756 0.955364
Si Si8 0.841517 0.130903 0.022015
O O1 0.270999 0.922700 0.357756
O O2 0.160918 0.000000 0.135678
O O3 0.156158 0.916660 0.040155
O O4 0.000000 0.934275 0.000000
O O5 0.806887 0.250921 0.797998
O O6 0.734378 0.166625 0.627755
O O7 0.829841 0.171948 0.927249
O O8 0.000000 0.189786 0.000000
O O9 0.764030 0.835922 0.355148
O O10 0.500000 0.811575 0.000000
O O11 0.658005 0.828458 0.046095
O O12 0.222046 0.886519 0.468064
O O13 0.478741 0.882268 0.726540
O O14 0.678918 0.423801 0.588609
O O15 0.491065 0.367476 0.268512
O O16 0.000000 0.063142 0.500000
O O17 0.193809 0.000000 0.721194
O O18 0.271080 0.084883 0.883473
O O19 0.218452 0.366071 0.944802
#
# Coordination Sequence:
#
# PCOD9207895 Si02
#       8
#     8   8   8   8   8   8   8   8
#     4  10  21  37  60  90 117 150 200 243 282 347
#     4  10  21  38  61  88 115 153 203 241 280 349
#     4  10  22  38  59  88 118 151 197 245 288 345
#     4  11  21  39  60  86 119 154 193 240 294 345
#     4  11  20  37  61  85 111 154 194 237 288 343
#     4  10  22  39  60  87 116 152 198 239 285 350
#     4  11  24  39  59  88 122 153 186 244 302 342
#     4  11  21  39  60  85 117 154 193 239 292 345
#
# _framework density 17.503876000000002
#
# number of rings (size 3 to 8) (size 9 to 14) (size 15 to 20)
#    0.000    1.500    5.000    0.750    0.000    6.000 
#    0.000    2.500    0.000    0.000    0.000    0.000 
#    0.000    0.000    0.000    0.000    0.000    0.000 
#
# Total GULP energy -178673.263740 kJ/mol
# GULP energy per Si atom -5583.539492 kJ/mol
# Density = 1.746404 g / cm^3
# Si number density = 17.503876 Si / 1000 Ang^3
#
#
#
# Elastic Constant Matrix: (Units=GPa)
#
#
# Indices 1 2 3 4 5 6 
#
# 1 77.7293 40.5456 -4.5650 0.0000 -11.1899 0.0000
# 2 40.5456 130.9448 37.9716 0.0000 -7.7046 0.0000
# 3 -4.5650 37.9716 82.1803 0.0000 -2.8700 0.0000
# 4 0.0000 0.0000 0.0000 9.6681 0.0000 4.7755
# 5 -11.1899 -7.7046 -2.8700 0.0000 29.3793 0.0000
# 6 0.0000 0.0000 0.0000 4.7755 0.0000 13.3364
#
#
#
# Elastic Compliance Matrix: (Units=1/GPa)
#
#
# Indices 1 2 3 4 5 6 
#
# 1 0.017047 -0.006115 0.003957 0.000000 0.005276 0.000000
# 2 -0.006115 0.011122 -0.005477 0.000000 0.000052 0.000000
# 3 0.003957 -0.005477 0.014972 0.000000 0.001533 0.000000
# 4 0.000000 0.000000 0.000000 0.125659 0.000000 -0.044996
# 5 0.005276 0.000052 0.001533 0.000000 0.036210 0.000000
# 6 0.000000 0.000000 0.000000 -0.044996 0.000000 0.091095
#
#
# Mechanical properties :
#
#
# Convention : Reuss Voigt Hill
#
# Bulk Modulus (GPa) = 35.88045 48.75098 42.31572
# Shear Modulus (GPa) = 15.59255 24.93689 20.26472
#
# Velocity S-wave (km/s) = 2.98787 3.77855 3.40623
# Velocity P-wave (km/s) = 5.69616 6.85190 6.30059
#
# Compressibility (1/GPa) = 0.02787033
#
# Stress axis : x y z
#
# Youngs Moduli (GPa) = 58.66141 89.91528 66.79044
#
# Poissons Ratio (x) = 0.54987 -0.26428
# Poissons Ratio (y) = 0.35874 0.36579
# Poissons Ratio (z) = -0.23211 0.49243
#
# Static dielectric constant tensor:
#      x y z
#    x 1.585370 0.000000 -0.000510 
#    y 0.000000 1.575070 0.000000 
#    z -0.000510 0.000000 1.580130 
# 
# From -- ./inp_files/100228.got.cif
#   From: 2010.05.17/outbox.cif.g08.bks.cpg/sg12_51_cif.got.tgz:100228.got - 2010.06.03 13:09:07.
