data_PCOD9207044
_publ_section_title
;
Structure prediction by ZEFSAII (Michael W. Deem and Ramdas Pophale) SiO2 
 PCOD9207044
Probable space group: C 2/M
;
_chemical_formula_sum "Si O2"
_cell_formula_units_Z 52
_cell_length_a 23.778055
_cell_length_b 18.952552
_cell_length_c 5.443484
_cell_angle_alpha 90.000000
_cell_angle_beta 91.003928
_cell_angle_gamma 90.000000
_cell_volume 2452.755758
_symmetry_space_group_name_H-M "C 2/M"
_symmetry_group_IT_number 12
_symmetry_cell_setting 'monoclinic'
loop_
_space_group_symop_operation_xyz
x,y,z
-x,y,-z
-x,-y,-z
x,-y,z
1/2+x,1/2+y,z
1/2-x,1/2+y,-z
1/2-x,1/2-y,-z
1/2+x,1/2-y,z
loop_
_atom_site_type_symbol
_atom_site_label
_atom_site_fract_x
_atom_site_fract_y
_atom_site_fract_z
Si Si1 0.699958 0.916176 0.304982
Si Si2 0.463636 0.000000 0.249127
Si Si3 0.536799 0.154555 0.750784
Si Si4 0.354249 0.345742 0.755264
Si Si5 0.730196 0.190306 0.685963
Si Si6 0.836463 0.916424 0.245529
Si Si7 0.862688 0.295175 0.975278
O O1 0.695480 0.873035 0.558857
O O2 0.767125 0.906886 0.245083
O O3 0.688210 0.000000 0.310837
O O4 0.656396 0.871098 0.134651
O O5 0.500000 0.000000 0.500000
O O6 0.435754 0.923848 0.260633
O O7 0.500000 0.000000 0.000000
O O8 0.500000 0.166381 0.500000
O O9 0.587865 0.204695 0.823005
O O10 0.500000 0.155481 0.000000
O O11 0.286903 0.344788 0.774363
O O12 0.362509 0.380676 0.491569
O O13 0.368098 0.387207 0.006041
O O14 0.374705 0.264708 0.774763
O O15 0.750000 0.250000 0.500000
O O16 0.693161 0.227476 0.886214
O O17 0.843922 0.000000 0.259480
#
# Coordination Sequence:
#
# PCOD9207044 Si02
#       7
#     8   4   8   8   8   8   8
#     4  10  22  35  51  81 117 158 204 246 289 341
#     4   8  16  38  58  74 100 148 194 250 310 338
#     4  10  24  41  58  80 112 149 201 259 306 344
#     4  11  21  35  58  85 115 154 196 230 287 355
#     4  11  21  37  55  83 118 155 200 245 292 357
#     4  10  21  37  56  81 123 156 186 232 283 344
#     4  12  23  36  61  82 115 156 204 249 298 353
#
# _framework density 21.200644
#
# number of rings (size 3 to 8) (size 9 to 14) (size 15 to 20)
#    0.000    1.538    3.077    2.769    3.231    1.231 
#    0.000    0.000    0.000    0.000    0.000    0.000 
#    0.000   12.308    0.000    0.000    0.000    0.000 
#
# Total GULP energy -144861.497310 kJ/mol
# GULP energy per Si atom -5571.596050 kJ/mol
# Density = 2.115239 g / cm^3
# Si number density = 21.200644 Si / 1000 Ang^3
#
#
#
# Elastic Constant Matrix: (Units=GPa)
#
#
# Indices 1 2 3 4 5 6 
#
# 1 25.1141 9.5251 12.6826 0.0000 18.4673 0.0000
# 2 9.5251 128.4598 61.8477 0.0000 13.3754 0.0000
# 3 12.6826 61.8477 142.9092 0.0000 21.7808 0.0000
# 4 0.0000 0.0000 0.0000 38.6577 0.0000 5.8702
# 5 18.4673 13.3754 21.7808 0.0000 26.7414 0.0000
# 6 0.0000 0.0000 0.0000 5.8702 0.0000 10.7953
#
#
#
# Elastic Compliance Matrix: (Units=1/GPa)
#
#
# Indices 1 2 3 4 5 6 
#
# 1 0.081295 -0.001005 0.001941 0.000000 -0.057220 0.000000
# 2 -0.001005 0.009911 -0.004053 0.000000 -0.000962 0.000000
# 3 0.001941 -0.004053 0.009676 0.000000 -0.007194 0.000000
# 4 0.000000 0.000000 0.000000 0.028196 0.000000 -0.015332
# 5 -0.057220 -0.000962 -0.007194 0.000000 0.083251 0.000000
# 6 0.000000 0.000000 0.000000 -0.015332 0.000000 0.100970
#
#
# Mechanical properties :
#
#
# Convention : Reuss Voigt Hill
#
# Bulk Modulus (GPa) = 10.56548 51.62154 31.09351
# Shear Modulus (GPa) = 14.24168 29.40072 21.82120
#
# Velocity S-wave (km/s) = 2.59464 3.72800 3.21171
# Velocity P-wave (km/s) = 3.73773 6.55229 5.33400
#
# Compressibility (1/GPa) = 0.09464782
#
# Stress axis : x y z
#
# Youngs Moduli (GPa) = 12.30087 100.90119 103.35032
#
# Poissons Ratio (x) = 0.10136 -0.20061
# Poissons Ratio (y) = 0.01236 0.41892
# Poissons Ratio (z) = -0.02388 0.40899
#
# Static dielectric constant tensor:
#      x y z
#    x 1.766890 0.000000 -0.036190 
#    y 0.000000 1.813350 0.000000 
#    z -0.036190 0.000000 1.912270 
# 
# From -- ./inp_files/28567.got.cif
#   From: 2010.05.17/outbox.cif.g08.bks.cpg/sg12_15_cif.got.tgz:28567.got - 2010.06.03 13:09:07.
