data_PCOD9207856
_publ_section_title
;
Structure prediction by ZEFSAII (Michael W. Deem and Ramdas Pophale) SiO2 
 PCOD9207856
Probable space group: C 2/M
;
_chemical_formula_sum "Si O2"
_cell_formula_units_Z 56
_cell_length_a 24.369972
_cell_length_b 8.510234
_cell_length_c 15.913579
_cell_angle_alpha 90.000000
_cell_angle_beta 60.249891
_cell_angle_gamma 90.000000
_cell_volume 2865.385855
_symmetry_space_group_name_H-M "C 2/M"
_symmetry_group_IT_number 12
_symmetry_cell_setting 'monoclinic'
loop_
_space_group_symop_operation_xyz
x,y,z
-x,y,-z
-x,-y,-z
x,-y,z
1/2+x,1/2+y,z
1/2-x,1/2+y,-z
1/2-x,1/2-y,-z
1/2+x,1/2-y,z
loop_
_atom_site_type_symbol
_atom_site_label
_atom_site_fract_x
_atom_site_fract_y
_atom_site_fract_z
Si Si1 0.021104 0.691846 0.076160
Si Si2 0.209373 0.315067 0.158631
Si Si3 0.289087 0.686665 0.390543
Si Si4 0.568560 0.190085 0.703722
Si Si5 0.663741 0.811093 0.006226
Si Si6 0.815872 0.815712 0.646280
Si Si7 0.946868 0.310106 0.473952
O O1 0.019266 0.500000 0.078230
O O2 0.975635 0.744866 0.186207
O O3 0.093322 0.737198 0.036897
O O4 0.000000 0.744272 0.000000
O O5 0.201397 0.500000 0.181364
O O6 0.282739 0.272798 0.088998
O O7 0.181517 0.219360 0.256966
O O8 0.176993 0.277477 0.094134
O O9 0.292591 0.500000 0.392549
O O10 0.250000 0.750000 0.500000
O O11 0.359531 0.755230 0.338235
O O12 0.247552 0.737695 0.342216
O O13 0.544163 0.240514 0.629830
O O14 0.568257 0.000000 0.704308
O O15 0.670393 0.000000 0.989817
O O16 0.877710 0.744736 0.555337
O O17 0.813273 0.000000 0.631100
O O18 0.947977 0.500000 0.474268
O O19 0.000000 0.254821 0.500000
#
# Coordination Sequence:
#
# PCOD9207856 Si02
#       7
#     8   8   8   8   8   8   8
#     4   9  19  35  58  89 120 156 201 246 294 358
#     4  10  21  37  60  88 121 157 200 254 308 361
#     4  12  24  41  63  89 122 158 199 249 305 363
#     4  10  21  38  62  90 121 162 206 248 300 362
#     4   9  19  37  61  87 119 158 203 249 300 363
#     4  12  25  40  62  90 121 159 205 254 306 365
#     4  10  22  39  62  90 124 164 205 248 302 368
#
# _framework density 19.543614999999999
#
# number of rings (size 3 to 8) (size 9 to 14) (size 15 to 20)
#    0.000    1.714    1.429    3.000    4.000    0.857 
#    0.000    0.714    0.000    0.857    0.000    0.000 
#    0.000    0.000    0.000    0.000    0.000    0.000 
#
# Total GULP energy -156460.221097 kJ/mol
# GULP energy per Si atom -5587.865039 kJ/mol
# Density = 1.949913 g / cm^3
# Si number density = 19.543615 Si / 1000 Ang^3
#
#
#
# Elastic Constant Matrix: (Units=GPa)
#
#
# Indices 1 2 3 4 5 6 
#
# 1 143.0028 15.6484 65.5833 0.0000 -4.5667 -0.0002
# 2 15.6484 14.6439 14.6147 0.0000 7.4414 -0.0006
# 3 65.5833 14.6147 121.6107 0.0000 6.8286 0.0000
# 4 0.0000 0.0000 0.0000 21.7846 0.0000 -7.2613
# 5 -4.5667 7.4414 6.8286 0.0000 19.8198 0.0000
# 6 -0.0002 -0.0006 0.0000 -7.2613 0.0000 25.0615
#
#
#
# Elastic Compliance Matrix: (Units=1/GPa)
#
#
# Indices 1 2 3 4 5 6 
#
# 1 0.010682 -0.010627 -0.004942 0.000000 0.008154 0.000000
# 2 -0.010627 0.104624 -0.004588 0.000001 -0.040149 0.000003
# 3 -0.004942 -0.004588 0.011632 0.000000 -0.003423 0.000000
# 4 0.000000 0.000001 0.000000 0.050811 0.000000 0.014722
# 5 0.008154 -0.040149 -0.003423 0.000000 0.068587 -0.000001
# 6 0.000000 0.000003 0.000000 0.014722 -0.000001 0.044167
#
#
# Mechanical properties :
#
#
# Convention : Reuss Voigt Hill
#
# Bulk Modulus (GPa) = 11.54398 52.32782 31.93590
# Shear Modulus (GPa) = 13.90080 25.56058 19.73069
#
# Velocity S-wave (km/s) = 2.66986 3.62038 3.18082
# Velocity P-wave (km/s) = 3.92731 6.65652 5.46502
#
# Compressibility (1/GPa) = 0.08662525
#
# Stress axis : x y z
#
# Youngs Moduli (GPa) = 93.61163 9.55802 85.97296
#
# Poissons Ratio (x) = 0.10157 0.42485
# Poissons Ratio (y) = 0.99478 0.39445
# Poissons Ratio (z) = 0.46260 0.04385
#
# Static dielectric constant tensor:
#      x y z
#    x 1.675360 0.000000 0.028790 
#    y 0.000000 1.670490 0.000000 
#    z 0.028790 0.000000 1.667240 
# 
# From -- ./inp_files/238328.got.cif
#   From: 2010.05.17/outbox.cif.g08.bks.cpg/sg12_120_cif.got.tgz:238328.got - 2010.06.03 13:09:07.
