data_PCOD9207983
_publ_section_title
;
Structure prediction by ZEFSAII (Michael W. Deem and Ramdas Pophale) SiO2 
 PCOD9207983
Probable space group: C 2/M
;
_chemical_formula_sum "Si O2"
_cell_formula_units_Z 34
_cell_length_a 7.061751
_cell_length_b 24.208352
_cell_length_c 10.217352
_cell_angle_alpha 90.000000
_cell_angle_beta 134.071629
_cell_angle_gamma 90.000000
_cell_volume 1254.946193
_symmetry_space_group_name_H-M "C 2/M"
_symmetry_group_IT_number 12
_symmetry_cell_setting 'monoclinic'
loop_
_space_group_symop_operation_xyz
x,y,z
-x,y,-z
-x,-y,-z
x,-y,z
1/2+x,1/2+y,z
1/2-x,1/2+y,-z
1/2-x,1/2-y,-z
1/2+x,1/2-y,z
loop_
_atom_site_type_symbol
_atom_site_label
_atom_site_fract_x
_atom_site_fract_y
_atom_site_fract_z
Si Si1 0.949606 0.702499 0.322026
Si Si2 0.784877 0.559848 0.781247
Si Si3 0.258032 0.084668 0.203631
Si Si4 0.256040 0.677777 0.218253
Si Si5 0.500000 0.000000 0.500000
O O1 0.749889 0.651195 0.211508
O O2 0.884266 0.764213 0.241946
O O3 0.000000 0.704813 0.500000
O O4 0.181233 0.685593 0.334755
O O5 0.654802 0.500000 0.704779
O O6 0.624432 0.616259 0.730047
O O7 0.974584 0.569229 0.747400
O O8 0.000000 0.556403 0.000000
O O9 0.297174 0.048619 0.350023
O O10 0.000000 0.067472 0.000000
O O11 0.000000 0.674474 0.000000
#
# Coordination Sequence:
#
# PCOD9207983 Si02
#       5
#     8   8   8   8   2
#     4  11  22  39  59  92 123 160 209 263 309 368
#     4   9  19  37  62  86 121 164 205 249 306 369
#     4  11  23  40  67  93 122 163 207 255 310 368
#     4  10  21  37  61  85 120 166 209 254 317 371
#     4  12  22  40  62  96 130 154 206 258 308 362
#
# _framework density 27.092797000000001
#
# number of rings (size 3 to 8) (size 9 to 14) (size 15 to 20)
#    0.000    1.647    2.353    2.471    0.000    3.765 
#    0.000    0.000    0.000    2.118    0.000    0.000 
#    0.000    0.000    0.000    0.000    0.000    0.000 
#
# Total GULP energy -94866.894758 kJ/mol
# GULP energy per Si atom -5580.405574 kJ/mol
# Density = 2.703113 g / cm^3
# Si number density = 27.092797 Si / 1000 Ang^3
#
#
#
# Elastic Constant Matrix: (Units=GPa)
#
#
# Indices 1 2 3 4 5 6 
#
# 1 84.0804 50.7131 11.8264 0.0000 -5.0494 0.0000
# 2 50.7131 348.3161 67.7569 0.0000 18.6430 0.0000
# 3 11.8264 67.7569 138.5434 0.0000 -0.1707 0.0000
# 4 0.0000 0.0000 0.0000 -14.9010 0.0000 54.7085
# 5 -5.0494 18.6430 -0.1707 0.0000 22.2545 0.0000
# 6 0.0000 0.0000 0.0000 54.7085 0.0000 11.9255
#
#
#
# Elastic Compliance Matrix: (Units=1/GPa)
#
#
# Indices 1 2 3 4 5 6 
#
# 1 0.013539 -0.002223 -0.000062 0.000000 0.004934 0.000000
# 2 -0.002223 0.003705 -0.001627 0.000000 -0.003621 0.000000
# 3 -0.000062 -0.001627 0.008021 0.000000 0.001410 0.000000
# 4 0.000000 0.000000 0.000000 -0.003761 0.000000 0.017254
# 5 0.004934 -0.003621 0.001410 0.000000 0.049098 0.000000
# 6 0.000000 0.000000 0.000000 0.017254 0.000000 0.004700
#
#
# Mechanical properties :
#
#
# Convention : Reuss Voigt Hill
#
# Bulk Modulus (GPa) = 57.33815 92.39250 74.86532
# Shear Modulus (GPa) = 56.21828 33.23204 44.72516
#
# Velocity S-wave (km/s) = 4.56019 3.50609 4.06743
# Velocity P-wave (km/s) = 6.99547 7.11101 7.05348
#
# Compressibility (1/GPa) = 0.01744040
#
# Stress axis : x y z
#
# Youngs Moduli (GPa) = 73.85854 269.91693 124.68004
#
# Poissons Ratio (x) = 0.60008 0.00778
# Poissons Ratio (y) = 0.16420 0.20280
# Poissons Ratio (z) = 0.00461 0.43905
#
# Static dielectric constant tensor:
#      x y z
#    x 2.232650 0.000000 0.002250 
#    y 0.000000 2.116610 0.000000 
#    z 0.002250 0.000000 2.092760 
# 
# From -- ./inp_files/124007.got.cif
#   From: 2010.05.17/outbox.cif.g08.bks.cpg/sg12_63_cif.got.tgz:124007.got - 2010.06.03 13:09:07.
