data_PCOD9207291
_publ_section_title
;
Structure prediction by ZEFSAII (Michael W. Deem and Ramdas Pophale) SiO2 
 PCOD9207291
Probable space group: C 2/M
;
_chemical_formula_sum "Si O2"
_cell_formula_units_Z 48
_cell_length_a 13.786892
_cell_length_b 21.187500
_cell_length_c 11.661101
_cell_angle_alpha 90.000000
_cell_angle_beta 42.530951
_cell_angle_gamma 90.000000
_cell_volume 2302.633820
_symmetry_space_group_name_H-M "C 2/M"
_symmetry_group_IT_number 12
_symmetry_cell_setting 'monoclinic'
loop_
_space_group_symop_operation_xyz
x,y,z
-x,y,-z
-x,-y,-z
x,-y,z
1/2+x,1/2+y,z
1/2-x,1/2+y,-z
1/2-x,1/2-y,-z
1/2+x,1/2-y,z
loop_
_atom_site_type_symbol
_atom_site_label
_atom_site_fract_x
_atom_site_fract_y
_atom_site_fract_z
Si Si1 0.600729 0.929958 0.136078
Si Si2 0.266283 0.069899 0.477609
Si Si3 0.744320 0.194251 0.909369
Si Si4 0.835979 0.607696 0.668673
Si Si5 0.799924 0.234776 0.266316
Si Si6 0.424726 0.307188 0.387636
O O1 0.428291 0.920570 0.290106
O O2 0.655935 0.928985 0.219734
O O3 0.629716 0.000000 0.061998
O O4 0.675012 0.870155 0.013950
O O5 0.282330 0.072125 0.602143
O O6 0.164226 0.127508 0.532593
O O7 0.216505 0.000000 0.486470
O O8 0.665045 0.217009 0.863792
O O9 0.910006 0.183510 0.729604
O O10 0.750000 0.250000 0.000000
O O11 0.739407 0.669604 0.761722
O O12 0.000000 0.627197 0.500000
O O13 0.658577 0.258836 0.457633
O O14 0.911587 0.221095 0.270088
#
# Coordination Sequence:
#
# PCOD9207291 Si02
#       6
#     8   8   8   8   8   8
#     4  10  21  37  57  88 126 162 200 250 308 363
#     4   9  19  37  60  85 117 163 212 249 295 360
#     4  12  24  38  61  93 127 161 194 250 315 366
#     4   9  15  30  58  84 113 154 199 249 297 355
#     4  10  21  39  62  87 123 154 207 249 301 359
#     4  10  23  39  63  90 115 163 207 254 296 355
#
# _framework density 20.845694000000002
#
# number of rings (size 3 to 8) (size 9 to 14) (size 15 to 20)
#    0.000    2.000    1.667    2.000    7.000    3.333 
#    0.000    0.833    0.000    7.000    0.000    0.000 
#    0.000    0.000    0.000    0.000    0.000    0.000 
#
# Total GULP energy -134073.354168 kJ/mol
# GULP energy per Si atom -5586.389757 kJ/mol
# Density = 2.079825 g / cm^3
# Si number density = 20.845694 Si / 1000 Ang^3
#
#
#
# Elastic Constant Matrix: (Units=GPa)
#
#
# Indices 1 2 3 4 5 6 
#
# 1 63.8518 36.1441 20.5059 0.0000 -6.8092 0.0000
# 2 36.1441 125.8209 33.7994 0.0000 -8.6145 0.0000
# 3 20.5059 33.7994 41.8895 -0.0001 -7.7042 0.0001
# 4 0.0000 0.0000 -0.0001 29.2031 0.0001 -0.3187
# 5 -6.8092 -8.6145 -7.7042 0.0001 26.2181 -0.0001
# 6 0.0000 0.0000 0.0001 -0.3187 -0.0001 13.0699
#
#
#
# Elastic Compliance Matrix: (Units=1/GPa)
#
#
# Indices 1 2 3 4 5 6 
#
# 1 0.020141 -0.003955 -0.006285 0.000000 0.002085 0.000000
# 2 -0.003955 0.010948 -0.006792 0.000000 0.000574 0.000000
# 3 -0.006285 -0.006792 0.033531 0.000000 0.005989 0.000000
# 4 0.000000 0.000000 0.000000 0.034252 0.000000 0.000835
# 5 0.002085 0.000574 0.005989 0.000000 0.040632 0.000000
# 6 0.000000 0.000000 0.000000 0.000835 0.000000 0.076532
#
#
# Mechanical properties :
#
#
# Convention : Reuss Voigt Hill
#
# Bulk Modulus (GPa) = 32.72695 45.82901 39.27798
# Shear Modulus (GPa) = 19.20989 23.10575 21.15782
#
# Velocity S-wave (km/s) = 3.03896 3.33290 3.18932
# Velocity P-wave (km/s) = 5.29598 6.06989 5.69610
#
# Compressibility (1/GPa) = 0.03055585
#
# Stress axis : x y z
#
# Youngs Moduli (GPa) = 49.65106 91.34375 29.82344
#
# Poissons Ratio (x) = 0.36123 0.18744
# Poissons Ratio (y) = 0.19635 0.20256
# Poissons Ratio (z) = 0.31206 0.62039
#
# Static dielectric constant tensor:
#      x y z
#    x 1.735180 0.000000 0.028340 
#    y 0.000000 1.757650 0.000000 
#    z 0.028340 0.000000 1.748560 
# 
# From -- ./inp_files/147916.got.cif
#   From: 2010.05.17/outbox.cif.g08.bks.cpg/sg12_74_cif.got.tgz:147916.got - 2010.06.03 13:09:07.
