data_PCOD9207152
_publ_section_title
;
Structure prediction by ZEFSAII (Michael W. Deem and Ramdas Pophale) SiO2 
 PCOD9207152
Probable space group: C 2/M
;
_chemical_formula_sum "Si O2"
_cell_formula_units_Z 64
_cell_length_a 18.493900
_cell_length_b 8.648690
_cell_length_c 31.371990
_cell_angle_alpha 90.000000
_cell_angle_beta 137.551780
_cell_angle_gamma 90.000000
_cell_volume 3386.690722
_symmetry_space_group_name_H-M "C 2/M"
_symmetry_group_IT_number 12
_symmetry_cell_setting 'monoclinic'
loop_
_space_group_symop_operation_xyz
x,y,z
-x,y,-z
-x,-y,-z
x,-y,z
1/2+x,1/2+y,z
1/2-x,1/2+y,-z
1/2-x,1/2-y,-z
1/2+x,1/2-y,z
loop_
_atom_site_type_symbol
_atom_site_label
_atom_site_fract_x
_atom_site_fract_y
_atom_site_fract_z
Si Si1 0.273829 0.314655 0.186692
Si Si2 0.055664 0.186858 0.811577
Si Si3 0.750250 0.313697 0.567433
Si Si4 0.539387 0.313090 0.064254
Si Si5 0.581428 0.186302 0.432040
Si Si6 0.179858 0.314318 0.308130
Si Si7 0.132571 0.813364 0.939128
Si Si8 0.659993 0.185809 0.692873
O O1 0.273128 0.500000 0.188971
O O2 0.355317 0.268404 0.184469
O O3 0.155071 0.255646 0.124762
O O4 0.313338 0.246433 0.248565
O O5 0.092639 0.234858 0.874930
O O6 0.941321 0.257632 0.750355
O O7 0.046400 0.000000 0.807320
O O8 0.746247 0.500000 0.565172
O O9 0.641268 0.250113 0.499628
O O10 0.846173 0.265247 0.577120
O O11 0.775162 0.263195 0.626196
O O12 0.547181 0.500000 0.068912
O O13 0.452524 0.264678 0.061869
O O14 0.500000 0.268072 0.000000
O O15 0.459302 0.236619 0.372923
O O16 0.583095 0.000000 0.434394
O O17 0.182292 0.500000 0.307766
O O18 0.253206 0.247630 0.302629
O O19 0.137204 0.000000 0.941648
O O20 0.250000 0.750000 0.000000
O O21 0.662721 0.000000 0.694493
#
# Coordination Sequence:
#
# PCOD9207152 Si02
#       8
#     8   8   8   8   8   8   8   8
#     4  11  23  38  59  86 113 147 194 241 287 340
#     4  10  22  39  58  83 115 150 189 235 285 335
#     4   9  19  36  57  82 112 144 183 234 283 330
#     4  10  21  37  58  85 117 154 194 234 282 339
#     4   9  19  36  58  82 108 146 191 229 277 340
#     4  11  23  38  58  85 115 149 191 234 282 340
#     4  10  21  37  57  82 113 148 186 230 281 334
#     4  11  23  39  58  81 114 151 188 235 288 342
#
# _framework density 18.897504000000001
#
# number of rings (size 3 to 8) (size 9 to 14) (size 15 to 20)
#    0.000    1.875    0.000    3.375    0.000    6.750 
#    0.000    5.000    0.000    0.000    0.000    0.000 
#    0.000    0.000    0.000    0.000    0.000    0.000 
#
# Total GULP energy -178839.731835 kJ/mol
# GULP energy per Si atom -5588.741620 kJ/mol
# Density = 1.885449 g / cm^3
# Si number density = 18.897504 Si / 1000 Ang^3
#
#
#
# Elastic Constant Matrix: (Units=GPa)
#
#
# Indices 1 2 3 4 5 6 
#
# 1 189.3039 43.7764 130.7301 0.0000 -1.1396 0.0000
# 2 43.7764 21.8981 45.0453 0.0000 0.3295 0.0000
# 3 130.7301 45.0453 210.1596 0.0000 -0.0976 0.0000
# 4 0.0000 0.0000 0.0000 34.4999 0.0000 6.6171
# 5 -1.1396 0.3295 -0.0976 0.0000 42.9497 0.0000
# 6 0.0000 0.0000 0.0000 6.6171 0.0000 17.8207
#
#
#
# Elastic Compliance Matrix: (Units=1/GPa)
#
#
# Indices 1 2 3 4 5 6 
#
# 1 0.011409 -0.014694 -0.003947 0.000000 0.000406 0.000000
# 2 -0.014694 0.100622 -0.012427 0.000000 -0.001190 0.000000
# 3 -0.003947 -0.012427 0.009877 0.000000 0.000013 0.000000
# 4 0.000000 0.000000 0.000000 0.031208 0.000000 -0.011588
# 5 0.000406 -0.001190 0.000013 0.000000 0.023303 0.000000
# 6 0.000000 0.000000 0.000000 -0.011588 0.000000 0.060417
#
#
# Mechanical properties :
#
#
# Convention : Reuss Voigt Hill
#
# Bulk Modulus (GPa) = 16.73045 95.60726 56.16886
# Shear Modulus (GPa) = 15.67903 32.50804 24.09353
#
# Velocity S-wave (km/s) = 2.88356 4.15206 3.57453
# Velocity P-wave (km/s) = 4.46755 8.58420 6.84279
#
# Compressibility (1/GPa) = 0.05977125
#
# Stress axis : x y z
#
# Youngs Moduli (GPa) = 87.65198 9.93819 101.24173
#
# Poissons Ratio (x) = 0.14603 0.39962
# Poissons Ratio (y) = 1.28793 1.25818
# Poissons Ratio (z) = 0.34598 0.12351
#
# Static dielectric constant tensor:
#      x y z
#    x 1.634500 0.000000 -0.010090 
#    y 0.000000 1.641520 0.000000 
#    z -0.010090 0.000000 1.618020 
# 
# From -- ./inp_files/378479.got.cif
#   From: 2010.05.17/outbox.cif.g08.bks.cpg/sg12_190_cif.got.tgz:378479.got - 2010.06.03 13:09:07.
