data_PCOD9207309
_publ_section_title
;
Structure prediction by ZEFSAII (Michael W. Deem and Ramdas Pophale) SiO2 
 PCOD9207309
Probable space group: C 2/M
;
_chemical_formula_sum "Si O2"
_cell_formula_units_Z 40
_cell_length_a 14.711430
_cell_length_b 21.561447
_cell_length_c 9.711404
_cell_angle_alpha 90.000000
_cell_angle_beta 137.336313
_cell_angle_gamma 90.000000
_cell_volume 2087.604864
_symmetry_space_group_name_H-M "C 2/M"
_symmetry_group_IT_number 12
_symmetry_cell_setting 'monoclinic'
loop_
_space_group_symop_operation_xyz
x,y,z
-x,y,-z
-x,-y,-z
x,-y,z
1/2+x,1/2+y,z
1/2-x,1/2+y,-z
1/2-x,1/2-y,-z
1/2+x,1/2-y,z
loop_
_atom_site_type_symbol
_atom_site_label
_atom_site_fract_x
_atom_site_fract_y
_atom_site_fract_z
Si Si1 0.040417 0.241779 0.689342
Si Si2 0.176430 0.320615 0.059810
Si Si3 0.682691 0.072948 0.563993
Si Si4 0.773952 0.818493 0.464595
Si Si5 0.639954 0.070898 0.825271
O O1 0.185590 0.214374 0.820654
O O2 0.000000 0.275443 0.500000
O O3 0.929494 0.188803 0.591277
O O4 0.060227 0.284916 0.845039
O O5 0.177126 0.325413 0.224505
O O6 0.185397 0.387032 0.999885
O O7 0.749173 0.124739 0.540995
O O8 0.700798 0.089947 0.745216
O O9 0.521831 0.074280 0.363216
O O10 0.723350 0.000000 0.588260
O O11 0.750000 0.750000 0.500000
O O12 0.676917 0.000000 0.887971
#
# Coordination Sequence:
#
# PCOD9207309 Si02
#       5
#     8   8   8   8   8
#     4   9  21  37  55  80 113 148 185 227 282 333
#     4  10  21  37  58  81 109 152 185 230 279 331
#     4   9  20  37  57  82 117 150 182 234 287 329
#     4  11  23  36  55  88 117 145 186 236 282 334
#     4   9  19  36  59  82 107 150 194 225 275 342
#
# _framework density 19.160713000000001
#
# number of rings (size 3 to 8) (size 9 to 14) (size 15 to 20)
#    0.000    2.400    0.000    2.400   11.200    4.000 
#    0.000    3.000    0.000    6.000    0.000    0.000 
#    0.000    0.000    0.000    0.000    0.000    0.000 
#
# Total GULP energy -111498.029554 kJ/mol
# GULP energy per Si atom -5574.901478 kJ/mol
# Density = 1.911710 g / cm^3
# Si number density = 19.160713 Si / 1000 Ang^3
#
#
#
# Elastic Constant Matrix: (Units=GPa)
#
#
# Indices 1 2 3 4 5 6 
#
# 1 75.5261 48.4715 41.6207 0.0000 -23.0964 0.0000
# 2 48.4715 107.0147 62.1105 0.0000 -35.0775 0.0000
# 3 41.6207 62.1105 130.0867 0.0000 -33.2627 0.0000
# 4 0.0000 0.0000 0.0000 19.4245 0.0000 -14.6080
# 5 -23.0964 -35.0775 -33.2627 0.0000 32.4377 0.0000
# 6 0.0000 0.0000 0.0000 -14.6080 0.0000 34.7736
#
#
#
# Elastic Compliance Matrix: (Units=1/GPa)
#
#
# Indices 1 2 3 4 5 6 
#
# 1 0.019944 -0.005990 -0.002096 0.000000 0.005574 0.000000
# 2 -0.005990 0.017938 -0.003766 0.000000 0.011271 0.000000
# 3 -0.002096 -0.003766 0.011836 0.000000 0.006573 0.000000
# 4 0.000000 0.000000 0.000000 0.075256 0.000000 0.031614
# 5 0.005574 0.011271 0.006573 0.000000 0.053725 0.000000
# 6 0.000000 0.000000 0.000000 0.031614 0.000000 0.042038
#
#
# Mechanical properties :
#
#
# Convention : Reuss Voigt Hill
#
# Bulk Modulus (GPa) = 38.44019 68.55921 53.49970
# Shear Modulus (GPa) = 19.75395 28.02215 23.88805
#
# Velocity S-wave (km/s) = 3.21434 3.82839 3.53472
# Velocity P-wave (km/s) = 5.82078 7.44318 6.68141
#
# Compressibility (1/GPa) = 0.02601444
#
# Stress axis : x y z
#
# Youngs Moduli (GPa) = 50.13929 55.74810 84.48460
#
# Poissons Ratio (x) = 0.33394 0.17706
# Poissons Ratio (y) = 0.30034 0.31818
# Poissons Ratio (z) = 0.10508 0.20995
#
# Static dielectric constant tensor:
#      x y z
#    x 1.713340 0.000000 -0.013390 
#    y 0.000000 1.669170 0.000000 
#    z -0.013390 0.000000 1.706750 
# 
# From -- ./inp_files/50967.got.cif
#   From: 2010.05.17/outbox.cif.g08.bks.cpg/sg12_26_cif.got.tgz:50967.got - 2010.06.03 13:09:07.
