data_PCOD9207408
_publ_section_title
;
Structure prediction by ZEFSAII (Michael W. Deem and Ramdas Pophale) SiO2 
 PCOD9207408
Probable space group: C 2/M
;
_chemical_formula_sum "Si O2"
_cell_formula_units_Z 56
_cell_length_a 12.598592
_cell_length_b 19.450751
_cell_length_c 13.077107
_cell_angle_alpha 90.000000
_cell_angle_beta 110.903350
_cell_angle_gamma 90.000000
_cell_volume 2993.658858
_symmetry_space_group_name_H-M "C 2/M"
_symmetry_group_IT_number 12
_symmetry_cell_setting 'monoclinic'
loop_
_space_group_symop_operation_xyz
x,y,z
-x,y,-z
-x,-y,-z
x,-y,z
1/2+x,1/2+y,z
1/2-x,1/2+y,-z
1/2-x,1/2-y,-z
1/2+x,1/2-y,z
loop_
_atom_site_type_symbol
_atom_site_label
_atom_site_fract_x
_atom_site_fract_y
_atom_site_fract_z
Si Si1 0.839590 0.819862 0.218475
Si Si2 0.674064 0.919143 0.515889
Si Si3 0.296442 0.162121 0.266444
Si Si4 0.628946 0.421744 0.582895
Si Si5 0.460204 0.683429 0.873487
Si Si6 0.409529 0.843965 0.886599
Si Si7 0.504879 0.081002 0.275603
O O1 0.828951 0.741423 0.255500
O O2 0.851426 0.868252 0.320505
O O3 0.720442 0.838233 0.122197
O O4 0.944786 0.830501 0.178859
O O5 0.683825 0.866424 0.612341
O O6 0.783880 0.911616 0.480617
O O7 0.566388 0.905565 0.405426
O O8 0.668262 0.000000 0.547946
O O9 0.163662 0.153867 0.195117
O O10 0.383158 0.117215 0.229392
O O11 0.500000 0.415819 0.500000
O O12 0.647348 0.500000 0.626460
O O13 0.446180 0.766206 0.872121
O O14 0.500000 0.661443 0.000000
O O15 0.417876 0.888651 0.787490
O O16 0.500000 0.870392 0.000000
O O17 0.494511 0.000000 0.261247
#
# Coordination Sequence:
#
# PCOD9207408 Si02
#       7
#     8   8   8   8   8   8   8
#     4  11  22  39  63  93 121 156 204 260 300 356
#     4  10  21  39  60  86 124 166 203 245 302 366
#     4  11  23  37  62  92 122 160 207 248 306 356
#     4  10  21  37  58  84 121 166 201 240 302 368
#     4  10  23  41  63  89 122 161 201 251 311 369
#     4  10  22  38  63  91 119 156 207 253 310 361
#     4  11  22  40  62  90 125 161 205 251 305 364
#
# _framework density 18.706206999999999
#
# number of rings (size 3 to 8) (size 9 to 14) (size 15 to 20)
#    0.000    1.571    2.857    1.714    2.000    4.857 
#    0.000    0.714    0.000    2.143    0.000    0.000 
#    0.000    0.000    0.000    0.000    0.000    0.000 
#
# Total GULP energy -156364.472961 kJ/mol
# GULP energy per Si atom -5584.445463 kJ/mol
# Density = 1.866363 g / cm^3
# Si number density = 18.706207 Si / 1000 Ang^3
#
#
#
# Elastic Constant Matrix: (Units=GPa)
#
#
# Indices 1 2 3 4 5 6 
#
# 1 149.9048 41.4182 35.5761 0.0000 8.0440 0.0000
# 2 41.4182 54.5110 43.6852 0.0000 10.4542 0.0000
# 3 35.5761 43.6852 77.5266 0.0000 8.6375 0.0000
# 4 0.0000 0.0000 0.0000 488.5268 0.0000 -513.5288
# 5 8.0440 10.4542 8.6375 0.0000 24.8907 0.0000
# 6 0.0000 0.0000 0.0000 -513.5288 0.0000 573.3448
#
#
#
# Elastic Compliance Matrix: (Units=1/GPa)
#
#
# Indices 1 2 3 4 5 6 
#
# 1 0.008453 -0.006037 -0.000474 0.000000 -0.000032 0.000000
# 2 -0.006037 0.039288 -0.018461 0.000000 -0.008144 0.000000
# 3 -0.000474 -0.018461 0.023548 0.000000 -0.000265 0.000000
# 4 0.000000 0.000000 0.000000 0.034997 0.000000 0.031346
# 5 -0.000032 -0.008144 -0.000265 0.000000 0.043699 0.000000
# 6 0.000000 0.000000 0.000000 0.031346 0.000000 0.029820
#
#
# Mechanical properties :
#
#
# Convention : Reuss Voigt Hill
#
# Bulk Modulus (GPa) = 46.84605 58.14459 52.49532
# Shear Modulus (GPa) = 21.10921 228.10332 124.60626
#
# Velocity S-wave (km/s) = 3.36290 11.05462 8.17049
# Velocity P-wave (km/s) = 6.33847 13.93162 10.82281
#
# Compressibility (1/GPa) = 0.02134652
#
# Stress axis : x y z
#
# Youngs Moduli (GPa) = 118.30072 25.45289 42.46641
#
# Poissons Ratio (x) = 0.15366 0.02012
# Poissons Ratio (y) = 0.71418 0.78396
# Poissons Ratio (z) = 0.05604 0.46988
#
# Static dielectric constant tensor:
#      x y z
#    x 1.665130 0.000000 0.011560 
#    y 0.000000 1.619810 0.000000 
#    z 0.011560 0.000000 1.639810 
# 
# From -- ./inp_files/133994.got.cif
#   From: 2010.05.17/outbox.cif.g08.bks.cpg/sg12_67_cif.got.tgz:133994.got - 2010.06.03 13:09:07.
