data_PCOD9207806
_publ_section_title
;
Structure prediction by ZEFSAII (Michael W. Deem and Ramdas Pophale) SiO2 
 PCOD9207806
Probable space group: C 2/M
;
_chemical_formula_sum "Si O2"
_cell_formula_units_Z 50
_cell_length_a 14.396054
_cell_length_b 10.960810
_cell_length_c 16.162658
_cell_angle_alpha 90.000000
_cell_angle_beta 110.538419
_cell_angle_gamma 90.000000
_cell_volume 2388.237620
_symmetry_space_group_name_H-M "C 2/M"
_symmetry_group_IT_number 12
_symmetry_cell_setting 'monoclinic'
loop_
_space_group_symop_operation_xyz
x,y,z
-x,y,-z
-x,-y,-z
x,-y,z
1/2+x,1/2+y,z
1/2-x,1/2+y,-z
1/2-x,1/2-y,-z
1/2+x,1/2-y,z
loop_
_atom_site_type_symbol
_atom_site_label
_atom_site_fract_x
_atom_site_fract_y
_atom_site_fract_z
Si Si1 0.978674 0.854926 0.084305
Si Si2 0.000000 0.000000 0.500000
Si Si3 0.670499 0.644666 0.826128
Si Si4 0.697918 0.362908 0.203095
Si Si5 0.174889 0.367110 0.406959
Si Si6 0.180002 0.686797 0.600190
Si Si7 0.991273 0.791979 0.361911
O O1 0.080445 0.841047 0.166832
O O2 0.882768 0.814632 0.105220
O O3 0.962826 0.000000 0.069676
O O4 0.000000 0.802400 0.000000
O O5 0.019289 0.894561 0.435613
O O6 0.700806 0.500000 0.838504
O O7 0.750916 0.747180 0.826148
O O8 0.583310 0.656271 0.730069
O O9 0.713232 0.500000 0.170218
O O10 0.746787 0.367503 0.308970
O O11 0.148454 0.500000 0.368461
O O12 0.184127 0.366335 0.509656
O O13 0.278876 0.324801 0.400647
O O14 0.089582 0.271566 0.359207
O O15 0.072388 0.690930 0.607126
#
# Coordination Sequence:
#
# PCOD9207806 Si02
#       7
#     8   2   8   8   8   8   8
#     4   9  19  38  62  87 115 148 186 229 286 352
#     4  12  20  36  54  76 114 158 198 234 268 340
#     4  10  21  37  60  86 115 152 191 235 282 340
#     4  10  21  38  59  86 115 148 187 235 285 339
#     4  11  23  36  54  80 111 149 198 242 284 327
#     4  10  22  36  52  80 109 152 188 232 286 334
#     4  11  22  36  55  80 111 155 193 235 279 325
#
# _framework density 20.935939999999999
#
# number of rings (size 3 to 8) (size 9 to 14) (size 15 to 20)
#    0.000    1.760    2.400    1.440    1.120    5.120 
#    1.440    0.800    0.000    0.960    0.000    0.000 
#    0.000    0.000    0.000    0.000    0.000    0.000 
#
# Total GULP energy -139226.838452 kJ/mol
# GULP energy per Si atom -5569.073538 kJ/mol
# Density = 2.088829 g / cm^3
# Si number density = 20.935940 Si / 1000 Ang^3
#
#
#
# Elastic Constant Matrix: (Units=GPa)
#
#
# Indices 1 2 3 4 5 6 
#
# 1 69.5810 24.1197 -4.9353 0.0000 -13.0619 0.0000
# 2 24.1197 106.5941 -4.4310 0.0000 -7.8130 0.0000
# 3 -4.9353 -4.4310 35.0551 0.0000 -10.2061 0.0000
# 4 0.0000 0.0000 0.0000 4.5433 0.0000 -2.5268
# 5 -13.0619 -7.8130 -10.2061 0.0000 28.4562 0.0000
# 6 0.0000 0.0000 0.0000 -2.5268 0.0000 58.3702
#
#
#
# Elastic Compliance Matrix: (Units=1/GPa)
#
#
# Indices 1 2 3 4 5 6 
#
# 1 0.017430 -0.003106 0.004625 0.000000 0.008807 0.000000
# 2 -0.003106 0.010283 0.001417 0.000000 0.001906 0.000000
# 3 0.004625 0.001417 0.033597 0.000000 0.014562 0.000000
# 4 0.000000 0.000000 0.000000 0.225535 0.000000 0.009763
# 5 0.008807 0.001906 0.014562 0.000000 0.044930 0.000000
# 6 0.000000 0.000000 0.000000 0.009763 0.000000 0.017555
#
#
# Mechanical properties :
#
#
# Convention : Reuss Voigt Hill
#
# Bulk Modulus (GPa) = 14.88495 26.74857 20.81676
# Shear Modulus (GPa) = 13.66678 31.37238 22.51958
#
# Velocity S-wave (km/s) = 2.55775 3.87524 3.28326
# Velocity P-wave (km/s) = 3.98095 5.72952 4.93332
#
# Compressibility (1/GPa) = 0.06718194
#
# Stress axis : x y z
#
# Youngs Moduli (GPa) = 57.37323 97.24934 29.76499
#
# Poissons Ratio (x) = 0.30207 -0.13767
# Poissons Ratio (y) = 0.17821 -0.04219
# Poissons Ratio (z) = -0.26537 -0.13784
#
# Static dielectric constant tensor:
#      x y z
#    x 1.732400 0.000000 -0.015750 
#    y 0.000000 1.747840 0.000000 
#    z -0.015750 0.000000 1.788300 
# 
# From -- ./inp_files/213462.got.cif
#   From: 2010.05.17/outbox.cif.g08.bks.cpg/sg12_107_cif.got.tgz:213462.got - 2010.06.03 13:09:07.
