data_PCOD9207942
_publ_section_title
;
Structure prediction by ZEFSAII (Michael W. Deem and Ramdas Pophale) SiO2 
 PCOD9207942
Probable space group: C 2/M
;
_chemical_formula_sum "Si O2"
_cell_formula_units_Z 40
_cell_length_a 12.381514
_cell_length_b 17.543951
_cell_length_c 11.072381
_cell_angle_alpha 90.000000
_cell_angle_beta 48.913361
_cell_angle_gamma 90.000000
_cell_volume 1812.801698
_symmetry_space_group_name_H-M "C 2/M"
_symmetry_group_IT_number 12
_symmetry_cell_setting 'monoclinic'
loop_
_space_group_symop_operation_xyz
x,y,z
-x,y,-z
-x,-y,-z
x,-y,z
1/2+x,1/2+y,z
1/2-x,1/2+y,-z
1/2-x,1/2-y,-z
1/2+x,1/2-y,z
loop_
_atom_site_type_symbol
_atom_site_label
_atom_site_fract_x
_atom_site_fract_y
_atom_site_fract_z
Si Si1 0.134078 0.132662 0.272317
Si Si2 0.327691 0.090356 0.640213
Si Si3 0.184335 0.913624 0.495783
Si Si4 0.650316 0.793029 0.172583
Si Si5 0.915976 0.416319 0.936945
O O1 0.204645 0.126793 0.352669
O O2 0.090368 0.220458 0.285896
O O3 0.250942 0.100192 0.093488
O O4 0.987990 0.086619 0.366349
O O5 0.500000 0.096683 0.500000
O O6 0.254107 0.114423 0.568304
O O7 0.281236 0.147267 0.782441
O O8 0.294214 0.000000 0.686161
O O9 0.237089 0.000000 0.440037
O O10 0.750000 0.750000 0.000000
O O11 0.541455 0.847104 0.180275
O O12 0.930468 0.500000 0.870217
O O13 0.000000 0.415128 0.000000
#
# Coordination Sequence:
#
# PCOD9207942 Si02
#       5
#     8   8   8   8   8
#     4  10  21  37  60  92 120 156 199 248 306 360
#     4  10  23  41  64  92 123 161 206 256 309 365
#     4  10  21  39  64  89 118 155 201 253 303 362
#     4  10  23  40  58  89 124 162 202 249 305 367
#     4  10  21  37  61  86 120 164 205 249 295 361
#
# _framework density 22.065293
#
# number of rings (size 3 to 8) (size 9 to 14) (size 15 to 20)
#    0.000    2.000    0.000    3.000    5.600    4.000 
#    0.000    3.000    0.000   10.800    0.000    0.000 
#    0.000    0.000    0.000    0.000    0.000    0.000 
#
# Total GULP energy -111582.648868 kJ/mol
# GULP energy per Si atom -5579.132443 kJ/mol
# Density = 2.201507 g / cm^3
# Si number density = 22.065293 Si / 1000 Ang^3
#
#
#
# Elastic Constant Matrix: (Units=GPa)
#
#
# Indices 1 2 3 4 5 6 
#
# 1 123.8183 37.5653 30.6229 -0.0003 28.0174 0.0000
# 2 37.5653 159.7973 31.9872 -0.0003 29.2184 0.0000
# 3 30.6229 31.9872 74.9145 -0.0005 10.3769 0.0000
# 4 -0.0003 -0.0003 -0.0005 287.0427 0.0005 -12.2731
# 5 28.0174 29.2184 10.3769 0.0005 44.5798 0.0000
# 6 0.0000 0.0000 0.0000 -12.2731 0.0000 25.4957
#
#
#
# Elastic Compliance Matrix: (Units=1/GPa)
#
#
# Indices 1 2 3 4 5 6 
#
# 1 0.010277 -0.000844 -0.003123 0.000000 -0.005179 0.000000
# 2 -0.000844 0.007651 -0.002377 0.000000 -0.003931 0.000000
# 3 -0.003123 -0.002377 0.015657 0.000000 -0.000124 0.000000
# 4 0.000000 0.000000 0.000000 0.003557 0.000000 0.001712
# 5 -0.005179 -0.003931 -0.000124 0.000000 0.028291 0.000000
# 6 0.000000 0.000000 0.000000 0.001712 0.000000 0.040046
#
#
# Mechanical properties :
#
#
# Convention : Reuss Voigt Hill
#
# Bulk Modulus (GPa) = 47.85554 62.09787 54.97671
# Shear Modulus (GPa) = 39.95718 88.64731 64.30225
#
# Velocity S-wave (km/s) = 4.26004 6.34525 5.40417
# Velocity P-wave (km/s) = 6.77735 9.04913 7.99435
#
# Compressibility (1/GPa) = 0.02089622
#
# Stress axis : x y z
#
# Youngs Moduli (GPa) = 97.30872 130.70317 63.86741
#
# Poissons Ratio (x) = 0.11028 0.19947
# Poissons Ratio (y) = 0.08211 0.15184
# Poissons Ratio (z) = 0.30391 0.31074
#
# Static dielectric constant tensor:
#      x y z
#    x 1.790970 0.000000 0.014360 
#    y 0.000000 1.847740 0.000000 
#    z 0.014360 0.000000 1.887360 
# 
# From -- ./inp_files/130872.got.cif
#   From: 2010.05.17/outbox.cif.g08.bks.cpg/sg12_66_cif.got.tgz:130872.got - 2010.06.03 13:09:07.
