data_PCOD9207928
_publ_section_title
;
Structure prediction by ZEFSAII (Michael W. Deem and Ramdas Pophale) SiO2 
 PCOD9207928
Probable space group: C 2/M
;
_chemical_formula_sum "Si O2"
_cell_formula_units_Z 56
_cell_length_a 15.451711
_cell_length_b 8.378579
_cell_length_c 24.566877
_cell_angle_alpha 90.000000
_cell_angle_beta 62.236181
_cell_angle_gamma 90.000000
_cell_volume 2814.355630
_symmetry_space_group_name_H-M "C 2/M"
_symmetry_group_IT_number 12
_symmetry_cell_setting 'monoclinic'
loop_
_space_group_symop_operation_xyz
x,y,z
-x,y,-z
-x,-y,-z
x,-y,z
1/2+x,1/2+y,z
1/2-x,1/2+y,-z
1/2-x,1/2-y,-z
1/2+x,1/2-y,z
loop_
_atom_site_type_symbol
_atom_site_label
_atom_site_fract_x
_atom_site_fract_y
_atom_site_fract_z
Si Si1 0.325317 0.685316 0.197347
Si Si2 0.179854 0.810966 0.589316
Si Si3 0.163816 0.812365 0.063518
Si Si4 0.529108 0.812645 0.930973
Si Si5 0.899314 0.308102 0.499887
Si Si6 0.857927 0.308681 0.813768
Si Si7 0.577758 0.813513 0.725738
O O1 0.337639 0.500000 0.208607
O O2 0.385859 0.718984 0.124496
O O3 0.213412 0.718216 0.215815
O O4 0.366051 0.789972 0.234120
O O5 0.115354 0.735724 0.559426
O O6 0.293585 0.752660 0.555076
O O7 0.131479 0.774922 0.661202
O O8 0.182550 0.000000 0.578611
O O9 0.182701 0.779651 0.121236
O O10 0.066922 0.714307 0.077038
O O11 0.147915 0.000000 0.058828
O O12 0.250000 0.750000 0.000000
O O13 0.554537 0.000000 0.926632
O O14 0.500000 0.757070 0.000000
O O15 0.901681 0.500000 0.503920
O O16 0.000000 0.249775 0.500000
O O17 0.858250 0.500000 0.824825
O O18 0.967427 0.255535 0.768604
O O19 0.572681 0.000000 0.713112
#
# Coordination Sequence:
#
# PCOD9207928 Si02
#       7
#     8   8   8   8   8   8   8
#     4  11  23  40  62  88 116 153 200 253 306 363
#     4  10  21  37  60  91 125 160 204 257 300 354
#     4  12  24  38  60  86 116 152 195 250 306 367
#     4  11  23  39  59  85 117 152 194 246 307 372
#     4   9  19  38  63  90 124 165 206 248 301 361
#     4  10  23  42  62  85 118 156 199 249 306 368
#     4  11  23  41  63  86 123 168 205 249 304 370
#
# _framework density 19.897983
#
# number of rings (size 3 to 8) (size 9 to 14) (size 15 to 20)
#    0.000    1.429    1.429    3.857    0.000    7.143 
#    0.000    5.714    0.000    0.000    0.000    0.000 
#    0.000    0.000    0.000    0.000    0.000    0.000 
#
# Total GULP energy -156416.328410 kJ/mol
# GULP energy per Si atom -5586.297443 kJ/mol
# Density = 1.985269 g / cm^3
# Si number density = 19.897983 Si / 1000 Ang^3
#
#
#
# Elastic Constant Matrix: (Units=GPa)
#
#
# Indices 1 2 3 4 5 6 
#
# 1 119.5770 10.8939 35.9073 0.0000 -3.6554 0.0000
# 2 10.8939 13.4652 5.2130 0.0000 -4.7177 0.0000
# 3 35.9073 5.2130 97.5355 0.0000 -2.6564 0.0000
# 4 0.0000 0.0000 0.0000 31.6627 0.0000 6.9630
# 5 -3.6554 -4.7177 -2.6564 0.0000 15.7328 0.0000
# 6 0.0000 0.0000 0.0000 6.9630 0.0000 20.2796
#
#
#
# Elastic Compliance Matrix: (Units=1/GPa)
#
#
# Indices 1 2 3 4 5 6 
#
# 1 0.009976 -0.006897 -0.003313 0.000000 -0.000310 0.000000
# 2 -0.006897 0.089159 -0.001549 0.000000 0.024872 0.000000
# 3 -0.003313 -0.001549 0.011575 0.000000 0.000720 0.000000
# 4 0.000000 0.000000 0.000000 0.034162 0.000000 -0.011730
# 5 -0.000310 0.024872 0.000720 0.000000 0.071069 0.000000
# 6 0.000000 0.000000 0.000000 -0.011730 0.000000 0.053338
#
#
# Mechanical properties :
#
#
# Convention : Reuss Voigt Hill
#
# Bulk Modulus (GPa) = 11.46883 37.17848 24.32365
# Shear Modulus (GPa) = 15.53464 25.43927 20.48695
#
# Velocity S-wave (km/s) = 2.79716 3.57947 3.21222
# Velocity P-wave (km/s) = 4.02597 5.98403 5.09985
#
# Compressibility (1/GPa) = 0.08719289
#
# Stress axis : x y z
#
# Youngs Moduli (GPa) = 100.23613 11.21589 86.39629
#
# Poissons Ratio (x) = 0.07736 0.28619
# Poissons Ratio (y) = 0.69137 0.13380
# Poissons Ratio (z) = 0.33204 0.01737
#
# Static dielectric constant tensor:
#      x y z
#    x 1.716960 0.000000 -0.004020 
#    y 0.000000 1.696710 0.000000 
#    z -0.004020 0.000000 1.692530 
# 
# From -- ./inp_files/338508.got.cif
#   From: 2010.05.17/outbox.cif.g08.bks.cpg/sg12_170_cif.got.tgz:338508.got - 2010.06.03 13:09:07.
