data_PCOD9207614
_publ_section_title
;
Structure prediction by ZEFSAII (Michael W. Deem and Ramdas Pophale) SiO2 
 PCOD9207614
Probable space group: C 2/M
;
_chemical_formula_sum "Si O2"
_cell_formula_units_Z 64
_cell_length_a 30.440986
_cell_length_b 7.750610
_cell_length_c 16.454756
_cell_angle_alpha 90.000000
_cell_angle_beta 132.531451
_cell_angle_gamma 90.000000
_cell_volume 2860.871571
_symmetry_space_group_name_H-M "C 2/M"
_symmetry_group_IT_number 12
_symmetry_cell_setting 'monoclinic'
loop_
_space_group_symop_operation_xyz
x,y,z
-x,y,-z
-x,-y,-z
x,-y,z
1/2+x,1/2+y,z
1/2-x,1/2+y,-z
1/2-x,1/2-y,-z
1/2+x,1/2-y,z
loop_
_atom_site_type_symbol
_atom_site_label
_atom_site_fract_x
_atom_site_fract_y
_atom_site_fract_z
Si Si1 0.857520 0.291395 0.988930
Si Si2 0.976934 0.803036 0.594833
Si Si3 0.755143 0.288148 0.742461
Si Si4 0.579840 0.800422 0.314405
Si Si5 0.981318 0.204671 0.066050
Si Si6 0.697520 0.792883 0.372161
Si Si7 0.871557 0.798593 0.362274
Si Si8 0.890263 0.699288 0.208111
O O1 0.857753 0.500000 0.992505
O O2 0.869289 0.227317 0.095249
O O3 0.912847 0.238506 0.001621
O O4 0.796609 0.235855 0.869768
O O5 0.935129 0.798472 0.622067
O O6 0.935097 0.726160 0.471827
O O7 0.038041 0.710673 0.694795
O O8 0.994617 0.000000 0.596803
O O9 0.753747 0.500000 0.740067
O O10 0.784839 0.229665 0.695321
O O11 0.687391 0.226592 0.668695
O O12 0.522333 0.791806 0.184948
O O13 0.635606 0.729357 0.333042
O O14 0.591781 0.000000 0.351170
O O15 0.992551 0.000000 0.084509
O O16 0.000000 0.265845 0.000000
O O17 0.750000 0.750000 0.500000
O O18 0.691766 0.000000 0.358192
O O19 0.865218 0.785274 0.257861
O O20 0.875088 0.000000 0.389203
O O21 0.872363 0.500000 0.188772
#
# Coordination Sequence:
#
# PCOD9207614 Si02
#       8
#     8   8   8   8   8   8   8   8
#     4  10  21  39  62  85 115 156 198 243 294 353
#     4  11  22  38  61  88 120 156 197 247 301 358
#     4   9  19  39  62  84 114 156 203 243 287 352
#     4  11  22  36  58  88 118 154 196 240 296 353
#     4  11  23  37  56  85 118 153 194 241 290 344
#     4  10  21  37  59  86 118 156 199 244 291 348
#     4  10  22  39  61  86 114 156 203 245 298 358
#     4  11  23  38  59  89 120 152 196 250 303 354
#
# _framework density 22.370805000000001
#
# number of rings (size 3 to 8) (size 9 to 14) (size 15 to 20)
#    0.000    1.625    1.250    3.375    0.000    7.500 
#    0.000    1.875    0.000    0.000    0.000    0.000 
#    0.000    0.000    0.000    0.000    0.000    0.000 
#
# Total GULP energy -178923.001216 kJ/mol
# GULP energy per Si atom -5591.343788 kJ/mol
# Density = 2.231989 g / cm^3
# Si number density = 22.370805 Si / 1000 Ang^3
#
#
#
# Elastic Constant Matrix: (Units=GPa)
#
#
# Indices 1 2 3 4 5 6 
#
# 1 73.0548 -6.0917 4.6813 0.0000 -6.5603 0.0000
# 2 -6.0917 39.5631 -4.3816 0.0000 -3.0548 0.0000
# 3 4.6813 -4.3816 101.0659 0.0000 -9.9898 0.0000
# 4 0.0000 0.0000 0.0000 20.5938 0.0000 -4.5388
# 5 -6.5603 -3.0548 -9.9898 0.0000 43.1203 0.0000
# 6 0.0000 0.0000 0.0000 -4.5388 0.0000 11.5582
#
#
#
# Elastic Compliance Matrix: (Units=1/GPa)
#
#
# Indices 1 2 3 4 5 6 
#
# 1 0.014102 0.002307 -0.000333 0.000000 0.002232 0.000000
# 2 0.002307 0.025963 0.001264 0.000000 0.002483 0.000000
# 3 -0.000333 0.001264 0.010202 0.000000 0.002403 0.000000
# 4 0.000000 0.000000 0.000000 0.053159 0.000000 0.020875
# 5 0.002232 0.002483 0.002403 0.000000 0.024263 0.000000
# 6 0.000000 0.000000 0.000000 0.020875 0.000000 0.094716
#
#
# Mechanical properties :
#
#
# Convention : Reuss Voigt Hill
#
# Bulk Modulus (GPa) = 17.62279 22.45554 20.03917
# Shear Modulus (GPa) = 21.29078 29.68619 25.48849
#
# Velocity S-wave (km/s) = 3.08835 3.64676 3.37911
# Velocity P-wave (km/s) = 4.54003 5.27176 4.91952
#
# Compressibility (1/GPa) = 0.05674471
#
# Stress axis : x y z
#
# Youngs Moduli (GPa) = 70.90964 38.51630 98.01780
#
# Poissons Ratio (x) = -0.08885 0.03260
# Poissons Ratio (y) = -0.16358 -0.12391
# Poissons Ratio (z) = 0.02358 -0.04869
#
# Static dielectric constant tensor:
#      x y z
#    x 1.828760 0.000000 -0.002480 
#    y 0.000000 1.812250 0.000000 
#    z -0.002480 0.000000 1.814890 
# 
# From -- ./inp_files/250124.got.cif
#   From: 2010.05.17/outbox.cif.g08.bks.cpg/sg12_126_cif.got.tgz:250124.got - 2010.06.03 13:09:07.
