data_PCOD9207937
_publ_section_title
;
Structure prediction by ZEFSAII (Michael W. Deem and Ramdas Pophale) SiO2 
 PCOD9207937
Probable space group: C 2/M
;
_chemical_formula_sum "Si O2"
_cell_formula_units_Z 64
_cell_length_a 15.469702
_cell_length_b 8.263240
_cell_length_c 32.640571
_cell_angle_alpha 90.000000
_cell_angle_beta 47.566872
_cell_angle_gamma 90.000000
_cell_volume 3079.533078
_symmetry_space_group_name_H-M "C 2/M"
_symmetry_group_IT_number 12
_symmetry_cell_setting 'monoclinic'
loop_
_space_group_symop_operation_xyz
x,y,z
-x,y,-z
-x,-y,-z
x,-y,z
1/2+x,1/2+y,z
1/2-x,1/2+y,-z
1/2-x,1/2-y,-z
1/2+x,1/2-y,z
loop_
_atom_site_type_symbol
_atom_site_label
_atom_site_fract_x
_atom_site_fract_y
_atom_site_fract_z
Si Si1 0.631516 0.191161 0.579856
Si Si2 0.061315 0.810359 0.297321
Si Si3 0.585234 0.186665 0.871668
Si Si4 0.855690 0.305569 0.994599
Si Si5 0.397524 0.693823 0.501598
Si Si6 0.693191 0.687425 0.756347
Si Si7 0.260723 0.687115 0.109877
Si Si8 0.966169 0.195586 0.786746
O O1 0.538876 0.223378 0.645021
O O2 0.584729 0.268314 0.552331
O O3 0.762141 0.252424 0.550689
O O4 0.642186 0.000000 0.568778
O O5 0.187623 0.784789 0.277364
O O6 0.067840 0.752896 0.248201
O O7 0.033208 0.000000 0.305128
O O8 0.620102 0.291484 0.821704
O O9 0.691274 0.199047 0.869716
O O10 0.567423 0.000000 0.864779
O O11 0.473598 0.243432 0.933414
O O12 0.858516 0.500000 0.998585
O O13 0.831233 0.227638 0.046330
O O14 0.750000 0.250000 0.000000
O O15 0.500000 0.755217 0.500000
O O16 0.396072 0.500000 0.507360
O O17 0.723675 0.500000 0.740478
O O18 0.600607 0.740948 0.751864
O O19 0.277771 0.500000 0.115138
O O20 0.122627 0.725199 0.152290
O O21 0.957822 0.000000 0.793327
#
# Coordination Sequence:
#
# PCOD9207937 Si02
#       8
#     8   8   8   8   8   8   8   8
#     4  10  21  37  60  91 127 164 206 257 301 353
#     4  11  23  41  63  87 123 168 207 252 305 363
#     4  11  23  40  60  84 115 154 196 244 308 371
#     4  11  24  40  59  84 116 151 193 246 303 372
#     4   9  19  38  63  92 127 167 207 249 301 358
#     4  11  23  40  63  91 119 155 202 256 309 367
#     4  12  24  38  61  88 115 152 198 248 304 368
#     4  10  23  42  63  87 121 160 201 252 312 370
#
# _framework density 20.782371000000001
#
# number of rings (size 3 to 8) (size 9 to 14) (size 15 to 20)
#    0.000    1.375    1.250    4.125    0.000    8.750 
#    0.000    2.500    0.000    0.000    0.000    0.000 
#    0.000    0.000    0.000    0.000    0.000    0.000 
#
# Total GULP energy -178771.893453 kJ/mol
# GULP energy per Si atom -5586.621670 kJ/mol
# Density = 2.073507 g / cm^3
# Si number density = 20.782371 Si / 1000 Ang^3
#
#
#
# Elastic Constant Matrix: (Units=GPa)
#
#
# Indices 1 2 3 4 5 6 
#
# 1 103.8401 3.0359 20.7833 0.0007 -14.2674 0.0005
# 2 3.0359 22.4255 0.8174 0.0016 -3.0803 0.0008
# 3 20.7833 0.8174 92.7509 0.0009 -16.2978 0.0008
# 4 0.0007 0.0016 0.0009 30.7448 0.0009 -0.1802
# 5 -14.2674 -3.0803 -16.2978 0.0009 16.1068 0.0007
# 6 0.0005 0.0008 0.0008 -0.1802 0.0007 24.8395
#
#
#
# Elastic Compliance Matrix: (Units=1/GPa)
#
#
# Indices 1 2 3 4 5 6 
#
# 1 0.011030 -0.000253 -0.000926 0.000000 0.008785 0.000000
# 2 -0.000253 0.045947 0.001406 -0.000003 0.009986 -0.000002
# 3 -0.000926 0.001406 0.013232 -0.000001 0.012838 -0.000001
# 4 0.000000 -0.000003 -0.000001 0.032527 -0.000004 0.000236
# 5 0.008785 0.009986 0.012838 -0.000004 0.084768 -0.000003
# 6 0.000000 -0.000002 -0.000001 0.000236 -0.000003 0.040260
#
#
# Mechanical properties :
#
#
# Convention : Reuss Voigt Hill
#
# Bulk Modulus (GPa) = 14.15119 29.80997 21.98058
# Shear Modulus (GPa) = 19.93114 27.29686 23.61400
#
# Velocity S-wave (km/s) = 3.10020 3.62810 3.37449
# Velocity P-wave (km/s) = 4.43159 5.65030 5.07764
#
# Compressibility (1/GPa) = 0.07066543
#
# Stress axis : x y z
#
# Youngs Moduli (GPa) = 90.66235 21.76433 75.57155
#
# Poissons Ratio (x) = 0.00550 0.06995
# Poissons Ratio (y) = 0.02291 -0.10629
# Poissons Ratio (z) = 0.08392 -0.03061
#
# Static dielectric constant tensor:
#      x y z
#    x 1.784070 0.000000 -0.024480 
#    y 0.000000 1.700430 0.000000 
#    z -0.024480 0.000000 1.739450 
# 
# From -- ./inp_files/375471.got.cif
#   From: 2010.05.17/outbox.cif.g08.bks.cpg/sg12_188_cif.got.tgz:375471.got - 2010.06.03 13:09:07.
