data_PCOD9207397
_publ_section_title
;
Structure prediction by ZEFSAII (Michael W. Deem and Ramdas Pophale) SiO2 
 PCOD9207397
Probable space group: C 2/M
;
_chemical_formula_sum "Si O2"
_cell_formula_units_Z 40
_cell_length_a 12.909672
_cell_length_b 14.118128
_cell_length_c 14.452118
_cell_angle_alpha 90.000000
_cell_angle_beta 138.506423
_cell_angle_gamma 90.000000
_cell_volume 1745.152399
_symmetry_space_group_name_H-M "C 2/M"
_symmetry_group_IT_number 12
_symmetry_cell_setting 'monoclinic'
loop_
_space_group_symop_operation_xyz
x,y,z
-x,y,-z
-x,-y,-z
x,-y,z
1/2+x,1/2+y,z
1/2-x,1/2+y,-z
1/2-x,1/2-y,-z
1/2+x,1/2-y,z
loop_
_atom_site_type_symbol
_atom_site_label
_atom_site_fract_x
_atom_site_fract_y
_atom_site_fract_z
Si Si1 0.171431 0.614714 0.082900
Si Si2 0.645461 0.386979 0.323379
Si Si3 0.162762 0.885976 0.987211
Si Si4 0.147419 0.610962 0.709133
Si Si5 0.487153 0.699133 0.382334
O O1 0.177872 0.500000 0.095517
O O2 0.202590 0.639618 0.996231
O O3 0.319942 0.655849 0.237409
O O4 0.000000 0.646100 0.000000
O O5 0.631033 0.500000 0.324086
O O6 0.497987 0.350095 0.163723
O O7 0.791357 0.372461 0.353623
O O8 0.622370 0.344694 0.409186
O O9 0.147682 0.000000 0.975672
O O10 0.213670 0.865778 0.125192
O O11 0.105222 0.500000 0.691598
O O12 0.019251 0.689092 0.643374
O O13 0.500000 0.681503 0.500000
#
# Coordination Sequence:
#
# PCOD9207397 Si02
#       5
#     8   8   8   8   8
#     4   9  19  36  59  91 126 154 190 246 304 355
#     4   9  19  37  60  86 116 151 195 246 300 360
#     4   8  15  31  56  84 112 146 191 242 296 351
#     4  10  21  37  58  84 117 158 202 248 296 347
#     4  11  24  38  58  87 122 160 202 243 292 354
#
# _framework density 22.920635000000001
#
# number of rings (size 3 to 8) (size 9 to 14) (size 15 to 20)
#    0.000    2.600    0.000    2.400    0.000   11.600 
#    0.000    0.000    0.000    6.000    0.000    0.000 
#    0.000    0.000    0.000    0.000    0.000    0.000 
#
# Total GULP energy -111733.050732 kJ/mol
# GULP energy per Si atom -5586.652537 kJ/mol
# Density = 2.286847 g / cm^3
# Si number density = 22.920635 Si / 1000 Ang^3
#
#
#
# Elastic Constant Matrix: (Units=GPa)
#
#
# Indices 1 2 3 4 5 6 
#
# 1 76.3566 44.5061 10.7342 0.0000 -17.6884 0.0000
# 2 44.5061 70.8580 20.0537 0.0000 0.4856 0.0000
# 3 10.7342 20.0537 70.0477 0.0000 -24.3852 0.0000
# 4 0.0000 0.0000 0.0000 28.5604 0.0000 15.0039
# 5 -17.6884 0.4856 -24.3852 0.0000 41.0424 0.0000
# 6 0.0000 0.0000 0.0000 15.0039 0.0000 82.4638
#
#
#
# Elastic Compliance Matrix: (Units=1/GPa)
#
#
# Indices 1 2 3 4 5 6 
#
# 1 0.026800 -0.018866 0.006799 0.000000 0.015813 0.000000
# 2 -0.018866 0.029052 -0.010561 0.000000 -0.014749 0.000000
# 3 0.006799 -0.010561 0.021838 0.000000 0.016030 0.000000
# 4 0.000000 0.000000 0.000000 0.038714 0.000000 -0.007044
# 5 0.015813 -0.014749 0.016030 0.000000 0.040879 0.000000
# 6 0.000000 0.000000 0.000000 -0.007044 0.000000 0.013408
#
#
# Mechanical properties :
#
#
# Convention : Reuss Voigt Hill
#
# Bulk Modulus (GPa) = 30.83059 40.87225 35.85142
# Shear Modulus (GPa) = 22.04988 39.87787 30.96387
#
# Velocity S-wave (km/s) = 3.10499 4.17564 3.67947
# Velocity P-wave (km/s) = 5.13175 6.41239 5.80748
#
# Compressibility (1/GPa) = 0.03243531
#
# Stress axis : x y z
#
# Youngs Moduli (GPa) = 37.31313 34.42059 45.79183
#
# Poissons Ratio (x) = 0.64938 -0.31134
# Poissons Ratio (y) = 0.70395 0.48360
# Poissons Ratio (z) = -0.25369 0.36351
#
# Static dielectric constant tensor:
#      x y z
#    x 1.842700 0.000000 0.030840 
#    y 0.000000 1.881330 0.000000 
#    z 0.030840 0.000000 1.885080 
# 
# From -- ./inp_files/204686.got.cif
#   From: 2010.05.17/outbox.cif.g08.bks.cpg/sg12_103_cif.got.tgz:204686.got - 2010.06.03 13:09:07.
