data_PCOD9207096
_publ_section_title
;
Structure prediction by ZEFSAII (Michael W. Deem and Ramdas Pophale) SiO2 
 PCOD9207096
Probable space group: C 2/M
;
_chemical_formula_sum "Si O2"
_cell_formula_units_Z 56
_cell_length_a 30.151979
_cell_length_b 8.590177
_cell_length_c 21.039252
_cell_angle_alpha 90.000000
_cell_angle_beta 147.844699
_cell_angle_gamma 90.000000
_cell_volume 2900.254602
_symmetry_space_group_name_H-M "C 2/M"
_symmetry_group_IT_number 12
_symmetry_cell_setting 'monoclinic'
loop_
_space_group_symop_operation_xyz
x,y,z
-x,y,-z
-x,-y,-z
x,-y,z
1/2+x,1/2+y,z
1/2-x,1/2+y,-z
1/2-x,1/2-y,-z
1/2+x,1/2-y,z
loop_
_atom_site_type_symbol
_atom_site_label
_atom_site_fract_x
_atom_site_fract_y
_atom_site_fract_z
Si Si1 0.994899 0.314011 0.200394
Si Si2 0.445937 0.812088 0.282598
Si Si3 0.354446 0.686272 0.939521
Si Si4 0.387805 0.187874 0.438223
Si Si5 0.792044 0.811219 0.728284
Si Si6 0.679788 0.684170 0.772587
Si Si7 0.669405 0.686880 0.366085
O O1 0.001954 0.500000 0.210028
O O2 0.959768 0.264602 0.226578
O O3 0.085370 0.244068 0.296992
O O4 0.931385 0.261576 0.068883
O O5 0.528722 0.769952 0.423240
O O6 0.366860 0.736724 0.220507
O O7 0.437796 0.000000 0.275244
O O8 0.363437 0.500000 0.950973
O O9 0.343056 0.739276 0.852454
O O10 0.268202 0.732298 0.869303
O O11 0.304729 0.231055 0.377147
O O12 0.377302 0.264203 0.356580
O O13 0.387096 0.000000 0.428945
O O14 0.825669 0.757832 0.701367
O O15 0.794449 0.000000 0.730925
O O16 0.692324 0.500000 0.786714
O O17 0.671409 0.500000 0.368708
O O18 0.750000 0.750000 0.500000
#
# Coordination Sequence:
#
# PCOD9207096 Si02
#       7
#     8   8   8   8   8   8   8
#     4  11  24  41  59  84 116 148 188 238 285 330
#     4  10  21  37  57  79 111 156 195 228 277 343
#     4  10  21  41  63  82 108 148 195 233 275 336
#     4   9  17  34  58  82 110 149 193 229 272 336
#     4   8  17  35  60  84 110 149 191 229 273 334
#     4  11  22  35  55  85 117 146 183 237 290 332
#     4  11  22  39  62  89 119 151 188 229 278 334
#
# _framework density 19.30865
#
# number of rings (size 3 to 8) (size 9 to 14) (size 15 to 20)
#    0.000    2.000    0.000    4.714    0.000    6.857 
#    0.000   12.857    0.000    0.000    0.000    0.000 
#    0.000    0.000    0.000    0.000    0.000    0.000 
#
# Total GULP energy -156447.210647 kJ/mol
# GULP energy per Si atom -5587.400380 kJ/mol
# Density = 1.926470 g / cm^3
# Si number density = 19.308650 Si / 1000 Ang^3
#
#
#
# Elastic Constant Matrix: (Units=GPa)
#
#
# Indices 1 2 3 4 5 6 
#
# 1 129.0636 27.3560 32.9604 0.0000 -18.0966 0.0000
# 2 27.3560 37.5085 16.1243 0.0000 -4.1701 0.0000
# 3 32.9604 16.1243 94.5472 0.0000 -9.4844 0.0000
# 4 0.0000 0.0000 0.0000 29.8953 0.0000 1.6819
# 5 -18.0966 -4.1701 -9.4844 0.0000 7.4063 0.0000
# 6 0.0000 0.0000 0.0000 1.6819 0.0000 26.5885
#
#
#
# Elastic Compliance Matrix: (Units=1/GPa)
#
#
# Indices 1 2 3 4 5 6 
#
# 1 0.013122 -0.006177 -0.000750 0.000000 0.027625 0.000000
# 2 -0.006177 0.032538 -0.003525 0.000000 -0.001285 0.000000
# 3 -0.000750 -0.003525 0.012686 0.000000 0.012428 0.000000
# 4 0.000000 0.000000 0.000000 0.033570 0.000000 -0.002123
# 5 0.027625 -0.001285 0.012428 0.000000 0.217712 0.000000
# 6 0.000000 0.000000 0.000000 -0.002123 0.000000 0.037745
#
#
# Mechanical properties :
#
#
# Convention : Reuss Voigt Hill
#
# Bulk Modulus (GPa) = 26.70715 46.00006 36.35361
# Shear Modulus (GPa) = 13.13176 25.08992 19.11084
#
# Velocity S-wave (km/s) = 2.61070 3.60865 3.14945
# Velocity P-wave (km/s) = 4.79055 6.42171 5.66515
#
# Compressibility (1/GPa) = 0.03744316
#
# Stress axis : x y z
#
# Youngs Moduli (GPa) = 76.20636 30.73352 78.82659
#
# Poissons Ratio (x) = 0.18983 0.05912
# Poissons Ratio (y) = 0.47070 0.27784
# Poissons Ratio (z) = 0.05716 0.10833
#
# Static dielectric constant tensor:
#      x y z
#    x 1.672420 0.000000 -0.011930 
#    y 0.000000 1.654030 0.000000 
#    z -0.011930 0.000000 1.648440 
# 
# From -- ./inp_files/237846.got.cif
#   From: 2010.05.17/outbox.cif.g08.bks.cpg/sg12_119_cif.got.tgz:237846.got - 2010.06.03 13:09:07.
