data_PCOD9207970
_publ_section_title
;
Structure prediction by ZEFSAII (Michael W. Deem and Ramdas Pophale) SiO2 
 PCOD9207970
Probable space group: C 2/M
;
_chemical_formula_sum "Si O2"
_cell_formula_units_Z 44
_cell_length_a 14.366179
_cell_length_b 22.200224
_cell_length_c 16.877691
_cell_angle_alpha 90.000000
_cell_angle_beta 160.758015
_cell_angle_gamma 90.000000
_cell_volume 1773.961858
_symmetry_space_group_name_H-M "C 2/M"
_symmetry_group_IT_number 12
_symmetry_cell_setting 'monoclinic'
loop_
_space_group_symop_operation_xyz
x,y,z
-x,y,-z
-x,-y,-z
x,-y,z
1/2+x,1/2+y,z
1/2-x,1/2+y,-z
1/2-x,1/2-y,-z
1/2+x,1/2-y,z
loop_
_atom_site_type_symbol
_atom_site_label
_atom_site_fract_x
_atom_site_fract_y
_atom_site_fract_z
Si Si1 0.096431 0.434861 0.465584
Si Si2 0.500000 0.616025 0.000000
Si Si3 0.071741 0.608921 0.952407
Si Si4 0.516314 0.663710 0.848236
Si Si5 0.257678 0.784193 0.657067
Si Si6 0.369572 0.592761 0.518193
O O1 0.201877 0.500000 0.578325
O O2 0.242654 0.377895 0.621817
O O3 0.190371 0.429756 0.448975
O O4 0.769185 0.427401 0.219682
O O5 0.413077 0.659012 0.002998
O O6 0.929515 0.673326 0.856570
O O7 0.804932 0.572717 0.700585
O O8 0.262719 0.629765 0.030336
O O9 0.297996 0.581285 0.195514
O O10 0.440358 0.731715 0.765899
O O11 0.152217 0.834211 0.509020
O O12 0.000000 0.757513 0.500000
#
# Coordination Sequence:
#
# PCOD9207970 Si02
#       6
#     8   4   8   8   8   8
#     4  11  24  40  59  84 120 165 213 256 300 356
#     4  12  21  38  56  86 126 162 209 250 304 354
#     4   9  20  39  60  85 122 160 200 243 302 363
#     4  11  23  39  57  89 124 167 203 250 300 370
#     4  10  21  37  60  95 122 158 197 253 310 371
#     4   9  21  41  61  88 118 161 202 250 303 361
#
# _framework density 24.803239000000001
#
# number of rings (size 3 to 8) (size 9 to 14) (size 15 to 20)
#    1.091    0.727    1.818    2.455    0.000    8.727 
#    0.000    0.000    0.000    0.545    0.000    5.091 
#    0.000    0.000    0.000    0.000    0.000    0.000 
#
# Total GULP energy -122639.070561 kJ/mol
# GULP energy per Si atom -5574.503207 kJ/mol
# Density = 2.474679 g / cm^3
# Si number density = 24.803239 Si / 1000 Ang^3
#
#
#
# Elastic Constant Matrix: (Units=GPa)
#
#
# Indices 1 2 3 4 5 6 
#
# 1 78.0747 1.2672 26.0100 0.0038 -3.3065 -0.0293
# 2 1.2672 86.8549 8.4240 0.0050 0.5549 -0.0240
# 3 26.0100 8.4240 164.5889 0.0309 7.1660 -0.0771
# 4 0.0038 0.0050 0.0309 35.2656 0.0060 -67.0371
# 5 -3.3065 0.5549 7.1660 0.0060 45.7601 -0.0293
# 6 -0.0293 -0.0240 -0.0771 -67.0371 -0.0293 -1.1252
#
#
#
# Elastic Compliance Matrix: (Units=1/GPa)
#
#
# Indices 1 2 3 4 5 6 
#
# 1 0.013600 0.000007 -0.002207 -0.000004 0.001328 -0.000002
# 2 0.000007 0.011571 -0.000591 -0.000003 -0.000047 -0.000001
# 3 -0.002207 -0.000591 0.006506 -0.000006 -0.001171 0.000000
# 4 -0.000004 -0.000003 -0.000006 0.000248 -0.000009 -0.014787
# 5 0.001328 -0.000047 -0.001171 -0.000009 0.022133 -0.000003
# 6 -0.000002 -0.000001 0.000000 -0.014787 -0.000003 -0.007779
#
#
# Mechanical properties :
#
#
# Convention : Reuss Voigt Hill
#
# Bulk Modulus (GPa) = 38.32357 44.54676 41.43517
# Shear Modulus (GPa) = 82.56271 35.56793 59.06532
#
# Velocity S-wave (km/s) = 5.77575 3.79093 4.88521
# Velocity P-wave (km/s) = 7.74362 6.09595 6.96865
#
# Compressibility (1/GPa) = 0.02609360
#
# Stress axis : x y z
#
# Youngs Moduli (GPa) = 73.53080 86.42296 153.70829
#
# Poissons Ratio (x) = -0.00062 0.33929
# Poissons Ratio (y) = -0.00053 0.09089
# Poissons Ratio (z) = 0.16231 0.05110
#
# Static dielectric constant tensor:
#      x y z
#    x 2.038700 -0.000010 -0.059680 
#    y -0.000010 1.905040 0.000000 
#    z -0.059680 0.000000 2.110560 
# 
# From -- ./inp_files/317847.got.cif
#   From: 2010.05.17/outbox.cif.g08.bks.cpg/sg12_159_cif.got.tgz:317847.got - 2010.06.03 13:09:07.
