data_PCOD9207719
_publ_section_title
;
Structure prediction by ZEFSAII (Michael W. Deem and Ramdas Pophale) SiO2 
 PCOD9207719
Probable space group: C 2/M
;
_chemical_formula_sum "Si O2"
_cell_formula_units_Z 36
_cell_length_a 19.057597
_cell_length_b 13.588640
_cell_length_c 6.937648
_cell_angle_alpha 90.000000
_cell_angle_beta 72.361876
_cell_angle_gamma 90.000000
_cell_volume 1712.160213
_symmetry_space_group_name_H-M "C 2/M"
_symmetry_group_IT_number 12
_symmetry_cell_setting 'monoclinic'
loop_
_space_group_symop_operation_xyz
x,y,z
-x,y,-z
-x,-y,-z
x,-y,z
1/2+x,1/2+y,z
1/2-x,1/2+y,-z
1/2-x,1/2-y,-z
1/2+x,1/2-y,z
loop_
_atom_site_type_symbol
_atom_site_label
_atom_site_fract_x
_atom_site_fract_y
_atom_site_fract_z
Si Si1 0.430797 0.382444 0.705146
Si Si2 0.726058 0.714692 0.227778
Si Si3 0.782868 0.395490 0.505160
Si Si4 0.045967 0.389000 0.653278
Si Si5 0.000000 0.770230 0.000000
O O1 0.500000 0.370574 0.500000
O O2 0.414921 0.500000 0.727690
O O3 0.358915 0.321091 0.697093
O O4 0.452518 0.339049 0.896906
O O5 0.770405 0.626279 0.290452
O O6 0.746810 0.807962 0.342231
O O7 0.750000 0.750000 0.000000
O O8 0.748923 0.500000 0.584661
O O9 0.869153 0.396278 0.473278
O O10 0.022483 0.500000 0.736388
O O11 0.000000 0.364304 0.500000
O O12 0.039490 0.305461 0.820158
#
# Coordination Sequence:
#
# PCOD9207719 Si02
#       5
#     8   8   8   8   4
#     4  11  25  43  63  90 126 167 210 258 311 369
#     4  11  23  41  64  90 122 163 208 259 313 368
#     4  10  22  39  59  87 122 159 201 253 313 372
#     4  10  21  37  59  89 124 160 200 251 310 371
#     4  12  20  36  62  90 120 158 208 254 300 360
#
# _framework density 21.026071000000002
#
# number of rings (size 3 to 8) (size 9 to 14) (size 15 to 20)
#    0.000    1.333    0.000    6.000    0.000    3.556 
#    0.000    5.556    0.000    0.000    0.000    0.000 
#    0.000    0.000    0.000    0.000    0.000    0.000 
#
# Total GULP energy -100427.480241 kJ/mol
# GULP energy per Si atom -5579.304458 kJ/mol
# Density = 2.097821 g / cm^3
# Si number density = 21.026071 Si / 1000 Ang^3
#
#
#
# Elastic Constant Matrix: (Units=GPa)
#
#
# Indices 1 2 3 4 5 6 
#
# 1 62.6769 -1.9467 2.7937 0.0000 19.3575 0.0000
# 2 -1.9467 146.7822 33.7768 0.0000 5.9002 0.0000
# 3 2.7937 33.7768 90.9418 0.0000 17.0112 0.0000
# 4 0.0000 0.0000 0.0000 -124.9162 0.0000 -141.4973
# 5 19.3575 5.9002 17.0112 0.0000 32.9183 0.0000
# 6 0.0000 0.0000 0.0000 -141.4973 0.0000 -106.6121
#
#
#
# Elastic Compliance Matrix: (Units=1/GPa)
#
#
# Indices 1 2 3 4 5 6 
#
# 1 0.019761 0.000400 0.001584 0.000000 -0.012511 0.000000
# 2 0.000400 0.007458 -0.002754 0.000000 -0.000149 0.000000
# 3 0.001584 -0.002754 0.013342 0.000000 -0.007333 0.000000
# 4 0.000000 0.000000 0.000000 0.015903 0.000000 -0.021107
# 5 -0.012511 -0.000149 -0.007333 0.000000 0.041551 0.000000
# 6 0.000000 0.000000 0.000000 -0.021107 0.000000 0.018633
#
#
# Mechanical properties :
#
#
# Convention : Reuss Voigt Hill
#
# Bulk Modulus (GPa) = 25.62704 41.07207 33.34955
# Shear Modulus (GPa) = 38.11139 -22.00353 8.05393
#
# Velocity S-wave (km/s) = 4.26206 -3.23846 1.95928
# Velocity P-wave (km/s) = 6.03613 2.36491 4.58409
#
# Compressibility (1/GPa) = 0.03902129
#
# Stress axis : x y z
#
# Youngs Moduli (GPa) = 50.60595 134.08529 74.95100
#
# Poissons Ratio (x) = -0.05368 -0.11876
# Poissons Ratio (y) = -0.02026 0.20645
# Poissons Ratio (z) = -0.08018 0.36933
#
# Static dielectric constant tensor:
#      x y z
#    x 1.749000 0.000000 0.006240 
#    y 0.000000 1.859100 0.000000 
#    z 0.006240 0.000000 1.790340 
# 
# From -- ./inp_files/19663.got.cif
#   From: 2010.05.17/outbox.cif.g08.bks.cpg/sg12_10_cif.got.tgz:19663.got - 2010.06.03 13:09:07.
