data_PCOD9207735
_publ_section_title
;
Structure prediction by ZEFSAII (Michael W. Deem and Ramdas Pophale) SiO2 
 PCOD9207735
Probable space group: C 2/M
;
_chemical_formula_sum "Si O2"
_cell_formula_units_Z 44
_cell_length_a 32.145194
_cell_length_b 11.122409
_cell_length_c 20.462526
_cell_angle_alpha 90.000000
_cell_angle_beta 162.659181
_cell_angle_gamma 90.000000
_cell_volume 2180.572651
_symmetry_space_group_name_H-M "C 2/M"
_symmetry_group_IT_number 12
_symmetry_cell_setting 'monoclinic'
loop_
_space_group_symop_operation_xyz
x,y,z
-x,y,-z
-x,-y,-z
x,-y,z
1/2+x,1/2+y,z
1/2-x,1/2+y,-z
1/2-x,1/2-y,-z
1/2+x,1/2-y,z
loop_
_atom_site_type_symbol
_atom_site_label
_atom_site_fract_x
_atom_site_fract_y
_atom_site_fract_z
Si Si1 0.984455 0.301053 0.821208
Si Si2 0.259593 0.371295 0.459400
Si Si3 0.223480 0.747193 0.272370
Si Si4 0.044900 0.258190 0.763695
Si Si5 0.427883 0.000000 0.271684
Si Si6 0.263497 0.500000 0.768524
Si Si7 0.814040 0.000000 0.996061
O O1 0.852057 0.373213 0.650138
O O2 0.910282 0.169578 0.710575
O O3 0.027723 0.313335 0.811118
O O4 0.114058 0.322245 0.062937
O O5 0.271291 0.500000 0.444455
O O6 0.206415 0.282781 0.322880
O O7 0.387425 0.727782 0.503615
O O8 0.196862 0.884103 0.213366
O O9 0.106463 0.371195 0.815211
O O10 0.120580 0.128211 0.881914
O O11 0.595306 0.000000 0.525455
O O12 0.343486 0.000000 0.212495
O O13 0.321084 0.500000 0.928272
#
# Coordination Sequence:
#
# PCOD9207735 Si02
#       7
#     8   8   8   8   4   4   4
#     4  10  21  39  59  88 118 162 208 246 300 363
#     4  10  23  39  59  87 122 163 207 251 302 360
#     4  10  21  37  59  90 121 157 206 246 298 357
#     4  10  23  39  65  93 123 162 203 252 314 368
#     4  10  23  42  63  97 126 152 203 263 318 364
#     4  10  21  40  64  92 116 163 207 250 307 373
#     4  12  21  42  70  90 121 163 206 257 309 379
#
# _framework density 20.178184999999999
#
# number of rings (size 3 to 8) (size 9 to 14) (size 15 to 20)
#    0.000    1.818    1.818    1.364    7.636    1.455 
#    9.818    0.909    0.000    1.091    0.000    0.000 
#    0.000    0.000    0.000    0.000    0.000    0.000 
#
# Total GULP energy -122517.143876 kJ/mol
# GULP energy per Si atom -5568.961085 kJ/mol
# Density = 2.013226 g / cm^3
# Si number density = 20.178185 Si / 1000 Ang^3
#
#
#
# Elastic Constant Matrix: (Units=GPa)
#
#
# Indices 1 2 3 4 5 6 
#
# 1 74.2297 33.5985 18.8298 0.0000 -1.2324 0.0000
# 2 33.5985 109.4120 17.8362 0.0000 -7.4388 0.0000
# 3 18.8298 17.8362 88.9590 0.0000 -19.5929 0.0000
# 4 0.0000 0.0000 0.0000 -9.4222 0.0000 -26.4408
# 5 -1.2324 -7.4388 -19.5929 0.0000 18.8103 0.0000
# 6 0.0000 0.0000 0.0000 -26.4408 0.0000 -7.0450
#
#
#
# Elastic Compliance Matrix: (Units=1/GPa)
#
#
# Indices 1 2 3 4 5 6 
#
# 1 0.016453 -0.004784 -0.003507 0.000000 -0.004467 0.000000
# 2 -0.004784 0.010916 -0.000382 0.000000 0.003606 0.000000
# 3 -0.003507 -0.000382 0.015542 0.000000 0.015807 0.000000
# 4 0.000000 0.000000 0.000000 0.011134 0.000000 -0.041788
# 5 -0.004467 0.003606 0.015807 0.000000 0.070761 0.000000
# 6 0.000000 0.000000 0.000000 -0.041788 0.000000 0.014891
#
#
# Mechanical properties :
#
#
# Convention : Reuss Voigt Hill
#
# Bulk Modulus (GPa) = 39.11753 45.90330 42.51042
# Shear Modulus (GPa) = 30.19968 13.95770 22.07869
#
# Velocity S-wave (km/s) = 3.87285 2.63291 3.31144
# Velocity P-wave (km/s) = 6.27908 5.66051 5.97780
#
# Compressibility (1/GPa) = 0.02556398
#
# Stress axis : x y z
#
# Youngs Moduli (GPa) = 60.78034 91.60568 64.34357
#
# Poissons Ratio (x) = 0.43827 0.22566
# Poissons Ratio (y) = 0.29079 0.02457
# Poissons Ratio (z) = 0.21316 0.03498
#
# Static dielectric constant tensor:
#      x y z
#    x 1.693740 0.000000 0.005910 
#    y 0.000000 1.780820 0.000000 
#    z 0.005910 0.000000 1.716320 
# 
# From -- ./inp_files/296568.got.cif
#   From: 2010.05.17/outbox.cif.g08.bks.cpg/sg12_149_cif.got.tgz:296568.got - 2010.06.03 13:09:07.
