data_PCOD9207256
_publ_section_title
;
Structure prediction by ZEFSAII (Michael W. Deem and Ramdas Pophale) SiO2 
 PCOD9207256
Probable space group: C 2/M
;
_chemical_formula_sum "Si O2"
_cell_formula_units_Z 56
_cell_length_a 23.110281
_cell_length_b 7.959487
_cell_length_c 14.854655
_cell_angle_alpha 90.000000
_cell_angle_beta 66.808669
_cell_angle_gamma 90.000000
_cell_volume 2511.657954
_symmetry_space_group_name_H-M "C 2/M"
_symmetry_group_IT_number 12
_symmetry_cell_setting 'monoclinic'
loop_
_space_group_symop_operation_xyz
x,y,z
-x,y,-z
-x,-y,-z
x,-y,z
1/2+x,1/2+y,z
1/2-x,1/2+y,-z
1/2-x,1/2-y,-z
1/2+x,1/2-y,z
loop_
_atom_site_type_symbol
_atom_site_label
_atom_site_fract_x
_atom_site_fract_y
_atom_site_fract_z
Si Si1 0.733164 0.798295 0.409306
Si Si2 0.177370 0.691985 0.042084
Si Si3 0.928894 0.303187 0.029742
Si Si4 0.589081 0.306078 0.239764
Si Si5 0.096036 0.699146 0.436425
Si Si6 0.139952 0.204041 0.748549
Si Si7 0.044086 0.797390 0.654296
O O1 0.750000 0.750000 0.500000
O O2 0.664250 0.737978 0.427124
O O3 0.788069 0.741444 0.308517
O O4 0.731994 0.000000 0.405550
O O5 0.181564 0.500000 0.010545
O O6 0.146133 0.708310 0.159771
O O7 0.250000 0.750000 0.000000
O O8 0.122361 0.769965 0.010886
O O9 0.937754 0.500000 0.000119
O O10 0.894254 0.284163 0.146203
O O11 0.000000 0.231165 0.000000
O O12 0.596603 0.500000 0.209405
O O13 0.585070 0.291182 0.349644
O O14 0.519546 0.242404 0.255599
O O15 0.097057 0.500000 0.416985
O O16 0.051175 0.728091 0.549339
O O17 0.103168 0.249365 0.679502
O O18 0.137319 0.000000 0.759146
O O19 0.041657 0.000000 0.649271
#
# Coordination Sequence:
#
# PCOD9207256 Si02
#       7
#     8   8   8   8   8   8   8
#     4  10  21  37  57  85 119 157 199 245 298 356
#     4  11  25  45  67  93 126 164 208 260 314 371
#     4  10  23  43  66  94 125 158 203 258 314 369
#     4  11  24  41  63  89 119 160 206 251 303 361
#     4  11  23  37  58  90 124 161 203 246 299 362
#     4  10  21  37  61  90 121 157 198 247 302 359
#     4  10  21  39  61  89 124 161 202 247 298 361
#
# _framework density 22.296029000000001
#
# number of rings (size 3 to 8) (size 9 to 14) (size 15 to 20)
#    0.000    1.571    1.429    2.571    2.000    6.000 
#    0.000    0.000    0.000    0.000    0.000    0.000 
#    0.000    0.000    0.000    0.000    0.000    0.000 
#
# Total GULP energy -156360.929266 kJ/mol
# GULP energy per Si atom -5584.318902 kJ/mol
# Density = 2.224528 g / cm^3
# Si number density = 22.296029 Si / 1000 Ang^3
#
#
#
# Elastic Constant Matrix: (Units=GPa)
#
#
# Indices 1 2 3 4 5 6 
#
# 1 134.9587 15.7374 39.4435 0.0000 -26.9345 0.0000
# 2 15.7374 23.7798 -0.8711 0.0000 -3.0642 0.0000
# 3 39.4435 -0.8711 101.2361 0.0000 -23.2489 0.0000
# 4 0.0000 0.0000 0.0000 32.3342 0.0000 0.4619
# 5 -26.9345 -3.0642 -23.2489 0.0000 46.2480 0.0000
# 6 0.0000 0.0000 0.0000 0.4619 0.0000 16.4658
#
#
#
# Elastic Compliance Matrix: (Units=1/GPa)
#
#
# Indices 1 2 3 4 5 6 
#
# 1 0.009742 -0.006070 -0.002981 0.000000 0.003773 0.000000
# 2 -0.006070 0.046314 0.003003 0.000000 0.001043 0.000000
# 3 -0.002981 0.003003 0.012110 0.000000 0.004550 0.000000
# 4 0.000000 0.000000 0.000000 0.030939 0.000000 -0.000868
# 5 0.003773 0.001043 0.004550 0.000000 0.026176 0.000000
# 6 0.000000 0.000000 0.000000 -0.000868 0.000000 0.060756
#
#
# Mechanical properties :
#
#
# Convention : Reuss Voigt Hill
#
# Bulk Modulus (GPa) = 17.83508 40.95492 29.39500
# Shear Modulus (GPa) = 23.06004 32.72057 27.89030
#
# Velocity S-wave (km/s) = 3.21949 3.83502 3.54066
# Velocity P-wave (km/s) = 4.67298 6.16591 5.47061
#
# Compressibility (1/GPa) = 0.05606927
#
# Stress axis : x y z
#
# Youngs Moduli (GPa) = 102.65041 21.59168 82.57377
#
# Poissons Ratio (x) = 0.13107 0.24619
# Poissons Ratio (y) = 0.62311 -0.24798
# Poissons Ratio (z) = 0.30605 -0.06484
#
# Static dielectric constant tensor:
#      x y z
#    x 1.912860 0.000000 -0.019680 
#    y 0.000000 1.815950 0.000000 
#    z -0.019680 0.000000 1.787820 
# 
# From -- ./inp_files/238367.got.cif
#   From: 2010.05.17/outbox.cif.g08.bks.cpg/sg12_120_cif.got.tgz:238367.got - 2010.06.03 13:09:07.
