data_PCOD9207603
_publ_section_title
;
Structure prediction by ZEFSAII (Michael W. Deem and Ramdas Pophale) SiO2 
 PCOD9207603
Probable space group: C 2/M
;
_chemical_formula_sum "Si O2"
_cell_formula_units_Z 64
_cell_length_a 30.957107
_cell_length_b 9.237572
_cell_length_c 15.199992
_cell_angle_alpha 90.000000
_cell_angle_beta 133.256599
_cell_angle_gamma 90.000000
_cell_volume 3165.680879
_symmetry_space_group_name_H-M "C 2/M"
_symmetry_group_IT_number 12
_symmetry_cell_setting 'monoclinic'
loop_
_space_group_symop_operation_xyz
x,y,z
-x,y,-z
-x,-y,-z
x,-y,z
1/2+x,1/2+y,z
1/2-x,1/2+y,-z
1/2-x,1/2-y,-z
1/2+x,1/2-y,z
loop_
_atom_site_type_symbol
_atom_site_label
_atom_site_fract_x
_atom_site_fract_y
_atom_site_fract_z
Si Si1 0.162383 0.332084 0.327797
Si Si2 0.797226 0.832148 0.446410
Si Si3 0.847387 0.666825 0.982845
Si Si4 0.966491 0.828677 0.362354
Si Si5 0.448986 0.329031 0.856513
Si Si6 0.153223 0.664710 0.813097
Si Si7 0.237805 0.332233 0.767790
Si Si8 0.985485 0.673018 0.208194
O O1 0.146075 0.500000 0.313597
O O2 0.167910 0.255387 0.430396
O O3 0.227690 0.324613 0.376884
O O4 0.112581 0.247164 0.204212
O O5 0.799676 0.757886 0.355238
O O6 0.815093 0.000000 0.469886
O O7 0.839407 0.500000 0.942711
O O8 0.829027 0.677427 0.060207
O O9 0.917380 0.700469 0.081283
O O10 0.803777 0.768877 0.868493
O O11 0.898522 0.778362 0.277214
O O12 0.990972 0.739802 0.313102
O O13 0.000000 0.797735 0.500000
O O14 0.970223 0.000000 0.349532
O O15 0.440314 0.500000 0.831431
O O16 0.471441 0.251526 0.799425
O O17 0.500000 0.307932 0.000000
O O18 0.128805 0.500000 0.769541
O O19 0.205945 0.679896 0.817727
O O20 0.239389 0.500000 0.743680
O O21 0.994044 0.500000 0.221530
#
# Coordination Sequence:
#
# PCOD9207603 Si02
#       8
#     8   8   8   8   8   8   8   8
#     4  10  22  42  65  87 116 155 198 246 301 358
#     4  10  22  40  62  88 118 155 196 244 301 357
#     4   9  19  36  56  80 114 152 193 238 290 346
#     4  10  21  37  59  86 116 152 194 242 296 353
#     4  11  25  42  63  93 125 159 202 253 305 359
#     4   9  20  37  54  79 113 151 193 236 284 344
#     4  11  22  34  55  86 117 151 195 240 287 348
#     4  10  22  40  61  86 118 157 199 245 298 359
#
# _framework density 20.216820999999999
#
# number of rings (size 3 to 8) (size 9 to 14) (size 15 to 20)
#    0.000    2.000    0.000    3.375    1.750    8.000 
#    0.000    2.500    0.000    0.000    0.000    0.000 
#    0.000    0.000    0.000    0.000    0.000    0.000 
#
# Total GULP energy -178841.618104 kJ/mol
# GULP energy per Si atom -5588.800566 kJ/mol
# Density = 2.017081 g / cm^3
# Si number density = 20.216821 Si / 1000 Ang^3
#
#
#
# Elastic Constant Matrix: (Units=GPa)
#
#
# Indices 1 2 3 4 5 6 
#
# 1 44.7656 26.9937 4.5294 0.0000 -3.4562 0.0000
# 2 26.9937 105.8353 48.9613 0.0000 5.6755 0.0000
# 3 4.5294 48.9613 57.8859 0.0000 7.1492 0.0000
# 4 0.0000 0.0000 0.0000 35.5610 0.0000 3.0435
# 5 -3.4562 5.6755 7.1492 0.0000 12.5678 0.0000
# 6 0.0000 0.0000 0.0000 3.0435 0.0000 28.6446
#
#
#
# Elastic Compliance Matrix: (Units=1/GPa)
#
#
# Indices 1 2 3 4 5 6 
#
# 1 0.028741 -0.010279 0.005265 0.000000 0.009551 0.000000
# 2 -0.010279 0.019201 -0.015076 0.000000 -0.002922 0.000000
# 3 0.005265 -0.015076 0.030756 0.000000 -0.009239 0.000000
# 4 0.000000 0.000000 0.000000 0.028379 0.000000 -0.003015
# 5 0.009551 -0.002922 -0.009239 0.000000 0.088770 0.000000
# 6 0.000000 0.000000 0.000000 -0.003015 0.000000 0.035231
#
#
# Mechanical properties :
#
#
# Convention : Reuss Voigt Hill
#
# Bulk Modulus (GPa) = 25.96023 41.05062 33.50542
# Shear Modulus (GPa) = 17.59968 23.88818 20.74393
#
# Velocity S-wave (km/s) = 2.95370 3.44117 3.20671
# Velocity P-wave (km/s) = 4.94987 6.01150 5.50633
#
# Compressibility (1/GPa) = 0.03852047
#
# Stress axis : x y z
#
# Youngs Moduli (GPa) = 34.79331 52.08009 32.51418
#
# Poissons Ratio (x) = 0.53531 -0.17120
# Poissons Ratio (y) = 0.35762 0.49017
# Poissons Ratio (z) = -0.18320 0.78514
#
# Static dielectric constant tensor:
#      x y z
#    x 1.730990 0.000000 0.007910 
#    y 0.000000 1.682950 0.000000 
#    z 0.007910 0.000000 1.705560 
# 
# From -- ./inp_files/250107.got.cif
#   From: 2010.05.17/outbox.cif.g08.bks.cpg/sg12_126_cif.got.tgz:250107.got - 2010.06.03 13:09:07.
