data_PCOD9207733
_publ_section_title
;
Structure prediction by ZEFSAII (Michael W. Deem and Ramdas Pophale) SiO2 
 PCOD9207733
Probable space group: C 2/M
;
_chemical_formula_sum "Si O2"
_cell_formula_units_Z 56
_cell_length_a 10.354580
_cell_length_b 15.892600
_cell_length_c 23.772806
_cell_angle_alpha 90.000000
_cell_angle_beta 34.439999
_cell_angle_gamma 90.000000
_cell_volume 2212.449839
_symmetry_space_group_name_H-M "C 2/M"
_symmetry_group_IT_number 12
_symmetry_cell_setting 'monoclinic'
loop_
_space_group_symop_operation_xyz
x,y,z
-x,y,-z
-x,-y,-z
x,-y,z
1/2+x,1/2+y,z
1/2-x,1/2+y,-z
1/2-x,1/2-y,-z
1/2+x,1/2-y,z
loop_
_atom_site_type_symbol
_atom_site_label
_atom_site_fract_x
_atom_site_fract_y
_atom_site_fract_z
Si Si1 0.303319 0.909825 0.616761
Si Si2 0.599084 0.842936 0.087585
Si Si3 0.731134 0.590088 0.081504
Si Si4 0.259889 0.253581 0.139506
Si Si5 0.305607 0.595152 0.694547
Si Si6 0.344118 0.220106 0.348791
Si Si7 0.263801 0.906621 0.470787
O O1 0.500000 0.917435 0.500000
O O2 0.206213 0.817507 0.642089
O O3 0.467900 0.906664 0.611986
O O4 0.172608 0.000000 0.662432
O O5 0.503892 0.770900 0.078433
O O6 0.722965 0.818156 0.101264
O O7 0.355476 0.886298 0.193640
O O8 0.761898 0.895593 0.988006
O O9 0.623166 0.500000 0.132914
O O10 0.656560 0.668894 0.146229
O O11 0.000000 0.584977 0.000000
O O12 0.116919 0.283982 0.244654
O O13 0.245604 0.500000 0.699011
O O14 0.237203 0.665721 0.674759
O O15 0.582944 0.598710 0.587782
O O16 0.237571 0.174745 0.440903
O O17 0.216015 0.000000 0.462678
#
# Coordination Sequence:
#
# PCOD9207733 Si02
#       7
#     8   8   8   8   8   8   8
#     4  10  23  39  55  80 116 158 202 257 320 370
#     4  10  21  39  61  92 120 161 196 255 309 373
#     4   9  18  37  64  91 119 154 198 251 311 368
#     4  10  23  37  60  89 122 156 201 248 307 368
#     4  10  21  37  59  90 118 153 212 265 304 361
#     4  11  23  36  60  85 118 161 208 255 309 373
#     4  10  22  40  60  82 119 165 209 259 313 368
#
# _framework density 25.311309999999999
#
# number of rings (size 3 to 8) (size 9 to 14) (size 15 to 20)
#    0.000    2.000    0.000    2.571    6.000    3.429 
#    0.000    0.000    0.000    2.571    0.000    0.000 
#    0.000    0.000    0.000    0.000    0.000    0.000 
#
# Total GULP energy -156069.425233 kJ/mol
# GULP energy per Si atom -5573.908044 kJ/mol
# Density = 2.525370 g / cm^3
# Si number density = 25.311310 Si / 1000 Ang^3
#
#
#
# Elastic Constant Matrix: (Units=GPa)
#
#
# Indices 1 2 3 4 5 6 
#
# 1 74.4858 38.0360 4.3567 0.0039 4.0906 -0.0012
# 2 38.0360 170.1113 47.1740 -0.0068 20.4231 0.0005
# 3 4.3567 47.1740 135.4845 0.0091 24.8272 -0.0076
# 4 0.0039 -0.0068 0.0091 20.0407 -0.0119 1.5080
# 5 4.0906 20.4231 24.8272 -0.0119 22.4112 0.0025
# 6 -0.0012 0.0005 -0.0076 1.5080 0.0025 20.9560
#
#
#
# Elastic Compliance Matrix: (Units=1/GPa)
#
#
# Indices 1 2 3 4 5 6 
#
# 1 0.015231 -0.003585 0.000840 -0.000005 -0.000443 0.000002
# 2 -0.003585 0.007697 -0.001756 0.000002 -0.004415 -0.000001
# 3 0.000840 -0.001756 0.009661 -0.000011 -0.009256 0.000005
# 4 -0.000005 0.000002 -0.000011 0.050170 0.000039 -0.003610
# 5 -0.000443 -0.004415 -0.009256 0.000039 0.058979 -0.000013
# 6 0.000002 -0.000001 0.000005 -0.003610 -0.000013 0.047979
#
#
# Mechanical properties :
#
#
# Convention : Reuss Voigt Hill
#
# Bulk Modulus (GPa) = 42.39554 62.13500 52.26527
# Shear Modulus (GPa) = 24.20337 32.04924 28.12631
#
# Velocity S-wave (km/s) = 3.09565 3.56223 3.33711
# Velocity P-wave (km/s) = 5.43722 6.44368 5.96173
#
# Compressibility (1/GPa) = 0.02358738
#
# Stress axis : x y z
#
# Youngs Moduli (GPa) = 65.65360 129.91929 103.50444
#
# Poissons Ratio (x) = 0.46581 -0.08692
# Poissons Ratio (y) = 0.23539 0.18173
# Poissons Ratio (z) = -0.05514 0.22810
#
# Static dielectric constant tensor:
#      x y z
#    x 2.131600 0.000010 -0.018650 
#    y 0.000010 2.056170 0.000010 
#    z -0.018650 0.000010 2.056980 
# 
# From -- ./inp_files/358181.got.cif
#   From: 2010.05.17/outbox.cif.g08.bks.cpg/sg12_180_cif.got.tgz:358181.got - 2010.06.03 13:09:07.
