data_PCOD9207407
_publ_section_title
;
Structure prediction by ZEFSAII (Michael W. Deem and Ramdas Pophale) SiO2 
 PCOD9207407
Probable space group: C 2/M
;
_chemical_formula_sum "Si O2"
_cell_formula_units_Z 48
_cell_length_a 14.036701
_cell_length_b 19.881757
_cell_length_c 12.197695
_cell_angle_alpha 90.000000
_cell_angle_beta 48.323293
_cell_angle_gamma 90.000000
_cell_volume 2542.523751
_symmetry_space_group_name_H-M "C 2/M"
_symmetry_group_IT_number 12
_symmetry_cell_setting 'monoclinic'
loop_
_space_group_symop_operation_xyz
x,y,z
-x,y,-z
-x,-y,-z
x,-y,z
1/2+x,1/2+y,z
1/2-x,1/2+y,-z
1/2-x,1/2-y,-z
1/2+x,1/2-y,z
loop_
_atom_site_type_symbol
_atom_site_label
_atom_site_fract_x
_atom_site_fract_y
_atom_site_fract_z
Si Si1 0.762640 0.713788 0.311898
Si Si2 0.271512 0.076284 0.561707
Si Si3 0.930580 0.705930 0.393665
Si Si4 0.145324 0.922835 0.427770
Si Si5 0.151157 0.922898 0.894377
Si Si6 0.269860 0.208557 0.874634
O O1 0.871270 0.721738 0.320038
O O2 0.636361 0.744067 0.468575
O O3 0.732200 0.635871 0.311211
O O4 0.795127 0.753971 0.178243
O O5 0.379396 0.131901 0.463433
O O6 0.169211 0.084708 0.540909
O O7 0.208766 0.085071 0.728184
O O8 0.320918 0.000000 0.515946
O O9 0.081126 0.707955 0.270826
O O10 0.000000 0.913347 0.500000
O O11 0.181041 0.000000 0.372812
O O12 0.214661 0.866611 0.921414
O O13 0.174463 0.000000 0.912434
O O14 0.000000 0.913128 0.000000
O O15 0.250000 0.250000 0.000000
#
# Coordination Sequence:
#
# PCOD9207407 Si02
#       6
#     8   8   8   8   8   8
#     4  10  21  37  58  84 121 151 201 254 306 361
#     4   9  18  35  61  89 116 152 196 254 308 361
#     4  10  21  38  61  87 114 157 197 255 310 361
#     4   9  17  30  53  84 116 151 197 244 298 360
#     4  10  23  41  61  88 126 165 205 254 315 375
#     4  12  26  38  60  89 121 162 208 252 311 370
#
# _framework density 18.878879999999999
#
# number of rings (size 3 to 8) (size 9 to 14) (size 15 to 20)
#    0.000    2.000    1.667    1.500    2.333    2.000 
#    0.000    4.167    0.000    0.000    0.000    5.833 
#    0.000    0.000    0.000    0.000    0.000    0.000 
#
# Total GULP energy -133996.209489 kJ/mol
# GULP energy per Si atom -5583.175395 kJ/mol
# Density = 1.883591 g / cm^3
# Si number density = 18.878880 Si / 1000 Ang^3
#
#
#
# Elastic Constant Matrix: (Units=GPa)
#
#
# Indices 1 2 3 4 5 6 
#
# 1 53.9133 41.6705 22.1121 -0.0001 4.9743 0.0001
# 2 41.6705 116.6611 33.9098 0.0000 13.5775 0.0000
# 3 22.1121 33.9098 52.3882 -0.0001 10.3364 0.0001
# 4 -0.0001 0.0000 -0.0001 20.3322 0.0001 3.6021
# 5 4.9743 13.5775 10.3364 0.0001 18.2832 -0.0001
# 6 0.0001 0.0000 0.0001 3.6021 -0.0001 26.9293
#
#
#
# Elastic Compliance Matrix: (Units=1/GPa)
#
#
# Indices 1 2 3 4 5 6 
#
# 1 0.027354 -0.008075 -0.006791 0.000000 0.002394 0.000000
# 2 -0.008075 0.013278 -0.004135 0.000000 -0.005326 0.000000
# 3 -0.006791 -0.004135 0.026632 0.000000 -0.010137 0.000000
# 4 0.000000 0.000000 0.000000 0.050377 0.000000 -0.006738
# 5 0.002394 -0.005326 -0.010137 0.000000 0.063730 0.000000
# 6 0.000000 0.000000 0.000000 -0.006738 0.000000 0.038036
#
#
# Mechanical properties :
#
#
# Convention : Reuss Voigt Hill
#
# Bulk Modulus (GPa) = 34.17604 46.48304 40.32954
# Shear Modulus (GPa) = 18.71512 21.46028 20.08770
#
# Velocity S-wave (km/s) = 3.15195 3.37521 3.26549
# Velocity P-wave (km/s) = 5.60254 6.31384 5.96879
#
# Compressibility (1/GPa) = 0.02926027
#
# Stress axis : x y z
#
# Youngs Moduli (GPa) = 36.55721 75.31136 37.54942
#
# Poissons Ratio (x) = 0.60817 0.25500
# Poissons Ratio (y) = 0.29522 0.15528
# Poissons Ratio (z) = 0.24826 0.31145
#
# Static dielectric constant tensor:
#      x y z
#    x 1.665770 0.000000 0.015560 
#    y 0.000000 1.688080 0.000000 
#    z 0.015560 0.000000 1.611500 
# 
# From -- ./inp_files/132989.got.cif
#   From: 2010.05.17/outbox.cif.g08.bks.cpg/sg12_67_cif.got.tgz:132989.got - 2010.06.03 13:09:07.
