data_PCOD9207387
_publ_section_title
;
Structure prediction by ZEFSAII (Michael W. Deem and Ramdas Pophale) SiO2 
 PCOD9207387
Probable space group: C 2/M
;
_chemical_formula_sum "Si O2"
_cell_formula_units_Z 56
_cell_length_a 18.207952
_cell_length_b 8.818295
_cell_length_c 18.948855
_cell_angle_alpha 90.000000
_cell_angle_beta 104.158038
_cell_angle_gamma 90.000000
_cell_volume 2950.070445
_symmetry_space_group_name_H-M "C 2/M"
_symmetry_group_IT_number 12
_symmetry_cell_setting 'monoclinic'
loop_
_space_group_symop_operation_xyz
x,y,z
-x,y,-z
-x,-y,-z
x,-y,z
1/2+x,1/2+y,z
1/2-x,1/2+y,-z
1/2-x,1/2-y,-z
1/2+x,1/2-y,z
loop_
_atom_site_type_symbol
_atom_site_label
_atom_site_fract_x
_atom_site_fract_y
_atom_site_fract_z
Si Si1 0.233324 0.682585 0.279557
Si Si2 0.382434 0.680918 0.860308
Si Si3 0.093043 0.181352 0.717617
Si Si4 0.956620 0.318956 0.145031
Si Si5 0.519811 0.182751 0.423926
Si Si6 0.307650 0.817388 0.570187
Si Si7 0.669638 0.181287 0.003297
O O1 0.223443 0.500000 0.271488
O O2 0.176752 0.762326 0.212313
O O3 0.320097 0.718595 0.281099
O O4 0.214720 0.727167 0.355575
O O5 0.382790 0.500000 0.863579
O O6 0.465142 0.742121 0.859396
O O7 0.357718 0.748322 0.929685
O O8 0.069561 0.257537 0.785516
O O9 0.037988 0.239972 0.643313
O O10 0.086804 0.000000 0.722513
O O11 0.967605 0.500000 0.151250
O O12 0.892153 0.286880 0.071837
O O13 0.500000 0.221025 0.500000
O O14 0.606029 0.227367 0.426489
O O15 0.513881 0.000000 0.414750
O O16 0.250000 0.750000 0.500000
O O17 0.303669 0.000000 0.565225
O O18 0.676264 0.000000 0.012415
O O19 0.750000 0.250000 0.000000
#
# Coordination Sequence:
#
# PCOD9207387 Si02
#       7
#     8   8   8   8   8   8   8
#     4  10  22  40  60  85 121 161 200 246 300 357
#     4  12  25  40  63  93 122 157 201 248 298 353
#     4  11  23  38  60  89 118 154 201 251 301 353
#     4  11  24  42  63  87 119 159 199 243 300 361
#     4  10  21  37  58  85 118 158 202 247 299 359
#     4  10  21  37  58  84 115 154 196 243 301 357
#     4  11  24  42  65  92 123 161 202 246 298 354
#
# _framework density 18.982596999999998
#
# number of rings (size 3 to 8) (size 9 to 14) (size 15 to 20)
#    0.000    1.286    0.000    5.571    0.000   10.000 
#    0.000    0.000    0.000    0.000    0.000    0.000 
#    0.000    0.000    0.000    0.000    0.000    0.000 
#
# Total GULP energy -156674.576247 kJ/mol
# GULP energy per Si atom -5595.520580 kJ/mol
# Density = 1.893939 g / cm^3
# Si number density = 18.982597 Si / 1000 Ang^3
#
#
#
# Elastic Constant Matrix: (Units=GPa)
#
#
# Indices 1 2 3 4 5 6 
#
# 1 212.4405 88.0619 131.8212 0.0000 -1.4154 0.0000
# 2 88.0619 71.3029 96.1007 0.0000 9.9033 0.0000
# 3 131.8212 96.1007 214.9192 0.0000 -2.4750 0.0000
# 4 0.0000 0.0000 0.0000 36.3337 0.0000 0.4648
# 5 -1.4154 9.9033 -2.4750 0.0000 43.1837 0.0000
# 6 0.0000 0.0000 0.0000 0.4648 0.0000 25.1819
#
#
#
# Elastic Compliance Matrix: (Units=1/GPa)
#
#
# Indices 1 2 3 4 5 6 
#
# 1 0.010160 -0.011581 -0.001020 0.000000 0.002930 0.000000
# 2 -0.011581 0.052381 -0.016473 0.000000 -0.013336 0.000000
# 3 -0.001020 -0.016473 0.012695 0.000000 0.004472 0.000000
# 4 0.000000 0.000000 0.000000 0.027529 0.000000 -0.000508
# 5 0.002930 -0.013336 0.004472 0.000000 0.026568 0.000000
# 6 0.000000 0.000000 0.000000 -0.000508 0.000000 0.039720
#
#
# Mechanical properties :
#
#
# Convention : Reuss Voigt Hill
#
# Bulk Modulus (GPa) = 58.51155 125.62557 92.06856
# Shear Modulus (GPa) = 21.46880 33.11844 27.29362
#
# Velocity S-wave (km/s) = 3.36664 4.18146 3.79598
# Velocity P-wave (km/s) = 6.78256 9.46762 8.23526
#
# Compressibility (1/GPa) = 0.01709064
#
# Stress axis : x y z
#
# Youngs Moduli (GPa) = 98.42669 19.09088 78.76858
#
# Poissons Ratio (x) = 0.22109 0.08031
# Poissons Ratio (y) = 1.13985 1.29752
# Poissons Ratio (z) = 0.10035 0.31448
#
# Static dielectric constant tensor:
#      x y z
#    x 1.626220 0.000000 -0.005300 
#    y 0.000000 1.639420 0.000000 
#    z -0.005300 0.000000 1.614380 
# 
# From -- ./inp_files/275244.got.cif
#   From: 2010.05.17/outbox.cif.g08.bks.cpg/sg12_138_cif.got.tgz:275244.got - 2010.06.03 13:09:07.
