data_PCOD9207710
_publ_section_title
;
Structure prediction by ZEFSAII (Michael W. Deem and Ramdas Pophale) SiO2 
 PCOD9207710
Probable space group: C 2/M
;
_chemical_formula_sum "Si O2"
_cell_formula_units_Z 40
_cell_length_a 25.129568
_cell_length_b 14.192406
_cell_length_c 15.793495
_cell_angle_alpha 90.000000
_cell_angle_beta 162.364905
_cell_angle_gamma 90.000000
_cell_volume 1706.457736
_symmetry_space_group_name_H-M "C 2/M"
_symmetry_group_IT_number 12
_symmetry_cell_setting 'monoclinic'
loop_
_space_group_symop_operation_xyz
x,y,z
-x,y,-z
-x,-y,-z
x,-y,z
1/2+x,1/2+y,z
1/2-x,1/2+y,-z
1/2-x,1/2-y,-z
1/2+x,1/2-y,z
loop_
_atom_site_type_symbol
_atom_site_label
_atom_site_fract_x
_atom_site_fract_y
_atom_site_fract_z
Si Si1 0.073692 0.110791 0.700119
Si Si2 0.040020 0.389184 0.659826
Si Si3 0.767555 0.397731 0.702053
Si Si4 0.328892 0.645661 0.625186
Si Si5 0.801500 0.182032 0.773898
O O1 0.000000 0.152888 0.500000
O O2 0.923727 0.113172 0.544181
O O3 0.103851 0.000000 0.728470
O O4 0.264462 0.143994 0.019752
O O5 0.021179 0.500000 0.654335
O O6 0.000000 0.382679 0.500000
O O7 0.889974 0.331127 0.479197
O O8 0.838360 0.500000 0.841124
O O9 0.756360 0.404230 0.583747
O O10 0.848750 0.294075 0.841178
O O11 0.250000 0.750000 0.500000
O O12 0.301728 0.628352 0.683642
O O13 0.538697 0.639955 0.930049
#
# Coordination Sequence:
#
# PCOD9207710 Si02
#       5
#     8   8   8   8   8
#     4   9  19  35  55  84 121 157 197 245 297 359
#     4  10  21  37  59  89 123 159 202 252 306 365
#     4  10  21  38  61  87 119 158 199 245 302 366
#     4   9  20  39  57  81 117 154 198 253 304 358
#     4  10  21  37  60  87 118 155 201 253 305 362
#
# _framework density 23.440369
#
# number of rings (size 3 to 8) (size 9 to 14) (size 15 to 20)
#    0.000    2.400    0.000    1.200    0.000    8.000 
#    0.000   10.000    0.000    0.000    0.000    0.000 
#    0.000    0.000    0.000    0.000    0.000    0.000 
#
# Total GULP energy -111526.016012 kJ/mol
# GULP energy per Si atom -5576.300801 kJ/mol
# Density = 2.338702 g / cm^3
# Si number density = 23.440369 Si / 1000 Ang^3
#
#
#
# Elastic Constant Matrix: (Units=GPa)
#
#
# Indices 1 2 3 4 5 6 
#
# 1 83.2547 12.4427 33.2517 0.0000 11.4054 0.0000
# 2 12.4427 111.5328 -3.3181 0.0000 -0.1481 0.0000
# 3 33.2517 -3.3181 105.1883 0.0000 16.0340 0.0000
# 4 0.0000 0.0000 0.0000 14.3916 0.0000 12.2920
# 5 11.4054 -0.1481 16.0340 0.0000 32.4182 0.0000
# 6 0.0000 0.0000 0.0000 12.2920 0.0000 22.4120
#
#
#
# Elastic Compliance Matrix: (Units=1/GPa)
#
#
# Indices 1 2 3 4 5 6 
#
# 1 0.014329 -0.001725 -0.004125 0.000000 -0.003009 0.000000
# 2 -0.001725 0.009182 0.000796 0.000000 0.000255 0.000000
# 3 -0.004125 0.000796 0.011480 0.000000 -0.004223 0.000000
# 4 0.000000 0.000000 0.000000 0.130719 0.000000 -0.071694
# 5 -0.003009 0.000255 -0.004223 0.000000 0.033995 0.000000
# 6 0.000000 0.000000 0.000000 -0.071694 0.000000 0.083940
#
#
# Mechanical properties :
#
#
# Convention : Reuss Voigt Hill
#
# Bulk Modulus (GPa) = 40.18963 42.74760 41.46862
# Shear Modulus (GPa) = 16.55363 31.01769 23.78566
#
# Velocity S-wave (km/s) = 2.66033 3.64161 3.18894
# Velocity P-wave (km/s) = 5.15938 5.99651 5.59362
#
# Compressibility (1/GPa) = 0.02488204
#
# Stress axis : x y z
#
# Youngs Moduli (GPa) = 69.78833 108.90316 87.11046
#
# Poissons Ratio (x) = 0.18789 0.35937
# Poissons Ratio (y) = 0.12040 -0.06935
# Poissons Ratio (z) = 0.28791 -0.08670
#
# Static dielectric constant tensor:
#      x y z
#    x 1.885920 0.000000 -0.012150 
#    y 0.000000 1.932810 0.000000 
#    z -0.012150 0.000000 1.862880 
# 
# From -- ./inp_files/241334.got.cif
#   From: 2010.05.17/outbox.cif.g08.bks.cpg/sg12_121_cif.got.tgz:241334.got - 2010.06.03 13:09:07.
