data_PCOD9207810
_publ_section_title
;
Structure prediction by ZEFSAII (Michael W. Deem and Ramdas Pophale) SiO2 
 PCOD9207810
Probable space group: C 2/M
;
_chemical_formula_sum "Si O2"
_cell_formula_units_Z 56
_cell_length_a 14.065295
_cell_length_b 16.951619
_cell_length_c 12.529012
_cell_angle_alpha 90.000000
_cell_angle_beta 82.193888
_cell_angle_gamma 90.000000
_cell_volume 2959.604227
_symmetry_space_group_name_H-M "C 2/M"
_symmetry_group_IT_number 12
_symmetry_cell_setting 'monoclinic'
loop_
_space_group_symop_operation_xyz
x,y,z
-x,y,-z
-x,-y,-z
x,-y,z
1/2+x,1/2+y,z
1/2-x,1/2+y,-z
1/2-x,1/2-y,-z
1/2+x,1/2-y,z
loop_
_atom_site_type_symbol
_atom_site_label
_atom_site_fract_x
_atom_site_fract_y
_atom_site_fract_z
Si Si1 0.194204 0.816220 0.074374
Si Si2 0.832460 0.593166 0.680935
Si Si3 0.229964 0.658083 0.528622
Si Si4 0.494309 0.327935 0.790921
Si Si5 0.174213 0.907638 0.872295
Si Si6 0.478637 0.196231 0.384084
Si Si7 0.819201 0.091965 0.723692
O O1 0.086423 0.789025 0.120437
O O2 0.233356 0.850731 0.180970
O O3 0.250000 0.750000 0.000000
O O4 0.185963 0.889160 0.994584
O O5 0.851458 0.500000 0.683414
O O6 0.771925 0.612470 0.583218
O O7 0.767988 0.618061 0.791402
O O8 0.931351 0.641107 0.658832
O O9 0.250000 0.750000 0.500000
O O10 0.299521 0.624484 0.608545
O O11 0.122082 0.651383 0.591857
O O12 0.581993 0.362361 0.842590
O O13 0.528891 0.265841 0.698836
O O14 0.430104 0.394380 0.740985
O O15 0.161413 0.000000 0.855428
O O16 0.500000 0.227735 0.500000
O O17 0.793335 0.000000 0.735771
#
# Coordination Sequence:
#
# PCOD9207810 Si02
#       7
#     8   8   8   8   8   8   8
#     4  10  23  37  61  85 120 156 199 247 295 360
#     4  10  22  38  60  87 118 159 207 252 303 361
#     4  11  22  37  63  86 123 157 202 251 307 366
#     4  10  22  35  60  88 120 154 203 243 306 366
#     4  11  22  39  62  88 122 158 200 251 304 359
#     4  10  21  37  60  86 117 158 200 252 299 360
#     4  10  22  38  58  88 122 155 198 247 304 364
#
# _framework density 18.921448000000002
#
# number of rings (size 3 to 8) (size 9 to 14) (size 15 to 20)
#    0.857    0.857    0.000    5.143    4.000    3.714 
#    0.000    0.000    0.000    4.286    0.000    4.000 
#    0.000    0.000    0.000    0.000    0.000    0.000 
#
# Total GULP energy -156155.731506 kJ/mol
# GULP energy per Si atom -5576.990411 kJ/mol
# Density = 1.887838 g / cm^3
# Si number density = 18.921448 Si / 1000 Ang^3
#
#
#
# Elastic Constant Matrix: (Units=GPa)
#
#
# Indices 1 2 3 4 5 6 
#
# 1 36.7368 -10.4556 -8.6568 0.0000 2.8062 0.0000
# 2 -10.4556 43.9070 -8.9020 0.0000 4.7915 0.0000
# 3 -8.6568 -8.9020 51.3815 0.0000 1.9002 0.0000
# 4 0.0000 0.0000 0.0000 30.0836 0.0000 -1.8758
# 5 2.8062 4.7915 1.9002 0.0000 26.8170 0.0000
# 6 0.0000 0.0000 0.0000 -1.8758 0.0000 5.4986
#
#
#
# Elastic Compliance Matrix: (Units=1/GPa)
#
#
# Indices 1 2 3 4 5 6 
#
# 1 0.032150 0.009753 0.007314 0.000000 -0.005625 0.000000
# 2 0.009753 0.027122 0.006576 0.000000 -0.006333 0.000000
# 3 0.007314 0.006576 0.021963 0.000000 -0.003497 0.000000
# 4 0.000000 0.000000 0.000000 0.033963 0.000000 0.011586
# 5 -0.005625 -0.006333 -0.003497 0.000000 0.039258 0.000000
# 6 0.000000 0.000000 0.000000 0.011586 0.000000 0.185818
#
#
# Mechanical properties :
#
#
# Convention : Reuss Voigt Hill
#
# Bulk Modulus (GPa) = 7.78080 8.44405 8.11243
# Shear Modulus (GPa) = 14.88859 23.14913 19.01886
#
# Velocity S-wave (km/s) = 2.80815 3.50156 3.17385
# Velocity P-wave (km/s) = 3.82562 4.56292 4.21044
#
# Compressibility (1/GPa) = 0.12852141
#
# Stress axis : x y z
#
# Youngs Moduli (GPa) = 31.10458 36.87017 45.53061
#
# Poissons Ratio (x) = -0.35958 -0.33302
# Poissons Ratio (y) = -0.30335 -0.29942
# Poissons Ratio (z) = -0.22751 -0.24247
#
# Static dielectric constant tensor:
#      x y z
#    x 1.665960 0.000000 -0.011860 
#    y 0.000000 1.645560 0.000000 
#    z -0.011860 0.000000 1.664090 
# 
# From -- ./inp_files/145512.got.cif
#   From: 2010.05.17/outbox.cif.g08.bks.cpg/sg12_73_cif.got.tgz:145512.got - 2010.06.03 13:09:07.
