data_PCOD9207571
_publ_section_title
;
Structure prediction by ZEFSAII (Michael W. Deem and Ramdas Pophale) SiO2 
 PCOD9207571
Probable space group: C 2/M
;
_chemical_formula_sum "Si O2"
_cell_formula_units_Z 40
_cell_length_a 14.830144
_cell_length_b 14.798217
_cell_length_c 15.509988
_cell_angle_alpha 90.000000
_cell_angle_beta 26.852370
_cell_angle_gamma 90.000000
_cell_volume 1537.481063
_symmetry_space_group_name_H-M "C 2/M"
_symmetry_group_IT_number 12
_symmetry_cell_setting 'monoclinic'
loop_
_space_group_symop_operation_xyz
x,y,z
-x,y,-z
-x,-y,-z
x,-y,z
1/2+x,1/2+y,z
1/2-x,1/2+y,-z
1/2-x,1/2-y,-z
1/2+x,1/2-y,z
loop_
_atom_site_type_symbol
_atom_site_label
_atom_site_fract_x
_atom_site_fract_y
_atom_site_fract_z
Si Si1 0.246565 0.852559 0.468171
Si Si2 0.784764 0.105144 0.863590
Si Si3 0.832323 0.398608 0.854424
Si Si4 0.242361 0.794577 0.289861
Si Si5 0.762967 0.601584 0.721088
O O1 0.250000 0.750000 0.500000
O O2 0.428770 0.898771 0.361322
O O3 0.296220 0.857822 0.323803
O O4 0.025649 0.891060 0.664789
O O5 0.716841 0.163740 0.838843
O O6 0.723499 0.000000 0.903524
O O7 0.714570 0.146569 0.014689
O O8 0.760320 0.500000 0.929866
O O9 0.743450 0.372841 0.838890
O O10 0.318034 0.693887 0.250453
O O11 0.000000 0.787705 0.500000
O O12 0.683945 0.500000 0.771763
O O13 0.000000 0.596088 0.500000
#
# Coordination Sequence:
#
# PCOD9207571 Si02
#       5
#     8   8   8   8   8
#     4  11  22  36  57  85 115 149 190 236 284 337
#     4  10  22  39  58  83 117 152 188 234 285 339
#     4  10  21  37  59  85 111 147 192 236 285 338
#     4   9  19  34  54  81 112 149 188 227 282 340
#     4   9  17  33  57  81 109 147 188 231 280 336
#
# _framework density 26.016579
#
# number of rings (size 3 to 8) (size 9 to 14) (size 15 to 20)
#    0.000    2.200    0.000    4.200    0.000    8.400 
#    0.000    3.000    0.000    3.600    0.000   22.400 
#    0.000    0.000    0.000    0.000    0.000    0.000 
#
# Total GULP energy -111769.819584 kJ/mol
# GULP energy per Si atom -5588.490979 kJ/mol
# Density = 2.595736 g / cm^3
# Si number density = 26.016579 Si / 1000 Ang^3
#
#
#
# Elastic Constant Matrix: (Units=GPa)
#
#
# Indices 1 2 3 4 5 6 
#
# 1 68.4331 9.7417 21.7726 -0.0070 13.3799 0.0038
# 2 9.7417 126.0661 4.0535 -0.0083 6.9429 0.0050
# 3 21.7726 4.0535 94.0104 -0.0060 10.9993 0.0006
# 4 -0.0070 -0.0083 -0.0060 -4.0995 0.0100 37.8518
# 5 13.3799 6.9429 10.9993 0.0100 52.1336 -0.0075
# 6 0.0038 0.0050 0.0006 37.8518 -0.0075 -30.4983
#
#
#
# Elastic Compliance Matrix: (Units=1/GPa)
#
#
# Indices 1 2 3 4 5 6 
#
# 1 0.016490 -0.000979 -0.003380 0.000000 -0.003389 0.000003
# 2 -0.000979 0.008054 -0.000025 0.000000 -0.000816 0.000002
# 3 -0.003380 -0.000025 0.011606 0.000001 -0.001578 0.000002
# 4 0.000000 0.000000 0.000001 0.023322 -0.000001 0.028945
# 5 -0.003389 -0.000816 -0.001578 -0.000001 0.020493 -0.000007
# 6 0.000003 0.000002 0.000002 0.028945 -0.000007 0.003135
#
#
# Mechanical properties :
#
#
# Convention : Reuss Voigt Hill
#
# Bulk Modulus (GPa) = 36.52200 39.96058 38.24129
# Shear Modulus (GPa) = 49.50764 20.36994 34.93879
#
# Velocity S-wave (km/s) = 4.36699 2.80118 3.66859
# Velocity P-wave (km/s) = 6.28457 5.08479 5.71625
#
# Compressibility (1/GPa) = 0.02738076
#
# Stress axis : x y z
#
# Youngs Moduli (GPa) = 60.64205 124.16585 86.16458
#
# Poissons Ratio (x) = 0.12155 0.29127
# Poissons Ratio (y) = 0.05937 0.00216
# Poissons Ratio (z) = 0.20500 0.00311
#
# Static dielectric constant tensor:
#      x y z
#    x 2.068530 -0.000010 0.058870 
#    y -0.000010 2.016440 0.000010 
#    z 0.058870 0.000010 2.145720 
# 
# From -- ./inp_files/59201.got.cif
#   From: 2010.05.17/outbox.cif.g08.bks.cpg/sg12_30_cif.got.tgz:59201.got - 2010.06.03 13:09:07.
