data_PCOD9207120
_publ_section_title
;
Structure prediction by ZEFSAII (Michael W. Deem and Ramdas Pophale) SiO2 
 PCOD9207120
Probable space group: C 2/M
;
_chemical_formula_sum "Si O2"
_cell_formula_units_Z 64
_cell_length_a 36.801649
_cell_length_b 8.282886
_cell_length_c 14.081133
_cell_angle_alpha 90.000000
_cell_angle_beta 130.974975
_cell_angle_gamma 90.000000
_cell_volume 3240.643411
_symmetry_space_group_name_H-M "C 2/M"
_symmetry_group_IT_number 12
_symmetry_cell_setting 'monoclinic'
loop_
_space_group_symop_operation_xyz
x,y,z
-x,y,-z
-x,-y,-z
x,-y,z
1/2+x,1/2+y,z
1/2-x,1/2+y,-z
1/2-x,1/2-y,-z
1/2+x,1/2-y,z
loop_
_atom_site_type_symbol
_atom_site_label
_atom_site_fract_x
_atom_site_fract_y
_atom_site_fract_z
Si Si1 0.010316 0.195217 0.625001
Si Si2 0.052502 0.804725 0.125031
Si Si3 0.801790 0.695197 0.125547
Si Si4 0.822837 0.693304 0.375790
Si Si5 0.385575 0.195170 0.126037
Si Si6 0.739858 0.806595 0.375961
Si Si7 0.864481 0.695169 0.875361
Si Si8 0.926762 0.195036 0.624929
O O1 0.062365 0.249553 0.749751
O O2 0.000000 0.251159 0.500000
O O3 0.968549 0.251505 0.625057
O O4 0.009515 0.000000 0.623215
O O5 0.093797 0.749738 0.124073
O O6 0.063355 0.748513 0.250720
O O7 0.052061 0.000000 0.125168
O O8 0.000000 0.749645 0.000000
O O9 0.802473 0.500000 0.127247
O O10 0.811715 0.751984 0.249889
O O11 0.843921 0.750766 0.126714
O O12 0.750000 0.750000 0.000000
O O13 0.823479 0.500000 0.375352
O O14 0.781507 0.748886 0.376830
O O15 0.874650 0.752665 0.499534
O O16 0.384865 0.000000 0.124365
O O17 0.374944 0.251110 0.000571
O O18 0.750000 0.750000 0.500000
O O19 0.687652 0.748275 0.250479
O O20 0.739318 0.000000 0.374202
O O21 0.863704 0.500000 0.875105
O O22 0.928074 0.000000 0.628217
#
# Coordination Sequence:
#
# PCOD9207120 Si02
#       8
#     8   8   8   8   8   8   8   8
#     4  10  21  37  58  85 114 145 186 233 280 334
#     4  10  21  37  57  81 111 147 185 227 276 330
#     4  10  22  39  59  84 114 149 190 235 284 342
#     4  11  23  38  58  86 116 148 190 235 282 339
#     4  10  21  38  58  82 113 148 186 229 282 338
#     4  11  23  40  61  85 116 152 190 234 284 336
#     4  10  22  38  57  82 111 145 185 230 279 331
#     4  10  21  37  57  82 113 150 189 230 282 339
#
# _framework density 19.749164
#
# number of rings (size 3 to 8) (size 9 to 14) (size 15 to 20)
#    0.000    1.750    0.000    3.750    0.000    8.500 
#    0.000    0.000    0.000    0.000    0.000    0.000 
#    0.000    0.000    0.000    0.000    0.000    0.000 
#
# Total GULP energy -178906.124130 kJ/mol
# GULP energy per Si atom -5590.816379 kJ/mol
# Density = 1.970421 g / cm^3
# Si number density = 19.749164 Si / 1000 Ang^3
#
#
#
# Elastic Constant Matrix: (Units=GPa)
#
#
# Indices 1 2 3 4 5 6 
#
# 1 247.2330 20.6460 152.1388 0.0000 -1.9150 0.0000
# 2 20.6460 9.0150 19.8365 0.0000 -3.7697 0.0000
# 3 152.1388 19.8365 246.2593 0.0000 -2.8374 0.0000
# 4 0.0000 0.0000 0.0000 29.3946 0.0000 3.7304
# 5 -1.9150 -3.7697 -2.8374 0.0000 48.0497 0.0000
# 6 0.0000 0.0000 0.0000 3.7304 0.0000 29.6242
#
#
#
# Elastic Compliance Matrix: (Units=1/GPa)
#
#
# Indices 1 2 3 4 5 6 
#
# 1 0.006972 -0.008164 -0.003656 0.000000 -0.000579 0.000000
# 2 -0.008164 0.149301 -0.006856 0.000000 0.010983 0.000000
# 3 -0.003656 -0.006856 0.006869 0.000000 -0.000278 0.000000
# 4 0.000000 0.000000 0.000000 0.034572 0.000000 -0.004353
# 5 -0.000579 0.010983 -0.000278 0.000000 0.021634 0.000000
# 6 0.000000 0.000000 0.000000 -0.004353 0.000000 0.034304
#
#
# Mechanical properties :
#
#
# Convention : Reuss Voigt Hill
#
# Bulk Modulus (GPa) = 7.94980 98.63887 53.29433
# Shear Modulus (GPa) = 15.01793 42.07280 28.54536
#
# Velocity S-wave (km/s) = 2.76059 4.62059 3.80596
# Velocity P-wave (km/s) = 3.76766 8.86119 6.80867
#
# Compressibility (1/GPa) = 0.12578933
#
# Stress axis : x y z
#
# Youngs Moduli (GPa) = 143.43020 6.69786 145.58658
#
# Poissons Ratio (x) = 0.05468 0.53232
# Poissons Ratio (y) = 1.17091 0.99820
# Poissons Ratio (z) = 0.52444 0.04592
#
# Static dielectric constant tensor:
#      x y z
#    x 1.663040 0.000000 -0.018860 
#    y 0.000000 1.697490 0.000000 
#    z -0.018860 0.000000 1.660730 
# 
# From -- ./inp_files/249975.got.cif
#   From: 2010.05.17/outbox.cif.g08.bks.cpg/sg12_125_cif.got.tgz:249975.got - 2010.06.03 13:09:07.
