data_PCOD9207357
_publ_section_title
;
Structure prediction by ZEFSAII (Michael W. Deem and Ramdas Pophale) SiO2 
 PCOD9207357
Probable space group: C 2/M
;
_chemical_formula_sum "Si O2"
_cell_formula_units_Z 56
_cell_length_a 21.872447
_cell_length_b 7.404342
_cell_length_c 20.330460
_cell_angle_alpha 90.000000
_cell_angle_beta 48.259983
_cell_angle_gamma 90.000000
_cell_volume 2456.805650
_symmetry_space_group_name_H-M "C 2/M"
_symmetry_group_IT_number 12
_symmetry_cell_setting 'monoclinic'
loop_
_space_group_symop_operation_xyz
x,y,z
-x,y,-z
-x,-y,-z
x,-y,z
1/2+x,1/2+y,z
1/2-x,1/2+y,-z
1/2-x,1/2-y,-z
1/2+x,1/2-y,z
loop_
_atom_site_type_symbol
_atom_site_label
_atom_site_fract_x
_atom_site_fract_y
_atom_site_fract_z
Si Si1 0.320979 0.213288 0.895980
Si Si2 0.604957 0.278991 0.720011
Si Si3 0.844423 0.214620 0.454297
Si Si4 0.049280 0.796114 0.095991
Si Si5 0.909524 0.709352 0.552575
Si Si6 0.240654 0.779699 0.719177
Si Si7 0.813629 0.779386 0.102734
O O1 0.399217 0.302227 0.872772
O O2 0.274847 0.275155 0.863627
O O3 0.337543 0.000000 0.879582
O O4 0.250000 0.250000 0.000000
O O5 0.600157 0.500000 0.723328
O O6 0.601876 0.220794 0.646718
O O7 0.535280 0.212123 0.819792
O O8 0.691783 0.227651 0.689013
O O9 0.750000 0.250000 0.500000
O O10 0.877682 0.287247 0.499789
O O11 0.852552 0.000000 0.453653
O O12 0.031072 0.000000 0.086018
O O13 0.110385 0.715944 0.997025
O O14 0.915678 0.500000 0.568544
O O15 0.833578 0.786755 0.648690
O O16 0.000000 0.787978 0.500000
O O17 0.188954 0.725459 0.820018
O O18 0.242855 0.000000 0.718904
O O19 0.815537 0.000000 0.096517
#
# Coordination Sequence:
#
# PCOD9207357 Si02
#       7
#     8   8   8   8   8   8   8
#     4   9  16  28  46  70  98 132 172 213 259 308
#     4   9  18  31  51  76 103 135 173 219 269 327
#     4  11  21  37  60  83 109 145 186 227 279 336
#     4   9  17  30  47  73 101 130 172 214 260 316
#     4  10  21  37  58  84 113 145 184 231 281 332
#     4   9  16  30  50  74 104 136 173 219 270 316
#     4   8  15  26  45  71  99 130 166 210 254 305
#
# _framework density 22.793824000000001
#
# number of rings (size 3 to 8) (size 9 to 14) (size 15 to 20)
#    0.000    2.714    1.429    1.714    0.000    2.000 
#    0.000    5.714    0.000    4.286    0.000    4.000 
#    0.000    0.000    0.000    0.000    0.000    0.000 
#
# Total GULP energy -156058.686483 kJ/mol
# GULP energy per Si atom -5573.524517 kJ/mol
# Density = 2.274194 g / cm^3
# Si number density = 22.793824 Si / 1000 Ang^3
#
#
#
# Elastic Constant Matrix: (Units=GPa)
#
#
# Indices 1 2 3 4 5 6 
#
# 1 76.9244 -14.1375 43.5895 0.0005 -12.7574 -0.0008
# 2 -14.1375 79.5542 -3.5944 0.0011 -4.6807 -0.0061
# 3 43.5895 -3.5944 143.8673 0.0009 -10.1085 -0.0002
# 4 0.0005 0.0011 0.0009 2.3248 -0.0002 5.2060
# 5 -12.7574 -4.6807 -10.1085 -0.0002 42.9116 0.0004
# 6 -0.0008 -0.0061 -0.0002 5.2060 0.0004 13.9642
#
#
#
# Elastic Compliance Matrix: (Units=1/GPa)
#
#
# Indices 1 2 3 4 5 6 
#
# 1 0.016966 0.003050 -0.004765 -0.000047 0.004254 0.000019
# 2 0.003050 0.013225 -0.000436 -0.000117 0.002247 0.000050
# 3 -0.004765 -0.000436 0.008420 -0.000006 0.000519 0.000002
# 4 -0.000047 -0.000117 -0.000006 2.604807 -0.000007 -0.971107
# 5 0.004254 0.002247 0.000519 -0.000007 0.024936 0.000003
# 6 0.000019 0.000050 0.000002 -0.971107 0.000003 0.433653
#
#
# Mechanical properties :
#
#
# Convention : Reuss Voigt Hill
#
# Bulk Modulus (GPa) = 29.14721 39.11791 34.13256
# Shear Modulus (GPa) = 1.60372 30.13935 15.87154
#
# Velocity S-wave (km/s) = 0.83971 3.64023 2.64163
# Velocity P-wave (km/s) = 3.70880 5.90485 4.93064
#
# Compressibility (1/GPa) = 0.03430861
#
# Stress axis : x y z
#
# Youngs Moduli (GPa) = 58.94081 75.61691 118.76093
#
# Poissons Ratio (x) = -0.23063 0.56594
# Poissons Ratio (y) = -0.17977 0.05176
# Poissons Ratio (z) = 0.28088 0.03296
#
# Static dielectric constant tensor:
#      x y z
#    x 1.880940 0.000000 -0.005240 
#    y 0.000000 1.933210 0.000000 
#    z -0.005240 0.000000 1.844160 
# 
# From -- ./inp_files/319711.got.cif
#   From: 2010.05.17/outbox.cif.g08.bks.cpg/sg12_160_cif.got.tgz:319711.got - 2010.06.03 13:09:07.
