data_PCOD9207957
_publ_section_title
;
Structure prediction by ZEFSAII (Michael W. Deem and Ramdas Pophale) SiO2 
 PCOD9207957
Probable space group: C 2/M
;
_chemical_formula_sum "Si O2"
_cell_formula_units_Z 64
_cell_length_a 9.609109
_cell_length_b 28.597974
_cell_length_c 20.127363
_cell_angle_alpha 90.000000
_cell_angle_beta 35.862379
_cell_angle_gamma 90.000000
_cell_volume 3240.294962
_symmetry_space_group_name_H-M "C 2/M"
_symmetry_group_IT_number 12
_symmetry_cell_setting 'monoclinic'
loop_
_space_group_symop_operation_xyz
x,y,z
-x,y,-z
-x,-y,-z
x,-y,z
1/2+x,1/2+y,z
1/2-x,1/2+y,-z
1/2-x,1/2-y,-z
1/2+x,1/2-y,z
loop_
_atom_site_type_symbol
_atom_site_label
_atom_site_fract_x
_atom_site_fract_y
_atom_site_fract_z
Si Si1 0.056477 0.772798 0.126652
Si Si2 0.140884 0.204999 0.509527
Si Si3 0.648825 0.823082 0.752828
Si Si4 0.473361 0.552337 0.724091
Si Si5 0.918937 0.401487 0.600294
Si Si6 0.106607 0.944990 0.526995
Si Si7 0.716930 0.144088 0.872540
Si Si8 0.877556 0.662308 0.733002
O O1 0.170335 0.811632 0.131713
O O2 0.942273 0.730632 0.213600
O O3 0.831768 0.799211 0.179048
O O4 0.250000 0.750000 0.000000
O O5 0.250000 0.250000 0.500000
O O6 0.374887 0.178065 0.396683
O O7 0.000000 0.221706 0.500000
O O8 0.933689 0.176736 0.627975
O O9 0.622763 0.838552 0.838100
O O10 0.480456 0.850656 0.766056
O O11 0.391371 0.500000 0.773669
O O12 0.750247 0.557954 0.636812
O O13 0.445435 0.558371 0.655229
O O14 0.365723 0.597830 0.799589
O O15 0.790755 0.373565 0.709701
O O16 0.000000 0.375023 0.500000
O O17 0.150411 0.421078 0.546513
O O18 0.000000 0.925144 0.500000
O O19 0.151776 0.000000 0.498705
O O20 0.500000 0.127697 0.000000
#
# Coordination Sequence:
#
# PCOD9207957 Si02
#       8
#     8   8   8   8   8   8   8   8
#     4  12  24  45  65  89 124 173 223 276 323 388
#     4  10  22  36  54  84 121 164 204 252 318 390
#     4  11  25  40  63  91 130 168 215 275 324 389
#     4  10  22  42  66  95 131 173 219 269 324 397
#     4  10  21  37  60  92 131 171 209 256 315 398
#     4   9  19  35  62  98 133 168 205 257 327 393
#     4  12  26  44  66  96 123 168 224 275 336 387
#     4  11  24  39  60  94 126 168 214 264 330 385
#
# _framework density 19.751289
#
# number of rings (size 3 to 8) (size 9 to 14) (size 15 to 20)
#    0.000    1.375    3.750    1.125    7.000    2.750 
#    0.000    0.000    0.000    0.000    0.000    0.875 
#    0.000    0.000    0.000    0.000    0.000    0.000 
#
# Total GULP energy -178294.034989 kJ/mol
# GULP energy per Si atom -5571.688593 kJ/mol
# Density = 1.970633 g / cm^3
# Si number density = 19.751289 Si / 1000 Ang^3
#
#
#
# Elastic Constant Matrix: (Units=GPa)
#
#
# Indices 1 2 3 4 5 6 
#
# 1 128.1787 42.6388 39.8136 0.0000 23.0316 0.0002
# 2 42.6388 91.1968 31.9831 0.0000 5.1846 0.0001
# 3 39.8136 31.9831 81.8405 0.0001 7.5205 0.0003
# 4 0.0000 0.0000 0.0001 28.5952 0.0000 5.8756
# 5 23.0316 5.1846 7.5205 0.0000 24.7816 -0.0001
# 6 0.0002 0.0001 0.0003 5.8756 -0.0001 2.9601
#
#
#
# Elastic Compliance Matrix: (Units=1/GPa)
#
#
# Indices 1 2 3 4 5 6 
#
# 1 0.011752 -0.003784 -0.003402 0.000000 -0.009098 -0.000001
# 2 -0.003784 0.013959 -0.003774 0.000000 0.001742 0.000000
# 3 -0.003402 -0.003774 0.015416 0.000000 -0.000727 -0.000002
# 4 0.000000 0.000000 0.000000 0.059059 -0.000001 -0.117230
# 5 -0.009098 0.001742 -0.000727 -0.000001 0.048664 0.000004
# 6 -0.000001 0.000000 -0.000002 -0.117230 0.000004 0.570526
#
#
# Mechanical properties :
#
#
# Convention : Reuss Voigt Hill
#
# Bulk Modulus (GPa) = 52.06862 58.89855 55.48359
# Shear Modulus (GPa) = 6.68718 23.71939 15.20329
#
# Velocity S-wave (km/s) = 1.84202 3.46917 2.77742
# Velocity P-wave (km/s) = 5.56268 6.77729 6.19980
#
# Compressibility (1/GPa) = 0.01920543
#
# Stress axis : x y z
#
# Youngs Moduli (GPa) = 85.09242 71.63708 64.86860
#
# Poissons Ratio (x) = 0.27109 0.22069
# Poissons Ratio (y) = 0.32201 0.24484
# Poissons Ratio (z) = 0.28950 0.27039
#
# Static dielectric constant tensor:
#      x y z
#    x 1.621460 0.000000 -0.015570 
#    y 0.000000 1.746730 0.000000 
#    z -0.015570 0.000000 1.736850 
# 
# From -- ./inp_files/260316.got.cif
#   From: 2010.05.17/outbox.cif.g08.bks.cpg/sg12_131_cif.got.tgz:260316.got - 2010.06.03 13:09:07.
