data_PCOD9207879
_publ_section_title
;
Structure prediction by ZEFSAII (Michael W. Deem and Ramdas Pophale) SiO2 
 PCOD9207879
Probable space group: C 2/M
;
_chemical_formula_sum "Si O2"
_cell_formula_units_Z 52
_cell_length_a 8.903967
_cell_length_b 26.379754
_cell_length_c 11.859155
_cell_angle_alpha 90.000000
_cell_angle_beta 100.415077
_cell_angle_gamma 90.000000
_cell_volume 2739.636612
_symmetry_space_group_name_H-M "C 2/M"
_symmetry_group_IT_number 12
_symmetry_cell_setting 'monoclinic'
loop_
_space_group_symop_operation_xyz
x,y,z
-x,y,-z
-x,-y,-z
x,-y,z
1/2+x,1/2+y,z
1/2-x,1/2+y,-z
1/2-x,1/2-y,-z
1/2+x,1/2-y,z
loop_
_atom_site_type_symbol
_atom_site_label
_atom_site_fract_x
_atom_site_fract_y
_atom_site_fract_z
Si Si1 0.842873 0.000000 0.822194
Si Si2 0.257539 0.914545 0.746800
Si Si3 0.964747 0.257562 0.337994
Si Si4 0.001619 0.894655 0.876963
Si Si5 0.747747 0.823281 0.432075
Si Si6 0.993874 0.500000 0.861526
Si Si7 0.315877 0.321364 0.703348
Si Si8 0.974798 0.000000 0.365352
O O1 0.667098 0.000000 0.837159
O O2 0.935016 0.048743 0.877732
O O3 0.873415 0.000000 0.690883
O O4 0.169886 0.892876 0.844772
O O5 0.280354 0.870810 0.655473
O O6 0.399707 0.950336 0.803117
O O7 0.128032 0.951824 0.679908
O O8 0.870926 0.214946 0.394095
O O9 0.843614 0.298247 0.278070
O O10 0.094846 0.290030 0.417442
O O11 0.061425 0.223712 0.265440
O O12 0.882203 0.867948 0.778435
O O13 0.000000 0.870886 0.000000
O O14 0.797646 0.834562 0.567269
O O15 0.000000 0.500000 0.000000
O O16 0.000000 0.000000 0.500000
#
# Coordination Sequence:
#
# PCOD9207879 Si02
#       8
#     4   8   8   8   8   4   8   4
#     4  10  23  40  67  87 116 158 207 244 301 361
#     4  10  23  38  62  91 120 155 201 250 299 363
#     4  10  21  37  60  89 121 156 197 245 297 365
#     4  11  23  41  62  87 117 159 207 244 291 365
#     4  11  20  36  61  92 121 151 198 246 305 354
#     4  11  23  45  66  89 121 163 206 253 303 358
#     4  11  21  36  62  88 119 161 197 245 300 353
#     4   9  21  39  60  90 127 162 188 244 314 370
#
# _framework density 18.980619000000001
#
# number of rings (size 3 to 8) (size 9 to 14) (size 15 to 20)
#    0.000    1.538    1.538    5.308    6.462    0.000 
#    0.000    2.308    0.000    0.000    0.000    0.000 
#    0.000    0.000    0.000    0.000    0.000    0.000 
#
# Total GULP energy -144975.154277 kJ/mol
# GULP energy per Si atom -5575.967472 kJ/mol
# Density = 1.893742 g / cm^3
# Si number density = 18.980619 Si / 1000 Ang^3
#
#
#
# Elastic Constant Matrix: (Units=GPa)
#
#
# Indices 1 2 3 4 5 6 
#
# 1 101.2766 25.3592 32.3096 0.0000 1.8429 0.0000
# 2 25.3592 101.8361 42.4679 0.0000 8.6301 0.0000
# 3 32.3096 42.4679 92.3061 0.0000 -5.5958 0.0000
# 4 0.0000 0.0000 0.0000 -53.7475 0.0000 28.9022
# 5 1.8429 8.6301 -5.5958 0.0000 19.0545 0.0000
# 6 0.0000 0.0000 0.0000 28.9022 0.0000 9.7404
#
#
#
# Elastic Compliance Matrix: (Units=1/GPa)
#
#
# Indices 1 2 3 4 5 6 
#
# 1 0.011325 -0.001231 -0.003492 0.000000 -0.001563 0.000000
# 2 -0.001231 0.013363 -0.006187 0.000000 -0.007750 0.000000
# 3 -0.003492 -0.006187 0.015366 0.000000 0.007653 0.000000
# 4 0.000000 0.000000 0.000000 -0.007168 0.000000 0.021269
# 5 -0.001563 -0.007750 0.007653 0.000000 0.058390 0.000000
# 6 0.000000 0.000000 0.000000 0.021269 0.000000 0.039553
#
#
# Mechanical properties :
#
#
# Convention : Reuss Voigt Hill
#
# Bulk Modulus (GPa) = 54.84468 55.07691 54.96079
# Shear Modulus (GPa) = 31.50039 8.02829 19.76434
#
# Velocity S-wave (km/s) = 4.07825 2.05886 3.23040
# Velocity P-wave (km/s) = 7.15080 5.89341 6.55234
#
# Compressibility (1/GPa) = 0.01823331
#
# Stress axis : x y z
#
# Youngs Moduli (GPa) = 88.30160 74.83243 65.07747
#
# Poissons Ratio (x) = 0.09214 0.22727
# Poissons Ratio (y) = 0.10872 0.40263
# Poissons Ratio (z) = 0.30837 0.46298
#
# Static dielectric constant tensor:
#      x y z
#    x 1.680200 0.000000 -0.035990 
#    y 0.000000 1.677100 0.000000 
#    z -0.035990 0.000000 1.688200 
# 
# From -- ./inp_files/123802.got.cif
#   From: 2010.05.17/outbox.cif.g08.bks.cpg/sg12_62_cif.got.tgz:123802.got - 2010.06.03 13:09:07.
