data_PCOD9207634
_publ_section_title
;
Structure prediction by ZEFSAII (Michael W. Deem and Ramdas Pophale) SiO2 
 PCOD9207634
Probable space group: C 2/M
;
_chemical_formula_sum "Si O2"
_cell_formula_units_Z 40
_cell_length_a 15.690637
_cell_length_b 8.575468
_cell_length_c 31.277894
_cell_angle_alpha 90.000000
_cell_angle_beta 150.638674
_cell_angle_gamma 90.000000
_cell_volume 2063.533886
_symmetry_space_group_name_H-M "C 2/M"
_symmetry_group_IT_number 12
_symmetry_cell_setting 'monoclinic'
loop_
_space_group_symop_operation_xyz
x,y,z
-x,y,-z
-x,-y,-z
x,-y,z
1/2+x,1/2+y,z
1/2-x,1/2+y,-z
1/2-x,1/2-y,-z
1/2+x,1/2-y,z
loop_
_atom_site_type_symbol
_atom_site_label
_atom_site_fract_x
_atom_site_fract_y
_atom_site_fract_z
Si Si1 0.612539 0.319183 0.091651
Si Si2 0.435607 0.177722 0.092257
Si Si3 0.174427 0.188976 0.600727
Si Si4 0.762037 0.313632 0.277757
Si Si5 0.966771 0.313514 0.282071
O O1 0.592003 0.500000 0.098825
O O2 0.537922 0.197830 0.092620
O O3 0.818954 0.291296 0.180979
O O4 0.500000 0.308637 0.000000
O O5 0.563260 0.263253 0.181147
O O6 0.413423 0.000000 0.096056
O O7 0.250000 0.250000 0.000000
O O8 0.178159 0.245584 0.651091
O O9 0.347379 0.247784 0.651693
O O10 0.000000 0.237904 0.500000
O O11 0.179104 0.000000 0.603183
O O12 0.770045 0.500000 0.282359
O O13 0.882373 0.258602 0.290148
O O14 0.987237 0.500000 0.296014
#
# Coordination Sequence:
#
# PCOD9207634 Si02
#       5
#     8   8   8   8   8
#     4   9  18  33  54  80 110 151 192 230 287 344
#     4  11  22  36  55  82 115 151 191 234 285 344
#     4  10  21  37  59  87 115 151 196 240 291 351
#     4  10  21  39  59  82 113 152 194 240 296 348
#     4   8  17  35  55  78 114 153 188 231 290 348
#
# _framework density 19.384222000000001
#
# number of rings (size 3 to 8) (size 9 to 14) (size 15 to 20)
#    0.000    2.400    0.000    3.600    2.800    1.600 
#    0.000    5.000    0.000    0.000    0.000    0.000 
#    0.000    0.000    0.000    0.000    0.000    0.000 
#
# Total GULP energy -111487.835918 kJ/mol
# GULP energy per Si atom -5574.391796 kJ/mol
# Density = 1.934010 g / cm^3
# Si number density = 19.384222 Si / 1000 Ang^3
#
#
#
# Elastic Constant Matrix: (Units=GPa)
#
#
# Indices 1 2 3 4 5 6 
#
# 1 91.1763 13.6729 89.7966 0.0000 4.7774 0.0000
# 2 13.6729 28.3479 32.5042 0.0000 2.1729 0.0000
# 3 89.7966 32.5042 195.8573 0.0001 1.7719 0.0000
# 4 0.0000 0.0000 0.0001 22.5391 0.0000 -7.8008
# 5 4.7774 2.1729 1.7719 0.0000 36.3766 0.0000
# 6 0.0000 0.0000 0.0000 -7.8008 0.0000 24.4732
#
#
#
# Elastic Compliance Matrix: (Units=1/GPa)
#
#
# Indices 1 2 3 4 5 6 
#
# 1 0.020209 0.001268 -0.009455 0.000000 -0.002269 0.000000
# 2 0.001268 0.043831 -0.007834 0.000000 -0.002403 0.000000
# 3 -0.009455 -0.007834 0.010730 0.000000 0.001187 0.000000
# 4 0.000000 0.000000 0.000000 0.049869 0.000000 0.015896
# 5 -0.002269 -0.002403 0.001187 0.000000 0.027874 0.000000
# 6 0.000000 0.000000 0.000000 0.015896 0.000000 0.045928
#
#
# Mechanical properties :
#
#
# Convention : Reuss Voigt Hill
#
# Bulk Modulus (GPa) = 23.40376 65.25877 44.33126
# Shear Modulus (GPa) = 20.43116 28.63831 24.53473
#
# Velocity S-wave (km/s) = 3.25007 3.84787 3.56154
# Velocity P-wave (km/s) = 5.11701 7.31303 6.31127
#
# Compressibility (1/GPa) = 0.04272818
#
# Stress axis : x y z
#
# Youngs Moduli (GPa) = 49.48402 22.81491 93.19560
#
# Poissons Ratio (x) = -0.02894 0.88118
# Poissons Ratio (y) = -0.06276 0.73008
# Poissons Ratio (z) = 0.46788 0.17873
#
# Static dielectric constant tensor:
#      x y z
#    x 1.676200 0.000000 0.025810 
#    y 0.000000 1.697590 0.000000 
#    z 0.025810 0.000000 1.687300 
# 
# From -- ./inp_files/211435.got.cif
#   From: 2010.05.17/outbox.cif.g08.bks.cpg/sg12_106_cif.got.tgz:211435.got - 2010.06.03 13:09:07.
