data_PCOD9207620
_publ_section_title
;
Structure prediction by ZEFSAII (Michael W. Deem and Ramdas Pophale) SiO2 
 PCOD9207620
Probable space group: C 2/M
;
_chemical_formula_sum "Si O2"
_cell_formula_units_Z 40
_cell_length_a 20.281799
_cell_length_b 7.428731
_cell_length_c 30.272907
_cell_angle_alpha 90.000000
_cell_angle_beta 159.090223
_cell_angle_gamma 90.000000
_cell_volume 1627.865904
_symmetry_space_group_name_H-M "C 2/M"
_symmetry_group_IT_number 12
_symmetry_cell_setting 'monoclinic'
loop_
_space_group_symop_operation_xyz
x,y,z
-x,y,-z
-x,-y,-z
x,-y,z
1/2+x,1/2+y,z
1/2-x,1/2+y,-z
1/2-x,1/2-y,-z
1/2+x,1/2-y,z
loop_
_atom_site_type_symbol
_atom_site_label
_atom_site_fract_x
_atom_site_fract_y
_atom_site_fract_z
Si Si1 0.053091 0.713676 0.898248
Si Si2 0.939999 0.217928 0.574530
Si Si3 0.862494 0.791165 0.950846
Si Si4 0.331519 0.282292 0.365243
Si Si5 0.039863 0.703263 0.311028
O O1 0.032636 0.500000 0.889247
O O2 0.878083 0.780849 0.760404
O O3 0.250000 0.750000 0.000000
O O4 0.050939 0.785918 0.946627
O O5 0.965016 0.298219 0.638489
O O6 0.744662 0.279455 0.430957
O O7 0.106957 0.256010 0.646428
O O8 0.926933 0.000000 0.571368
O O9 0.655165 0.711302 0.824317
O O10 0.831756 0.000000 0.918479
O O11 0.000000 0.712856 0.000000
O O12 0.500000 0.212755 0.500000
O O13 0.331114 0.500000 0.371116
O O14 0.043800 0.500000 0.294675
#
# Coordination Sequence:
#
# PCOD9207620 Si02
#       5
#     8   8   8   8   8
#     4  11  24  40  61  88 120 157 197 245 297 352
#     4   9  17  31  53  80 107 139 186 236 278 326
#     4  10  21  37  59  86 119 158 196 237 294 356
#     4   9  19  35  58  82 106 145 193 236 280 338
#     4   9  18  31  52  80 110 146 180 225 284 339
#
# _framework density 24.572050999999998
#
# number of rings (size 3 to 8) (size 9 to 14) (size 15 to 20)
#    0.000    2.400    0.000    1.800    2.800    1.200 
#    0.000    1.000    0.000    3.000    0.000    0.000 
#    0.000    0.000    0.000    0.000    0.000    0.000 
#
# Total GULP energy -111733.094649 kJ/mol
# GULP energy per Si atom -5586.654732 kJ/mol
# Density = 2.451612 g / cm^3
# Si number density = 24.572051 Si / 1000 Ang^3
#
#
#
# Elastic Constant Matrix: (Units=GPa)
#
#
# Indices 1 2 3 4 5 6 
#
# 1 74.7182 -6.2707 39.8468 0.0012 15.4124 -0.0002
# 2 -6.2707 80.4095 0.4217 0.0012 7.3835 -0.0008
# 3 39.8468 0.4217 209.5661 -0.0111 24.6743 0.0096
# 4 0.0012 0.0012 -0.0111 -1.0004 0.0043 -6.5562
# 5 15.4124 7.3835 24.6743 0.0043 35.0356 0.0002
# 6 -0.0002 -0.0008 0.0096 -6.5562 0.0002 14.4331
#
#
#
# Elastic Compliance Matrix: (Units=1/GPa)
#
#
# Indices 1 2 3 4 5 6 
#
# 1 0.015979 0.001786 -0.002366 0.000003 -0.005739 0.000003
# 2 0.001786 0.012900 0.000051 -0.000001 -0.003540 0.000000
# 3 -0.002366 0.000051 0.005561 -0.000013 -0.002887 -0.000010
# 4 0.000003 -0.000001 -0.000013 -0.251351 0.000040 -0.114175
# 5 -0.005739 -0.003540 -0.002887 0.000040 0.033846 0.000019
# 6 0.000003 0.000000 -0.000010 -0.114175 0.000019 0.017422
#
#
# Mechanical properties :
#
#
# Convention : Reuss Voigt Hill
#
# Bulk Modulus (GPa) = 29.95576 48.07661 39.01619
# Shear Modulus (GPa) = -32.58266 31.74004 -0.42131
#
# Velocity S-wave (km/s) = -3.64539 3.59794 -0.41452
# Velocity P-wave (km/s) = 2.34542 6.07192 3.96026
#
# Compressibility (1/GPa) = 0.03338256
#
# Stress axis : x y z
#
# Youngs Moduli (GPa) = 62.58146 77.51695 179.80990
#
# Poissons Ratio (x) = -0.13841 0.42545
# Poissons Ratio (y) = -0.11174 -0.00924
# Poissons Ratio (z) = 0.14808 -0.00398
#
# Static dielectric constant tensor:
#      x y z
#    x 1.899920 0.000020 0.034520 
#    y 0.000020 2.360830 0.000070 
#    z 0.034520 0.000070 1.988620 
# 
# From -- ./inp_files/237085.got.cif
#   From: 2010.05.17/outbox.cif.g08.bks.cpg/sg12_119_cif.got.tgz:237085.got - 2010.06.03 13:09:07.
