data_PCOD9207390
_publ_section_title
;
Structure prediction by ZEFSAII (Michael W. Deem and Ramdas Pophale) SiO2 
 PCOD9207390
Probable space group: C 2/M
;
_chemical_formula_sum "Si O2"
_cell_formula_units_Z 40
_cell_length_a 18.246027
_cell_length_b 8.768569
_cell_length_c 13.918260
_cell_angle_alpha 90.000000
_cell_angle_beta 109.015418
_cell_angle_gamma 90.000000
_cell_volume 2105.289331
_symmetry_space_group_name_H-M "C 2/M"
_symmetry_group_IT_number 12
_symmetry_cell_setting 'monoclinic'
loop_
_space_group_symop_operation_xyz
x,y,z
-x,y,-z
-x,-y,-z
x,-y,z
1/2+x,1/2+y,z
1/2-x,1/2+y,-z
1/2-x,1/2-y,-z
1/2+x,1/2-y,z
loop_
_atom_site_type_symbol
_atom_site_label
_atom_site_fract_x
_atom_site_fract_y
_atom_site_fract_z
Si Si1 0.537520 0.817551 0.803854
Si Si2 0.831867 0.818178 0.001486
Si Si3 0.866022 0.683806 0.807263
Si Si4 0.234372 0.183735 0.598202
Si Si5 0.565729 0.683914 0.605884
O O1 0.601308 0.741315 0.899104
O O2 0.451410 0.779160 0.804485
O O3 0.548632 0.760459 0.700241
O O4 0.546365 0.000000 0.811850
O O5 0.828378 0.000000 0.003347
O O6 0.750000 0.750000 0.000000
O O7 0.850295 0.761711 0.902084
O O8 0.861474 0.500000 0.817870
O O9 0.801210 0.729351 0.701771
O O10 0.250000 0.250000 0.500000
O O11 0.150131 0.229247 0.602198
O O12 0.235376 0.000000 0.592113
O O13 0.500000 0.723056 0.500000
O O14 0.565388 0.500000 0.618091
#
# Coordination Sequence:
#
# PCOD9207390 Si02
#       5
#     8   8   8   8   8
#     4  11  23  39  61  88 119 157 200 247 298 353
#     4  12  25  41  63  89 118 154 196 243 297 357
#     4  10  22  40  60  86 121 158 198 245 295 349
#     4  10  21  37  58  84 116 154 194 242 297 350
#     4  10  21  37  58  86 120 158 202 251 299 349
#
# _framework density 18.999763999999999
#
# number of rings (size 3 to 8) (size 9 to 14) (size 15 to 20)
#    0.000    1.400    0.000    5.400    0.000    7.600 
#    0.000    0.000    0.000    0.000    0.000    0.000 
#    0.000    0.000    0.000    0.000    0.000    0.000 
#
# Total GULP energy -111886.789435 kJ/mol
# GULP energy per Si atom -5594.339472 kJ/mol
# Density = 1.895652 g / cm^3
# Si number density = 18.999764 Si / 1000 Ang^3
#
#
#
# Elastic Constant Matrix: (Units=GPa)
#
#
# Indices 1 2 3 4 5 6 
#
# 1 227.1366 86.0386 141.7214 0.0000 1.1353 0.0000
# 2 86.0386 61.8733 82.7215 0.0000 -2.8639 0.0000
# 3 141.7214 82.7215 225.5406 0.0000 -3.0319 0.0000
# 4 0.0000 0.0000 0.0000 43.1652 0.0000 -5.9427
# 5 1.1353 -2.8639 -3.0319 0.0000 45.0572 0.0000
# 6 0.0000 0.0000 0.0000 -5.9427 0.0000 23.5186
#
#
#
# Elastic Compliance Matrix: (Units=1/GPa)
#
#
# Indices 1 2 3 4 5 6 
#
# 1 0.009925 -0.010781 -0.002297 0.000000 -0.001090 0.000000
# 2 -0.010781 0.043491 -0.009145 0.000000 0.002421 0.000000
# 3 -0.002297 -0.009145 0.009232 0.000000 0.000098 0.000000
# 4 0.000000 0.000000 0.000000 0.024002 0.000000 0.006065
# 5 -0.001090 0.002421 0.000098 0.000000 0.022382 0.000000
# 6 0.000000 0.000000 0.000000 0.006065 0.000000 0.044052
#
#
# Mechanical properties :
#
#
# Convention : Reuss Voigt Hill
#
# Bulk Modulus (GPa) = 54.93318 126.16816 90.55067
# Shear Modulus (GPa) = 24.55832 35.95279 30.25556
#
# Velocity S-wave (km/s) = 3.59912 4.35475 3.99484
# Velocity P-wave (km/s) = 6.80050 9.58303 8.30907
#
# Compressibility (1/GPa) = 0.01820394
#
# Stress axis : x y z
#
# Youngs Moduli (GPa) = 100.75478 22.99323 108.31304
#
# Poissons Ratio (x) = 0.24788 0.24881
# Poissons Ratio (y) = 1.08620 0.99047
# Poissons Ratio (z) = 0.23145 0.21026
#
# Static dielectric constant tensor:
#      x y z
#    x 1.635840 0.000000 0.012580 
#    y 0.000000 1.641640 0.000000 
#    z 0.012580 0.000000 1.608870 
# 
# From -- ./inp_files/151630.got.cif
#   From: 2010.05.17/outbox.cif.g08.bks.cpg/sg12_76_cif.got.tgz:151630.got - 2010.06.03 13:09:07.
