data_PCOD9207392
_publ_section_title
;
Structure prediction by ZEFSAII (Michael W. Deem and Ramdas Pophale) SiO2 
 PCOD9207392
Probable space group: C 2/M
;
_chemical_formula_sum "Si O2"
_cell_formula_units_Z 48
_cell_length_a 15.261890
_cell_length_b 7.878659
_cell_length_c 20.534462
_cell_angle_alpha 90.000000
_cell_angle_beta 69.206752
_cell_angle_gamma 90.000000
_cell_volume 2308.309410
_symmetry_space_group_name_H-M "C 2/M"
_symmetry_group_IT_number 12
_symmetry_cell_setting 'monoclinic'
loop_
_space_group_symop_operation_xyz
x,y,z
-x,y,-z
-x,-y,-z
x,-y,z
1/2+x,1/2+y,z
1/2-x,1/2+y,-z
1/2-x,1/2-y,-z
1/2+x,1/2-y,z
loop_
_atom_site_type_symbol
_atom_site_label
_atom_site_fract_x
_atom_site_fract_y
_atom_site_fract_z
Si Si1 0.271393 0.699994 0.842762
Si Si2 0.027378 0.699026 0.422819
Si Si3 0.433897 0.792209 0.076209
Si Si4 0.403092 0.303990 0.340326
Si Si5 0.522097 0.197660 0.189055
Si Si6 0.778462 0.707199 0.690064
O O1 0.280378 0.500000 0.853237
O O2 0.174138 0.762271 0.899558
O O3 0.366135 0.786352 0.842020
O O4 0.264276 0.727446 0.766887
O O5 0.047332 0.500000 0.428101
O O6 0.122344 0.767552 0.364967
O O7 0.000000 0.773904 0.500000
O O8 0.943925 0.714703 0.392992
O O9 0.476106 0.738525 0.134541
O O10 0.434118 0.000000 0.076205
O O11 0.500000 0.735830 0.000000
O O12 0.388817 0.500000 0.361322
O O13 0.480321 0.290423 0.262781
O O14 0.306833 0.238980 0.334017
O O15 0.496900 0.000000 0.203705
O O16 0.777850 0.500000 0.694176
#
# Coordination Sequence:
#
# PCOD9207392 Si02
#       6
#     8   8   8   8   8   8
#     4  11  21  35  59  88 114 149 196 238 281 340
#     4  10  22  40  60  84 117 157 194 233 288 347
#     4   9  20  38  58  83 118 155 191 234 287 345
#     4  11  22  36  58  87 116 149 194 242 287 336
#     4  11  21  36  59  85 114 152 193 237 291 342
#     4  10  21  37  58  84 117 152 189 237 286 336
#
# _framework density 20.794438
#
# number of rings (size 3 to 8) (size 9 to 14) (size 15 to 20)
#    0.000    1.667    3.333    1.500    0.000    2.333 
#    0.000    0.000    0.000    7.000    0.000    0.000 
#    0.000    0.000    0.000    0.000    0.000    0.000 
#
# Total GULP energy -134103.029354 kJ/mol
# GULP energy per Si atom -5587.626223 kJ/mol
# Density = 2.074711 g / cm^3
# Si number density = 20.794438 Si / 1000 Ang^3
#
#
#
# Elastic Constant Matrix: (Units=GPa)
#
#
# Indices 1 2 3 4 5 6 
#
# 1 73.8860 -4.7452 -24.6470 0.0000 -4.1103 0.0000
# 2 -4.7452 22.4929 1.1111 0.0000 -4.5607 0.0000
# 3 -24.6470 1.1111 35.6968 0.0000 -1.6666 0.0000
# 4 0.0000 0.0000 0.0000 7.5254 0.0000 -4.4106
# 5 -4.1103 -4.5607 -1.6666 0.0000 27.9253 0.0000
# 6 0.0000 0.0000 0.0000 -4.4106 0.0000 11.6694
#
#
#
# Elastic Compliance Matrix: (Units=1/GPa)
#
#
# Indices 1 2 3 4 5 6 
#
# 1 0.018248 0.004056 0.012665 0.000000 0.004104 0.000000
# 2 0.004056 0.046925 0.001731 0.000000 0.008364 0.000000
# 3 0.012665 0.001731 0.036907 0.000000 0.004349 0.000000
# 4 0.000000 0.000000 0.000000 0.170697 0.000000 0.064517
# 5 0.004104 0.008364 0.004349 0.000000 0.038039 0.000000
# 6 0.000000 0.000000 0.000000 0.064517 0.000000 0.110079
#
#
# Mechanical properties :
#
#
# Convention : Reuss Voigt Hill
#
# Bulk Modulus (GPa) = 7.19514 8.39038 7.79276
# Shear Modulus (GPa) = 11.61928 20.11447 15.86688
#
# Velocity S-wave (km/s) = 2.36639 3.11352 2.76530
# Velocity P-wave (km/s) = 3.30667 4.11935 3.73518
#
# Compressibility (1/GPa) = 0.13898278
#
# Stress axis : x y z
#
# Youngs Moduli (GPa) = 54.80082 21.31082 27.09493
#
# Poissons Ratio (x) = -0.08644 -0.34315
# Poissons Ratio (y) = -0.22229 -0.04689
# Poissons Ratio (z) = -0.69404 -0.03688
#
# Static dielectric constant tensor:
#      x y z
#    x 1.733940 0.000000 -0.019080 
#    y 0.000000 1.755060 0.000000 
#    z -0.019080 0.000000 1.715340 
# 
# From -- ./inp_files/308282.got.cif
#   From: 2010.05.17/outbox.cif.g08.bks.cpg/sg12_155_cif.got.tgz:308282.got - 2010.06.03 13:09:07.
