data_PCOD9207778
_publ_section_title
;
Structure prediction by ZEFSAII (Michael W. Deem and Ramdas Pophale) SiO2 
 PCOD9207778
Probable space group: C 2/M
;
_chemical_formula_sum "Si O2"
_cell_formula_units_Z 48
_cell_length_a 12.461259
_cell_length_b 22.471928
_cell_length_c 8.865460
_cell_angle_alpha 90.000000
_cell_angle_beta 71.857062
_cell_angle_gamma 90.000000
_cell_volume 2359.154198
_symmetry_space_group_name_H-M "C 2/M"
_symmetry_group_IT_number 12
_symmetry_cell_setting 'monoclinic'
loop_
_space_group_symop_operation_xyz
x,y,z
-x,y,-z
-x,-y,-z
x,-y,z
1/2+x,1/2+y,z
1/2-x,1/2+y,-z
1/2-x,1/2-y,-z
1/2+x,1/2-y,z
loop_
_atom_site_type_symbol
_atom_site_label
_atom_site_fract_x
_atom_site_fract_y
_atom_site_fract_z
Si Si1 0.324494 0.065984 0.473695
Si Si2 0.381614 0.602250 0.632203
Si Si3 0.623310 0.432791 0.014722
Si Si4 0.642449 0.258157 0.421140
Si Si5 0.294605 0.147196 0.775956
Si Si6 0.032209 0.433396 0.159197
O O1 0.214812 0.069255 0.418331
O O2 0.317645 0.114407 0.606697
O O3 0.428875 0.076173 0.317472
O O4 0.335077 0.000000 0.535681
O O5 0.500000 0.588718 0.500000
O O6 0.379419 0.583809 0.807672
O O7 0.358667 0.672630 0.620795
O O8 0.673580 0.500000 0.977442
O O9 0.500000 0.436925 0.000000
O O10 0.681147 0.380219 0.893356
O O11 0.500000 0.244587 0.500000
O O12 0.750000 0.250000 0.500000
O O13 0.686145 0.215740 0.268053
O O14 0.384108 0.120259 0.851463
O O15 0.076212 0.500000 0.173098
O O16 0.000000 0.433650 0.000000
#
# Coordination Sequence:
#
# PCOD9207778 Si02
#       6
#     8   8   8   8   8   8
#     4  11  21  35  62  93 126 172 225 276 346 415
#     4  11  24  43  67  95 132 181 232 290 345 411
#     4  11  25  43  66 100 140 179 228 291 356 424
#     4  11  25  46  74 105 139 186 239 296 345 411
#     4  12  23  41  66  95 134 179 226 287 348 417
#     4  10  21  37  59  93 133 172 220 283 347 412
#
# _framework density 20.346274000000001
#
# number of rings (size 3 to 8) (size 9 to 14) (size 15 to 20)
#    0.000    1.000    1.667    5.500    2.333    6.000 
#    0.000    0.833    0.000    0.000    0.000    0.000 
#    0.000    0.000    0.000    0.000    0.000    0.000 
#
# Total GULP energy -133769.050246 kJ/mol
# GULP energy per Si atom -5573.710427 kJ/mol
# Density = 2.029996 g / cm^3
# Si number density = 20.346274 Si / 1000 Ang^3
#
#
#
# Elastic Constant Matrix: (Units=GPa)
#
#
# Indices 1 2 3 4 5 6 
#
# 1 106.2476 12.2980 20.6345 0.0000 -2.5552 0.0000
# 2 12.2980 49.3591 7.7610 0.0000 -8.9417 0.0000
# 3 20.6345 7.7610 82.8854 0.0000 2.3373 0.0000
# 4 0.0000 0.0000 0.0000 36.3305 0.0000 -0.6827
# 5 -2.5552 -8.9417 2.3373 0.0000 40.8968 0.0000
# 6 0.0000 0.0000 0.0000 -0.6827 0.0000 25.3187
#
#
#
# Elastic Compliance Matrix: (Units=1/GPa)
#
#
# Indices 1 2 3 4 5 6 
#
# 1 0.010115 -0.002098 -0.002330 0.000000 0.000306 0.000000
# 2 -0.002098 0.021905 -0.001663 0.000000 0.004753 0.000000
# 3 -0.002330 -0.001663 0.012836 0.000000 -0.001243 0.000000
# 4 0.000000 0.000000 0.000000 0.027539 0.000000 0.000743
# 5 0.000306 0.004753 -0.001243 0.000000 0.025581 0.000000
# 6 0.000000 0.000000 0.000000 0.000743 0.000000 0.039517
#
#
# Mechanical properties :
#
#
# Convention : Reuss Voigt Hill
#
# Bulk Modulus (GPa) = 30.60634 35.54212 33.07423
# Shear Modulus (GPa) = 31.13989 33.69577 32.41783
#
# Velocity S-wave (km/s) = 3.91640 4.07395 3.99595
# Velocity P-wave (km/s) = 5.96039 6.29571 6.13035
#
# Compressibility (1/GPa) = 0.03267297
#
# Stress axis : x y z
#
# Youngs Moduli (GPa) = 98.86527 45.65171 77.90763
#
# Poissons Ratio (x) = 0.09579 0.18155
# Poissons Ratio (y) = 0.20744 0.12954
# Poissons Ratio (z) = 0.23038 0.07591
#
# Static dielectric constant tensor:
#      x y z
#    x 1.791690 0.000000 -0.001370 
#    y 0.000000 1.724160 0.000000 
#    z -0.001370 0.000000 1.662820 
# 
# From -- ./inp_files/51345.got.cif
#   From: 2010.05.17/outbox.cif.g08.bks.cpg/sg12_26_cif.got.tgz:51345.got - 2010.06.03 13:09:07.
