data_PCOD9207560
_publ_section_title
;
Structure prediction by ZEFSAII (Michael W. Deem and Ramdas Pophale) SiO2 
 PCOD9207560
Probable space group: C 2/M
;
_chemical_formula_sum "Si O2"
_cell_formula_units_Z 36
_cell_length_a 23.168558
_cell_length_b 13.703543
_cell_length_c 11.823451
_cell_angle_alpha 90.000000
_cell_angle_beta 149.133246
_cell_angle_gamma 90.000000
_cell_volume 1925.883993
_symmetry_space_group_name_H-M "C 2/M"
_symmetry_group_IT_number 12
_symmetry_cell_setting 'monoclinic'
loop_
_space_group_symop_operation_xyz
x,y,z
-x,y,-z
-x,-y,-z
x,-y,z
1/2+x,1/2+y,z
1/2-x,1/2+y,-z
1/2-x,1/2-y,-z
1/2+x,1/2-y,z
loop_
_atom_site_type_symbol
_atom_site_label
_atom_site_fract_x
_atom_site_fract_y
_atom_site_fract_z
Si Si1 0.646102 0.111771 0.371919
Si Si2 0.817688 0.243500 0.767537
Si Si3 0.500000 0.297339 0.500000
Si Si4 0.443467 0.184619 0.177242
Si Si5 0.793051 0.890728 0.268297
O O1 0.762517 0.146513 0.626016
O O2 0.631536 0.187813 0.244512
O O3 0.545451 0.126553 0.291810
O O4 0.648437 0.000000 0.336897
O O5 0.715706 0.310008 0.647322
O O6 0.903544 0.235114 0.016145
O O7 0.473310 0.231641 0.346116
O O8 0.391932 0.361742 0.350251
O O9 0.330295 0.119807 0.995635
O O10 0.808204 0.000000 0.336933
#
# Coordination Sequence:
#
# PCOD9207560 Si02
#       5
#     8   8   4   8   8
#     4  11  20  38  65  88 113 149 192 238 293 344
#     4   9  22  37  60  88 120 143 185 246 291 335
#     4  12  21  40  57  82 122 160 189 236 285 336
#     4  10  21  38  59  85 118 151 190 243 281 332
#     4  10  21  37  59  84 114 155 196 231 283 343
#
# _framework density 18.692713999999999
#
# number of rings (size 3 to 8) (size 9 to 14) (size 15 to 20)
#    1.333    0.444    2.222    3.000    0.000    0.889 
#    0.000    6.667    0.000    2.667    0.000    0.000 
#    0.000    0.000    0.000    0.000    0.000    0.000 
#
# Total GULP energy -100239.192002 kJ/mol
# GULP energy per Si atom -5568.844000 kJ/mol
# Density = 1.865017 g / cm^3
# Si number density = 18.692714 Si / 1000 Ang^3
#
#
#
# Elastic Constant Matrix: (Units=GPa)
#
#
# Indices 1 2 3 4 5 6 
#
# 1 101.7972 23.0926 25.0172 0.0000 12.1189 0.0000
# 2 23.0926 34.8410 7.9998 0.0000 15.4371 0.0000
# 3 25.0172 7.9998 75.7539 0.0000 -12.4685 0.0000
# 4 0.0000 0.0000 0.0000 4.8057 0.0000 -0.3276
# 5 12.1189 15.4371 -12.4685 0.0000 36.0263 0.0000
# 6 0.0000 0.0000 0.0000 -0.3276 0.0000 13.7145
#
#
#
# Elastic Compliance Matrix: (Units=1/GPa)
#
#
# Indices 1 2 3 4 5 6 
#
# 1 0.012538 -0.006063 -0.003994 0.000000 -0.003002 0.000000
# 2 -0.006063 0.041790 -0.005326 0.000000 -0.017711 0.000000
# 3 -0.003994 -0.005326 0.016626 0.000000 0.009380 0.000000
# 4 0.000000 0.000000 0.000000 0.208425 0.000000 0.004979
# 5 -0.003002 -0.017711 0.009380 0.000000 0.039603 0.000000
# 6 0.000000 0.000000 0.000000 0.004979 0.000000 0.073034
#
#
# Mechanical properties :
#
#
# Convention : Reuss Voigt Hill
#
# Bulk Modulus (GPa) = 24.88314 36.06790 30.47552
# Shear Modulus (GPa) = 11.46318 21.32813 16.39565
#
# Velocity S-wave (km/s) = 2.47906 3.38151 2.96482
# Velocity P-wave (km/s) = 4.64057 5.88075 5.29708
#
# Compressibility (1/GPa) = 0.04018786
#
# Stress axis : x y z
#
# Youngs Moduli (GPa) = 79.75854 23.92899 60.14631
#
# Poissons Ratio (x) = 0.14507 0.24025
# Poissons Ratio (y) = 0.48355 0.32034
# Poissons Ratio (z) = 0.31859 0.12745
#
# Static dielectric constant tensor:
#      x y z
#    x 1.660580 0.000000 0.013150 
#    y 0.000000 1.620000 0.000000 
#    z 0.013150 0.000000 1.666810 
# 
# From -- ./inp_files/174179.got.cif
#   From: 2010.05.17/outbox.cif.g08.bks.cpg/sg12_88_cif.got.tgz:174179.got - 2010.06.03 13:09:07.
