data_PCOD9207266
_publ_section_title
;
Structure prediction by ZEFSAII (Michael W. Deem and Ramdas Pophale) SiO2 
 PCOD9207266
Probable space group: C 2/M
;
_chemical_formula_sum "Si O2"
_cell_formula_units_Z 40
_cell_length_a 15.180527
_cell_length_b 7.972049
_cell_length_c 20.588776
_cell_angle_alpha 90.000000
_cell_angle_beta 55.098435
_cell_angle_gamma 90.000000
_cell_volume 2043.493890
_symmetry_space_group_name_H-M "C 2/M"
_symmetry_group_IT_number 12
_symmetry_cell_setting 'monoclinic'
loop_
_space_group_symop_operation_xyz
x,y,z
-x,y,-z
-x,-y,-z
x,-y,z
1/2+x,1/2+y,z
1/2-x,1/2+y,-z
1/2-x,1/2-y,-z
1/2+x,1/2-y,z
loop_
_atom_site_type_symbol
_atom_site_label
_atom_site_fract_x
_atom_site_fract_y
_atom_site_fract_z
Si Si1 0.095501 0.301964 0.005439
Si Si2 0.904726 0.204915 0.588341
Si Si3 0.796554 0.298954 0.410133
Si Si4 0.331421 0.196935 0.885848
Si Si5 0.538997 0.696609 0.292520
O O1 0.072490 0.500000 0.022053
O O2 0.111141 0.235021 0.072663
O O3 0.214515 0.279259 0.925436
O O4 0.000000 0.231898 0.000000
O O5 0.791749 0.253322 0.605292
O O6 0.920605 0.263760 0.654967
O O7 0.000000 0.260795 0.500000
O O8 0.909824 0.000000 0.587217
O O9 0.807975 0.500000 0.403214
O O10 0.750000 0.250000 0.500000
O O11 0.911191 0.218823 0.348304
O O12 0.406240 0.219145 0.792175
O O13 0.310752 0.000000 0.905316
O O14 0.565511 0.500000 0.277675
#
# Coordination Sequence:
#
# PCOD9207266 Si02
#       5
#     8   8   8   8   8
#     4   9  19  38  63  85 111 150 188 219 269 341
#     4   9  18  35  56  76 103 145 189 224 271 333
#     4  11  21  36  57  80 107 142 188 235 281 328
#     4  10  21  37  57  86 118 144 181 233 280 323
#     4  11  22  38  58  80 112 151 190 230 276 333
#
# _framework density 19.574317000000001
#
# number of rings (size 3 to 8) (size 9 to 14) (size 15 to 20)
#    0.000    2.000    2.000    1.800    0.000    2.800 
#    0.000   13.000    0.000    0.000    0.000    0.000 
#    0.000    0.000    0.000    0.000    0.000    0.000 
#
# Total GULP energy -111636.002103 kJ/mol
# GULP energy per Si atom -5581.800105 kJ/mol
# Density = 1.952977 g / cm^3
# Si number density = 19.574317 Si / 1000 Ang^3
#
#
#
# Elastic Constant Matrix: (Units=GPa)
#
#
# Indices 1 2 3 4 5 6 
#
# 1 181.6785 -2.0365 66.1950 0.0000 6.1298 0.0000
# 2 -2.0365 19.7642 -14.8290 0.0000 6.9621 0.0001
# 3 66.1950 -14.8290 129.1209 0.0000 10.5095 0.0000
# 4 0.0000 0.0000 0.0000 30.4461 0.0000 -5.2527
# 5 6.1298 6.9621 10.5095 0.0000 16.5703 0.0000
# 6 0.0000 0.0001 0.0000 -5.2527 0.0000 19.8148
#
#
#
# Elastic Compliance Matrix: (Units=1/GPa)
#
#
# Indices 1 2 3 4 5 6 
#
# 1 0.006860 -0.002572 -0.003895 0.000000 0.001013 0.000000
# 2 -0.002572 0.073351 0.012836 0.000000 -0.038008 0.000000
# 3 -0.003895 0.012836 0.012165 0.000000 -0.011668 0.000000
# 4 0.000000 0.000000 0.000000 0.034419 0.000000 0.009124
# 5 0.001013 -0.038008 -0.011668 0.000000 0.083344 0.000000
# 6 0.000000 0.000000 0.000000 0.009124 0.000000 0.052886
#
#
# Mechanical properties :
#
#
# Convention : Reuss Voigt Hill
#
# Bulk Modulus (GPa) = 9.51337 47.69139 28.60238
# Shear Modulus (GPa) = 17.52383 32.11520 24.81951
#
# Velocity S-wave (km/s) = 2.99531 4.05493 3.56471
# Velocity P-wave (km/s) = 4.10283 6.80738 5.62021
#
# Compressibility (1/GPa) = 0.10511523
#
# Stress axis : x y z
#
# Youngs Moduli (GPa) = 145.76569 13.63304 82.20062
#
# Poissons Ratio (x) = 0.03507 0.32016
# Poissons Ratio (y) = 0.37496 -1.05517
# Poissons Ratio (z) = 0.56774 -0.17500
#
# Static dielectric constant tensor:
#      x y z
#    x 1.694510 0.000000 0.023750 
#    y 0.000000 1.725220 0.000000 
#    z 0.023750 0.000000 1.645950 
# 
# From -- ./inp_files/211211.got.cif
#   From: 2010.05.17/outbox.cif.g08.bks.cpg/sg12_106_cif.got.tgz:211211.got - 2010.06.03 13:09:07.
