data_PCOD9207170
_publ_section_title
;
Structure prediction by ZEFSAII (Michael W. Deem and Ramdas Pophale) SiO2 
 PCOD9207170
Probable space group: C 2/M
;
_chemical_formula_sum "Si O2"
_cell_formula_units_Z 56
_cell_length_a 11.602291
_cell_length_b 29.282008
_cell_length_c 13.756743
_cell_angle_alpha 90.000000
_cell_angle_beta 34.177985
_cell_angle_gamma 90.000000
_cell_volume 2625.519999
_symmetry_space_group_name_H-M "C 2/M"
_symmetry_group_IT_number 12
_symmetry_cell_setting 'monoclinic'
loop_
_space_group_symop_operation_xyz
x,y,z
-x,y,-z
-x,-y,-z
x,-y,z
1/2+x,1/2+y,z
1/2-x,1/2+y,-z
1/2-x,1/2-y,-z
1/2+x,1/2-y,z
loop_
_atom_site_type_symbol
_atom_site_label
_atom_site_fract_x
_atom_site_fract_y
_atom_site_fract_z
Si Si1 0.819478 0.445349 0.052027
Si Si2 0.129095 0.149344 0.812877
Si Si3 0.681329 0.549419 0.792158
Si Si4 0.044363 0.805673 0.679987
Si Si5 0.544355 0.399420 0.581777
Si Si6 0.028693 0.552700 0.706467
Si Si7 0.484398 0.780642 0.617565
O O1 0.807214 0.500000 0.061248
O O2 0.610201 0.426205 0.240251
O O3 0.000000 0.431111 0.000000
O O4 0.884402 0.432076 0.897502
O O5 0.168803 0.097858 0.747461
O O6 0.008660 0.176792 0.814010
O O7 0.330967 0.177516 0.704616
O O8 0.000000 0.145118 0.000000
O O9 0.670399 0.500000 0.747049
O O10 0.891526 0.551734 0.706115
O O11 0.500000 0.548006 0.000000
O O12 0.005911 0.846498 0.632443
O O13 0.290702 0.797332 0.508138
O O14 0.928865 0.759387 0.731222
O O15 0.500000 0.409745 0.500000
O O16 0.776626 0.415094 0.437880
O O17 0.094128 0.500000 0.681413
O O18 0.500000 0.757797 0.500000
#
# Coordination Sequence:
#
# PCOD9207170 Si02
#       7
#     8   8   8   8   8   8   8
#     4  10  21  37  57  82 120 167 210 256 318 377
#     4  10  21  37  62  90 121 159 202 256 315 371
#     4   9  19  36  60  88 123 166 207 254 311 373
#     4  10  22  38  60  88 115 157 206 246 316 378
#     4  12  23  36  59  90 123 159 209 261 311 379
#     4  10  21  38  59  85 120 166 212 259 317 372
#     4   9  19  41  64  82 116 158 199 252 314 378
#
# _framework density 21.329105999999999
#
# number of rings (size 3 to 8) (size 9 to 14) (size 15 to 20)
#    0.000    2.000    1.429    1.714    4.000    1.143 
#    0.000    1.429    0.000    5.571    0.000    0.000 
#    0.000    0.000    0.000    0.000    0.000    0.000 
#
# Total GULP energy -156393.583138 kJ/mol
# GULP energy per Si atom -5585.485112 kJ/mol
# Density = 2.128056 g / cm^3
# Si number density = 21.329106 Si / 1000 Ang^3
#
#
#
# Elastic Constant Matrix: (Units=GPa)
#
#
# Indices 1 2 3 4 5 6 
#
# 1 63.2457 28.4621 18.8517 0.0000 2.7668 0.0000
# 2 28.4621 110.7668 23.4085 0.0000 8.8799 0.0000
# 3 18.8517 23.4085 74.7898 0.0000 5.8510 0.0000
# 4 0.0000 0.0000 0.0000 21.3089 0.0000 10.4942
# 5 2.7668 8.8799 5.8510 0.0000 30.3415 0.0000
# 6 0.0000 0.0000 0.0000 10.4942 0.0000 29.6483
#
#
#
# Elastic Compliance Matrix: (Units=1/GPa)
#
#
# Indices 1 2 3 4 5 6 
#
# 1 0.018667 -0.004082 -0.003440 0.000000 0.000156 0.000000
# 2 -0.004082 0.010718 -0.002142 0.000000 -0.002352 0.000000
# 3 -0.003440 -0.002142 0.015062 0.000000 -0.001964 0.000000
# 4 0.000000 0.000000 0.000000 0.056836 0.000000 -0.020117
# 5 0.000156 -0.002352 -0.001964 0.000000 0.034011 0.000000
# 6 0.000000 0.000000 0.000000 -0.020117 0.000000 0.040849
#
#
# Mechanical properties :
#
#
# Convention : Reuss Voigt Hill
#
# Bulk Modulus (GPa) = 39.80961 43.36077 41.58519
# Shear Modulus (GPa) = 24.52862 28.13174 26.33018
#
# Velocity S-wave (km/s) = 3.39485 3.63566 3.51732
# Velocity P-wave (km/s) = 5.83710 6.16421 6.00288
#
# Compressibility (1/GPa) = 0.02511956
#
# Stress axis : x y z
#
# Youngs Moduli (GPa) = 53.57081 93.30075 66.39299
#
# Poissons Ratio (x) = 0.38086 0.22837
# Poissons Ratio (y) = 0.21868 0.14220
# Poissons Ratio (z) = 0.18427 0.19983
#
# Static dielectric constant tensor:
#      x y z
#    x 1.783760 0.000000 0.021480 
#    y 0.000000 1.799570 0.000000 
#    z 0.021480 0.000000 1.771820 
# 
# From -- ./inp_files/209989.got.cif
#   From: 2010.05.17/outbox.cif.g08.bks.cpg/sg12_105_cif.got.tgz:209989.got - 2010.06.03 13:09:07.
