data_PCOD9207226
_publ_section_title
;
Structure prediction by ZEFSAII (Michael W. Deem and Ramdas Pophale) SiO2 
 PCOD9207226
Probable space group: C 2/M
;
_chemical_formula_sum "Si O2"
_cell_formula_units_Z 64
_cell_length_a 14.278271
_cell_length_b 9.198104
_cell_length_c 24.681796
_cell_angle_alpha 90.000000
_cell_angle_beta 89.433319
_cell_angle_gamma 90.000000
_cell_volume 3241.376303
_symmetry_space_group_name_H-M "C 2/M"
_symmetry_group_IT_number 12
_symmetry_cell_setting 'monoclinic'
loop_
_space_group_symop_operation_xyz
x,y,z
-x,y,-z
-x,-y,-z
x,-y,z
1/2+x,1/2+y,z
1/2-x,1/2+y,-z
1/2-x,1/2-y,-z
1/2+x,1/2-y,z
loop_
_atom_site_type_symbol
_atom_site_label
_atom_site_fract_x
_atom_site_fract_y
_atom_site_fract_z
Si Si1 0.812350 0.825627 0.195063
Si Si2 0.751606 0.170806 0.913734
Si Si3 0.424144 0.332100 0.382468
Si Si4 0.812888 0.823337 0.713656
Si Si5 0.105560 0.671607 0.013093
Si Si6 0.027640 0.824409 0.733101
Si Si7 0.112489 0.333154 0.511630
Si Si8 0.351009 0.667287 0.594211
O O1 0.779357 0.753212 0.139979
O O2 0.752180 0.761522 0.244798
O O3 0.918365 0.786221 0.212533
O O4 0.804026 0.000000 0.191994
O O5 0.844784 0.238747 0.939657
O O6 0.764173 0.000000 0.902826
O O7 0.670621 0.187924 0.959610
O O8 0.392576 0.500000 0.384173
O O9 0.420123 0.269755 0.321623
O O10 0.376051 0.243270 0.430534
O O11 0.536549 0.332640 0.394014
O O12 0.804160 0.780509 0.650383
O O13 0.919307 0.786077 0.730656
O O14 0.801594 0.000000 0.717072
O O15 0.104356 0.500000 0.027296
O O16 0.000000 0.717416 0.000000
O O17 0.031192 0.000000 0.728073
O O18 0.139911 0.500000 0.513957
O O19 0.161079 0.255654 0.460626
O O20 0.000000 0.327161 0.500000
O O21 0.324712 0.500000 0.585755
#
# Coordination Sequence:
#
# PCOD9207226 Si02
#       8
#     8   8   8   8   8   8   8   8
#     4  11  22  36  55  80 111 145 181 223 269 311
#     4  10  21  37  57  84 117 150 185 220 258 311
#     4   8  13  25  44  63  86 122 168 210 254 315
#     4   9  18  35  55  75 101 136 181 226 269 322
#     4   9  19  38  63  89 118 149 181 222 267 305
#     4   8  17  34  54  74 100 138 180 221 267 324
#     4   9  15  21  34  62  96 123 153 203 265 321
#     4   8  14  25  43  64  88 123 166 210 257 317
#
# _framework density 19.744699000000001
#
# number of rings (size 3 to 8) (size 9 to 14) (size 15 to 20)
#    0.000    3.000    0.000    2.625    0.000    3.750 
#    0.000    6.875    0.000    0.750    0.000    0.000 
#    0.000    0.000    0.000    0.000    0.000    0.000 
#
# Total GULP energy -178590.771660 kJ/mol
# GULP energy per Si atom -5580.961614 kJ/mol
# Density = 1.969976 g / cm^3
# Si number density = 19.744699 Si / 1000 Ang^3
#
#
#
# Elastic Constant Matrix: (Units=GPa)
#
#
# Indices 1 2 3 4 5 6 
#
# 1 75.8995 13.2325 21.8164 0.0000 23.7232 0.0000
# 2 13.2325 61.2840 42.6807 0.0000 10.0901 0.0000
# 3 21.8164 42.6807 86.7673 0.0000 31.5872 0.0000
# 4 0.0000 0.0000 0.0000 23.8704 0.0000 -8.0922
# 5 23.7232 10.0901 31.5872 0.0000 26.6957 0.0000
# 6 0.0000 0.0000 0.0000 -8.0922 0.0000 10.9705
#
#
#
# Elastic Compliance Matrix: (Units=1/GPa)
#
#
# Indices 1 2 3 4 5 6 
#
# 1 0.019124 -0.004070 0.004954 0.000000 -0.021318 0.000000
# 2 -0.004070 0.026951 -0.017289 0.000000 0.013887 0.000000
# 3 0.004954 -0.017289 0.031634 0.000000 -0.035298 0.000000
# 4 0.000000 0.000000 0.000000 0.055862 0.000000 0.041206
# 5 -0.021318 0.013887 -0.035298 0.000000 0.092921 0.000000
# 6 0.000000 0.000000 0.000000 0.041206 0.000000 0.121549
#
#
# Mechanical properties :
#
#
# Convention : Reuss Voigt Hill
#
# Bulk Modulus (GPa) = 22.27199 42.15668 32.21433
# Shear Modulus (GPa) = 12.63209 22.05539 17.34374
#
# Velocity S-wave (km/s) = 2.53211 3.34582 2.96700
# Velocity P-wave (km/s) = 4.45570 6.02688 5.29984
#
# Compressibility (1/GPa) = 0.04489945
#
# Stress axis : x y z
#
# Youngs Moduli (GPa) = 52.29003 37.10468 31.61133
#
# Poissons Ratio (x) = 0.15100 -0.15661
# Poissons Ratio (y) = 0.21280 0.54654
# Poissons Ratio (z) = -0.25906 0.64152
#
# Static dielectric constant tensor:
#      x y z
#    x 1.741690 0.000000 0.018290 
#    y 0.000000 1.653990 0.000000 
#    z 0.018290 0.000000 1.678160 
# 
# From -- ./inp_files/338832.got.cif
#   From: 2010.05.17/outbox.cif.g08.bks.cpg/sg12_170_cif.got.tgz:338832.got - 2010.06.03 13:09:07.
