data_PCOD9207285
_publ_section_title
;
Structure prediction by ZEFSAII (Michael W. Deem and Ramdas Pophale) SiO2 
 PCOD9207285
Probable space group: C 2/M
;
_chemical_formula_sum "Si O2"
_cell_formula_units_Z 42
_cell_length_a 15.811904
_cell_length_b 8.866892
_cell_length_c 16.951959
_cell_angle_alpha 90.000000
_cell_angle_beta 104.065837
_cell_angle_gamma 90.000000
_cell_volume 2305.445559
_symmetry_space_group_name_H-M "C 2/M"
_symmetry_group_IT_number 12
_symmetry_cell_setting 'monoclinic'
loop_
_space_group_symop_operation_xyz
x,y,z
-x,y,-z
-x,-y,-z
x,-y,z
1/2+x,1/2+y,z
1/2-x,1/2+y,-z
1/2-x,1/2-y,-z
1/2+x,1/2-y,z
loop_
_atom_site_type_symbol
_atom_site_label
_atom_site_fract_x
_atom_site_fract_y
_atom_site_fract_z
Si Si1 0.497926 0.176773 0.091187
Si Si2 0.776644 0.820299 0.251365
Si Si3 0.600381 0.321031 0.254545
Si Si4 0.794745 0.677033 0.086273
Si Si5 0.000000 0.500000 0.500000
Si Si6 0.958089 0.666848 0.331760
O O1 0.559554 0.273776 0.160998
O O2 0.398995 0.189798 0.099180
O O3 0.524507 0.000000 0.101572
O O4 0.500000 0.221670 0.000000
O O5 0.695726 0.752089 0.280958
O O6 0.768053 0.762918 0.159443
O O7 0.868293 0.756300 0.303198
O O8 0.775187 0.000000 0.253591
O O9 0.605542 0.500000 0.262525
O O10 0.535111 0.252297 0.304416
O O11 0.772412 0.500000 0.086986
O O12 0.750000 0.750000 0.000000
O O13 0.981959 0.628675 0.427038
O O14 0.946225 0.500000 0.290027
#
# Coordination Sequence:
#
# PCOD9207285 Si02
#       6
#     8   8   8   8   2   8
#     4  10  21  37  57  87 129 178 226 277 327 380
#     4  12  24  40  66  97 133 179 224 272 327 398
#     4  12  24  39  66  99 132 177 223 271 331 401
#     4  11  22  36  57  89 133 180 228 282 325 381
#     4   8  24  44  82  96 134 166 208 280 346 412
#     4  10  21  45  71  98 130 166 214 268 343 399
#
# _framework density 18.217735999999999
#
# number of rings (size 3 to 8) (size 9 to 14) (size 15 to 20)
#    0.571    0.571    1.905    5.714    0.000    2.667 
#    0.000    2.857    0.000    0.000    0.000    0.000 
#    0.000    0.000    0.000    0.000    0.000    0.000 
#
# Total GULP energy -117102.304669 kJ/mol
# GULP energy per Si atom -5576.300222 kJ/mol
# Density = 1.817627 g / cm^3
# Si number density = 18.217736 Si / 1000 Ang^3
#
#
#
# Elastic Constant Matrix: (Units=GPa)
#
#
# Indices 1 2 3 4 5 6 
#
# 1 149.6925 87.0407 58.2831 0.0000 4.0847 0.0000
# 2 87.0407 176.1911 57.3421 0.0000 1.0122 0.0000
# 3 58.2831 57.3421 121.4079 0.0000 -5.1726 0.0000
# 4 0.0000 0.0000 0.0000 3.1966 0.0000 -1.1981
# 5 4.0847 1.0122 -5.1726 0.0000 5.0823 0.0000
# 6 0.0000 0.0000 0.0000 -1.1981 0.0000 29.7974
#
#
#
# Elastic Compliance Matrix: (Units=1/GPa)
#
#
# Indices 1 2 3 4 5 6 
#
# 1 0.010831 -0.004051 -0.003787 0.000000 -0.011752 0.000000
# 2 -0.004051 0.008334 -0.002011 0.000000 -0.000451 0.000000
# 3 -0.003787 -0.002011 0.011657 0.000000 0.015308 0.000000
# 4 0.000000 0.000000 0.000000 0.317623 0.000000 0.012772
# 5 -0.011752 -0.000451 0.015308 0.000000 0.221877 0.000000
# 6 0.000000 0.000000 0.000000 0.012772 0.000000 0.034073
#
#
# Mechanical properties :
#
#
# Convention : Reuss Voigt Hill
#
# Bulk Modulus (GPa) = 89.89277 94.73592 92.31434
# Shear Modulus (GPa) = 7.96433 23.92363 15.94398
#
# Velocity S-wave (km/s) = 2.09314 3.62775 2.96157
# Velocity P-wave (km/s) = 7.43588 8.34640 7.90426
#
# Compressibility (1/GPa) = 0.01112437
#
# Stress axis : x y z
#
# Youngs Moduli (GPa) = 92.32964 119.99504 85.78837
#
# Poissons Ratio (x) = 0.48604 0.32488
# Poissons Ratio (y) = 0.37398 0.17250
# Poissons Ratio (z) = 0.34965 0.24129
#
# Static dielectric constant tensor:
#      x y z
#    x 1.633580 0.000000 -0.000940 
#    y 0.000000 1.615940 0.000000 
#    z -0.000940 0.000000 1.599770 
# 
# From -- ./inp_files/267313.got.cif
#   From: 2010.05.17/outbox.cif.g08.bks.cpg/sg12_134_cif.got.tgz:267313.got - 2010.06.03 13:09:07.
