data_PCOD9207978
_publ_section_title
;
Structure prediction by ZEFSAII (Michael W. Deem and Ramdas Pophale) SiO2 
 PCOD9207978
Probable space group: C 2/M
;
_chemical_formula_sum "Si O2"
_cell_formula_units_Z 34
_cell_length_a 14.429365
_cell_length_b 7.404656
_cell_length_c 15.503048
_cell_angle_alpha 90.000000
_cell_angle_beta 124.706963
_cell_angle_gamma 90.000000
_cell_volume 1361.697252
_symmetry_space_group_name_H-M "C 2/M"
_symmetry_group_IT_number 12
_symmetry_cell_setting 'monoclinic'
loop_
_space_group_symop_operation_xyz
x,y,z
-x,y,-z
-x,-y,-z
x,-y,z
1/2+x,1/2+y,z
1/2-x,1/2+y,-z
1/2-x,1/2-y,-z
1/2+x,1/2-y,z
loop_
_atom_site_type_symbol
_atom_site_label
_atom_site_fract_x
_atom_site_fract_y
_atom_site_fract_z
Si Si1 0.500000 0.000000 0.500000
Si Si2 0.618238 0.780089 0.020160
Si Si3 0.138481 0.791716 0.828797
Si Si4 0.836428 0.792745 0.421547
Si Si5 0.102888 0.782143 0.351836
O O1 0.584039 0.842186 0.585363
O O2 0.736594 0.719933 0.126491
O O3 0.619850 0.000000 0.019452
O O4 0.500000 0.723865 0.000000
O O5 0.626879 0.713908 0.926491
O O6 0.020080 0.711987 0.735657
O O7 0.138528 0.000000 0.798496
O O8 0.860674 0.724072 0.532844
O O9 0.702382 0.777792 0.340611
O O10 0.868866 0.000000 0.428698
O O11 0.103414 0.000000 0.351539
#
# Coordination Sequence:
#
# PCOD9207978 Si02
#       5
#     2   8   8   8   8
#     4  12  22  40  56  90 120 152 186 256 280 342
#     4   9  18  34  53  79 112 147 187 236 285 343
#     4   9  18  34  57  79 110 148 188 234 291 343
#     4  10  21  37  61  83 119 155 194 235 291 341
#     4   9  18  37  57  81 110 157 197 237 285 353
#
# _framework density 24.968838000000002
#
# number of rings (size 3 to 8) (size 9 to 14) (size 15 to 20)
#    0.000    2.588    1.176    0.353    1.647    1.412 
#    4.235    0.000    0.000    0.000    0.000    0.000 
#    0.000    0.000    0.000    0.000    0.000    0.000 
#
# Total GULP energy -94719.956587 kJ/mol
# GULP energy per Si atom -5571.762152 kJ/mol
# Density = 2.491201 g / cm^3
# Si number density = 24.968838 Si / 1000 Ang^3
#
#
#
# Elastic Constant Matrix: (Units=GPa)
#
#
# Indices 1 2 3 4 5 6 
#
# 1 176.3602 15.2050 64.7165 0.0000 63.9469 0.0000
# 2 15.2050 114.3945 6.8033 0.0000 16.2501 0.0000
# 3 64.7165 6.8033 107.8940 0.0000 58.0385 0.0000
# 4 0.0000 0.0000 0.0000 7.9029 0.0000 2.0852
# 5 63.9469 16.2501 58.0385 0.0000 59.3826 0.0000
# 6 0.0000 0.0000 0.0000 2.0852 0.0000 -25.5630
#
#
#
# Elastic Compliance Matrix: (Units=1/GPa)
#
#
# Indices 1 2 3 4 5 6 
#
# 1 0.009314 0.000163 -0.000375 0.000000 -0.009708 0.000000
# 2 0.000163 0.009233 0.001631 0.000000 -0.004297 0.000000
# 3 -0.000375 0.001631 0.019849 0.000000 -0.019442 0.000000
# 4 0.000000 0.000000 0.000000 0.123870 0.000000 0.010104
# 5 -0.009708 -0.004297 -0.019442 0.000000 0.047473 0.000000
# 6 0.000000 0.000000 0.000000 0.010104 0.000000 -0.038295
#
#
# Mechanical properties :
#
#
# Convention : Reuss Voigt Hill
#
# Bulk Modulus (GPa) = 24.25075 63.56647 43.90861
# Shear Modulus (GPa) = 27.42003 29.13944 28.27974
#
# Velocity S-wave (km/s) = 3.31746 3.41989 3.36907
# Velocity P-wave (km/s) = 4.94040 6.41154 5.72343
#
# Compressibility (1/GPa) = 0.04123584
#
# Stress axis : x y z
#
# Youngs Moduli (GPa) = 107.36894 108.30311 50.38116
#
# Poissons Ratio (x) = -0.01770 0.01887
# Poissons Ratio (y) = -0.01754 -0.08218
# Poissons Ratio (z) = 0.04022 -0.17666
#
# Static dielectric constant tensor:
#      x y z
#    x 2.131400 0.000000 -0.024340 
#    y 0.000000 1.940580 0.000000 
#    z -0.024340 0.000000 2.064250 
# 
# From -- ./inp_files/266890.got.cif
#   From: 2010.05.17/outbox.cif.g08.bks.cpg/sg12_134_cif.got.tgz:266890.got - 2010.06.03 13:09:07.
