data_PCOD9207841
_publ_section_title
;
Structure prediction by ZEFSAII (Michael W. Deem and Ramdas Pophale) SiO2 
 PCOD9207841
Probable space group: C 2/M
;
_chemical_formula_sum "Si O2"
_cell_formula_units_Z 48
_cell_length_a 19.153921
_cell_length_b 14.093176
_cell_length_c 18.764760
_cell_angle_alpha 90.000000
_cell_angle_beta 149.797212
_cell_angle_gamma 90.000000
_cell_volume 2548.185828
_symmetry_space_group_name_H-M "C 2/M"
_symmetry_group_IT_number 12
_symmetry_cell_setting 'monoclinic'
loop_
_space_group_symop_operation_xyz
x,y,z
-x,y,-z
-x,-y,-z
x,-y,z
1/2+x,1/2+y,z
1/2-x,1/2+y,-z
1/2-x,1/2-y,-z
1/2+x,1/2-y,z
loop_
_atom_site_type_symbol
_atom_site_label
_atom_site_fract_x
_atom_site_fract_y
_atom_site_fract_z
Si Si1 0.147174 0.266154 0.165827
Si Si2 0.993893 0.706027 0.169784
Si Si3 0.244899 0.112529 0.867884
Si Si4 0.521244 0.388727 0.274558
Si Si5 0.650981 0.889304 0.598401
Si Si6 0.839825 0.387008 0.558640
O O1 0.103359 0.311258 0.202739
O O2 0.224146 0.337271 0.179895
O O3 0.241671 0.176092 0.265293
O O4 0.000000 0.240072 0.000000
O O5 0.053219 0.662244 0.294436
O O6 0.983536 0.818290 0.176670
O O7 0.850670 0.660158 0.017652
O O8 0.089861 0.126226 0.760820
O O9 0.272245 0.000000 0.887447
O O10 0.516150 0.500000 0.249356
O O11 0.679313 0.367190 0.436622
O O12 0.500000 0.881462 0.500000
O O13 0.643923 0.859057 0.509507
O O14 0.693286 0.000000 0.636983
O O15 0.861251 0.500000 0.582143
#
# Coordination Sequence:
#
# PCOD9207841 Si02
#       6
#     8   8   8   8   8   8
#     4  10  23  38  60  87 116 159 195 236 294 347
#     4  11  21  37  63  88 114 154 198 240 291 348
#     4  10  23  41  59  86 121 156 196 242 289 345
#     4  10  21  38  59  86 121 152 190 243 293 344
#     4  10  22  40  59  85 120 154 194 245 293 346
#     4  10  21  37  60  88 116 152 194 242 297 347
#
# _framework density 18.836931
#
# number of rings (size 3 to 8) (size 9 to 14) (size 15 to 20)
#    0.000    1.833    1.667    1.500    2.333    4.000 
#    0.000    2.500    0.000    3.500    0.000    0.000 
#    0.000    0.000    0.000    0.000    0.000    0.000 
#
# Total GULP energy -134018.858703 kJ/mol
# GULP energy per Si atom -5584.119113 kJ/mol
# Density = 1.879406 g / cm^3
# Si number density = 18.836931 Si / 1000 Ang^3
#
#
#
# Elastic Constant Matrix: (Units=GPa)
#
#
# Indices 1 2 3 4 5 6 
#
# 1 104.9519 37.2637 37.9311 0.0000 4.3300 0.0000
# 2 37.2637 58.4646 31.5759 -0.0001 -8.3700 0.0000
# 3 37.9311 31.5759 46.1777 -0.0001 -2.9488 -0.0001
# 4 0.0000 -0.0001 -0.0001 27.7475 -0.0001 -1.9632
# 5 4.3300 -8.3700 -2.9488 -0.0001 27.4730 -0.0001
# 6 0.0000 0.0000 -0.0001 -1.9632 -0.0001 23.3892
#
#
#
# Elastic Compliance Matrix: (Units=1/GPa)
#
#
# Indices 1 2 3 4 5 6 
#
# 1 0.014832 -0.005405 -0.008802 0.000000 -0.004929 0.000000
# 2 -0.005405 0.030224 -0.015692 0.000000 0.008376 0.000000
# 3 -0.008802 -0.015692 0.039670 0.000000 0.000865 0.000000
# 4 0.000000 0.000000 0.000000 0.036255 0.000000 0.003043
# 5 -0.004929 0.008376 0.000865 0.000000 0.039821 0.000000
# 6 0.000000 0.000000 0.000000 0.003043 0.000000 0.043010
#
#
# Mechanical properties :
#
#
# Convention : Reuss Voigt Hill
#
# Bulk Modulus (GPa) = 40.11521 47.01509 43.56515
# Shear Modulus (GPa) = 18.38787 22.57683 20.48235
#
# Velocity S-wave (km/s) = 3.12775 3.46575 3.30108
# Velocity P-wave (km/s) = 5.86396 6.40534 6.14062
#
# Compressibility (1/GPa) = 0.02492820
#
# Stress axis : x y z
#
# Youngs Moduli (GPa) = 67.42259 33.08677 25.20770
#
# Poissons Ratio (x) = 0.17885 0.22187
# Poissons Ratio (y) = 0.36445 0.39555
# Poissons Ratio (z) = 0.59343 0.51919
#
# Static dielectric constant tensor:
#      x y z
#    x 1.656860 0.000000 0.010640 
#    y 0.000000 1.665790 0.000000 
#    z 0.010640 0.000000 1.623150 
# 
# From -- ./inp_files/111759.got.cif
#   From: 2010.05.17/outbox.cif.g08.bks.cpg/sg12_56_cif.got.tgz:111759.got - 2010.06.03 13:09:07.
