data_PCOD9207755
_publ_section_title
;
Structure prediction by ZEFSAII (Michael W. Deem and Ramdas Pophale) SiO2 
 PCOD9207755
Probable space group: C 2/M
;
_chemical_formula_sum "Si O2"
_cell_formula_units_Z 40
_cell_length_a 21.426587
_cell_length_b 8.581672
_cell_length_c 32.035482
_cell_angle_alpha 90.000000
_cell_angle_beta 161.053138
_cell_angle_gamma 90.000000
_cell_volume 1912.610650
_symmetry_space_group_name_H-M "C 2/M"
_symmetry_group_IT_number 12
_symmetry_cell_setting 'monoclinic'
loop_
_space_group_symop_operation_xyz
x,y,z
-x,y,-z
-x,-y,-z
x,-y,z
1/2+x,1/2+y,z
1/2-x,1/2+y,-z
1/2-x,1/2-y,-z
1/2+x,1/2-y,z
loop_
_atom_site_type_symbol
_atom_site_label
_atom_site_fract_x
_atom_site_fract_y
_atom_site_fract_z
Si Si1 0.479932 0.815401 0.343563
Si Si2 0.177119 0.683043 0.385575
Si Si3 0.070459 0.685266 0.911845
Si Si4 0.223013 0.684807 0.639410
Si Si5 0.066994 0.312085 0.088505
O O1 0.630284 0.719776 0.466327
O O2 0.512617 0.776090 0.315263
O O3 0.268470 0.771487 0.223469
O O4 0.518790 0.000000 0.373068
O O5 0.164276 0.500000 0.367498
O O6 0.190336 0.777927 0.351383
O O7 0.077897 0.500000 0.914037
O O8 0.868215 0.739874 0.764269
O O9 0.073860 0.730846 0.962778
O O10 0.250000 0.750000 0.000000
O O11 0.219936 0.500000 0.644583
O O12 0.000000 0.740635 0.500000
O O13 0.093800 0.500000 0.106365
O O14 0.000000 0.268423 0.000000
#
# Coordination Sequence:
#
# PCOD9207755 Si02
#       5
#     8   8   8   8   8
#     4  10  21  37  59  91 125 160 204 257 312 369
#     4  10  21  37  60  91 124 162 204 254 313 374
#     4  11  25  44  66  95 132 172 215 265 320 383
#     4  11  24  41  64  93 127 168 214 265 320 379
#     4  10  23  42  64  90 122 165 210 256 312 372
#
# _framework density 20.913822
#
# number of rings (size 3 to 8) (size 9 to 14) (size 15 to 20)
#    0.000    1.600    0.000    3.600    2.800    9.200 
#    0.000    0.000    0.000    0.000    0.000    0.000 
#    0.000    0.000    0.000    0.000    0.000    0.000 
#
# Total GULP energy -111801.880364 kJ/mol
# GULP energy per Si atom -5590.094018 kJ/mol
# Density = 2.086622 g / cm^3
# Si number density = 20.913822 Si / 1000 Ang^3
#
#
#
# Elastic Constant Matrix: (Units=GPa)
#
#
# Indices 1 2 3 4 5 6 
#
# 1 152.8601 35.1252 48.7244 0.0010 0.5250 -0.0007
# 2 35.1252 17.1414 14.8654 0.0003 4.6464 -0.0009
# 3 48.7244 14.8654 66.9151 0.0235 5.7775 -0.0080
# 4 0.0010 0.0003 0.0235 26.4936 -0.0044 2.3716
# 5 0.5250 4.6464 5.7775 -0.0044 32.7280 0.0001
# 6 -0.0007 -0.0009 -0.0080 2.3716 0.0001 29.0593
#
#
#
# Elastic Compliance Matrix: (Units=1/GPa)
#
#
# Indices 1 2 3 4 5 6 
#
# 1 0.013931 -0.025495 -0.004847 0.000005 0.004252 -0.000002
# 2 -0.025495 0.120800 -0.006932 0.000003 -0.015517 0.000001
# 3 -0.004847 -0.006932 0.020230 -0.000019 -0.002509 0.000007
# 4 0.000005 0.000003 -0.000019 0.038023 0.000008 -0.003103
# 5 0.004252 -0.015517 -0.002509 0.000008 0.033133 -0.000002
# 6 -0.000002 0.000001 0.000007 -0.003103 -0.000002 0.034666
#
#
# Mechanical properties :
#
#
# Convention : Reuss Voigt Hill
#
# Bulk Modulus (GPa) = 12.43589 48.26075 30.34832
# Shear Modulus (GPa) = 13.80705 26.86962 20.33834
#
# Velocity S-wave (km/s) = 2.57220 3.58827 3.12185
# Velocity P-wave (km/s) = 3.84458 6.34773 5.24759
#
# Compressibility (1/GPa) = 0.08041242
#
# Stress axis : x y z
#
# Youngs Moduli (GPa) = 71.78335 8.27818 49.43090
#
# Poissons Ratio (x) = 0.21105 0.23959
# Poissons Ratio (y) = 1.83014 0.34264
# Poissons Ratio (z) = 0.34793 0.05738
#
# Static dielectric constant tensor:
#      x y z
#    x 1.791000 0.000000 -0.011100 
#    y 0.000000 1.704650 -0.000010 
#    z -0.011100 -0.000010 1.733060 
# 
# From -- ./inp_files/229650.got.cif
#   From: 2010.05.17/outbox.cif.g08.bks.cpg/sg12_115_cif.got.tgz:229650.got - 2010.06.03 13:09:07.
