data_PCOD9207784
_publ_section_title
;
Structure prediction by ZEFSAII (Michael W. Deem and Ramdas Pophale) SiO2 
 PCOD9207784
Probable space group: C 2/M
;
_chemical_formula_sum "Si O2"
_cell_formula_units_Z 60
_cell_length_a 19.308226
_cell_length_b 9.430291
_cell_length_c 22.485790
_cell_angle_alpha 90.000000
_cell_angle_beta 138.644406
_cell_angle_gamma 90.000000
_cell_volume 2705.202914
_symmetry_space_group_name_H-M "C 2/M"
_symmetry_group_IT_number 12
_symmetry_cell_setting 'monoclinic'
loop_
_space_group_symop_operation_xyz
x,y,z
-x,y,-z
-x,-y,-z
x,-y,z
1/2+x,1/2+y,z
1/2-x,1/2+y,-z
1/2-x,1/2-y,-z
1/2+x,1/2-y,z
loop_
_atom_site_type_symbol
_atom_site_label
_atom_site_fract_x
_atom_site_fract_y
_atom_site_fract_z
Si Si1 0.860808 0.163447 0.863004
Si Si2 0.309934 0.668445 0.952605
Si Si3 0.885697 0.172995 0.746414
Si Si4 0.386448 0.164786 0.325655
Si Si5 0.097122 0.237819 0.419861
Si Si6 0.388729 0.332881 0.137988
Si Si7 0.259097 0.500000 0.528550
Si Si8 0.671726 0.335302 0.597358
O O1 0.877810 0.222265 0.940163
O O2 0.901032 0.218339 0.825820
O O3 0.733565 0.168524 0.774114
O O4 0.896840 0.000000 0.886948
O O5 0.294295 0.500000 0.933739
O O6 0.198427 0.745565 0.883736
O O7 0.361849 0.685417 0.050394
O O8 0.781937 0.254219 0.660221
O O9 0.990643 0.210365 0.779212
O O10 0.868242 0.000000 0.734259
O O11 0.474100 0.226891 0.338318
O O12 0.385320 0.252636 0.386338
O O13 0.411985 0.000000 0.354303
O O14 0.168055 0.377415 0.463220
O O15 0.114446 0.174370 0.497566
O O16 0.148709 0.122739 0.410614
O O17 0.379670 0.500000 0.145827
O O18 0.687218 0.500000 0.622829
#
# Coordination Sequence:
#
# PCOD9207784 Si02
#       8
#     8   8   8   8   8   8   4   8
#     4   8  16  33  53  79 105 135 178 221 261 312
#     4   9  17  32  54  78 108 143 177 215 264 322
#     4   9  19  36  55  78 108 139 180 228 273 323
#     4  10  21  37  60  82 108 142 182 226 273 328
#     4  11  22  41  57  80 111 147 185 224 275 323
#     4   9  18  33  52  79 108 140 180 218 263 324
#     4  10  24  40  56  78 114 146 180 230 268 328
#     4  11  23  37  58  82 107 138 186 236 273 324
#
# _framework density 22.179482
#
# number of rings (size 3 to 8) (size 9 to 14) (size 15 to 20)
#    0.000    2.400    1.333    1.600    2.800    2.133 
#    4.800    5.333    0.000    0.000    0.000    7.467 
#    0.000    0.000    0.000    0.000    0.000    0.000 
#
# Total GULP energy -167053.843826 kJ/mol
# GULP energy per Si atom -5568.461461 kJ/mol
# Density = 2.212900 g / cm^3
# Si number density = 22.179482 Si / 1000 Ang^3
#
#
#
# Elastic Constant Matrix: (Units=GPa)
#
#
# Indices 1 2 3 4 5 6 
#
# 1 100.9556 35.0135 19.9595 0.0000 15.6703 0.0000
# 2 35.0135 89.2567 5.6819 0.0000 14.8905 0.0000
# 3 19.9595 5.6819 43.2994 0.0000 12.9102 0.0000
# 4 0.0000 0.0000 0.0000 14.4046 0.0000 7.1494
# 5 15.6703 14.8905 12.9102 0.0000 53.0374 0.0000
# 6 0.0000 0.0000 0.0000 7.1494 0.0000 13.0070
#
#
#
# Elastic Compliance Matrix: (Units=1/GPa)
#
#
# Indices 1 2 3 4 5 6 
#
# 1 0.012596 -0.004415 -0.004838 0.000000 -0.001304 0.000000
# 2 -0.004415 0.013317 0.001093 0.000000 -0.002700 0.000000
# 3 -0.004838 0.001093 0.026791 0.000000 -0.005399 0.000000
# 4 0.000000 0.000000 0.000000 0.095467 0.000000 -0.052475
# 5 -0.001304 -0.002700 -0.005399 0.000000 0.021312 0.000000
# 6 0.000000 0.000000 0.000000 -0.052475 0.000000 0.105725
#
#
# Mechanical properties :
#
#
# Convention : Reuss Voigt Hill
#
# Bulk Modulus (GPa) = 27.48531 39.42460 33.45495
# Shear Modulus (GPa) = 16.46594 27.61356 22.03975
#
# Velocity S-wave (km/s) = 2.72765 3.53229 3.15572
# Velocity P-wave (km/s) = 4.72644 5.86941 5.32866
#
# Compressibility (1/GPa) = 0.03638307
#
# Stress axis : x y z
#
# Youngs Moduli (GPa) = 79.39259 75.09410 37.32534
#
# Poissons Ratio (x) = 0.33158 0.18058
# Poissons Ratio (y) = 0.35056 -0.04080
# Poissons Ratio (z) = 0.38409 -0.08208
#
# Static dielectric constant tensor:
#      x y z
#    x 1.866560 0.000000 -0.057980 
#    y 0.000000 1.743350 0.000000 
#    z -0.057980 0.000000 1.878410 
# 
# From -- ./inp_files/365437.got.cif
#   From: 2010.05.17/outbox.cif.g08.bks.cpg/sg12_183_cif.got.tgz:365437.got - 2010.06.03 13:09:07.
