data_PCOD9207057
_publ_section_title
;
Structure prediction by ZEFSAII (Michael W. Deem and Ramdas Pophale) SiO2 
 PCOD9207057
Probable space group: C 2/M
;
_chemical_formula_sum "Si O2"
_cell_formula_units_Z 28
_cell_length_a 7.858930
_cell_length_b 13.068791
_cell_length_c 12.211927
_cell_angle_alpha 90.000000
_cell_angle_beta 114.037128
_cell_angle_gamma 90.000000
_cell_volume 1145.480729
_symmetry_space_group_name_H-M "C 2/M"
_symmetry_group_IT_number 12
_symmetry_cell_setting 'monoclinic'
loop_
_space_group_symop_operation_xyz
x,y,z
-x,y,-z
-x,-y,-z
x,-y,z
1/2+x,1/2+y,z
1/2-x,1/2+y,-z
1/2-x,1/2-y,-z
1/2+x,1/2-y,z
loop_
_atom_site_type_symbol
_atom_site_label
_atom_site_fract_x
_atom_site_fract_y
_atom_site_fract_z
Si Si1 0.542312 0.109081 0.139880
Si Si2 0.102299 0.885980 0.366619
Si Si3 0.648344 0.669349 0.138331
Si Si4 0.000000 0.711535 0.500000
O O1 0.661132 0.211538 0.175973
O O2 0.346890 0.128468 0.150117
O O3 0.622767 0.000000 0.198391
O O4 0.500000 0.101270 0.000000
O O5 0.078120 0.884180 0.229446
O O6 0.318880 0.858950 0.447317
O O7 0.003108 0.790803 0.399548
O O8 0.057450 0.000000 0.394434
O O9 0.500000 0.660168 0.000000
#
# Coordination Sequence:
#
# PCOD9207057 Si02
#       4
#     8   8   8   4
#     4  10  21  37  56  82 122 166 200 236 290 356
#     4  11  23  42  66  90 122 161 202 253 305 355
#     4  11  22  39  62  93 128 158 197 248 304 370
#     4  10  24  44  64  90 118 158 214 256 292 352
#
# _framework density 24.443884000000001
#
# number of rings (size 3 to 8) (size 9 to 14) (size 15 to 20)
#    0.000    1.429    0.000    6.857    0.000    2.286 
#    0.000   15.714    0.000    0.857    0.000    0.000 
#    0.000    0.000    0.000    0.000    0.000    0.000 
#
# Total GULP energy -78365.282188 kJ/mol
# GULP energy per Si atom -5597.520156 kJ/mol
# Density = 2.438825 g / cm^3
# Si number density = 24.443884 Si / 1000 Ang^3
#
#
#
# Elastic Constant Matrix: (Units=GPa)
#
#
# Indices 1 2 3 4 5 6 
#
# 1 76.8440 14.0990 41.3076 0.0000 -16.7700 0.0000
# 2 14.0990 170.5874 23.6783 0.0000 -1.3569 0.0000
# 3 41.3076 23.6783 129.2995 0.0000 -6.8756 0.0000
# 4 0.0000 0.0000 0.0000 24.9901 0.0000 20.3804
# 5 -16.7700 -1.3569 -6.8756 0.0000 48.9356 0.0000
# 6 0.0000 0.0000 0.0000 20.3804 0.0000 94.1323
#
#
#
# Elastic Compliance Matrix: (Units=1/GPa)
#
#
# Indices 1 2 3 4 5 6 
#
# 1 0.016943 -0.000663 -0.005021 0.000000 0.005083 0.000000
# 2 -0.000663 0.006041 -0.000904 0.000000 -0.000187 0.000000
# 3 -0.005021 -0.000904 0.009482 0.000000 -0.000414 0.000000
# 4 0.000000 0.000000 0.000000 0.048596 0.000000 -0.010522
# 5 0.005083 -0.000187 -0.000414 0.000000 0.022113 0.000000
# 6 0.000000 0.000000 0.000000 -0.010522 0.000000 0.012901
#
#
# Mechanical properties :
#
#
# Convention : Reuss Voigt Hill
#
# Bulk Modulus (GPa) = 51.84345 59.43342 55.63843
# Shear Modulus (GPa) = 36.85025 53.45467 45.15246
#
# Velocity S-wave (km/s) = 3.88692 4.68143 4.30256
# Velocity P-wave (km/s) = 6.43424 7.32039 6.89157
#
# Compressibility (1/GPa) = 0.01928884
#
# Stress axis : x y z
#
# Youngs Moduli (GPa) = 59.02006 165.53713 105.46560
#
# Poissons Ratio (x) = 0.10975 0.52957
# Poissons Ratio (y) = 0.03913 0.09538
# Poissons Ratio (z) = 0.29636 0.14971
#
# Static dielectric constant tensor:
#      x y z
#    x 1.942030 0.000000 -0.006150 
#    y 0.000000 1.962810 0.000000 
#    z -0.006150 0.000000 1.915840 
# 
# From -- ./inp_files/117576.got.cif
#   From: 2010.05.17/outbox.cif.g08.bks.cpg/sg12_59_cif.got.tgz:117576.got - 2010.06.03 13:09:07.
