data_PCOD9207866
_publ_section_title
;
Structure prediction by ZEFSAII (Michael W. Deem and Ramdas Pophale) SiO2 
 PCOD9207866
Probable space group: C 2/M
;
_chemical_formula_sum "Si O2"
_cell_formula_units_Z 42
_cell_length_a 17.568499
_cell_length_b 10.877966
_cell_length_c 9.003095
_cell_angle_alpha 90.000000
_cell_angle_beta 61.512729
_cell_angle_gamma 90.000000
_cell_volume 1512.255128
_symmetry_space_group_name_H-M "C 2/M"
_symmetry_group_IT_number 12
_symmetry_cell_setting 'monoclinic'
loop_
_space_group_symop_operation_xyz
x,y,z
-x,y,-z
-x,-y,-z
x,-y,z
1/2+x,1/2+y,z
1/2-x,1/2+y,-z
1/2-x,1/2-y,-z
1/2+x,1/2-y,z
loop_
_atom_site_type_symbol
_atom_site_label
_atom_site_fract_x
_atom_site_fract_y
_atom_site_fract_z
Si Si1 0.445359 0.629989 0.849749
Si Si2 0.823521 0.638630 0.975592
Si Si3 0.359524 0.000000 0.687132
Si Si4 0.042931 0.500000 0.681973
Si Si5 0.500000 0.500000 0.500000
Si Si6 0.210315 0.146556 0.336854
Si Si7 0.111025 0.746686 0.695538
O O1 0.408508 0.500000 0.938493
O O2 0.388617 0.749566 0.939874
O O3 0.461308 0.605162 0.655868
O O4 0.545063 0.649463 0.810728
O O5 0.855086 0.500000 0.998831
O O6 0.814771 0.614648 0.806896
O O7 0.731259 0.647176 0.141887
O O8 0.456526 0.000000 0.665207
O O9 0.371251 0.000000 0.503601
O O10 0.052129 0.625653 0.757198
O O11 0.139179 0.214895 0.502104
O O12 0.300735 0.206757 0.308620
O O13 0.199753 0.000000 0.385577
#
# Coordination Sequence:
#
# PCOD9207866 Si02
#       7
#     8   8   4   4   2   8   8
#     4  10  21  37  60  89 113 157 196 238 301 340
#     4   9  19  38  61  85 120 155 192 245 295 343
#     4   9  20  33  62  84 118 141 197 251 286 334
#     4  11  20  33  59  92 112 146 208 244 280 347
#     4   8  24  36  60  86 128 148 200 234 306 348
#     4  10  22  40  59  83 123 157 198 243 293 349
#     4  11  21  37  60  87 114 160 200 241 287 353
#
# _framework density 27.77309
#
# number of rings (size 3 to 8) (size 9 to 14) (size 15 to 20)
#    1.143    0.952    2.857    0.571    2.667    0.762 
#    1.714    4.762    4.190    0.000    0.000    0.000 
#    0.000    0.000    0.000    0.000    0.000    0.000 
#
# Total GULP energy -116992.254189 kJ/mol
# GULP energy per Si atom -5571.059723 kJ/mol
# Density = 2.770988 g / cm^3
# Si number density = 27.773090 Si / 1000 Ang^3
#
#
#
# Elastic Constant Matrix: (Units=GPa)
#
#
# Indices 1 2 3 4 5 6 
#
# 1 67.0359 35.1073 -4.9620 0.0000 -10.5374 0.0000
# 2 35.1073 209.9386 41.8489 0.0000 -35.5915 0.0000
# 3 -4.9620 41.8489 138.0186 0.0000 -14.5343 0.0000
# 4 0.0000 0.0000 0.0000 49.6793 0.0000 -14.5656
# 5 -10.5374 -35.5915 -14.5343 0.0000 33.7097 0.0000
# 6 0.0000 0.0000 0.0000 -14.5656 0.0000 37.8182
#
#
#
# Elastic Compliance Matrix: (Units=1/GPa)
#
#
# Indices 1 2 3 4 5 6 
#
# 1 0.016937 -0.002626 0.001750 0.000000 0.003277 0.000000
# 2 -0.002626 0.006394 -0.001476 0.000000 0.005294 0.000000
# 3 0.001750 -0.001476 0.008013 0.000000 0.002444 0.000000
# 4 0.000000 0.000000 0.000000 0.022692 0.000000 0.008740
# 5 0.003277 0.005294 0.002444 0.000000 0.037333 0.000000
# 6 0.000000 0.000000 0.000000 0.008740 0.000000 0.029808
#
#
# Mechanical properties :
#
#
# Convention : Reuss Voigt Hill
#
# Bulk Modulus (GPa) = 37.53502 62.10907 49.82204
# Shear Modulus (GPa) = 37.10308 47.10803 42.10556
#
# Velocity S-wave (km/s) = 3.65901 4.12293 3.89788
# Velocity P-wave (km/s) = 5.60316 6.71389 6.18352
#
# Compressibility (1/GPa) = 0.02664179
#
# Stress axis : x y z
#
# Youngs Moduli (GPa) = 59.04203 156.39571 124.79530
#
# Poissons Ratio (x) = 0.41065 -0.21841
# Poissons Ratio (y) = 0.15503 0.18416
# Poissons Ratio (z) = -0.10333 0.23079
#
# Static dielectric constant tensor:
#      x y z
#    x 2.294150 0.000000 0.106690 
#    y 0.000000 2.205300 0.000000 
#    z 0.106690 0.000000 2.249160 
# 
# From -- ./inp_files/173728.got.cif
#   From: 2010.05.17/outbox.cif.g08.bks.cpg/sg12_87_cif.got.tgz:173728.got - 2010.06.03 13:09:07.
