data_PCOD9207800
_publ_section_title
;
Structure prediction by ZEFSAII (Michael W. Deem and Ramdas Pophale) SiO2 
 PCOD9207800
Probable space group: C 2/M
;
_chemical_formula_sum "Si O2"
_cell_formula_units_Z 56
_cell_length_a 31.461820
_cell_length_b 7.802535
_cell_length_c 12.979778
_cell_angle_alpha 90.000000
_cell_angle_beta 121.877565
_cell_angle_gamma 90.000000
_cell_volume 2705.738633
_symmetry_space_group_name_H-M "C 2/M"
_symmetry_group_IT_number 12
_symmetry_cell_setting 'monoclinic'
loop_
_space_group_symop_operation_xyz
x,y,z
-x,y,-z
-x,-y,-z
x,-y,z
1/2+x,1/2+y,z
1/2-x,1/2+y,-z
1/2-x,1/2-y,-z
1/2+x,1/2-y,z
loop_
_atom_site_type_symbol
_atom_site_label
_atom_site_fract_x
_atom_site_fract_y
_atom_site_fract_z
Si Si1 0.079837 0.500000 0.557981
Si Si2 0.609480 0.292860 0.278372
Si Si3 0.106160 0.203479 0.050176
Si Si4 0.005473 0.202895 0.820286
Si Si5 0.288261 0.800027 0.203353
Si Si6 0.473479 0.000000 0.308935
Si Si7 0.816716 0.299453 0.019108
Si Si8 0.642964 0.696832 0.541003
O O1 0.072488 0.500000 0.671058
O O2 0.107252 0.329363 0.554187
O O3 0.025322 0.500000 0.437503
O O4 0.610740 0.500000 0.272058
O O5 0.623652 0.226925 0.183301
O O6 0.551496 0.247747 0.226690
O O7 0.642277 0.247517 0.420223
O O8 0.134614 0.277924 0.988254
O O9 0.115902 0.000000 0.058528
O O10 0.046333 0.225069 0.962882
O O11 0.024769 0.328989 0.756682
O O12 0.005807 0.000000 0.793142
O O13 0.230110 0.782467 0.100697
O O14 0.305634 0.707835 0.329441
O O15 0.300092 0.000000 0.233258
O O16 0.317074 0.733366 0.137414
O O17 0.804941 0.500000 0.013462
O O18 0.624694 0.500000 0.520703
#
# Coordination Sequence:
#
# PCOD9207800 Si02
#       8
#     4   8   8   8   8   4   8   8
#     4  11  24  40  55  88 125 162 204 249 295 349
#     4   9  19  39  60  84 117 157 202 244 291 354
#     4  10  21  37  60  85 118 157 197 248 302 351
#     4  10  21  38  60  86 118 159 201 248 303 353
#     4  10  21  39  64  87 120 156 192 245 301 357
#     4  11  24  38  58  85 128 159 202 258 289 351
#     4  10  22  39  58  90 123 149 194 246 298 359
#     4  11  22  39  64  88 117 160 203 242 295 361
#
# _framework density 20.696752
#
# number of rings (size 3 to 8) (size 9 to 14) (size 15 to 20)
#    0.000    1.857    2.143    1.286    3.000    4.000 
#    2.571    2.857    0.000    0.000    0.000    0.000 
#    0.000    0.000    0.000    0.000    0.000    0.000 
#
# Total GULP energy -156259.253247 kJ/mol
# GULP energy per Si atom -5580.687616 kJ/mol
# Density = 2.064965 g / cm^3
# Si number density = 20.696752 Si / 1000 Ang^3
#
#
#
# Elastic Constant Matrix: (Units=GPa)
#
#
# Indices 1 2 3 4 5 6 
#
# 1 40.9496 -3.4495 20.0756 0.0000 -3.1021 0.0000
# 2 -3.4495 59.8912 12.5960 0.0000 -3.8131 0.0000
# 3 20.0756 12.5960 118.5194 0.0000 -1.4135 0.0000
# 4 0.0000 0.0000 0.0000 64.0075 0.0000 -0.9543
# 5 -3.1021 -3.8131 -1.4135 0.0000 23.6858 0.0000
# 6 0.0000 0.0000 0.0000 -0.9543 0.0000 25.2526
#
#
#
# Elastic Compliance Matrix: (Units=1/GPa)
#
#
# Indices 1 2 3 4 5 6 
#
# 1 0.027340 0.002841 -0.004888 0.000000 0.003746 0.000000
# 2 0.002841 0.017541 -0.002309 0.000000 0.003058 0.000000
# 3 -0.004888 -0.002309 0.009506 0.000000 -0.000445 0.000000
# 4 0.000000 0.000000 0.000000 0.015632 0.000000 0.000591
# 5 0.003746 0.003058 -0.000445 0.000000 0.043176 0.000000
# 6 0.000000 0.000000 0.000000 0.000591 0.000000 0.039622
#
#
# Mechanical properties :
#
#
# Convention : Reuss Voigt Hill
#
# Bulk Modulus (GPa) = 21.89413 30.86715 26.38064
# Shear Modulus (GPa) = 28.28801 35.26505 31.77653
#
# Velocity S-wave (km/s) = 3.70102 4.13230 3.92259
# Velocity P-wave (km/s) = 5.37260 6.14119 5.76971
#
# Compressibility (1/GPa) = 0.04567435
#
# Stress axis : x y z
#
# Youngs Moduli (GPa) = 36.57655 57.00952 105.20174
#
# Poissons Ratio (x) = -0.16198 0.51426
# Poissons Ratio (y) = -0.10393 0.24291
# Poissons Ratio (z) = 0.17880 0.13164
#
# Static dielectric constant tensor:
#      x y z
#    x 1.720260 0.000000 0.001860 
#    y 0.000000 1.747140 0.000000 
#    z 0.001860 0.000000 1.797080 
# 
# From -- ./inp_files/187803.got.cif
#   From: 2010.05.17/outbox.cif.g08.bks.cpg/sg12_94_cif.got.tgz:187803.got - 2010.06.03 13:09:07.
