data_PCOD9207653
_publ_section_title
;
Structure prediction by ZEFSAII (Michael W. Deem and Ramdas Pophale) SiO2 
 PCOD9207653
Probable space group: C 2/M
;
_chemical_formula_sum "Si O2"
_cell_formula_units_Z 48
_cell_length_a 8.404888
_cell_length_b 17.781953
_cell_length_c 28.246689
_cell_angle_alpha 90.000000
_cell_angle_beta 147.799016
_cell_angle_gamma 90.000000
_cell_volume 2249.661450
_symmetry_space_group_name_H-M "C 2/M"
_symmetry_group_IT_number 12
_symmetry_cell_setting 'monoclinic'
loop_
_space_group_symop_operation_xyz
x,y,z
-x,y,-z
-x,-y,-z
x,-y,z
1/2+x,1/2+y,z
1/2-x,1/2+y,-z
1/2-x,1/2-y,-z
1/2+x,1/2-y,z
loop_
_atom_site_type_symbol
_atom_site_label
_atom_site_fract_x
_atom_site_fract_y
_atom_site_fract_z
Si Si1 0.622744 0.413999 0.977704
Si Si2 0.057520 0.086682 0.306449
Si Si3 0.873951 0.332729 0.521723
Si Si4 0.807920 0.913564 0.350729
Si Si5 0.217655 0.833170 0.186222
Si Si6 0.220073 0.331758 0.141331
O O1 0.720201 0.500000 0.994205
O O2 0.897163 0.356791 0.041589
O O3 0.500000 0.407654 0.000000
O O4 0.367429 0.391659 0.876486
O O5 0.348238 0.139984 0.376882
O O6 0.912168 0.093402 0.322001
O O7 0.820083 0.111048 0.207625
O O8 0.148349 0.000000 0.323336
O O9 0.750000 0.250000 0.500000
O O10 0.594068 0.389075 0.453209
O O11 0.000000 0.335027 0.500000
O O12 0.531539 0.857737 0.287562
O O13 0.724468 0.000000 0.338645
O O14 0.224591 0.750999 0.164847
O O15 0.960239 0.835320 0.160299
#
# Coordination Sequence:
#
# PCOD9207653 Si02
#       6
#     8   8   8   8   8   8
#     4  11  24  43  66  91 121 157 196 241 296 355
#     4  10  21  39  62  88 120 158 200 246 298 355
#     4  10  21  37  59  87 119 158 201 246 296 350
#     4  10  21  39  62  88 120 158 200 246 298 355
#     4  12  25  41  62  89 122 158 199 246 296 352
#     4  12  25  41  62  89 122 158 199 246 296 352
#
# _framework density 21.336545000000001
#
# number of rings (size 3 to 8) (size 9 to 14) (size 15 to 20)
#    0.000    1.167    0.000    6.500    0.000   12.000 
#    0.000    0.000    0.000    3.000    0.000    0.000 
#    0.000    0.000    0.000    0.000    0.000    0.000 
#
# Total GULP energy -134340.096609 kJ/mol
# GULP energy per Si atom -5597.504025 kJ/mol
# Density = 2.128798 g / cm^3
# Si number density = 21.336545 Si / 1000 Ang^3
#
#
#
# Elastic Constant Matrix: (Units=GPa)
#
#
# Indices 1 2 3 4 5 6 
#
# 1 36.2138 11.6416 -9.0812 -0.0270 10.6798 -0.0084
# 2 11.6416 90.5696 -11.8332 -0.0482 22.9806 -0.0126
# 3 -9.0812 -11.8332 56.2870 -0.0932 20.8467 -0.0228
# 4 -0.0270 -0.0482 -0.0932 46.3828 -0.0059 9.9323
# 5 10.6798 22.9806 20.8467 -0.0059 33.2235 -0.0019
# 6 -0.0084 -0.0126 -0.0228 9.9323 -0.0019 19.9516
#
#
#
# Elastic Compliance Matrix: (Units=1/GPa)
#
#
# Indices 1 2 3 4 5 6 
#
# 1 0.037692 0.003425 0.015849 0.000053 -0.024430 0.000008
# 2 0.003425 0.017340 0.011787 0.000040 -0.020491 0.000004
# 3 0.015849 0.011787 0.036096 0.000088 -0.035897 0.000008
# 4 0.000053 0.000040 0.000088 0.024132 -0.000096 -0.012014
# 5 -0.024430 -0.020491 -0.035897 -0.000096 0.074650 -0.000010
# 6 0.000008 0.000004 0.000008 -0.012014 -0.000010 0.056102
#
#
# Mechanical properties :
#
#
# Convention : Reuss Voigt Hill
#
# Bulk Modulus (GPa) = 6.52527 18.28055 12.40291
# Shear Modulus (GPa) = 21.27886 32.73447 27.00667
#
# Velocity S-wave (km/s) = 3.16143 3.92113 3.56159
# Velocity P-wave (km/s) = 4.04859 5.39321 4.76853
#
# Compressibility (1/GPa) = 0.15325031
#
# Stress axis : x y z
#
# Youngs Moduli (GPa) = 26.53093 57.66861 27.70363
#
# Poissons Ratio (x) = -0.19749 -0.43907
# Poissons Ratio (y) = -0.09086 -0.32655
# Poissons Ratio (z) = -0.42049 -0.67976
#
# Static dielectric constant tensor:
#      x y z
#    x 1.743900 0.000000 0.001040 
#    y 0.000000 1.743610 0.000000 
#    z 0.001040 0.000000 1.729280 
# 
# From -- ./inp_files/373031.got.cif
#   From: 2010.05.17/outbox.cif.g08.bks.cpg/sg12_187_cif.got.tgz:373031.got - 2010.06.03 13:09:07.
