data_PCOD9207849
_publ_section_title
;
Structure prediction by ZEFSAII (Michael W. Deem and Ramdas Pophale) SiO2 
 PCOD9207849
Probable space group: C 2/M
;
_chemical_formula_sum "Si O2"
_cell_formula_units_Z 64
_cell_length_a 30.183357
_cell_length_b 14.442856
_cell_length_c 21.266320
_cell_angle_alpha 90.000000
_cell_angle_beta 159.270717
_cell_angle_gamma 90.000000
_cell_volume 3281.394361
_symmetry_space_group_name_H-M "C 2/M"
_symmetry_group_IT_number 12
_symmetry_cell_setting 'monoclinic'
loop_
_space_group_symop_operation_xyz
x,y,z
-x,y,-z
-x,-y,-z
x,-y,z
1/2+x,1/2+y,z
1/2-x,1/2+y,-z
1/2-x,1/2-y,-z
1/2+x,1/2-y,z
loop_
_atom_site_type_symbol
_atom_site_label
_atom_site_fract_x
_atom_site_fract_y
_atom_site_fract_z
Si Si1 0.348470 0.600988 0.130975
Si Si2 0.060958 0.100210 0.892105
Si Si3 0.467226 0.107948 0.887426
Si Si4 0.056841 0.390932 0.768008
Si Si5 0.863514 0.108129 0.349727
Si Si6 0.075522 0.768748 0.454262
Si Si7 0.796415 0.822352 0.507896
Si Si8 0.872711 0.303995 0.009394
O O1 0.373466 0.500000 0.195137
O O2 0.390660 0.593402 0.114947
O O3 0.440411 0.679662 0.277315
O O4 0.201056 0.618426 0.937589
O O5 0.912015 0.120578 0.691178
O O6 0.084584 0.000000 0.954226
O O7 0.127852 0.194153 0.002758
O O8 0.325065 0.121920 0.676228
O O9 0.496835 0.000000 0.927580
O O10 0.500000 0.145955 0.000000
O O11 0.554274 0.154382 0.951877
O O12 0.030953 0.500000 0.742439
O O13 0.961767 0.339299 0.594730
O O14 0.055188 0.334093 0.831465
O O15 0.853603 0.178053 0.395796
O O16 0.760793 0.145865 0.164749
O O17 0.000000 0.113914 0.500000
O O18 0.839574 0.000000 0.334602
O O19 0.147181 0.784308 0.483329
O O20 0.750000 0.750000 0.500000
#
# Coordination Sequence:
#
# PCOD9207849 Si02
#       8
#     8   8   8   8   8   8   8   8
#     4   9  18  32  56  86 115 150 196 240 292 356
#     4  10  21  37  60  88 118 157 204 254 300 356
#     4  11  23  38  60  89 122 158 197 248 310 366
#     4  11  21  35  59  89 121 157 199 248 303 361
#     4  11  25  41  62  93 129 167 202 246 315 385
#     4  11  21  36  58  85 123 160 201 250 306 367
#     4  11  20  38  60  89 121 160 206 257 308 359
#     4  12  22  40  62  88 125 157 204 254 307 366
#
# _framework density 19.503903999999999
#
# number of rings (size 3 to 8) (size 9 to 14) (size 15 to 20)
#    0.000    1.250    3.750    3.750    1.750    4.500 
#    0.000    1.250    0.000    1.125    0.000    0.000 
#    0.000    0.000    0.000    0.000    0.000    0.000 
#
# Total GULP energy -178466.620248 kJ/mol
# GULP energy per Si atom -5577.081883 kJ/mol
# Density = 1.945951 g / cm^3
# Si number density = 19.503904 Si / 1000 Ang^3
#
#
#
# Elastic Constant Matrix: (Units=GPa)
#
#
# Indices 1 2 3 4 5 6 
#
# 1 77.5166 32.3065 11.1934 0.0000 6.0882 0.0000
# 2 32.3065 123.7968 28.2666 0.0000 1.7727 0.0000
# 3 11.1934 28.2666 50.0038 0.0000 1.2339 0.0000
# 4 0.0000 0.0000 0.0000 -8.0120 0.0000 -0.1603
# 5 6.0882 1.7727 1.2339 0.0000 26.7799 0.0000
# 6 0.0000 0.0000 0.0000 -0.1603 0.0000 23.0607
#
#
#
# Elastic Compliance Matrix: (Units=1/GPa)
#
#
# Indices 1 2 3 4 5 6 
#
# 1 0.014793 -0.003534 -0.001238 0.000000 -0.003072 0.000000
# 2 -0.003534 0.010123 -0.004940 0.000000 0.000361 0.000000
# 3 -0.001238 -0.004940 0.023079 0.000000 -0.000455 0.000000
# 4 0.000000 0.000000 0.000000 -0.124795 0.000000 -0.000867
# 5 -0.003072 0.000361 -0.000455 0.000000 0.038037 0.000000
# 6 0.000000 0.000000 0.000000 -0.000867 0.000000 0.043358
#
#
# Mechanical properties :
#
#
# Convention : Reuss Voigt Hill
#
# Bulk Modulus (GPa) = 34.99996 43.87225 39.43610
# Shear Modulus (GPa) = 149.06208 20.33577 84.69892
#
# Velocity S-wave (km/s) = 8.75173 3.23251 6.59704
# Velocity P-wave (km/s) = 10.95936 6.03946 8.84824
#
# Compressibility (1/GPa) = 0.02857146
#
# Stress axis : x y z
#
# Youngs Moduli (GPa) = 67.59805 98.78707 43.32861
#
# Poissons Ratio (x) = 0.34910 0.05364
# Poissons Ratio (y) = 0.23888 0.21405
# Poissons Ratio (z) = 0.08369 0.48802
#
# Static dielectric constant tensor:
#      x y z
#    x 1.688860 0.000000 -0.024370 
#    y 0.000000 1.758910 0.000000 
#    z -0.024370 0.000000 1.769470 
# 
# From -- ./inp_files/330391.got.cif
#   From: 2010.05.17/outbox.cif.g08.bks.cpg/sg12_166_cif.got.tgz:330391.got - 2010.06.03 13:09:07.
