data_PCOD9207671
_publ_section_title
;
Structure prediction by ZEFSAII (Michael W. Deem and Ramdas Pophale) SiO2 
 PCOD9207671
Probable space group: C 2/M
;
_chemical_formula_sum "Si O2"
_cell_formula_units_Z 56
_cell_length_a 19.545528
_cell_length_b 8.869833
_cell_length_c 29.233174
_cell_angle_alpha 90.000000
_cell_angle_beta 34.388799
_cell_angle_gamma 90.000000
_cell_volume 2862.449826
_symmetry_space_group_name_H-M "C 2/M"
_symmetry_group_IT_number 12
_symmetry_cell_setting 'monoclinic'
loop_
_space_group_symop_operation_xyz
x,y,z
-x,y,-z
-x,-y,-z
x,-y,z
1/2+x,1/2+y,z
1/2-x,1/2+y,-z
1/2-x,1/2-y,-z
1/2+x,1/2-y,z
loop_
_atom_site_type_symbol
_atom_site_label
_atom_site_fract_x
_atom_site_fract_y
_atom_site_fract_z
Si Si1 0.623179 0.327151 0.581528
Si Si2 0.115486 0.815785 0.244215
Si Si3 0.935918 0.180151 0.919769
Si Si4 0.797455 0.181666 0.904551
Si Si5 0.303924 0.179713 0.219596
Si Si6 0.570135 0.172162 0.525161
Si Si7 0.799662 0.669877 0.635101
O O1 0.643637 0.500000 0.581490
O O2 0.750000 0.250000 0.500000
O O3 0.523159 0.262901 0.671503
O O4 0.557974 0.301694 0.569022
O O5 0.163263 0.772009 0.167961
O O6 0.205119 0.767523 0.236080
O O7 0.111834 0.000000 0.247845
O O8 0.896211 0.218772 0.889363
O O9 0.064339 0.250608 0.861816
O O10 0.941779 0.000000 0.920018
O O11 0.827832 0.243215 0.010783
O O12 0.782843 0.000000 0.912944
O O13 0.267127 0.228009 0.291369
O O14 0.309868 0.000000 0.213331
O O15 0.438886 0.163817 0.574714
O O16 0.679325 0.209470 0.429716
O O17 0.591376 0.000000 0.530997
O O18 0.747955 0.500000 0.665742
#
# Coordination Sequence:
#
# PCOD9207671 Si02
#       7
#     8   8   8   8   8   8   8
#     4  11  22  37  55  80 112 148 193 239 284 338
#     4   9  20  38  59  82 110 149 192 233 281 337
#     4  10  21  37  59  88 116 145 183 233 287 339
#     4   9  19  40  64  81 107 150 192 229 276 340
#     4  11  21  35  57  86 117 149 190 236 281 337
#     4   9  18  34  54  76 104 143 185 227 278 333
#     4   9  18  33  54  78 107 142 182 227 279 332
#
# _framework density 19.563661
#
# number of rings (size 3 to 8) (size 9 to 14) (size 15 to 20)
#    0.000    2.286    1.429    2.143    0.000    2.857 
#    0.000   10.000    0.000    0.000    0.000    0.000 
#    0.000    0.000    0.000    0.000    0.000    0.000 
#
# Total GULP energy -155999.637766 kJ/mol
# GULP energy per Si atom -5571.415634 kJ/mol
# Density = 1.951913 g / cm^3
# Si number density = 19.563661 Si / 1000 Ang^3
#
#
#
# Elastic Constant Matrix: (Units=GPa)
#
#
# Indices 1 2 3 4 5 6 
#
# 1 29.4498 12.2872 52.8215 0.0000 -3.2900 -0.0001
# 2 12.2872 27.5065 38.1238 0.0001 -3.4152 -0.0001
# 3 52.8215 38.1238 145.5318 0.0000 -1.1116 0.0000
# 4 0.0000 0.0001 0.0000 33.0909 0.0000 -1.9521
# 5 -3.2900 -3.4152 -1.1116 0.0000 33.6528 0.0000
# 6 -0.0001 -0.0001 0.0000 -1.9521 0.0000 24.5815
#
#
#
# Elastic Compliance Matrix: (Units=1/GPa)
#
#
# Indices 1 2 3 4 5 6 
#
# 1 0.101642 0.010725 -0.039627 0.000000 0.009716 0.000001
# 2 0.010725 0.059172 -0.019345 0.000000 0.006414 0.000000
# 3 -0.039627 -0.019345 0.026284 0.000000 -0.004969 0.000000
# 4 0.000000 0.000000 0.000000 0.030362 0.000000 0.002411
# 5 0.009716 0.006414 -0.004969 0.000000 0.031152 0.000000
# 6 0.000001 0.000000 0.000000 0.002411 0.000000 0.040872
#
#
# Mechanical properties :
#
#
# Convention : Reuss Voigt Hill
#
# Bulk Modulus (GPa) = 11.03690 45.43923 28.23806
# Shear Modulus (GPa) = 12.01410 24.88210 18.44810
#
# Velocity S-wave (km/s) = 2.48080 3.57017 3.07413
# Velocity P-wave (km/s) = 3.72285 6.34599 5.20246
#
# Compressibility (1/GPa) = 0.09060514
#
# Stress axis : x y z
#
# Youngs Moduli (GPa) = 9.83847 16.89991 38.04640
#
# Poissons Ratio (x) = -0.18126 1.50766
# Poissons Ratio (y) = -0.10552 0.73599
# Poissons Ratio (z) = 0.38987 0.32692
#
# Static dielectric constant tensor:
#      x y z
#    x 1.787850 0.000000 0.003820 
#    y 0.000000 1.683520 0.000000 
#    z 0.003820 0.000000 1.698240 
# 
# From -- ./inp_files/380628.got.cif
#   From: 2010.05.17/outbox.cif.g08.bks.cpg/sg12_191_cif.got.tgz:380628.got - 2010.06.03 13:09:07.
