data_PCOD9207252
_publ_section_title
;
Structure prediction by ZEFSAII (Michael W. Deem and Ramdas Pophale) SiO2 
 PCOD9207252
Probable space group: C 2/M
;
_chemical_formula_sum "Si O2"
_cell_formula_units_Z 48
_cell_length_a 16.454056
_cell_length_b 14.884640
_cell_length_c 22.949534
_cell_angle_alpha 90.000000
_cell_angle_beta 156.078759
_cell_angle_gamma 90.000000
_cell_volume 2279.056789
_symmetry_space_group_name_H-M "C 2/M"
_symmetry_group_IT_number 12
_symmetry_cell_setting 'monoclinic'
loop_
_space_group_symop_operation_xyz
x,y,z
-x,y,-z
-x,-y,-z
x,-y,z
1/2+x,1/2+y,z
1/2-x,1/2+y,-z
1/2-x,1/2-y,-z
1/2+x,1/2-y,z
loop_
_atom_site_type_symbol
_atom_site_label
_atom_site_fract_x
_atom_site_fract_y
_atom_site_fract_z
Si Si1 0.223024 0.894720 0.644257
Si Si2 0.783626 0.397642 0.347685
Si Si3 0.581658 0.891342 0.800990
Si Si4 0.186907 0.148935 0.156406
Si Si5 0.482131 0.154841 0.924154
Si Si6 0.651259 0.609003 0.911493
O O1 0.374998 0.859081 0.694824
O O2 0.336636 0.888178 0.780600
O O3 0.000000 0.855777 0.500000
O O4 0.202543 0.000000 0.616897
O O5 0.794554 0.500000 0.377563
O O6 0.749349 0.399258 0.256042
O O7 0.578132 0.358744 0.239389
O O8 0.000000 0.354532 0.500000
O O9 0.638901 0.848106 0.777306
O O10 0.574819 0.000000 0.788760
O O11 0.752196 0.873752 0.961656
O O12 0.108922 0.246748 0.124476
O O13 0.000000 0.104832 0.000000
O O14 0.500000 0.111885 0.000000
O O15 0.701629 0.153264 0.038879
O O16 0.657483 0.500000 0.907656
#
# Coordination Sequence:
#
# PCOD9207252 Si02
#       6
#     8   8   8   8   8   8
#     4   9  19  39  63  84 111 149 194 240 285 334
#     4  10  21  37  57  85 118 150 188 236 292 340
#     4   9  17  33  60  87 107 142 194 241 279 327
#     4  11  21  35  56  85 116 149 190 232 281 340
#     4  10  22  37  55  85 116 150 192 230 286 338
#     4   9  18  36  61  84 109 149 194 237 282 333
#
# _framework density 21.061343999999998
#
# number of rings (size 3 to 8) (size 9 to 14) (size 15 to 20)
#    0.000    2.333    1.667    2.000    0.000    3.333 
#    6.000    0.833    0.000    0.000    0.000    0.000 
#    0.000    0.000    0.000    0.000    0.000    0.000 
#
# Total GULP energy -133947.858923 kJ/mol
# GULP energy per Si atom -5581.160788 kJ/mol
# Density = 2.101341 g / cm^3
# Si number density = 21.061344 Si / 1000 Ang^3
#
#
#
# Elastic Constant Matrix: (Units=GPa)
#
#
# Indices 1 2 3 4 5 6 
#
# 1 170.2639 23.5526 67.8299 -0.0110 35.6392 -0.0006
# 2 23.5526 64.7747 2.4870 -0.0078 17.4899 -0.0096
# 3 67.8299 2.4870 134.8511 -0.0039 44.2741 -0.0063
# 4 -0.0110 -0.0078 -0.0039 11.2398 -0.0048 1.9553
# 5 35.6392 17.4899 44.2741 -0.0048 41.1008 0.0019
# 6 -0.0006 -0.0096 -0.0063 1.9553 0.0019 30.6107
#
#
#
# Elastic Compliance Matrix: (Units=1/GPa)
#
#
# Indices 1 2 3 4 5 6 
#
# 1 0.007946 -0.002037 -0.003066 0.000004 -0.002721 -0.000001
# 2 -0.002037 0.018951 0.004244 0.000007 -0.010869 0.000007
# 3 -0.003066 0.004244 0.013305 -0.000002 -0.013480 0.000005
# 4 0.000004 0.000007 -0.000002 0.089969 0.000006 -0.005747
# 5 -0.002721 -0.010869 -0.013480 0.000006 0.045835 -0.000009
# 6 -0.000001 0.000007 0.000005 -0.005747 -0.000009 0.033035
#
#
# Mechanical properties :
#
#
# Convention : Reuss Voigt Hill
#
# Bulk Modulus (GPa) = 25.98548 61.95876 43.97212
# Shear Modulus (GPa) = 22.36258 34.99161 28.67710
#
# Velocity S-wave (km/s) = 3.26204 4.08047 3.69399
# Velocity P-wave (km/s) = 5.15292 7.18905 6.25440
#
# Compressibility (1/GPa) = 0.03848304
#
# Stress axis : x y z
#
# Youngs Moduli (GPa) = 125.85120 52.76874 75.15901
#
# Poissons Ratio (x) = 0.10748 0.23044
# Poissons Ratio (y) = 0.25635 -0.31895
# Poissons Ratio (z) = 0.38586 -0.22393
#
# Static dielectric constant tensor:
#      x y z
#    x 1.758540 0.000000 0.036150 
#    y 0.000000 1.812550 -0.000010 
#    z 0.036150 -0.000010 1.773880 
# 
# From -- ./inp_files/311396.got.cif
#   From: 2010.05.17/outbox.cif.g08.bks.cpg/sg12_156_cif.got.tgz:311396.got - 2010.06.03 13:09:07.
