data_PCOD9207449
_publ_section_title
;
Structure prediction by ZEFSAII (Michael W. Deem and Ramdas Pophale) SiO2 
 PCOD9207449
Probable space group: C 2/M
;
_chemical_formula_sum "Si O2"
_cell_formula_units_Z 64
_cell_length_a 12.646041
_cell_length_b 20.061432
_cell_length_c 13.505872
_cell_angle_alpha 90.000000
_cell_angle_beta 106.110626
_cell_angle_gamma 90.000000
_cell_volume 3291.845630
_symmetry_space_group_name_H-M "C 2/M"
_symmetry_group_IT_number 12
_symmetry_cell_setting 'monoclinic'
loop_
_space_group_symop_operation_xyz
x,y,z
-x,y,-z
-x,-y,-z
x,-y,z
1/2+x,1/2+y,z
1/2-x,1/2+y,-z
1/2-x,1/2-y,-z
1/2+x,1/2-y,z
loop_
_atom_site_type_symbol
_atom_site_label
_atom_site_fract_x
_atom_site_fract_y
_atom_site_fract_z
Si Si1 0.183893 0.924852 0.302449
Si Si2 0.257050 0.311636 0.203274
Si Si3 0.516621 0.312431 0.274976
Si Si4 0.372799 0.077383 0.946719
Si Si5 0.196548 0.923719 0.071658
Si Si6 0.828297 0.287871 0.599177
Si Si7 0.376667 0.924766 0.508577
Si Si8 0.397188 0.287597 0.923397
O O1 0.213325 0.915166 0.194114
O O2 0.292729 0.917314 0.395432
O O3 0.089551 0.876881 0.318670
O O4 0.143005 0.000000 0.300460
O O5 0.387066 0.322741 0.236382
O O6 0.187181 0.375171 0.147956
O O7 0.227129 0.290164 0.307048
O O8 0.215117 0.253529 0.117664
O O9 0.558380 0.253422 0.357123
O O10 0.558898 0.297308 0.175817
O O11 0.367874 0.000000 0.913104
O O12 0.500000 0.093746 0.000000
O O13 0.304018 0.081945 0.031470
O O14 0.123007 0.858780 0.028663
O O15 0.152849 0.000000 0.044855
O O16 0.750000 0.250000 0.500000
O O17 0.851829 0.363335 0.573369
O O18 0.500000 0.920072 0.500000
O O19 0.361523 0.000000 0.546265
O O20 0.500000 0.250948 0.000000
#
# Coordination Sequence:
#
# PCOD9207449 Si02
#       8
#     8   8   8   8   8   8   8   8
#     4   9  18  37  60  87 120 151 199 251 303 363
#     4  11  25  39  59  89 119 163 205 246 314 369
#     4  10  22  38  60  89 119 161 201 248 313 369
#     4  10  22  40  61  88 126 166 206 251 304 374
#     4   9  19  35  60  87 115 155 197 242 300 358
#     4  11  24  41  62  88 123 161 207 260 315 380
#     4  10  22  39  64  91 117 155 203 260 310 362
#     4  10  21  37  58  85 122 155 199 250 294 362
#
# _framework density 19.441981999999999
#
# number of rings (size 3 to 8) (size 9 to 14) (size 15 to 20)
#    0.000    2.000    1.250    1.125    1.750    6.250 
#    0.000    5.000    0.000    1.500    0.000    0.000 
#    0.000    0.000    0.000    0.000    0.000    0.000 
#
# Total GULP energy -178436.971228 kJ/mol
# GULP energy per Si atom -5576.155351 kJ/mol
# Density = 1.939773 g / cm^3
# Si number density = 19.441982 Si / 1000 Ang^3
#
#
#
# Elastic Constant Matrix: (Units=GPa)
#
#
# Indices 1 2 3 4 5 6 
#
# 1 113.8457 53.0480 42.7169 0.0000 31.6656 0.0000
# 2 53.0480 118.1855 56.6778 0.0000 17.7761 0.0000
# 3 42.7169 56.6778 69.2755 0.0000 17.8411 0.0000
# 4 0.0000 0.0000 0.0000 38.3075 0.0000 -11.4824
# 5 31.6656 17.7761 17.8411 0.0000 32.3434 0.0000
# 6 0.0000 0.0000 0.0000 -11.4824 0.0000 57.8095
#
#
#
# Elastic Compliance Matrix: (Units=1/GPa)
#
#
# Indices 1 2 3 4 5 6 
#
# 1 0.014566 -0.003207 -0.003659 0.000000 -0.010480 0.000000
# 2 -0.003207 0.014702 -0.010232 0.000000 0.000704 0.000000
# 3 -0.003659 -0.010232 0.026449 0.000000 -0.005384 0.000000
# 4 0.000000 0.000000 0.000000 0.027757 0.000000 0.005513
# 5 -0.010480 0.000704 -0.005384 0.000000 0.043762 0.000000
# 6 0.000000 0.000000 0.000000 0.005513 0.000000 0.018393
#
#
# Mechanical properties :
#
#
# Convention : Reuss Voigt Hill
#
# Bulk Modulus (GPa) = 46.46610 67.35467 56.91039
# Shear Modulus (GPa) = 26.73813 35.61633 31.17723
#
# Velocity S-wave (km/s) = 3.71250 4.28475 4.00885
# Velocity P-wave (km/s) = 6.50604 7.69402 7.12483
#
# Compressibility (1/GPa) = 0.02152106
#
# Stress axis : x y z
#
# Youngs Moduli (GPa) = 68.65309 68.01847 37.80820
#
# Poissons Ratio (x) = 0.21814 0.13834
# Poissons Ratio (y) = 0.22017 0.38686
# Poissons Ratio (z) = 0.25120 0.69597
#
# Static dielectric constant tensor:
#      x y z
#    x 1.649400 0.000000 0.011660 
#    y 0.000000 1.739580 0.000000 
#    z 0.011660 0.000000 1.684570 
# 
# From -- ./inp_files/207718.got.cif
#   From: 2010.05.17/outbox.cif.g08.bks.cpg/sg12_104_cif.got.tgz:207718.got - 2010.06.03 13:09:07.
