data_PCOD9207819
_publ_section_title
;
Structure prediction by ZEFSAII (Michael W. Deem and Ramdas Pophale) SiO2 
 PCOD9207819
Probable space group: C 2/M
;
_chemical_formula_sum "Si O2"
_cell_formula_units_Z 32
_cell_length_a 19.078625
_cell_length_b 8.896578
_cell_length_c 11.262695
_cell_angle_alpha 90.000000
_cell_angle_beta 114.977445
_cell_angle_gamma 90.000000
_cell_volume 1732.877163
_symmetry_space_group_name_H-M "C 2/M"
_symmetry_group_IT_number 12
_symmetry_cell_setting 'monoclinic'
loop_
_space_group_symop_operation_xyz
x,y,z
-x,y,-z
-x,-y,-z
x,-y,z
1/2+x,1/2+y,z
1/2-x,1/2+y,-z
1/2-x,1/2-y,-z
1/2+x,1/2-y,z
loop_
_atom_site_type_symbol
_atom_site_label
_atom_site_fract_x
_atom_site_fract_y
_atom_site_fract_z
Si Si1 0.137904 0.678905 0.847283
Si Si2 0.677371 0.319950 0.379627
Si Si3 0.288352 0.179018 0.845505
Si Si4 0.011751 0.819318 0.370519
O O1 0.142442 0.500000 0.832442
O O2 0.202790 0.759324 0.813280
O O3 0.054307 0.740184 0.753488
O O4 0.161057 0.710052 0.000509
O O5 0.684100 0.500000 0.384515
O O6 0.750000 0.250000 0.500000
O O7 0.678611 0.258537 0.246758
O O8 0.597247 0.279188 0.387044
O O9 0.284907 0.000000 0.824792
O O10 0.000000 0.779008 0.500000
O O11 0.002949 0.000000 0.353818
#
# Coordination Sequence:
#
# PCOD9207819 Si02
#       4
#     8   8   8   8
#     4  10  21  37  60  87 113 148 192 235 281 335
#     4  11  23  38  59  86 115 150 191 235 284 337
#     4  10  21  38  59  84 117 152 187 232 284 338
#     4  10  22  39  58  82 114 150 187 233 288 340
#
# _framework density 18.466398000000002
#
# number of rings (size 3 to 8) (size 9 to 14) (size 15 to 20)
#    0.000    1.750    0.000    3.750    0.000    8.500 
#    0.000    5.000    0.000    0.000    0.000    0.000 
#    0.000    0.000    0.000    0.000    0.000    0.000 
#
# Total GULP energy -89440.188428 kJ/mol
# GULP energy per Si atom -5590.011777 kJ/mol
# Density = 1.842437 g / cm^3
# Si number density = 18.466398 Si / 1000 Ang^3
#
#
#
# Elastic Constant Matrix: (Units=GPa)
#
#
# Indices 1 2 3 4 5 6 
#
# 1 186.5535 76.1461 102.1453 0.0000 -0.8260 0.0000
# 2 76.1461 58.7182 56.0621 0.0000 2.0072 0.0000
# 3 102.1453 56.0621 93.2085 0.0000 5.0770 0.0000
# 4 0.0000 0.0000 0.0000 36.0339 0.0000 1.6094
# 5 -0.8260 2.0072 5.0770 0.0000 40.8453 0.0000
# 6 0.0000 0.0000 0.0000 1.6094 0.0000 34.6275
#
#
#
# Elastic Compliance Matrix: (Units=1/GPa)
#
#
# Indices 1 2 3 4 5 6 
#
# 1 0.015352 -0.008941 -0.011565 0.000000 0.002187 0.000000
# 2 -0.008941 0.045253 -0.017407 0.000000 -0.000241 0.000000
# 3 -0.011565 -0.017407 0.034069 0.000000 -0.003613 0.000000
# 4 0.000000 0.000000 0.000000 0.027809 0.000000 -0.001293
# 5 0.002187 -0.000241 -0.003613 0.000000 0.024988 0.000000
# 6 0.000000 0.000000 0.000000 -0.001293 0.000000 0.028939
#
#
# Mechanical properties :
#
#
# Convention : Reuss Voigt Hill
#
# Bulk Modulus (GPa) = 53.05622 89.68747 71.37185
# Shear Modulus (GPa) = 19.34086 29.24312 24.29199
#
# Velocity S-wave (km/s) = 3.23980 3.98375 3.63088
# Velocity P-wave (km/s) = 6.54130 8.35665 7.50408
#
# Compressibility (1/GPa) = 0.01884793
#
# Stress axis : x y z
#
# Youngs Moduli (GPa) = 65.13750 22.09783 29.35205
#
# Poissons Ratio (x) = 0.19759 0.33946
# Poissons Ratio (y) = 0.58242 0.51092
# Poissons Ratio (z) = 0.75333 0.38465
#
# Static dielectric constant tensor:
#      x y z
#    x 1.604010 0.000000 -0.006440 
#    y 0.000000 1.617280 0.000000 
#    z -0.006440 0.000000 1.620640 
# 
# From -- ./inp_files/138622.got.cif
#   From: 2010.05.17/outbox.cif.g08.bks.cpg/sg12_70_cif.got.tgz:138622.got - 2010.06.03 13:09:07.
