data_PCOD9207940
_publ_section_title
;
Structure prediction by ZEFSAII (Michael W. Deem and Ramdas Pophale) SiO2 
 PCOD9207940
Probable space group: C 2/M
;
_chemical_formula_sum "Si O2"
_cell_formula_units_Z 64
_cell_length_a 21.825168
_cell_length_b 20.678749
_cell_length_c 18.533106
_cell_angle_alpha 90.000000
_cell_angle_beta 160.234137
_cell_angle_gamma 90.000000
_cell_volume 2828.619261
_symmetry_space_group_name_H-M "C 2/M"
_symmetry_group_IT_number 12
_symmetry_cell_setting 'monoclinic'
loop_
_space_group_symop_operation_xyz
x,y,z
-x,y,-z
-x,-y,-z
x,-y,z
1/2+x,1/2+y,z
1/2-x,1/2+y,-z
1/2-x,1/2-y,-z
1/2+x,1/2-y,z
loop_
_atom_site_type_symbol
_atom_site_label
_atom_site_fract_x
_atom_site_fract_y
_atom_site_fract_z
Si Si1 0.696285 0.075041 0.677302
Si Si2 0.653295 0.819765 0.885238
Si Si3 0.247937 0.924057 0.572757
Si Si4 0.062942 0.195345 0.995053
Si Si5 0.918808 0.867911 0.294169
Si Si6 0.398091 0.770103 0.314886
Si Si7 0.892907 0.578219 0.955869
Si Si8 0.265703 0.865656 0.441793
O O1 0.500000 0.075870 0.500000
O O2 0.829481 0.128518 0.862740
O O3 0.692897 0.095485 0.587787
O O4 0.760345 0.000000 0.753228
O O5 0.640634 0.826809 0.784524
O O6 0.440485 0.826219 0.663493
O O7 0.750000 0.750000 0.000000
O O8 0.776590 0.866422 0.069277
O O9 0.451257 0.900752 0.815062
O O10 0.201093 0.906506 0.438612
O O11 0.096745 0.903466 0.463147
O O12 0.259402 0.000000 0.591391
O O13 0.194927 0.248250 0.109083
O O14 0.000000 0.223345 0.000000
O O15 0.897089 0.180687 0.760600
O O16 0.985348 0.794121 0.380872
O O17 0.801107 0.893229 0.232095
O O18 0.500000 0.788931 0.500000
O O19 0.867890 0.500000 0.928429
O O20 0.000000 0.593825 0.000000
#
# Coordination Sequence:
#
# PCOD9207940 Si02
#       8
#     8   8   8   8   8   8   8   8
#     4  10  21  37  63  97 138 186 230 277 330 393
#     4  10  22  43  63  89 130 174 220 277 340 397
#     4  11  24  42  68 100 132 172 220 273 341 413
#     4  10  21  37  60  91 133 174 217 275 330 379
#     4  11  24  44  67  96 134 174 220 278 341 408
#     4  11  23  41  63  93 127 173 225 272 323 399
#     4  10  23  44  69  97 132 168 215 282 343 404
#     4  11  21  40  65  94 135 176 227 280 330 408
#
# _framework density 22.625879000000001
#
# number of rings (size 3 to 8) (size 9 to 14) (size 15 to 20)
#    0.000    1.500    1.250    4.125    1.750    3.250 
#    4.500    6.875    0.000    0.000    0.000    0.000 
#    0.000    0.000    0.000    0.000    0.000    0.000 
#
# Total GULP energy -178294.771673 kJ/mol
# GULP energy per Si atom -5571.711615 kJ/mol
# Density = 2.257438 g / cm^3
# Si number density = 22.625879 Si / 1000 Ang^3
#
#
#
# Elastic Constant Matrix: (Units=GPa)
#
#
# Indices 1 2 3 4 5 6 
#
# 1 101.4004 15.0828 -0.4161 0.0003 9.9481 0.0006
# 2 15.0828 32.3929 10.1202 -0.0006 2.4151 -0.0007
# 3 -0.4161 10.1202 79.4578 -0.0008 10.2257 -0.0004
# 4 0.0003 -0.0006 -0.0008 23.6139 -0.0015 13.1708
# 5 9.9481 2.4151 10.2257 -0.0015 45.9812 -0.0007
# 6 0.0006 -0.0007 -0.0004 13.1708 -0.0007 16.8866
#
#
#
# Elastic Compliance Matrix: (Units=1/GPa)
#
#
# Indices 1 2 3 4 5 6 
#
# 1 0.010866 -0.005205 0.001016 0.000000 -0.002304 -0.000001
# 2 -0.005205 0.034673 -0.004482 0.000000 0.000302 0.000001
# 3 0.001016 -0.004482 0.013547 0.000000 -0.002997 0.000000
# 4 0.000000 0.000000 0.000000 0.074956 0.000002 -0.058462
# 5 -0.002304 0.000302 -0.002997 0.000002 0.022897 0.000000
# 6 -0.000001 0.000001 0.000000 -0.058462 0.000000 0.104817
#
#
# Mechanical properties :
#
#
# Convention : Reuss Voigt Hill
#
# Bulk Modulus (GPa) = 23.95577 29.20279 26.57928
# Shear Modulus (GPa) = 17.06412 29.86061 23.46237
#
# Velocity S-wave (km/s) = 2.74922 3.63678 3.22370
# Velocity P-wave (km/s) = 4.54845 5.52899 5.06252
#
# Compressibility (1/GPa) = 0.04174360
#
# Stress axis : x y z
#
# Youngs Moduli (GPa) = 92.02737 28.84126 73.81582
#
# Poissons Ratio (x) = 0.15013 -0.07502
# Poissons Ratio (y) = 0.47904 0.33086
# Poissons Ratio (z) = -0.09353 0.12927
#
# Static dielectric constant tensor:
#      x y z
#    x 2.080590 0.000000 -0.056240 
#    y 0.000000 1.852970 0.000000 
#    z -0.056240 0.000000 1.908700 
# 
# From -- ./inp_files/286490.got.cif
#   From: 2010.05.17/outbox.cif.g08.bks.cpg/sg12_144_cif.got.tgz:286490.got - 2010.06.03 13:09:07.
