data_PCOD9207273
_publ_section_title
;
Structure prediction by ZEFSAII (Michael W. Deem and Ramdas Pophale) SiO2 
 PCOD9207273
Probable space group: C 2/M
;
_chemical_formula_sum "Si O2"
_cell_formula_units_Z 48
_cell_length_a 15.788115
_cell_length_b 28.904235
_cell_length_c 6.381105
_cell_angle_alpha 90.000000
_cell_angle_beta 127.161393
_cell_angle_gamma 90.000000
_cell_volume 2320.661043
_symmetry_space_group_name_H-M "C 2/M"
_symmetry_group_IT_number 12
_symmetry_cell_setting 'monoclinic'
loop_
_space_group_symop_operation_xyz
x,y,z
-x,y,-z
-x,-y,-z
x,-y,z
1/2+x,1/2+y,z
1/2-x,1/2+y,-z
1/2-x,1/2-y,-z
1/2+x,1/2-y,z
loop_
_atom_site_type_symbol
_atom_site_label
_atom_site_fract_x
_atom_site_fract_y
_atom_site_fract_z
Si Si1 0.266684 0.284133 0.332081
Si Si2 0.889400 0.127319 0.445269
Si Si3 0.711964 0.890293 0.831379
Si Si4 0.121704 0.705130 0.744531
Si Si5 0.200278 0.947537 0.425254
Si Si6 0.590180 0.052941 0.971829
O O1 0.250000 0.250000 0.500000
O O2 0.334528 0.329740 0.482637
O O3 0.336507 0.254197 0.274264
O O4 0.158985 0.297587 0.044223
O O5 0.890247 0.083706 0.602514
O O6 0.000000 0.138459 0.500000
O O7 0.808268 0.115635 0.137273
O O8 0.678741 0.838502 0.719085
O O9 0.752389 0.922270 0.706101
O O10 0.614818 0.914478 0.811768
O O11 0.000000 0.701739 0.500000
O O12 0.299387 0.948973 0.735056
O O13 0.166921 0.000000 0.331405
O O14 0.562617 0.000000 0.867492
O O15 0.500000 0.069335 0.000000
#
# Coordination Sequence:
#
# PCOD9207273 Si02
#       6
#     8   8   8   8   8   8
#     4  10  21  41  62  86 119 156 202 248 300 364
#     4  10  22  41  62  85 118 158 203 255 305 355
#     4  10  21  37  57  86 122 155 198 254 300 366
#     4  10  22  37  57  90 121 152 195 246 301 362
#     4  10  21  37  58  85 117 157 203 252 304 360
#     4   9  19  34  53  81 117 160 204 246 298 361
#
# _framework density 20.683761000000001
#
# number of rings (size 3 to 8) (size 9 to 14) (size 15 to 20)
#    0.000    2.167    0.000    2.000    2.333    2.333 
#    0.000    5.000    0.000    0.000    0.000    0.000 
#    0.000    0.000    0.000    0.000    0.000    0.000 
#
# Total GULP energy -133950.519704 kJ/mol
# GULP energy per Si atom -5581.271654 kJ/mol
# Density = 2.063668 g / cm^3
# Si number density = 20.683761 Si / 1000 Ang^3
#
#
#
# Elastic Constant Matrix: (Units=GPa)
#
#
# Indices 1 2 3 4 5 6 
#
# 1 81.9892 22.9764 33.8314 0.0000 8.7501 0.0000
# 2 22.9764 121.4083 31.5299 0.0000 -2.3346 0.0000
# 3 33.8314 31.5299 44.3971 0.0000 6.8866 0.0000
# 4 0.0000 0.0000 0.0000 20.3258 0.0000 -9.7661
# 5 8.7501 -2.3346 6.8866 0.0000 20.0559 0.0000
# 6 0.0000 0.0000 0.0000 -9.7661 0.0000 36.6369
#
#
#
# Elastic Compliance Matrix: (Units=1/GPa)
#
#
# Indices 1 2 3 4 5 6 
#
# 1 0.017998 -0.000053 -0.013159 0.000000 -0.003340 0.000000
# 2 -0.000053 0.010388 -0.007952 0.000000 0.003963 0.000000
# 3 -0.013159 -0.007952 0.039559 0.000000 -0.008768 0.000000
# 4 0.000000 0.000000 0.000000 0.056425 0.000000 0.015041
# 5 -0.003340 0.003963 -0.008768 0.000000 0.054790 0.000000
# 6 0.000000 0.000000 0.000000 0.015041 0.000000 0.031304
#
#
# Mechanical properties :
#
#
# Convention : Reuss Voigt Hill
#
# Bulk Modulus (GPa) = 39.03642 47.16333 43.09987
# Shear Modulus (GPa) = 19.13290 26.03419 22.58355
#
# Velocity S-wave (km/s) = 3.04471 3.55163 3.30790
# Velocity P-wave (km/s) = 5.59235 6.29844 5.95587
#
# Compressibility (1/GPa) = 0.02561710
#
# Stress axis : x y z
#
# Youngs Moduli (GPa) = 55.56212 96.26554 25.27899
#
# Poissons Ratio (x) = 0.00509 0.33265
# Poissons Ratio (y) = 0.00294 0.20101
# Poissons Ratio (z) = 0.73115 0.76547
#
# Static dielectric constant tensor:
#      x y z
#    x 1.718780 0.000000 -0.004070 
#    y 0.000000 1.756720 0.000000 
#    z -0.004070 0.000000 1.751240 
# 
# From -- ./inp_files/13059.got.cif
#   From: 2010.05.17/outbox.cif.g08.bks.cpg/sg12_7_cif.got.tgz:13059.got - 2010.06.03 13:09:07.
