data_PCOD9207399
_publ_section_title
;
Structure prediction by ZEFSAII (Michael W. Deem and Ramdas Pophale) SiO2 
 PCOD9207399
Probable space group: C 2/M
;
_chemical_formula_sum "Si O2"
_cell_formula_units_Z 64
_cell_length_a 13.228001
_cell_length_b 19.670527
_cell_length_c 23.737037
_cell_angle_alpha 90.000000
_cell_angle_beta 34.761641
_cell_angle_gamma 90.000000
_cell_volume 3521.569600
_symmetry_space_group_name_H-M "C 2/M"
_symmetry_group_IT_number 12
_symmetry_cell_setting 'monoclinic'
loop_
_space_group_symop_operation_xyz
x,y,z
-x,y,-z
-x,-y,-z
x,-y,z
1/2+x,1/2+y,z
1/2-x,1/2+y,-z
1/2-x,1/2-y,-z
1/2+x,1/2-y,z
loop_
_atom_site_type_symbol
_atom_site_label
_atom_site_fract_x
_atom_site_fract_y
_atom_site_fract_z
Si Si1 0.625350 0.821913 0.112940
Si Si2 0.691475 0.797552 0.215294
Si Si3 0.020127 0.080028 0.557645
Si Si4 0.953209 0.078629 0.773266
Si Si5 0.257804 0.142684 0.227996
Si Si6 0.545558 0.666429 0.113844
Si Si7 0.168260 0.574599 0.461552
Si Si8 0.163555 0.677889 0.554481
O O1 0.669509 0.816121 0.159354
O O2 0.451441 0.860688 0.168381
O O3 0.583758 0.744230 0.114214
O O4 0.796747 0.849968 0.001766
O O5 0.727639 0.718290 0.215369
O O6 0.503637 0.813877 0.329242
O O7 0.855958 0.836501 0.169255
O O8 0.876386 0.120943 0.660642
O O9 0.000000 0.082046 0.500000
O O10 0.198475 0.122336 0.486000
O O11 0.015025 0.000000 0.576259
O O12 0.798124 0.096242 0.799613
O O13 0.947929 0.123129 0.832058
O O14 0.143127 0.088871 0.654811
O O15 0.943209 0.000000 0.793361
O O16 0.189041 0.500000 0.481172
O O17 0.111299 0.640684 0.521598
O O18 0.000000 0.565518 0.500000
O O19 0.250000 0.750000 0.500000
#
# Coordination Sequence:
#
# PCOD9207399 Si02
#       8
#     8   8   8   8   8   8   8   8
#     4  10  22  39  63  89 123 158 207 259 316 378
#     4  11  21  39  62  91 128 160 204 261 313 375
#     4  11  23  40  59  84 124 170 208 245 302 377
#     4  11  21  39  64  90 127 162 205 259 310 370
#     4  11  21  39  61  90 125 162 207 261 315 368
#     4  10  22  39  63  92 120 161 203 260 318 370
#     4  10  21  37  58  84 118 160 200 243 297 364
#     4  12  22  35  56  90 121 158 198 249 299 360
#
# _framework density 18.173715000000001
#
# number of rings (size 3 to 8) (size 9 to 14) (size 15 to 20)
#    0.000    1.250    3.750    2.625    0.000    1.000 
#    0.000    2.500    0.000    4.500    0.000    0.000 
#    0.000    0.000    0.000    0.000    0.000    0.000 
#
# Total GULP energy -178241.943833 kJ/mol
# GULP energy per Si atom -5570.060745 kJ/mol
# Density = 1.813235 g / cm^3
# Si number density = 18.173715 Si / 1000 Ang^3
#
#
#
# Elastic Constant Matrix: (Units=GPa)
#
#
# Indices 1 2 3 4 5 6 
#
# 1 1031.1785 1151.8937 1095.7028 0.0413 -99.9864 0.0169
# 2 1151.8937 1471.3250 1332.8355 0.0521 -122.4579 0.0220
# 3 1095.7028 1332.8355 1320.2083 0.0485 -119.2267 0.0200
# 4 0.0413 0.0521 0.0485 21.9869 -0.0046 3.0323
# 5 -99.9864 -122.4579 -119.2267 -0.0046 40.3884 -0.0017
# 6 0.0169 0.0220 0.0200 3.0323 -0.0017 28.9530
#
#
#
# Elastic Compliance Matrix: (Units=1/GPa)
#
#
# Indices 1 2 3 4 5 6 
#
# 1 0.009507 -0.003455 -0.004395 0.000000 0.000088 0.000000
# 2 -0.003455 0.009218 -0.006391 -0.000001 0.000530 0.000000
# 3 -0.004395 -0.006391 0.011077 0.000000 0.002444 0.000000
# 4 0.000000 -0.000001 0.000000 0.046148 0.000000 -0.004833
# 5 0.000088 0.000530 0.002444 0.000000 0.033800 0.000000
# 6 0.000000 0.000000 0.000000 -0.004833 0.000000 0.035045
#
#
# Mechanical properties :
#
#
# Convention : Reuss Voigt Hill
#
# Bulk Modulus (GPa) = 756.47197 1220.39733 988.43465
# Shear Modulus (GPa) = 28.78256 34.41763 31.60009
#
# Velocity S-wave (km/s) = 3.98395 4.35652 4.17439
# Velocity P-wave (km/s) = 20.93588 26.42501 23.83896
#
# Compressibility (1/GPa) = 0.00132193
#
# Stress axis : x y z
#
# Youngs Moduli (GPa) = 105.18333 108.48890 90.27430
#
# Poissons Ratio (x) = 0.37480 0.39673
# Poissons Ratio (y) = 0.36338 0.57691
# Poissons Ratio (z) = 0.46226 0.69331
#
# Static dielectric constant tensor:
#      x y z
#    x 1.717390 0.000000 0.041200 
#    y 0.000000 1.607790 0.000000 
#    z 0.041200 0.000000 1.635380 
# 
# From -- ./inp_files/306790.got.cif
#   From: 2010.05.17/outbox.cif.g08.bks.cpg/sg12_154_cif.got.tgz:306790.got - 2010.06.03 13:09:07.
