data_PCOD9207111
_publ_section_title
;
Structure prediction by ZEFSAII (Michael W. Deem and Ramdas Pophale) SiO2 
 PCOD9207111
Probable space group: C 2/M
;
_chemical_formula_sum "Si O2"
_cell_formula_units_Z 26
_cell_length_a 14.520152
_cell_length_b 15.370272
_cell_length_c 15.052457
_cell_angle_alpha 90.000000
_cell_angle_beta 160.884551
_cell_angle_gamma 90.000000
_cell_volume 1100.107648
_symmetry_space_group_name_H-M "C 2/M"
_symmetry_group_IT_number 12
_symmetry_cell_setting 'monoclinic'
loop_
_space_group_symop_operation_xyz
x,y,z
-x,y,-z
-x,-y,-z
x,-y,z
1/2+x,1/2+y,z
1/2-x,1/2+y,-z
1/2-x,1/2-y,-z
1/2+x,1/2-y,z
loop_
_atom_site_type_symbol
_atom_site_label
_atom_site_fract_x
_atom_site_fract_y
_atom_site_fract_z
Si Si1 0.714300 0.354988 0.971344
Si Si2 0.000000 0.000000 0.500000
Si Si3 0.295488 0.679926 0.732388
Si Si4 0.296868 0.364839 0.441669
O O1 0.498940 0.375948 0.853846
O O2 0.575265 0.382815 0.752040
O O3 0.750000 0.250000 0.000000
O O4 0.032680 0.386115 0.263902
O O5 0.796778 0.075427 0.356639
O O6 0.211552 0.765016 0.598142
O O7 0.000000 0.643221 0.500000
O O8 0.500000 0.705984 0.000000
#
# Coordination Sequence:
#
# PCOD9207111 Si02
#       4
#     8   2   8   8
#     4  10  21  37  57  80 119 158 195 253 299 339
#     4  12  28  38  64  86 132 170 196 228 292 386
#     4  11  19  34  60  89 113 149 199 253 300 341
#     4  11  23  38  53  86 123 162 196 231 300 363
#
# _framework density 23.634049999999998
#
# number of rings (size 3 to 8) (size 9 to 14) (size 15 to 20)
#    0.000    1.231    1.538    9.231    0.000    2.462 
#    0.000    0.000    0.000    0.000    0.000   21.538 
#    0.000    0.000    0.000    0.000    0.000    0.000 
#
# Total GULP energy -72377.086535 kJ/mol
# GULP energy per Si atom -5567.468195 kJ/mol
# Density = 2.358026 g / cm^3
# Si number density = 23.634050 Si / 1000 Ang^3
#
#
#
# Elastic Constant Matrix: (Units=GPa)
#
#
# Indices 1 2 3 4 5 6 
#
# 1 124.4833 -0.4473 18.4200 0.0722 45.7385 -0.0130
# 2 -0.4473 19.6145 -9.7215 0.1108 12.1502 -0.1933
# 3 18.4200 -9.7215 100.4087 0.0396 8.7754 -0.0079
# 4 0.0722 0.1108 0.0396 -15.7304 0.0570 5.8617
# 5 45.7385 12.1502 8.7754 0.0570 63.1630 -0.0134
# 6 -0.0130 -0.1933 -0.0079 5.8617 -0.0134 56.7543
#
#
#
# Elastic Compliance Matrix: (Units=1/GPa)
#
#
# Indices 1 2 3 4 5 6 
#
# 1 0.011624 0.005721 -0.000756 0.000063 -0.009413 0.000013
# 2 0.005721 0.065452 0.006833 0.000503 -0.017683 0.000169
# 3 -0.000756 0.006833 0.010960 0.000070 -0.002290 0.000017
# 4 0.000063 0.000503 0.000070 -0.061211 -0.000095 0.006324
# 5 -0.009413 -0.017683 -0.002290 -0.000095 0.026368 -0.000047
# 6 0.000013 0.000169 0.000017 0.006324 -0.000047 0.016967
#
#
# Mechanical properties :
#
#
# Convention : Reuss Voigt Hill
#
# Bulk Modulus (GPa) = 8.95802 29.00100 18.97951
# Shear Modulus (GPa) = 59.68369 36.58773 48.13571
#
# Velocity S-wave (km/s) = 5.03071 3.93885 4.51789
# Velocity P-wave (km/s) = 6.12721 5.74313 5.93827
#
# Compressibility (1/GPa) = 0.11163176
#
# Stress axis : x y z
#
# Youngs Moduli (GPa) = 86.02772 15.27834 91.24423
#
# Poissons Ratio (x) = -0.08741 0.06897
# Poissons Ratio (y) = -0.49217 -0.62345
# Poissons Ratio (z) = 0.06503 -0.10439
#
# Static dielectric constant tensor:
#      x y z
#    x 2.003620 0.000010 -0.003900 
#    y 0.000010 1.891500 -0.000080 
#    z -0.003900 -0.000080 1.882910 
# 
# From -- ./inp_files/9458.got.cif
#   From: 2010.05.17/outbox.cif.g08.bks.cpg/sg12_5_cif.got.tgz:9458.got - 2010.06.03 13:09:07.
