data_PCOD9207561
_publ_section_title
;
Structure prediction by ZEFSAII (Michael W. Deem and Ramdas Pophale) SiO2 
 PCOD9207561
Probable space group: C 2/M
;
_chemical_formula_sum "Si O2"
_cell_formula_units_Z 56
_cell_length_a 29.820557
_cell_length_b 7.429890
_cell_length_c 12.658230
_cell_angle_alpha 90.000000
_cell_angle_beta 56.267126
_cell_angle_gamma 90.000000
_cell_volume 2332.406320
_symmetry_space_group_name_H-M "C 2/M"
_symmetry_group_IT_number 12
_symmetry_cell_setting 'monoclinic'
loop_
_space_group_symop_operation_xyz
x,y,z
-x,y,-z
-x,-y,-z
x,-y,z
1/2+x,1/2+y,z
1/2-x,1/2+y,-z
1/2-x,1/2-y,-z
1/2+x,1/2-y,z
loop_
_atom_site_type_symbol
_atom_site_label
_atom_site_fract_x
_atom_site_fract_y
_atom_site_fract_z
Si Si1 0.370556 0.782394 0.458972
Si Si2 0.061974 0.280379 0.427594
Si Si3 0.751861 0.294413 0.660229
Si Si4 0.038195 0.703155 0.037806
Si Si5 0.634285 0.711349 0.769313
Si Si6 0.599644 0.779473 0.149908
Si Si7 0.718376 0.213553 0.933779
O O1 0.408079 0.719628 0.505633
O O2 0.309173 0.713817 0.553848
O O3 0.388846 0.732527 0.317842
O O4 0.369366 0.000000 0.466605
O O5 0.062279 0.500000 0.429152
O O6 0.091825 0.225311 0.280980
O O7 0.000000 0.223957 0.500000
O O8 0.752637 0.500000 0.620151
O O9 0.695476 0.215249 0.692722
O O10 0.746486 0.294304 0.794136
O O11 0.016793 0.500000 0.083187
O O12 0.095934 0.696630 0.904065
O O13 0.051605 0.781124 0.134915
O O14 0.000000 0.791949 0.000000
O O15 0.636227 0.500000 0.794025
O O16 0.599014 0.000000 0.147933
O O17 0.657348 0.720337 0.030068
O O18 0.716552 0.000000 0.918576
O O19 0.750000 0.250000 0.000000
#
# Coordination Sequence:
#
# PCOD9207561 Si02
#       7
#     8   8   8   8   8   8   8
#     4  10  21  37  59  84 115 153 197 242 287 347
#     4   9  18  32  55  85 112 141 183 240 293 333
#     4  10  21  38  57  83 116 151 193 243 294 349
#     4  10  21  37  62  90 115 147 195 244 287 347
#     4  11  23  38  58  85 121 155 191 239 295 357
#     4   9  18  34  54  83 117 145 182 237 291 336
#     4  11  21  34  56  83 117 155 192 238 288 349
#
# _framework density 24.009536000000001
#
# number of rings (size 3 to 8) (size 9 to 14) (size 15 to 20)
#    0.000    2.000    1.429    2.143    2.000    3.714 
#    0.000    0.000    0.000    1.286    0.000    0.000 
#    0.000    0.000    0.000    0.000    0.000    0.000 
#
# Total GULP energy -156588.154810 kJ/mol
# GULP energy per Si atom -5592.434100 kJ/mol
# Density = 2.395489 g / cm^3
# Si number density = 24.009536 Si / 1000 Ang^3
#
#
#
# Elastic Constant Matrix: (Units=GPa)
#
#
# Indices 1 2 3 4 5 6 
#
# 1 120.5048 -3.2938 3.1166 0.0000 32.1162 0.0000
# 2 -3.2938 88.8896 -12.3583 0.0000 -5.1034 0.0000
# 3 3.1166 -12.3583 74.2127 0.0000 26.0352 0.0000
# 4 0.0000 0.0000 0.0000 12.1337 0.0000 -0.7374
# 5 32.1162 -5.1034 26.0352 0.0000 49.1322 0.0000
# 6 0.0000 0.0000 0.0000 -0.7374 0.0000 -37.3421
#
#
#
# Elastic Compliance Matrix: (Units=1/GPa)
#
#
# Indices 1 2 3 4 5 6 
#
# 1 0.010389 0.000261 0.002432 0.000000 -0.008052 0.000000
# 2 0.000261 0.011525 0.001902 0.000000 0.000019 0.000000
# 3 0.002432 0.001902 0.017415 0.000000 -0.010621 0.000000
# 4 0.000000 0.000000 0.000000 0.082316 0.000000 -0.001625
# 5 -0.008052 0.000019 -0.010621 0.000000 0.031247 0.000000
# 6 0.000000 0.000000 0.000000 -0.001625 0.000000 -0.026747
#
#
# Mechanical properties :
#
#
# Convention : Reuss Voigt Hill
#
# Bulk Modulus (GPa) = 20.61093 28.72625 24.66859
# Shear Modulus (GPa) = 37.55777 24.52759 31.04268
#
# Velocity S-wave (km/s) = 3.95940 3.19968 3.59964
# Velocity P-wave (km/s) = 5.43190 5.06370 5.25103
#
# Compressibility (1/GPa) = 0.04851794
#
# Stress axis : x y z
#
# Youngs Moduli (GPa) = 96.25799 86.76758 57.42104
#
# Poissons Ratio (x) = -0.02263 -0.13965
# Poissons Ratio (y) = -0.02510 -0.10919
# Poissons Ratio (z) = -0.23411 -0.16500
#
# Static dielectric constant tensor:
#      x y z
#    x 1.919890 0.000000 -0.007610 
#    y 0.000000 1.857200 0.000000 
#    z -0.007610 0.000000 1.859800 
# 
# From -- ./inp_files/181126.got.cif
#   From: 2010.05.17/outbox.cif.g08.bks.cpg/sg12_91_cif.got.tgz:181126.got - 2010.06.03 13:09:07.
