data_PCOD9207180
_publ_section_title
;
Structure prediction by ZEFSAII (Michael W. Deem and Ramdas Pophale) SiO2 
 PCOD9207180
Probable space group: C 2/M
;
_chemical_formula_sum "Si O2"
_cell_formula_units_Z 40
_cell_length_a 18.397661
_cell_length_b 8.185310
_cell_length_c 26.530338
_cell_angle_alpha 90.000000
_cell_angle_beta 30.119012
_cell_angle_gamma 90.000000
_cell_volume 2004.791756
_symmetry_space_group_name_H-M "C 2/M"
_symmetry_group_IT_number 12
_symmetry_cell_setting 'monoclinic'
loop_
_space_group_symop_operation_xyz
x,y,z
-x,y,-z
-x,-y,-z
x,-y,z
1/2+x,1/2+y,z
1/2-x,1/2+y,-z
1/2-x,1/2-y,-z
1/2+x,1/2-y,z
loop_
_atom_site_type_symbol
_atom_site_label
_atom_site_fract_x
_atom_site_fract_y
_atom_site_fract_z
Si Si1 0.832764 0.199872 0.600680
Si Si2 0.337107 0.803167 0.197849
Si Si3 0.331146 0.804197 0.001830
Si Si4 0.165257 0.302553 0.600649
Si Si5 0.833337 0.695311 0.799030
O O1 0.749554 0.254963 0.700835
O O2 0.748784 0.253092 0.600812
O O3 0.000000 0.252269 0.500000
O O4 0.832617 0.000000 0.600984
O O5 0.253511 0.757895 0.197252
O O6 0.342275 0.000000 0.197749
O O7 0.502738 0.743366 0.097734
O O8 0.246795 0.744814 0.101705
O O9 0.334721 0.000000 0.000834
O O10 0.250000 0.750000 0.000000
O O11 0.162651 0.500000 0.603641
O O12 0.250000 0.250000 0.500000
O O13 0.999264 0.243759 0.699338
O O14 0.837375 0.500000 0.794145
#
# Coordination Sequence:
#
# PCOD9207180 Si02
#       5
#     8   8   8   8   8
#     4   9  17  32  56  81 106 141 184 229 279 336
#     4  10  21  38  59  83 112 149 194 238 283 342
#     4  11  23  39  60  85 115 152 193 238 288 343
#     4  10  21  37  57  83 114 148 188 236 288 343
#     4  11  23  38  57  84 118 152 190 239 290 341
#
# _framework density 19.952195
#
# number of rings (size 3 to 8) (size 9 to 14) (size 15 to 20)
#    0.000    1.800    0.000    4.200    0.000   10.400 
#    0.000    1.000    0.000    3.600    0.000    0.000 
#    0.000    0.000    0.000    0.000    0.000    0.000 
#
# Total GULP energy -111805.388425 kJ/mol
# GULP energy per Si atom -5590.269421 kJ/mol
# Density = 1.990678 g / cm^3
# Si number density = 19.952195 Si / 1000 Ang^3
#
#
#
# Elastic Constant Matrix: (Units=GPa)
#
#
# Indices 1 2 3 4 5 6 
#
# 1 225.6318 -1.6226 140.6462 0.0000 -4.3810 -0.0002
# 2 -1.6226 1.0235 7.0085 -0.0001 -5.6217 -0.0006
# 3 140.6462 7.0085 240.5827 0.0000 -4.8404 0.0000
# 4 0.0000 -0.0001 0.0000 24.2834 0.0000 6.2154
# 5 -4.3810 -5.6217 -4.8404 0.0000 48.0131 0.0000
# 6 -0.0002 -0.0006 0.0000 6.2154 0.0000 30.9734
#
#
#
# Elastic Compliance Matrix: (Units=1/GPa)
#
#
# Indices 1 2 3 4 5 6 
#
# 1 -0.026744 -0.819698 0.037610 0.000002 -0.094625 -0.000017
# 2 -0.819698-19.926401 1.013290 0.000048 -2.305774 -0.000418
# 3 0.037610 1.013290 -0.044984 -0.000002 0.117540 0.000021
# 4 0.000002 0.000048 -0.000002 0.043410 0.000006 -0.008711
# 5 -0.094625 -2.305774 0.117540 0.000006 -0.245934 -0.000048
# 6 -0.000017 -0.000418 0.000021 -0.008711 -0.000048 0.034034
#
#
# Mechanical properties :
#
#
# Convention : Reuss Voigt Hill
#
# Bulk Modulus (GPa) = -0.05119 84.36690 42.15786
# Shear Modulus (GPa) = -0.18422 42.06771 20.94174
#
# Velocity S-wave (km/s) = -0.30419 4.59674 3.24326
# Velocity P-wave (km/s) = 0.38612 8.39939 5.93298
#
# Compressibility (1/GPa) = -19.53572582
#
# Stress axis : x y z
#
# Youngs Moduli (GPa) = -37.39180 -0.05018 -22.23025
#
# Poissons Ratio (x) = -0.04114 0.83607
# Poissons Ratio (y) = -30.64999 22.52569
# Poissons Ratio (z) = 1.40629 0.05085
#
# Static dielectric constant tensor:
#      x y z
#    x 1.653380 0.000000 -0.025990 
#    y 0.000000 1.744100 0.000000 
#    z -0.025990 0.000000 1.676510 
# 
# From -- ./inp_files/151678.got.cif
#   From: 2010.05.17/outbox.cif.g08.bks.cpg/sg12_76_cif.got.tgz:151678.got - 2010.06.03 13:09:07.
