data_PCOD9207503
_publ_section_title
;
Structure prediction by ZEFSAII (Michael W. Deem and Ramdas Pophale) SiO2 
 PCOD9207503
Probable space group: C 2/M
;
_chemical_formula_sum "Si O2"
_cell_formula_units_Z 48
_cell_length_a 19.919373
_cell_length_b 20.191233
_cell_length_c 4.834472
_cell_angle_alpha 90.000000
_cell_angle_beta 112.357119
_cell_angle_gamma 90.000000
_cell_volume 1798.249383
_symmetry_space_group_name_H-M "C 2/M"
_symmetry_group_IT_number 12
_symmetry_cell_setting 'monoclinic'
loop_
_space_group_symop_operation_xyz
x,y,z
-x,y,-z
-x,-y,-z
x,-y,z
1/2+x,1/2+y,z
1/2-x,1/2+y,-z
1/2-x,1/2-y,-z
1/2+x,1/2-y,z
loop_
_atom_site_type_symbol
_atom_site_label
_atom_site_fract_x
_atom_site_fract_y
_atom_site_fract_z
Si Si1 0.163210 0.610580 0.409761
Si Si2 0.071431 0.424399 0.770446
Si Si3 0.894528 0.072850 0.956788
Si Si4 0.699686 0.603577 0.704434
Si Si5 0.157489 0.754661 0.557601
Si Si6 0.064928 0.215139 0.909293
O O1 0.132132 0.574130 0.626791
O O2 0.228328 0.579970 0.335340
O O3 0.186781 0.681378 0.571173
O O4 0.134353 0.774321 0.212946
O O5 0.057379 0.500000 0.841514
O O6 0.099126 0.383889 0.078857
O O7 0.000000 0.398933 0.500000
O O8 0.867507 0.085291 0.602494
O O9 0.926783 0.000000 0.038245
O O10 0.822190 0.076236 0.033861
O O11 0.941879 0.135344 0.130889
O O12 0.704340 0.683590 0.735201
O O13 0.087130 0.754729 0.650832
O O14 0.000000 0.239949 0.000000
#
# Coordination Sequence:
#
# PCOD9207503 Si02
#       6
#     8   8   8   8   8   8
#     4  12  23  40  68  90 114 164 206 237 306 384
#     4  11  26  45  62  88 124 156 199 258 306 354
#     4  10  21  37  58  87 124 163 203 251 299 349
#     4  10  22  38  59  90 126 156 197 257 305 351
#     4  10  22  39  59  90 125 155 197 255 304 351
#     4  10  21  38  59  85 123 164 201 249 301 349
#
# _framework density 26.692627999999999
#
# number of rings (size 3 to 8) (size 9 to 14) (size 15 to 20)
#    0.000    1.500    0.000    4.500    0.000    8.333 
#    0.000    6.667    0.000    6.000    0.000    0.000 
#    0.000    0.000    0.000    0.000    0.000    0.000 
#
# Total GULP energy -134386.418397 kJ/mol
# GULP energy per Si atom -5599.434100 kJ/mol
# Density = 2.663187 g / cm^3
# Si number density = 26.692628 Si / 1000 Ang^3
#
#
#
# Elastic Constant Matrix: (Units=GPa)
#
#
# Indices 1 2 3 4 5 6 
#
# 1 128.2569 10.8354 20.4359 0.0000 -41.6585 0.0000
# 2 10.8354 113.6874 10.8013 0.0000 -6.7469 0.0000
# 3 20.4359 10.8013 148.1180 0.0000 -21.9968 0.0000
# 4 0.0000 0.0000 0.0000 7.0277 0.0000 -14.7388
# 5 -41.6585 -6.7469 -21.9968 0.0000 47.4091 0.0000
# 6 0.0000 0.0000 0.0000 -14.7388 0.0000 0.6591
#
#
#
# Elastic Compliance Matrix: (Units=1/GPa)
#
#
# Indices 1 2 3 4 5 6 
#
# 1 0.010937 -0.000472 -0.000062 0.000000 0.009515 0.000000
# 2 -0.000472 0.008925 -0.000493 0.000000 0.000627 0.000000
# 3 -0.000062 -0.000493 0.007279 0.000000 0.003253 0.000000
# 4 0.000000 0.000000 0.000000 -0.003100 0.000000 -0.069326
# 5 0.009515 0.000627 0.003253 0.000000 0.031052 0.000000
# 6 0.000000 0.000000 0.000000 -0.069326 0.000000 -0.033056
#
#
# Mechanical properties :
#
#
# Convention : Reuss Voigt Hill
#
# Bulk Modulus (GPa) = 39.85862 52.68972 46.27417
# Shear Modulus (GPa) = 154.07531 34.21850 94.14691
#
# Velocity S-wave (km/s) = 7.60574 3.58431 5.94536
# Velocity P-wave (km/s) = 9.59660 6.07552 8.03140
#
# Compressibility (1/GPa) = 0.02508868
#
# Stress axis : x y z
#
# Youngs Moduli (GPa) = 91.43356 112.04436 137.38344
#
# Poissons Ratio (x) = 0.05287 0.00846
# Poissons Ratio (y) = 0.04315 0.06768
# Poissons Ratio (z) = 0.00563 0.05520
#
# Static dielectric constant tensor:
#      x y z
#    x 2.139120 0.000000 0.078200 
#    y 0.000000 2.108150 0.000000 
#    z 0.078200 0.000000 1.999780 
# 
# From -- ./inp_files/25279.got.cif
#   From: 2010.05.17/outbox.cif.g08.bks.cpg/sg12_13_cif.got.tgz:25279.got - 2010.06.03 13:09:07.
