data_PCOD9207265
_publ_section_title
;
Structure prediction by ZEFSAII (Michael W. Deem and Ramdas Pophale) SiO2 
 PCOD9207265
Probable space group: C 2/M
;
_chemical_formula_sum "Si O2"
_cell_formula_units_Z 64
_cell_length_a 25.424137
_cell_length_b 14.922173
_cell_length_c 9.447907
_cell_angle_alpha 90.000000
_cell_angle_beta 68.231390
_cell_angle_gamma 90.000000
_cell_volume 3328.773685
_symmetry_space_group_name_H-M "C 2/M"
_symmetry_group_IT_number 12
_symmetry_cell_setting 'monoclinic'
loop_
_space_group_symop_operation_xyz
x,y,z
-x,y,-z
-x,-y,-z
x,-y,z
1/2+x,1/2+y,z
1/2-x,1/2+y,-z
1/2-x,1/2-y,-z
1/2+x,1/2-y,z
loop_
_atom_site_type_symbol
_atom_site_label
_atom_site_fract_x
_atom_site_fract_y
_atom_site_fract_z
Si Si1 0.175252 0.094531 0.602225
Si Si2 0.990138 0.105701 0.843768
Si Si3 0.755374 0.340030 0.734518
Si Si4 0.633326 0.104253 0.544201
Si Si5 0.737976 0.396638 0.053140
Si Si6 0.390575 0.605849 0.739361
Si Si7 0.580006 0.712054 0.570839
Si Si8 0.279566 0.858312 0.305741
O O1 0.203147 0.101580 0.728144
O O2 0.134782 0.174653 0.600472
O O3 0.228659 0.095797 0.443169
O O4 0.144192 0.000000 0.617637
O O5 0.027918 0.170172 0.708379
O O6 0.926442 0.116699 0.847560
O O7 0.004502 0.000000 0.807714
O O8 0.000000 0.124836 0.000000
O O9 0.814622 0.376064 0.615898
O O10 0.740042 0.244623 0.682320
O O11 0.755662 0.338576 0.901903
O O12 0.586357 0.180539 0.563190
O O13 0.663297 0.122320 0.666369
O O14 0.616339 0.000000 0.550934
O O15 0.735745 0.500000 0.007916
O O16 0.675210 0.372107 0.170646
O O17 0.779440 0.389811 0.144840
O O18 0.394184 0.500000 0.695210
O O19 0.415199 0.667215 0.589187
#
# Coordination Sequence:
#
# PCOD9207265 Si02
#       8
#     8   8   8   8   8   8   8   8
#     4  11  19  31  52  76 105 142 183 223 272 330
#     4  10  23  40  61  90 120 145 178 233 296 350
#     4  11  20  34  49  78 114 154 191 234 276 323
#     4  11  22  38  57  81 116 154 198 237 273 326
#     4  11  21  32  51  80 116 153 189 230 280 335
#     4  10  21  37  57  86 117 149 186 228 285 350
#     4  12  21  37  59  83 110 150 192 229 280 338
#     4  11  19  35  51  76 113 155 194 230 274 330
#
# _framework density 19.226299999999998
#
# number of rings (size 3 to 8) (size 9 to 14) (size 15 to 20)
#    0.000    1.125    3.750    5.625    1.750    1.000 
#    0.000    0.000    0.000    1.875    0.000    0.000 
#    0.000    0.000    0.000    0.000    0.000    0.000 
#
# Total GULP energy -178699.675852 kJ/mol
# GULP energy per Si atom -5584.364870 kJ/mol
# Density = 1.918254 g / cm^3
# Si number density = 19.226300 Si / 1000 Ang^3
#
#
#
# Elastic Constant Matrix: (Units=GPa)
#
#
# Indices 1 2 3 4 5 6 
#
# 1 41.6142 11.3318 28.0258 0.0000 13.5331 0.0000
# 2 11.3318 130.4545 25.7949 0.0000 -2.1129 0.0000
# 3 28.0258 25.7949 109.1959 0.0000 25.4401 0.0000
# 4 0.0000 0.0000 0.0000 33.7355 0.0000 4.5379
# 5 13.5331 -2.1129 25.4401 0.0000 22.4236 0.0000
# 6 0.0000 0.0000 0.0000 4.5379 0.0000 19.4940
#
#
#
# Elastic Compliance Matrix: (Units=1/GPa)
#
#
# Indices 1 2 3 4 5 6 
#
# 1 0.032368 -0.002194 -0.004336 0.000000 -0.014823 0.000000
# 2 -0.002194 0.008457 -0.002622 0.000000 0.005096 0.000000
# 3 -0.004336 -0.002622 0.014052 0.000000 -0.013573 0.000000
# 4 0.000000 0.000000 0.000000 0.030601 0.000000 -0.007123
# 5 -0.014823 0.005096 -0.013573 0.000000 0.069420 0.000000
# 6 0.000000 0.000000 0.000000 -0.007123 0.000000 0.052956
#
#
# Mechanical properties :
#
#
# Convention : Reuss Voigt Hill
#
# Bulk Modulus (GPa) = 27.34217 45.72995 36.53606
# Shear Modulus (GPa) = 20.97762 29.53810 25.25786
#
# Velocity S-wave (km/s) = 3.30675 3.92387 3.62845
# Velocity P-wave (km/s) = 5.36950 6.66076 6.04968
#
# Compressibility (1/GPa) = 0.03657354
#
# Stress axis : x y z
#
# Youngs Moduli (GPa) = 30.89449 118.24460 71.16362
#
# Poissons Ratio (x) = 0.25947 0.30855
# Poissons Ratio (y) = 0.06779 0.18657
# Poissons Ratio (z) = 0.13395 0.31001
#
# Static dielectric constant tensor:
#      x y z
#    x 1.671920 0.000000 0.025990 
#    y 0.000000 1.739190 0.000000 
#    z 0.025990 0.000000 1.671160 
# 
# From -- ./inp_files/104579.got.cif
#   From: 2010.05.17/outbox.cif.g08.bks.cpg/sg12_53_cif.got.tgz:104579.got - 2010.06.03 13:09:07.
