data_PCOD9207455
_publ_section_title
;
Structure prediction by ZEFSAII (Michael W. Deem and Ramdas Pophale) SiO2 
 PCOD9207455
Probable space group: C 2/M
;
_chemical_formula_sum "Si O2"
_cell_formula_units_Z 40
_cell_length_a 15.212046
_cell_length_b 9.062685
_cell_length_c 30.569179
_cell_angle_alpha 90.000000
_cell_angle_beta 149.810769
_cell_angle_gamma 90.000000
_cell_volume 2119.206202
_symmetry_space_group_name_H-M "C 2/M"
_symmetry_group_IT_number 12
_symmetry_cell_setting 'monoclinic'
loop_
_space_group_symop_operation_xyz
x,y,z
-x,y,-z
-x,-y,-z
x,-y,z
1/2+x,1/2+y,z
1/2-x,1/2+y,-z
1/2-x,1/2-y,-z
1/2+x,1/2-y,z
loop_
_atom_site_type_symbol
_atom_site_label
_atom_site_fract_x
_atom_site_fract_y
_atom_site_fract_z
Si Si1 0.502551 0.676765 0.271706
Si Si2 0.417258 0.677269 0.593954
Si Si3 0.202788 0.320439 0.276931
Si Si4 0.885860 0.335022 0.088330
Si Si5 0.187389 0.831890 0.095336
O O1 0.503550 0.500000 0.267595
O O2 0.563820 0.716613 0.346760
O O3 0.627283 0.748881 0.288570
O O4 0.306706 0.737043 0.178755
O O5 0.401951 0.500000 0.584941
O O6 0.250000 0.750000 0.500000
O O7 0.597786 0.718370 0.647313
O O8 0.187813 0.500000 0.273332
O O9 0.077247 0.273156 0.182345
O O10 0.906676 0.500000 0.079334
O O11 0.797444 0.342288 0.098027
O O12 0.750000 0.250000 0.000000
O O13 0.160282 0.000000 0.100410
O O14 0.000000 0.770285 0.000000
#
# Coordination Sequence:
#
# PCOD9207455 Si02
#       5
#     8   8   8   8   8
#     4  10  21  37  58  86 116 145 187 242 287 328
#     4  10  23  41  61  86 114 148 191 238 290 342
#     4   9  20  40  59  78 114 156 188 226 283 349
#     4   9  18  31  50  76 107 143 182 223 269 325
#     4   9  19  35  53  77 111 151 189 224 274 340
#
# _framework density 18.874991999999999
#
# number of rings (size 3 to 8) (size 9 to 14) (size 15 to 20)
#    0.000    2.600    0.000    1.800    2.800    6.800 
#    0.000    4.000    0.000    0.000    0.000    0.000 
#    0.000    0.000    0.000    0.000    0.000    0.000 
#
# Total GULP energy -111523.770889 kJ/mol
# GULP energy per Si atom -5576.188544 kJ/mol
# Density = 1.883203 g / cm^3
# Si number density = 18.874992 Si / 1000 Ang^3
#
#
#
# Elastic Constant Matrix: (Units=GPa)
#
#
# Indices 1 2 3 4 5 6 
#
# 1 82.4562 33.9416 81.1584 0.0000 2.5654 0.0000
# 2 33.9416 41.6746 63.1026 0.0000 -7.4581 0.0000
# 3 81.1584 63.1026 221.2165 0.0000 6.5021 0.0000
# 4 0.0000 0.0000 0.0000 36.1662 0.0000 -1.3039
# 5 2.5654 -7.4581 6.5021 0.0000 34.0679 0.0000
# 6 0.0000 0.0000 0.0000 -1.3039 0.0000 21.0115
#
#
#
# Elastic Compliance Matrix: (Units=1/GPa)
#
#
# Indices 1 2 3 4 5 6 
#
# 1 0.021225 -0.010897 -0.004587 0.000000 -0.003108 0.000000
# 2 -0.010897 0.052956 -0.011538 0.000000 0.014616 0.000000
# 3 -0.004587 -0.011538 0.009612 0.000000 -0.004015 0.000000
# 4 0.000000 0.000000 0.000000 0.027712 0.000000 0.001720
# 5 -0.003108 0.014616 -0.004015 0.000000 0.033553 0.000000
# 6 0.000000 0.000000 0.000000 0.001720 0.000000 0.047700
#
#
# Mechanical properties :
#
#
# Convention : Reuss Voigt Hill
#
# Bulk Modulus (GPa) = 33.61357 77.97249 55.79303
# Shear Modulus (GPa) = 19.47656 29.39209 24.43432
#
# Velocity S-wave (km/s) = 3.21576 3.95042 3.60187
# Velocity P-wave (km/s) = 5.62453 7.88716 6.84991
#
# Compressibility (1/GPa) = 0.02974989
#
# Stress axis : x y z
#
# Youngs Moduli (GPa) = 47.11471 18.88351 104.03179
#
# Poissons Ratio (x) = 0.20578 0.47719
# Poissons Ratio (y) = 0.51342 1.20028
# Poissons Ratio (z) = 0.21611 0.21787
#
# Static dielectric constant tensor:
#      x y z
#    x 1.653700 0.000000 0.018910 
#    y 0.000000 1.661400 0.000000 
#    z 0.018910 0.000000 1.664280 
# 
# From -- ./inp_files/211233.got.cif
#   From: 2010.05.17/outbox.cif.g08.bks.cpg/sg12_106_cif.got.tgz:211233.got - 2010.06.03 13:09:07.
