data_PCOD9207679
_publ_section_title
;
Structure prediction by ZEFSAII (Michael W. Deem and Ramdas Pophale) SiO2 
 PCOD9207679
Probable space group: C 2/M
;
_chemical_formula_sum "Si O2"
_cell_formula_units_Z 40
_cell_length_a 13.266855
_cell_length_b 15.622257
_cell_length_c 7.083453
_cell_angle_alpha 90.000000
_cell_angle_beta 100.771205
_cell_angle_gamma 90.000000
_cell_volume 1442.237765
_symmetry_space_group_name_H-M "C 2/M"
_symmetry_group_IT_number 12
_symmetry_cell_setting 'monoclinic'
loop_
_space_group_symop_operation_xyz
x,y,z
-x,y,-z
-x,-y,-z
x,-y,z
1/2+x,1/2+y,z
1/2-x,1/2+y,-z
1/2-x,1/2-y,-z
1/2+x,1/2-y,z
loop_
_atom_site_type_symbol
_atom_site_label
_atom_site_fract_x
_atom_site_fract_y
_atom_site_fract_z
Si Si1 0.177974 0.906695 0.865210
Si Si2 0.972946 0.236167 0.221553
Si Si3 0.131231 0.095135 0.402842
Si Si4 0.361926 0.901860 0.383849
Si Si5 0.404454 0.885290 0.845424
O O1 0.112310 0.825481 0.901535
O O2 0.162226 0.906014 0.632961
O O3 0.300498 0.899426 0.922902
O O4 0.145636 0.000000 0.927397
O O5 0.915408 0.316057 0.313274
O O6 0.045178 0.164987 0.344838
O O7 0.065322 0.287054 0.154687
O O8 0.238814 0.110545 0.332789
O O9 0.092501 0.000000 0.342196
O O10 0.609363 0.907750 0.380827
O O11 0.384888 0.000000 0.322488
O O12 0.500000 0.919164 0.000000
#
# Coordination Sequence:
#
# PCOD9207679 Si02
#       5
#     8   8   8   8   8
#     4  10  21  37  59  88 118 151 194 239 287 348
#     4  12  22  37  64  92 116 147 193 246 293 340
#     4   9  18  35  60  89 119 149 185 238 299 348
#     4  10  22  39  60  88 118 150 194 242 287 342
#     4  11  24  39  58  82 119 162 196 233 288 344
#
# _framework density 27.734677999999999
#
# number of rings (size 3 to 8) (size 9 to 14) (size 15 to 20)
#    0.000    1.600    0.000    7.200    0.000    9.600 
#    0.000    0.000    0.000    4.800    0.000    0.000 
#    0.000    0.000    0.000    0.000    0.000    0.000 
#
# Total GULP energy -111752.737787 kJ/mol
# GULP energy per Si atom -5587.636889 kJ/mol
# Density = 2.767155 g / cm^3
# Si number density = 27.734678 Si / 1000 Ang^3
#
#
#
# Elastic Constant Matrix: (Units=GPa)
#
#
# Indices 1 2 3 4 5 6 
#
# 1 163.3368 132.4382 52.3195 0.0000 26.9421 0.0000
# 2 132.4382 315.1465 69.6907 0.0000 5.6045 0.0000
# 3 52.3195 69.6907 99.8009 0.0000 13.2542 0.0000
# 4 0.0000 0.0000 0.0000 17.6321 0.0000 -0.7133
# 5 26.9421 5.6045 13.2542 0.0000 59.2290 0.0000
# 6 0.0000 0.0000 0.0000 -0.7133 0.0000 43.2174
#
#
#
# Elastic Compliance Matrix: (Units=1/GPa)
#
#
# Indices 1 2 3 4 5 6 
#
# 1 0.010697 -0.003904 -0.002354 0.000000 -0.003969 0.000000
# 2 -0.003904 0.005181 -0.001795 0.000000 0.001687 0.000000
# 3 -0.002354 -0.001795 0.012721 0.000000 -0.001606 0.000000
# 4 0.000000 0.000000 0.000000 0.056753 0.000000 0.000937
# 5 -0.003969 0.001687 -0.001606 0.000000 0.018889 0.000000
# 6 0.000000 0.000000 0.000000 0.000937 0.000000 0.023154
#
#
# Mechanical properties :
#
#
# Convention : Reuss Voigt Hill
#
# Bulk Modulus (GPa) = 80.05445 120.79788 100.42616
# Shear Modulus (GPa) = 33.86043 45.60474 39.73259
#
# Velocity S-wave (km/s) = 3.49789 4.05942 3.78907
# Velocity P-wave (km/s) = 6.72612 8.10069 7.44520
#
# Compressibility (1/GPa) = 0.01249150
#
# Stress axis : x y z
#
# Youngs Moduli (GPa) = 93.48717 193.02346 78.61026
#
# Poissons Ratio (x) = 0.75356 0.18507
# Poissons Ratio (y) = 0.36497 0.14112
# Poissons Ratio (z) = 0.22010 0.34651
#
# Static dielectric constant tensor:
#      x y z
#    x 2.251320 0.000000 -0.244170 
#    y 0.000000 2.084230 0.000000 
#    z -0.244170 0.000000 2.645990 
# 
# From -- ./inp_files/129816.got.cif
#   From: 2010.05.17/outbox.cif.g08.bks.cpg/sg12_65_cif.got.tgz:129816.got - 2010.06.03 13:09:07.
