data_PCOD9207043
_publ_section_title
;
Structure prediction by ZEFSAII (Michael W. Deem and Ramdas Pophale) SiO2 
 PCOD9207043
Probable space group: C 2/M
;
_chemical_formula_sum "Si O2"
_cell_formula_units_Z 64
_cell_length_a 32.127737
_cell_length_b 8.855364
_cell_length_c 15.475039
_cell_angle_alpha 90.000000
_cell_angle_beta 130.814920
_cell_angle_gamma 90.000000
_cell_volume 3332.066842
_symmetry_space_group_name_H-M "C 2/M"
_symmetry_group_IT_number 12
_symmetry_cell_setting 'monoclinic'
loop_
_space_group_symop_operation_xyz
x,y,z
-x,y,-z
-x,-y,-z
x,-y,z
1/2+x,1/2+y,z
1/2-x,1/2+y,-z
1/2-x,1/2-y,-z
1/2+x,1/2-y,z
loop_
_atom_site_type_symbol
_atom_site_label
_atom_site_fract_x
_atom_site_fract_y
_atom_site_fract_z
Si Si1 0.790462 0.318196 0.983327
Si Si2 0.770837 0.179620 0.275523
Si Si3 0.007176 0.817749 0.908723
Si Si4 0.501779 0.816312 0.402942
Si Si5 0.779763 0.178248 0.623022
Si Si6 0.417971 0.816665 0.138199
Si Si7 0.123999 0.320882 0.517886
Si Si8 0.387186 0.321920 0.675995
O O1 0.790199 0.500000 0.992461
O O2 0.763446 0.278273 0.855044
O O3 0.750000 0.250000 0.000000
O O4 0.854624 0.270698 0.069019
O O5 0.741217 0.244790 0.319344
O O6 0.832228 0.245436 0.359678
O O7 0.773715 0.000000 0.285576
O O8 0.055004 0.746682 0.913816
O O9 0.949009 0.779465 0.784356
O O10 0.013804 0.000000 0.917153
O O11 0.000000 0.771968 0.000000
O O12 0.500000 0.764664 0.500000
O O13 0.455472 0.767871 0.271368
O O14 0.561723 0.772289 0.450495
O O15 0.498813 0.000000 0.400512
O O16 0.750000 0.250000 0.500000
O O17 0.845015 0.198788 0.697387
O O18 0.768042 0.000000 0.609774
O O19 0.419633 0.000000 0.135360
O O20 0.127810 0.500000 0.531878
O O21 0.135253 0.271014 0.435318
O O22 0.386046 0.500000 0.651712
#
# Coordination Sequence:
#
# PCOD9207043 Si02
#       8
#     8   8   8   8   8   8   8   8
#     4  10  25  45  66  89 120 163 210 259 310 359
#     4  11  24  41  58  85 124 161 201 254 304 357
#     4  10  22  39  60  87 121 163 202 242 299 365
#     4   9  19  35  59  90 118 145 186 242 299 353
#     4  11  22  36  57  86 118 158 199 241 294 357
#     4  10  21  41  64  90 122 156 200 253 300 355
#     4  11  21  35  61  91 115 154 202 244 300 364
#     4  10  21  37  56  81 121 159 191 244 304 352
#
# _framework density 19.207298000000002
#
# number of rings (size 3 to 8) (size 9 to 14) (size 15 to 20)
#    0.000    1.750    2.500    1.125    3.500    2.250 
#    0.000    0.000    0.000    1.875    0.000    0.000 
#    0.000    0.000    0.000    0.000    0.000    0.000 
#
# Total GULP energy -178630.581995 kJ/mol
# GULP energy per Si atom -5582.205687 kJ/mol
# Density = 1.916358 g / cm^3
# Si number density = 19.207298 Si / 1000 Ang^3
#
#
#
# Elastic Constant Matrix: (Units=GPa)
#
#
# Indices 1 2 3 4 5 6 
#
# 1 149.8081 34.8686 99.1829 0.0000 6.1459 0.0000
# 2 34.8686 21.0799 43.2182 0.0000 3.4027 0.0000
# 3 99.1829 43.2182 145.0597 0.0000 8.3532 0.0000
# 4 0.0000 0.0000 0.0000 21.2892 0.0000 0.0516
# 5 6.1459 3.4027 8.3532 0.0000 38.1748 0.0000
# 6 0.0000 0.0000 0.0000 0.0516 0.0000 31.2267
#
#
#
# Elastic Compliance Matrix: (Units=1/GPa)
#
#
# Indices 1 2 3 4 5 6 
#
# 1 0.012732 -0.008260 -0.006247 0.000000 0.000054 0.000000
# 2 -0.008260 0.127585 -0.032191 0.000000 -0.002998 0.000000
# 3 -0.006247 -0.032191 0.020795 0.000000 -0.000675 0.000000
# 4 0.000000 0.000000 0.000000 0.046972 0.000000 -0.000078
# 5 0.000054 -0.002998 -0.000675 0.000000 0.026602 0.000000
# 6 0.000000 0.000000 0.000000 -0.000078 0.000000 0.032024
#
#
# Mechanical properties :
#
#
# Convention : Reuss Voigt Hill
#
# Bulk Modulus (GPa) = 14.76805 74.49858 44.63331
# Shear Modulus (GPa) = 13.06581 27.38334 20.22457
#
# Velocity S-wave (km/s) = 2.61099 3.77991 3.24846
# Velocity P-wave (km/s) = 4.09819 7.61059 6.11213
#
# Compressibility (1/GPa) = 0.06771375
#
# Stress axis : x y z
#
# Youngs Moduli (GPa) = 78.54413 7.83793 48.08855
#
# Poissons Ratio (x) = 0.06474 0.30042
# Poissons Ratio (y) = 0.64879 1.54804
# Poissons Ratio (z) = 0.49068 0.25231
#
# Static dielectric constant tensor:
#      x y z
#    x 1.690920 0.000000 0.007890 
#    y 0.000000 1.670900 0.000000 
#    z 0.007890 0.000000 1.660300 
# 
# From -- ./inp_files/250062.got.cif
#   From: 2010.05.17/outbox.cif.g08.bks.cpg/sg12_126_cif.got.tgz:250062.got - 2010.06.03 13:09:07.
