data_PCOD9207282
_publ_section_title
;
Structure prediction by ZEFSAII (Michael W. Deem and Ramdas Pophale) SiO2 
 PCOD9207282
Probable space group: C 2/M
;
_chemical_formula_sum "Si O2"
_cell_formula_units_Z 56
_cell_length_a 21.776151
_cell_length_b 8.565709
_cell_length_c 16.884348
_cell_angle_alpha 90.000000
_cell_angle_beta 119.203909
_cell_angle_gamma 90.000000
_cell_volume 2749.081700
_symmetry_space_group_name_H-M "C 2/M"
_symmetry_group_IT_number 12
_symmetry_cell_setting 'monoclinic'
loop_
_space_group_symop_operation_xyz
x,y,z
-x,y,-z
-x,-y,-z
x,-y,z
1/2+x,1/2+y,z
1/2-x,1/2+y,-z
1/2-x,1/2-y,-z
1/2+x,1/2-y,z
loop_
_atom_site_type_symbol
_atom_site_label
_atom_site_fract_x
_atom_site_fract_y
_atom_site_fract_z
Si Si1 0.171770 0.682998 0.109815
Si Si2 0.293287 0.817315 0.286451
Si Si3 0.456454 0.324963 0.890423
Si Si4 0.089782 0.684473 0.901344
Si Si5 0.541216 0.689931 0.446677
Si Si6 0.295319 0.688005 0.455243
Si Si7 0.913944 0.815923 0.265597
O O1 0.190243 0.500000 0.118270
O O2 0.236081 0.781512 0.183147
O O3 0.107832 0.711688 0.131052
O O4 0.142412 0.733969 0.005170
O O5 0.267075 0.755899 0.354603
O O6 0.362259 0.720460 0.305653
O O7 0.309084 0.000000 0.300225
O O8 0.431402 0.500000 0.855781
O O9 0.514215 0.266035 0.865366
O O10 0.500000 0.331346 0.000000
O O11 0.080639 0.500000 0.905466
O O12 0.113768 0.727053 0.828871
O O13 0.500000 0.743545 0.500000
O O14 0.541398 0.500000 0.449740
O O15 0.622203 0.738689 0.489387
O O16 0.491696 0.734751 0.341733
O O17 0.293075 0.500000 0.452399
O O18 0.250000 0.750000 0.500000
O O19 0.914058 0.000000 0.249352
#
# Coordination Sequence:
#
# PCOD9207282 Si02
#       7
#     8   8   8   8   8   8   8
#     4  10  21  38  60  84 118 166 209 253 309 367
#     4  12  25  41  61  89 123 160 205 257 319 383
#     4   9  17  32  55  82 113 152 198 248 304 364
#     4  10  21  37  57  87 124 160 206 258 305 364
#     4   9  18  38  67  92 117 159 207 251 303 368
#     4  11  23  43  68  96 131 165 208 260 316 378
#     4  11  22  39  64  90 118 159 209 258 312 373
#
# _framework density 20.370439999999999
#
# number of rings (size 3 to 8) (size 9 to 14) (size 15 to 20)
#    0.000    1.714    1.429    3.429    0.000    5.143 
#    0.000    7.857    0.000    0.000    0.000    0.000 
#    0.000    0.000    0.000    0.000    0.000    0.000 
#
# Total GULP energy -156358.736171 kJ/mol
# GULP energy per Si atom -5584.240578 kJ/mol
# Density = 2.032408 g / cm^3
# Si number density = 20.370440 Si / 1000 Ang^3
#
#
#
# Elastic Constant Matrix: (Units=GPa)
#
#
# Indices 1 2 3 4 5 6 
#
# 1 77.0271 -5.3305 32.8776 0.0000 -6.6072 0.0000
# 2 -5.3305 37.2218 16.4977 0.0000 2.2803 0.0000
# 3 32.8776 16.4977 100.3875 0.0000 -3.9431 0.0000
# 4 0.0000 0.0000 0.0000 20.9974 0.0000 -4.3941
# 5 -6.6072 2.2803 -3.9431 0.0000 32.7195 0.0000
# 6 0.0000 0.0000 0.0000 -4.3941 0.0000 33.1319
#
#
#
# Elastic Compliance Matrix: (Units=1/GPa)
#
#
# Indices 1 2 3 4 5 6 
#
# 1 0.016046 0.004805 -0.005959 0.000000 0.002187 0.000000
# 2 0.004805 0.030638 -0.006686 0.000000 -0.001971 0.000000
# 3 -0.005959 -0.006686 0.013045 0.000000 0.000835 0.000000
# 4 0.000000 0.000000 0.000000 0.048984 0.000000 0.006497
# 5 0.002187 -0.001971 0.000835 0.000000 0.031242 0.000000
# 6 0.000000 0.000000 0.000000 0.006497 0.000000 0.031044
#
#
# Mechanical properties :
#
#
# Convention : Reuss Voigt Hill
#
# Bulk Modulus (GPa) = 22.70203 33.63621 28.16912
# Shear Modulus (GPa) = 24.83079 28.74255 26.78667
#
# Velocity S-wave (km/s) = 3.49515 3.76039 3.63020
# Velocity P-wave (km/s) = 5.23993 5.94997 5.60621
#
# Compressibility (1/GPa) = 0.04404893
#
# Stress axis : x y z
#
# Youngs Moduli (GPa) = 62.32057 32.63880 76.66001
#
# Poissons Ratio (x) = -0.15683 0.45681
# Poissons Ratio (y) = -0.29946 0.51257
# Poissons Ratio (z) = 0.37137 0.21823
#
# Static dielectric constant tensor:
#      x y z
#    x 1.732050 0.000000 0.011590 
#    y 0.000000 1.687380 0.000000 
#    z 0.011590 0.000000 1.735710 
# 
# From -- ./inp_files/281734.got.cif
#   From: 2010.05.17/outbox.cif.g08.bks.cpg/sg12_141_cif.got.tgz:281734.got - 2010.06.03 13:09:07.
