data_PCOD9207428
_publ_section_title
;
Structure prediction by ZEFSAII (Michael W. Deem and Ramdas Pophale) SiO2 
 PCOD9207428
Probable space group: C 2/M
;
_chemical_formula_sum "Si O2"
_cell_formula_units_Z 48
_cell_length_a 18.810130
_cell_length_b 8.694613
_cell_length_c 32.317061
_cell_angle_alpha 90.000000
_cell_angle_beta 29.181684
_cell_angle_gamma 90.000000
_cell_volume 2577.034981
_symmetry_space_group_name_H-M "C 2/M"
_symmetry_group_IT_number 12
_symmetry_cell_setting 'monoclinic'
loop_
_space_group_symop_operation_xyz
x,y,z
-x,y,-z
-x,-y,-z
x,-y,z
1/2+x,1/2+y,z
1/2-x,1/2+y,-z
1/2-x,1/2-y,-z
1/2+x,1/2-y,z
loop_
_atom_site_type_symbol
_atom_site_label
_atom_site_fract_x
_atom_site_fract_y
_atom_site_fract_z
Si Si1 0.159160 0.815645 0.257638
Si Si2 0.681680 0.315633 0.576733
Si Si3 0.312866 0.683727 0.260993
Si Si4 0.828514 0.815671 0.584495
Si Si5 0.931276 0.183019 0.079590
Si Si6 0.588752 0.817161 0.078966
O O1 0.213323 0.751250 0.274396
O O2 0.266487 0.741930 0.169173
O O3 0.990701 0.779273 0.335404
O O4 0.177350 0.000000 0.248640
O O5 0.697424 0.500000 0.569317
O O6 0.750000 0.250000 0.500000
O O7 0.761184 0.244952 0.576034
O O8 0.310299 0.500000 0.260261
O O9 0.253341 0.741967 0.334891
O O10 0.475944 0.743989 0.169020
O O11 0.000000 0.776897 0.500000
O O12 0.814664 0.000000 0.593466
O O13 0.022848 0.270159 0.068073
O O14 0.936010 0.000000 0.085366
O O15 0.000000 0.211840 0.000000
O O16 0.590226 0.000000 0.083023
O O17 0.750000 0.750000 0.000000
#
# Coordination Sequence:
#
# PCOD9207428 Si02
#       6
#     8   8   8   8   8   8
#     4  10  21  38  59  84 115 150 190 235 285 341
#     4  11  24  40  60  87 117 151 192 237 287 344
#     4  11  22  38  61  87 116 151 193 238 288 344
#     4  11  24  41  61  86 117 153 193 238 289 343
#     4  10  21  37  58  85 116 151 192 236 285 341
#     4  11  22  38  60  85 117 154 194 239 288 342
#
# _framework density 18.626055999999998
#
# number of rings (size 3 to 8) (size 9 to 14) (size 15 to 20)
#    0.000    1.333    0.000    8.000    0.000   10.667 
#    0.000    3.333    0.000    0.000    0.000    0.000 
#    0.000    0.000    0.000    0.000    0.000    0.000 
#
# Total GULP energy -134209.042727 kJ/mol
# GULP energy per Si atom -5592.043447 kJ/mol
# Density = 1.858366 g / cm^3
# Si number density = 18.626056 Si / 1000 Ang^3
#
#
#
# Elastic Constant Matrix: (Units=GPa)
#
#
# Indices 1 2 3 4 5 6 
#
# 1 105.7480 55.5667 97.7259 0.0004 -2.0511 -0.0020
# 2 55.5667 104.8632 77.1472 0.0033 -5.0337 -0.0011
# 3 97.7259 77.1472 172.8132 0.0011 -0.5645 0.0004
# 4 0.0004 0.0033 0.0011 37.4528 -0.0004 2.0465
# 5 -2.0511 -5.0337 -0.5645 -0.0004 39.8071 0.0003
# 6 -0.0020 -0.0011 0.0004 2.0465 0.0003 34.1926
#
#
#
# Elastic Compliance Matrix: (Units=1/GPa)
#
#
# Indices 1 2 3 4 5 6 
#
# 1 0.020645 -0.003468 -0.010125 0.000000 0.000482 0.000001
# 2 -0.003468 0.014899 -0.004685 -0.000001 0.001639 0.000000
# 3 -0.010125 -0.004685 0.013601 0.000000 -0.000921 -0.000001
# 4 0.000000 -0.000001 0.000000 0.026788 0.000000 -0.001603
# 5 0.000482 0.001639 -0.000921 0.000000 0.025340 0.000000
# 6 0.000001 0.000000 -0.000001 -0.001603 0.000000 0.029342
#
#
# Mechanical properties :
#
#
# Convention : Reuss Voigt Hill
#
# Bulk Modulus (GPa) = 79.43159 93.81154 86.62156
# Shear Modulus (GPa) = 29.17720 32.48948 30.83334
#
# Velocity S-wave (km/s) = 3.96216 4.18102 4.07306
# Velocity P-wave (km/s) = 7.97933 8.58970 8.29013
#
# Compressibility (1/GPa) = 0.01258945
#
# Stress axis : x y z
#
# Youngs Moduli (GPa) = 48.43809 67.11833 73.52490
#
# Poissons Ratio (x) = 0.23274 0.74445
# Poissons Ratio (y) = 0.16796 0.34446
# Poissons Ratio (z) = 0.49044 0.31445
#
# Static dielectric constant tensor:
#      x y z
#    x 1.609720 0.000000 -0.010010 
#    y 0.000000 1.623710 0.000000 
#    z -0.010010 0.000000 1.633980 
# 
# From -- ./inp_files/360261.got.cif
#   From: 2010.05.17/outbox.cif.g08.bks.cpg/sg12_181_cif.got.tgz:360261.got - 2010.06.03 13:09:07.
