data_PCOD9207154
_publ_section_title
;
Structure prediction by ZEFSAII (Michael W. Deem and Ramdas Pophale) SiO2 
 PCOD9207154
Probable space group: C 2/M
;
_chemical_formula_sum "Si O2"
_cell_formula_units_Z 56
_cell_length_a 10.106732
_cell_length_b 8.913059
_cell_length_c 31.467244
_cell_angle_alpha 90.000000
_cell_angle_beta 76.621831
_cell_angle_gamma 90.000000
_cell_volume 2757.708897
_symmetry_space_group_name_H-M "C 2/M"
_symmetry_group_IT_number 12
_symmetry_cell_setting 'monoclinic'
loop_
_space_group_symop_operation_xyz
x,y,z
-x,y,-z
-x,-y,-z
x,-y,z
1/2+x,1/2+y,z
1/2-x,1/2+y,-z
1/2-x,1/2-y,-z
1/2+x,1/2-y,z
loop_
_atom_site_type_symbol
_atom_site_label
_atom_site_fract_x
_atom_site_fract_y
_atom_site_fract_z
Si Si1 0.614313 0.325507 0.027983
Si Si2 0.283182 0.320800 0.738871
Si Si3 0.730627 0.180470 0.594324
Si Si4 0.975227 0.180208 0.452602
Si Si5 0.799786 0.320878 0.830646
Si Si6 0.473029 0.179194 0.119340
Si Si7 0.944724 0.680661 0.310672
O O1 0.639773 0.500000 0.036669
O O2 0.557064 0.239646 0.073122
O O3 0.500000 0.319449 0.000000
O O4 0.750000 0.250000 0.000000
O O5 0.289711 0.500000 0.741860
O O6 0.292625 0.248937 0.784524
O O7 0.172954 0.243108 0.866594
O O8 0.144290 0.283038 0.724515
O O9 0.887932 0.227368 0.582609
O O10 0.654111 0.243186 0.558855
O O11 0.645248 0.226283 0.642037
O O12 0.730098 0.000000 0.592589
O O13 0.000000 0.217938 0.500000
O O14 0.960092 0.000000 0.450835
O O15 0.789195 0.500000 0.828576
O O16 0.939197 0.285517 0.844968
O O17 0.911257 0.238534 0.702514
O O18 0.457206 0.000000 0.117787
O O19 0.963787 0.500000 0.310500
#
# Coordination Sequence:
#
# PCOD9207154 Si02
#       7
#     8   8   8   8   8   8   8
#     4  11  24  41  62  90 122 156 197 244 293 347
#     4  11  23  39  61  87 115 151 193 235 285 344
#     4  10  21  37  57  82 113 149 189 234 284 339
#     4  10  21  37  57  83 115 149 188 236 286 338
#     4  11  24  41  61  88 121 154 193 241 289 341
#     4  11  24  41  62  89 120 156 198 242 290 345
#     4  10  22  39  57  82 116 149 187 237 286 337
#
# _framework density 20.306712999999998
#
# number of rings (size 3 to 8) (size 9 to 14) (size 15 to 20)
#    0.000    1.429    0.000    4.714    0.000   14.000 
#    0.000    0.000    0.000    0.000    0.000    0.000 
#    0.000    0.000    0.000    0.000    0.000    0.000 
#
# Total GULP energy -156659.893783 kJ/mol
# GULP energy per Si atom -5594.996207 kJ/mol
# Density = 2.026049 g / cm^3
# Si number density = 20.306713 Si / 1000 Ang^3
#
#
#
# Elastic Constant Matrix: (Units=GPa)
#
#
# Indices 1 2 3 4 5 6 
#
# 1 62.9975 15.3636 -22.6039 0.0000 -5.2206 0.0000
# 2 15.3636 23.5182 -1.8448 0.0000 5.8367 0.0000
# 3 -22.6039 -1.8448 51.6866 0.0000 -1.8749 0.0000
# 4 0.0000 0.0000 0.0000 31.2644 0.0000 -0.9662
# 5 -5.2206 5.8367 -1.8749 0.0000 38.2391 0.0000
# 6 0.0000 0.0000 0.0000 -0.9662 0.0000 25.6235
#
#
#
# Elastic Compliance Matrix: (Units=1/GPa)
#
#
# Indices 1 2 3 4 5 6 
#
# 1 0.024063 -0.016486 0.010163 0.000000 0.006300 0.000000
# 2 -0.016486 0.055581 -0.005625 0.000000 -0.011010 0.000000
# 3 0.010163 -0.005625 0.023715 0.000000 0.003409 0.000000
# 4 0.000000 0.000000 0.000000 0.032023 0.000000 0.001208
# 5 0.006300 -0.011010 0.003409 0.000000 0.028859 0.000000
# 6 0.000000 0.000000 0.000000 0.001208 0.000000 0.039072
#
#
# Mechanical properties :
#
#
# Convention : Reuss Voigt Hill
#
# Bulk Modulus (GPa) = 12.58431 13.33691 12.96061
# Shear Modulus (GPa) = 19.70864 28.84454 24.27659
#
# Velocity S-wave (km/s) = 3.11874 3.77297 3.46135
# Velocity P-wave (km/s) = 4.37942 5.05592 4.72978
#
# Compressibility (1/GPa) = 0.07946401
#
# Stress axis : x y z
#
# Youngs Moduli (GPa) = 41.55777 17.99174 42.16737
#
# Poissons Ratio (x) = 0.29661 -0.42857
# Poissons Ratio (y) = 0.68511 0.23720
# Poissons Ratio (z) = -0.42237 0.10121
#
# Static dielectric constant tensor:
#      x y z
#    x 1.688910 0.000000 -0.005060 
#    y 0.000000 1.674050 0.000000 
#    z -0.005060 0.000000 1.721250 
# 
# From -- ./inp_files/357477.got.cif
#   From: 2010.05.17/outbox.cif.g08.bks.cpg/sg12_179_cif.got.tgz:357477.got - 2010.06.03 13:09:07.
