data_PCOD9207258
_publ_section_title
;
Structure prediction by ZEFSAII (Michael W. Deem and Ramdas Pophale) SiO2 
 PCOD9207258
Probable space group: C 2/M
;
_chemical_formula_sum "Si O2"
_cell_formula_units_Z 64
_cell_length_a 12.051088
_cell_length_b 14.656343
_cell_length_c 24.319469
_cell_angle_alpha 90.000000
_cell_angle_beta 40.288016
_cell_angle_gamma 90.000000
_cell_volume 2777.550607
_symmetry_space_group_name_H-M "C 2/M"
_symmetry_group_IT_number 12
_symmetry_cell_setting 'monoclinic'
loop_
_space_group_symop_operation_xyz
x,y,z
-x,y,-z
-x,-y,-z
x,-y,z
1/2+x,1/2+y,z
1/2-x,1/2+y,-z
1/2-x,1/2-y,-z
1/2+x,1/2-y,z
loop_
_atom_site_type_symbol
_atom_site_label
_atom_site_fract_x
_atom_site_fract_y
_atom_site_fract_z
Si Si1 0.229443 0.889390 0.351500
Si Si2 0.703618 0.605422 0.754275
Si Si3 0.052540 0.605213 0.158155
Si Si4 0.450951 0.389275 0.757106
Si Si5 0.049989 0.351535 0.921245
Si Si6 0.394989 0.388549 0.417232
Si Si7 0.589595 0.111918 0.604476
Si Si8 0.613777 0.351311 0.910642
O O1 0.365788 0.868793 0.251820
O O2 0.311373 0.858621 0.377731
O O3 0.040484 0.858667 0.405800
O O4 0.218814 0.000000 0.358961
O O5 0.721930 0.500000 0.730303
O O6 0.560909 0.644827 0.767516
O O7 0.644199 0.606548 0.839717
O O8 0.894397 0.646063 0.677541
O O9 0.083154 0.500000 0.163935
O O10 0.200939 0.661910 0.131231
O O11 0.049288 0.609956 0.093684
O O12 0.448646 0.500000 0.757751
O O13 0.252630 0.362802 0.834844
O O14 0.543967 0.359204 0.665955
O O15 0.018498 0.243576 0.934902
O O16 0.000000 0.389396 0.000000
O O17 0.395800 0.500000 0.416588
O O18 0.206998 0.361141 0.508587
O O19 0.583764 0.000000 0.608646
O O20 0.500000 0.400145 0.000000
#
# Coordination Sequence:
#
# PCOD9207258 Si02
#       8
#     8   8   8   8   8   8   8   8
#     4   9  15  28  50  83 118 144 187 248 300 342
#     4  10  21  37  57  85 120 156 198 248 301 361
#     4  11  22  40  67  94 121 157 206 259 305 356
#     4  10  21  37  57  85 120 156 198 248 301 361
#     4  11  26  42  62  87 122 159 203 251 307 367
#     4   9  16  28  50  82 118 153 191 243 303 356
#     4   9  16  28  50  82 118 153 191 243 303 356
#     4  11  26  42  62  87 122 159 203 251 307 367
#
# _framework density 23.041885000000001
#
# number of rings (size 3 to 8) (size 9 to 14) (size 15 to 20)
#    0.000    2.000    2.500    1.125    3.500    5.000 
#    0.000    2.500    0.000    0.750    0.000    0.000 
#    0.000    0.000    0.000    0.000    0.000    0.000 
#
# Total GULP energy -178853.165001 kJ/mol
# GULP energy per Si atom -5589.161406 kJ/mol
# Density = 2.298944 g / cm^3
# Si number density = 23.041885 Si / 1000 Ang^3
#
#
#
# Elastic Constant Matrix: (Units=GPa)
#
#
# Indices 1 2 3 4 5 6 
#
# 1 112.4846 -9.3844 21.5210 0.0000 12.8396 0.0000
# 2 -9.3844 55.4422 -9.7111 0.0000 -0.9032 0.0000
# 3 21.5210 -9.7111 105.3966 -0.0001 14.3483 0.0000
# 4 0.0000 0.0000 -0.0001 35.2256 0.0000 13.0581
# 5 12.8396 -0.9032 14.3483 0.0000 32.7694 0.0000
# 6 0.0000 0.0000 0.0000 13.0581 0.0000 24.3904
#
#
#
# Elastic Compliance Matrix: (Units=1/GPa)
#
#
# Indices 1 2 3 4 5 6 
#
# 1 0.009628 0.001330 -0.001419 0.000000 -0.003114 0.000000
# 2 0.001330 0.018518 0.001527 0.000000 -0.000679 0.000000
# 3 -0.001419 0.001527 0.010461 0.000000 -0.003982 0.000000
# 4 0.000000 0.000000 0.000000 0.035418 0.000000 -0.018962
# 5 -0.003114 -0.000679 -0.003982 0.000000 0.033461 0.000000
# 6 0.000000 0.000000 0.000000 -0.018962 0.000000 0.051151
#
#
# Mechanical properties :
#
#
# Convention : Reuss Voigt Hill
#
# Bulk Modulus (GPa) = 24.10614 30.90826 27.50720
# Shear Modulus (GPa) = 29.48301 36.53694 33.00997
#
# Velocity S-wave (km/s) = 3.58095 3.98637 3.78909
# Velocity P-wave (km/s) = 5.25187 5.88484 5.57734
#
# Compressibility (1/GPa) = 0.04148320
#
# Stress axis : x y z
#
# Youngs Moduli (GPa) = 103.86213 54.00039 95.59679
#
# Poissons Ratio (x) = -0.07184 0.13569
# Poissons Ratio (y) = -0.13817 -0.14599
# Poissons Ratio (z) = 0.14743 -0.08247
#
# Static dielectric constant tensor:
#      x y z
#    x 1.822830 0.000000 0.001050 
#    y 0.000000 1.899970 0.000000 
#    z 0.001050 0.000000 1.858410 
# 
# From -- ./inp_files/336667.got.cif
#   From: 2010.05.17/outbox.cif.g08.bks.cpg/sg12_169_cif.got.tgz:336667.got - 2010.06.03 13:09:07.
