data_PCOD9207002
_publ_section_title
;
Structure prediction by ZEFSAII (Michael W. Deem and Ramdas Pophale) SiO2 
 PCOD9207002
Probable space group: C 2/M
;
_chemical_formula_sum "Si O2"
_cell_formula_units_Z 56
_cell_length_a 15.132262
_cell_length_b 9.401416
_cell_length_c 22.089138
_cell_angle_alpha 90.000000
_cell_angle_beta 128.537512
_cell_angle_gamma 90.000000
_cell_volume 2458.068252
_symmetry_space_group_name_H-M "C 2/M"
_symmetry_group_IT_number 12
_symmetry_cell_setting 'monoclinic'
loop_
_space_group_symop_operation_xyz
x,y,z
-x,y,-z
-x,-y,-z
x,-y,z
1/2+x,1/2+y,z
1/2-x,1/2+y,-z
1/2-x,1/2-y,-z
1/2+x,1/2-y,z
loop_
_atom_site_type_symbol
_atom_site_label
_atom_site_fract_x
_atom_site_fract_y
_atom_site_fract_z
Si Si1 0.173055 0.841962 0.034313
Si Si2 0.829481 0.660597 0.600584
Si Si3 0.088811 0.329496 0.684648
Si Si4 0.932041 0.841754 0.876867
Si Si5 0.143217 0.832273 0.828754
Si Si6 0.068835 0.658068 0.224781
Si Si7 0.630026 0.170112 0.564865
O O1 0.267209 0.723444 0.083454
O O2 0.122382 0.847521 0.080455
O O3 0.218983 0.000000 0.039767
O O4 0.064857 0.815263 0.946398
O O5 0.804654 0.500000 0.568331
O O6 0.855018 0.652287 0.683663
O O7 0.718592 0.759406 0.555864
O O8 0.952651 0.704710 0.626397
O O9 0.094290 0.500000 0.698677
O O10 0.145381 0.247936 0.764682
O O11 0.144785 0.301871 0.643324
O O12 0.880747 0.715194 0.815735
O O13 0.915873 0.000000 0.843005
O O14 0.022577 0.778989 0.800800
O O15 0.150807 0.000000 0.824612
O O16 0.019274 0.500000 0.196289
O O17 0.500000 0.215001 0.500000
O O18 0.636441 0.000000 0.559465
#
# Coordination Sequence:
#
# PCOD9207002 Si02
#       7
#     8   8   8   8   8   8   8
#     4   9  19  36  54  76 109 146 183 230 286 335
#     4   9  20  38  58  83 117 154 192 234 286 341
#     4   9  20  40  60  82 118 158 189 233 294 345
#     4   9  19  35  55  78 106 144 189 230 277 340
#     4  11  22  35  55  82 108 141 191 236 276 337
#     4  10  21  37  56  79 111 146 183 232 288 336
#     4  10  22  39  61  90 119 151 192 231 279 346
#
# _framework density 22.782119000000002
#
# number of rings (size 3 to 8) (size 9 to 14) (size 15 to 20)
#    0.000    2.429    0.000    3.429    2.000    6.000 
#    0.000    1.429    0.000    0.000    0.000    0.000 
#    0.000    0.000    0.000    0.000    0.000    0.000 
#
# Total GULP energy -156267.340842 kJ/mol
# GULP energy per Si atom -5580.976459 kJ/mol
# Density = 2.273027 g / cm^3
# Si number density = 22.782119 Si / 1000 Ang^3
#
#
#
# Elastic Constant Matrix: (Units=GPa)
#
#
# Indices 1 2 3 4 5 6 
#
# 1 110.8403 27.1710 -4.8216 0.0000 7.6052 0.0000
# 2 27.1710 66.1006 16.5109 0.0000 7.2357 0.0000
# 3 -4.8216 16.5109 43.1217 0.0000 1.7604 0.0000
# 4 0.0000 0.0000 0.0000 27.2219 0.0000 2.1203
# 5 7.6052 7.2357 1.7604 0.0000 38.3167 0.0000
# 6 0.0000 0.0000 0.0000 2.1203 0.0000 20.8461
#
#
#
# Elastic Compliance Matrix: (Units=1/GPa)
#
#
# Indices 1 2 3 4 5 6 
#
# 1 0.010455 -0.004934 0.003111 0.000000 -0.001286 0.000000
# 2 -0.004934 0.019378 -0.007877 0.000000 -0.002318 0.000000
# 3 0.003111 -0.007877 0.026568 0.000000 -0.000351 0.000000
# 4 0.000000 0.000000 0.000000 0.037029 0.000000 -0.003766
# 5 -0.001286 -0.002318 -0.000351 0.000000 0.026807 0.000000
# 6 0.000000 0.000000 0.000000 -0.003766 0.000000 0.048354
#
#
# Mechanical properties :
#
#
# Convention : Reuss Voigt Hill
#
# Bulk Modulus (GPa) = 27.02595 33.08700 30.05648
# Shear Modulus (GPa) = 24.95961 29.35711 27.15836
#
# Velocity S-wave (km/s) = 3.31354 3.59361 3.45641
# Velocity P-wave (km/s) = 5.15053 5.63679 5.39914
#
# Compressibility (1/GPa) = 0.03700147
#
# Stress axis : x y z
#
# Youngs Moduli (GPa) = 95.64797 51.60571 37.63905
#
# Poissons Ratio (x) = 0.25461 -0.11708
# Poissons Ratio (y) = 0.47190 0.29647
# Poissons Ratio (z) = -0.29752 0.40648
#
# Static dielectric constant tensor:
#      x y z
#    x 1.954520 0.000000 -0.028630 
#    y 0.000000 1.831410 0.000000 
#    z -0.028630 0.000000 1.912350 
# 
# From -- ./inp_files/342601.got.cif
#   From: 2010.05.17/outbox.cif.g08.bks.cpg/sg12_172_cif.got.tgz:342601.got - 2010.06.03 13:09:07.
