data_PCOD9207799
_publ_section_title
;
Structure prediction by ZEFSAII (Michael W. Deem and Ramdas Pophale) SiO2 
 PCOD9207799
Probable space group: C 2/M
;
_chemical_formula_sum "Si O2"
_cell_formula_units_Z 36
_cell_length_a 13.055561
_cell_length_b 15.089970
_cell_length_c 17.310736
_cell_angle_alpha 90.000000
_cell_angle_beta 141.385717
_cell_angle_gamma 90.000000
_cell_volume 2128.314554
_symmetry_space_group_name_H-M "C 2/M"
_symmetry_group_IT_number 12
_symmetry_cell_setting 'monoclinic'
loop_
_space_group_symop_operation_xyz
x,y,z
-x,y,-z
-x,-y,-z
x,-y,z
1/2+x,1/2+y,z
1/2-x,1/2+y,-z
1/2-x,1/2-y,-z
1/2+x,1/2-y,z
loop_
_atom_site_type_symbol
_atom_site_label
_atom_site_fract_x
_atom_site_fract_y
_atom_site_fract_z
Si Si1 0.543392 0.694278 0.178924
Si Si2 0.570972 0.242685 0.358158
Si Si3 0.892418 0.603964 0.358887
Si Si4 0.000000 0.693847 0.000000
Si Si5 0.347198 0.603829 0.186937
O O1 0.578638 0.763280 0.269681
O O2 0.707829 0.637149 0.264650
O O3 0.401093 0.632663 0.131682
O O4 0.498161 0.743936 0.074378
O O5 0.750000 0.250000 0.500000
O O6 0.472618 0.163457 0.339573
O O7 0.469545 0.334485 0.309527
O O8 0.894499 0.500000 0.341587
O O9 0.000000 0.617148 0.500000
O O10 0.163284 0.634732 0.095301
O O11 0.370569 0.500000 0.212238
#
# Coordination Sequence:
#
# PCOD9207799 Si02
#       5
#     8   8   8   4   8
#     4  10  21  37  60  85 118 156 194 247 286 350
#     4  10  21  37  62  87 120 149 193 249 301 348
#     4  11  20  36  63  91 116 150 196 245 300 352
#     4  12  21  40  61  84 124 160 203 236 293 350
#     4  10  22  38  61  88 118 161 196 238 297 351
#
# _framework density 16.914793
#
# number of rings (size 3 to 8) (size 9 to 14) (size 15 to 20)
#    1.333    0.222    4.444    1.667    0.000    0.889 
#    0.000    6.667    0.000    2.000    0.000    0.000 
#    0.000    0.000    0.000    0.000    0.000    0.000 
#
# Total GULP energy -100276.592773 kJ/mol
# GULP energy per Si atom -5570.921821 kJ/mol
# Density = 1.687629 g / cm^3
# Si number density = 16.914793 Si / 1000 Ang^3
#
#
#
# Elastic Constant Matrix: (Units=GPa)
#
#
# Indices 1 2 3 4 5 6 
#
# 1 79.5434 68.7420 38.7143 0.0001 13.6507 0.0000
# 2 68.7420 141.4572 49.8732 0.0001 -4.3952 0.0000
# 3 38.7143 49.8732 81.1551 0.0005 8.3130 0.0002
# 4 0.0001 0.0001 0.0005 16.6231 0.0002 -3.6519
# 5 13.6507 -4.3952 8.3130 0.0002 39.2453 0.0001
# 6 0.0000 0.0000 0.0002 -3.6519 0.0001 4.3316
#
#
#
# Elastic Compliance Matrix: (Units=1/GPa)
#
#
# Indices 1 2 3 4 5 6 
#
# 1 0.026342 -0.011500 -0.004527 0.000000 -0.009492 0.000001
# 2 -0.011500 0.014241 -0.003924 0.000000 0.006426 0.000000
# 3 -0.004527 -0.003924 0.017149 -0.000001 -0.002497 -0.000001
# 4 0.000000 0.000000 -0.000001 0.073832 0.000000 0.062246
# 5 -0.009492 0.006426 -0.002497 0.000000 0.030031 -0.000001
# 6 0.000001 0.000000 -0.000001 0.062246 -0.000001 0.283338
#
#
# Mechanical properties :
#
#
# Convention : Reuss Voigt Hill
#
# Bulk Modulus (GPa) = 56.08386 68.53498 62.30942
# Shear Modulus (GPa) = 10.18789 21.69508 15.94149
#
# Velocity S-wave (km/s) = 2.45686 3.58524 3.07328
# Velocity P-wave (km/s) = 6.42471 7.59897 7.03638
#
# Compressibility (1/GPa) = 0.01783044
#
# Stress axis : x y z
#
# Youngs Moduli (GPa) = 37.96149 70.21992 58.31333
#
# Poissons Ratio (x) = 0.80754 0.26397
# Poissons Ratio (y) = 0.43657 0.22881
# Poissons Ratio (z) = 0.17184 0.27553
#
# Static dielectric constant tensor:
#      x y z
#    x 1.580650 0.000000 0.000780 
#    y 0.000000 1.539190 0.000000 
#    z 0.000780 0.000000 1.564510 
# 
# From -- ./inp_files/262592.got.cif
#   From: 2010.05.17/outbox.cif.g08.bks.cpg/sg12_132_cif.got.tgz:262592.got - 2010.06.03 13:09:07.
