data_PCOD9207039
_publ_section_title
;
Structure prediction by ZEFSAII (Michael W. Deem and Ramdas Pophale) SiO2 
 PCOD9207039
Probable space group: C 2/M
;
_chemical_formula_sum "Si O2"
_cell_formula_units_Z 64
_cell_length_a 14.504452
_cell_length_b 8.473759
_cell_length_c 25.973081
_cell_angle_alpha 90.000000
_cell_angle_beta 105.324139
_cell_angle_gamma 90.000000
_cell_volume 3078.781671
_symmetry_space_group_name_H-M "C 2/M"
_symmetry_group_IT_number 12
_symmetry_cell_setting 'monoclinic'
loop_
_space_group_symop_operation_xyz
x,y,z
-x,y,-z
-x,-y,-z
x,-y,z
1/2+x,1/2+y,z
1/2-x,1/2+y,-z
1/2-x,1/2-y,-z
1/2+x,1/2-y,z
loop_
_atom_site_type_symbol
_atom_site_label
_atom_site_fract_x
_atom_site_fract_y
_atom_site_fract_z
Si Si1 0.711209 0.309559 0.415494
Si Si2 0.173939 0.814539 0.774328
Si Si3 0.156787 0.818334 0.958457
Si Si4 0.528990 0.311739 0.202953
Si Si5 0.241655 0.179642 0.116051
Si Si6 0.101566 0.690422 0.493460
Si Si7 0.458668 0.817439 0.909939
Si Si8 0.785426 0.190194 0.702053
O O1 0.708491 0.500000 0.415563
O O2 0.811113 0.258741 0.456621
O O3 0.627749 0.248244 0.440299
O O4 0.706096 0.257298 0.355678
O O5 0.066906 0.784144 0.778279
O O6 0.242727 0.713149 0.821652
O O7 0.196964 0.764582 0.719785
O O8 0.194646 0.000000 0.784119
O O9 0.187460 0.795952 0.903412
O O10 0.058202 0.726712 0.951539
O O11 0.143229 0.000000 0.969029
O O12 0.250000 0.750000 0.000000
O O13 0.533679 0.500000 0.191403
O O14 0.528317 0.219177 0.149006
O O15 0.619546 0.269294 0.251503
O O16 0.132259 0.215583 0.085973
O O17 0.266600 0.000000 0.106773
O O18 0.100563 0.500000 0.492893
O O19 0.000000 0.746098 0.500000
O O20 0.435795 0.000000 0.914419
O O21 0.776024 0.000000 0.701088
#
# Coordination Sequence:
#
# PCOD9207039 Si02
#       8
#     8   8   8   8   8   8   8   8
#     4   9  19  35  54  80 113 151 196 245 297 357
#     4  11  22  36  57  86 117 153 198 243 292 357
#     4  12  26  46  68  95 127 160 202 254 307 363
#     4  10  21  37  57  82 117 157 195 241 298 356
#     4  12  24  41  65  92 123 161 202 249 302 358
#     4   9  18  34  56  80 110 150 195 245 302 357
#     4  12  24  40  65  94 122 159 203 247 300 363
#     4  10  21  37  56  81 118 157 195 243 302 359
#
# _framework density 20.787444000000001
#
# number of rings (size 3 to 8) (size 9 to 14) (size 15 to 20)
#    0.000    1.375    2.500    3.750    0.000    2.750 
#    0.000    2.500    0.000    0.000    0.000    0.000 
#    0.000    0.000    0.000    0.000    0.000    0.000 
#
# Total GULP energy -178964.157352 kJ/mol
# GULP energy per Si atom -5592.629917 kJ/mol
# Density = 2.074013 g / cm^3
# Si number density = 20.787444 Si / 1000 Ang^3
#
#
#
# Elastic Constant Matrix: (Units=GPa)
#
#
# Indices 1 2 3 4 5 6 
#
# 1 91.1492 3.9460 4.8369 0.0000 -7.4518 0.0000
# 2 3.9460 44.8927 4.6336 0.0000 2.8644 0.0000
# 3 4.8369 4.6336 66.7602 0.0000 -12.9189 0.0000
# 4 0.0000 0.0000 0.0000 26.8330 0.0000 -5.9924
# 5 -7.4518 2.8644 -12.9189 0.0000 23.9544 0.0000
# 6 0.0000 0.0000 0.0000 -5.9924 0.0000 28.1018
#
#
#
# Elastic Compliance Matrix: (Units=1/GPa)
#
#
# Indices 1 2 3 4 5 6 
#
# 1 0.011324 -0.001226 -0.000028 0.000000 0.003654 0.000000
# 2 -0.001226 0.022906 -0.002350 0.000000 -0.004388 0.000000
# 3 -0.000028 -0.002350 0.016968 0.000000 0.009423 0.000000
# 4 0.000000 0.000000 0.000000 0.039131 0.000000 0.008344
# 5 0.003654 -0.004388 0.009423 0.000000 0.048489 0.000000
# 6 0.000000 0.000000 0.000000 0.008344 0.000000 0.037364
#
#
# Mechanical properties :
#
#
# Convention : Reuss Voigt Hill
#
# Bulk Modulus (GPa) = 22.73267 25.51501 24.12384
# Shear Modulus (GPa) = 25.24571 28.40354 26.82462
#
# Velocity S-wave (km/s) = 3.48870 3.70047 3.59614
# Velocity P-wave (km/s) = 5.21417 5.52800 5.37338
#
# Compressibility (1/GPa) = 0.04398955
#
# Stress axis : x y z
#
# Youngs Moduli (GPa) = 88.30553 43.65742 58.93573
#
# Poissons Ratio (x) = 0.05351 0.00167
# Poissons Ratio (y) = 0.10823 0.13850
# Poissons Ratio (z) = 0.00250 0.10260
#
# Static dielectric constant tensor:
#      x y z
#    x 1.745680 0.000000 -0.009150 
#    y 0.000000 1.712170 0.000000 
#    z -0.009150 0.000000 1.774570 
# 
# From -- ./inp_files/359988.got.cif
#   From: 2010.05.17/outbox.cif.g08.bks.cpg/sg12_180_cif.got.tgz:359988.got - 2010.06.03 13:09:07.
