data_PCOD9207579
_publ_section_title
;
Structure prediction by ZEFSAII (Michael W. Deem and Ramdas Pophale) SiO2 
 PCOD9207579
Probable space group: C 2/M
;
_chemical_formula_sum "Si O2"
_cell_formula_units_Z 48
_cell_length_a 14.465538
_cell_length_b 18.186650
_cell_length_c 9.966559
_cell_angle_alpha 90.000000
_cell_angle_beta 82.259124
_cell_angle_gamma 90.000000
_cell_volume 2598.105783
_symmetry_space_group_name_H-M "C 2/M"
_symmetry_group_IT_number 12
_symmetry_cell_setting 'monoclinic'
loop_
_space_group_symop_operation_xyz
x,y,z
-x,y,-z
-x,-y,-z
x,-y,z
1/2+x,1/2+y,z
1/2-x,1/2+y,-z
1/2-x,1/2-y,-z
1/2+x,1/2-y,z
loop_
_atom_site_type_symbol
_atom_site_label
_atom_site_fract_x
_atom_site_fract_y
_atom_site_fract_z
Si Si1 0.975459 0.690904 0.149248
Si Si2 0.132548 0.195801 0.152706
Si Si3 0.096685 0.086997 0.403959
Si Si4 0.559016 0.916723 0.353023
Si Si5 0.806523 0.208718 0.156662
Si Si6 0.721841 0.414653 0.634425
O O1 0.869858 0.719199 0.170182
O O2 0.033667 0.766314 0.147296
O O3 0.012017 0.638658 0.258215
O O4 0.000000 0.656918 0.000000
O O5 0.118991 0.133296 0.266312
O O6 0.201845 0.260447 0.188491
O O7 0.173938 0.177935 0.997087
O O8 0.180663 0.097036 0.494160
O O9 0.000000 0.108592 0.500000
O O10 0.088481 0.000000 0.374516
O O11 0.500000 0.913075 0.500000
O O12 0.667099 0.903789 0.370514
O O13 0.553681 0.000000 0.299694
O O14 0.824455 0.144316 0.258169
O O15 0.700968 0.500000 0.673425
#
# Coordination Sequence:
#
# PCOD9207579 Si02
#       6
#     8   8   8   8   8   8
#     4  10  21  38  59  83 114 149 188 238 284 338
#     4  10  21  38  57  84 117 149 191 240 287 338
#     4  10  22  39  59  86 118 152 194 241 289 346
#     4  10  22  39  57  82 116 152 191 234 285 343
#     4  10  21  37  59  85 115 150 192 238 286 343
#     4  10  21  39  60  85 118 151 190 240 288 341
#
# _framework density 18.474999
#
# number of rings (size 3 to 8) (size 9 to 14) (size 15 to 20)
#    0.000    2.000    1.667    1.000    2.333    3.667 
#    0.000    0.000    0.000    6.000    0.000    0.000 
#    0.000    0.000    0.000    0.000    0.000    0.000 
#
# Total GULP energy -133805.397338 kJ/mol
# GULP energy per Si atom -5575.224889 kJ/mol
# Density = 1.843295 g / cm^3
# Si number density = 18.474999 Si / 1000 Ang^3
#
#
#
# Elastic Constant Matrix: (Units=GPa)
#
#
# Indices 1 2 3 4 5 6 
#
# 1 57.6971 21.3311 28.1033 0.0000 5.5793 0.0000
# 2 21.3311 65.2922 67.9513 0.0000 -1.0040 0.0000
# 3 28.1033 67.9513 102.9336 0.0000 6.8255 0.0000
# 4 0.0000 0.0000 0.0000 117.0928 0.0000 15.2425
# 5 5.5793 -1.0040 6.8255 0.0000 25.9932 0.0000
# 6 0.0000 0.0000 0.0000 15.2425 0.0000 19.7421
#
#
#
# Elastic Compliance Matrix: (Units=1/GPa)
#
#
# Indices 1 2 3 4 5 6 
#
# 1 0.020484 -0.003811 -0.002825 0.000000 -0.003802 0.000000
# 2 -0.003811 0.052668 -0.034519 0.000000 0.011916 0.000000
# 3 -0.002825 -0.034519 0.033912 0.000000 -0.009632 0.000000
# 4 0.000000 0.000000 0.000000 0.009494 0.000000 -0.007331
# 5 -0.003802 0.011916 -0.009632 0.000000 0.042277 0.000000
# 6 0.000000 0.000000 0.000000 -0.007331 0.000000 0.056313
#
#
# Mechanical properties :
#
#
# Convention : Reuss Voigt Hill
#
# Bulk Modulus (GPa) = 40.39347 51.18826 45.79087
# Shear Modulus (GPa) = 16.35532 39.80142 28.07837
#
# Velocity S-wave (km/s) = 2.97857 4.64652 3.90270
# Velocity P-wave (km/s) = 5.80866 7.52023 6.71916
#
# Compressibility (1/GPa) = 0.02475648
#
# Stress axis : x y z
#
# Youngs Moduli (GPa) = 48.81754 18.98670 29.48779
#
# Poissons Ratio (x) = 0.07235 0.08330
# Poissons Ratio (y) = 0.18603 1.01788
# Poissons Ratio (z) = 0.13791 0.65540
#
# Static dielectric constant tensor:
#      x y z
#    x 1.642050 0.000000 -0.004030 
#    y 0.000000 1.620210 0.000000 
#    z -0.004030 0.000000 1.630100 
# 
# From -- ./inp_files/61691.got.cif
#   From: 2010.05.17/outbox.cif.g08.bks.cpg/sg12_31_cif.got.tgz:61691.got - 2010.06.03 13:09:07.
