data_PCOD9207521
_publ_section_title
;
Structure prediction by ZEFSAII (Michael W. Deem and Ramdas Pophale) SiO2 
 PCOD9207521
Probable space group: C 2/M
;
_chemical_formula_sum "Si O2"
_cell_formula_units_Z 64
_cell_length_a 19.931168
_cell_length_b 20.559961
_cell_length_c 8.708136
_cell_angle_alpha 90.000000
_cell_angle_beta 59.754601
_cell_angle_gamma 90.000000
_cell_volume 3082.702583
_symmetry_space_group_name_H-M "C 2/M"
_symmetry_group_IT_number 12
_symmetry_cell_setting 'monoclinic'
loop_
_space_group_symop_operation_xyz
x,y,z
-x,y,-z
-x,-y,-z
x,-y,z
1/2+x,1/2+y,z
1/2-x,1/2+y,-z
1/2-x,1/2-y,-z
1/2+x,1/2-y,z
loop_
_atom_site_type_symbol
_atom_site_label
_atom_site_fract_x
_atom_site_fract_y
_atom_site_fract_z
Si Si1 0.662898 0.150524 0.612233
Si Si2 0.988550 0.209706 0.262102
Si Si3 0.728009 0.426608 0.306849
Si Si4 0.109285 0.238756 0.900594
Si Si5 0.883034 0.187812 0.663941
Si Si6 0.725746 0.804467 0.226840
Si Si7 0.510544 0.923388 0.806151
Si Si8 0.161312 0.573616 0.119028
O O1 0.721727 0.096430 0.606286
O O2 0.642606 0.199105 0.774462
O O3 0.704152 0.189648 0.430660
O O4 0.581187 0.118627 0.659126
O O5 0.931800 0.194047 0.184120
O O6 0.931806 0.222692 0.469838
O O7 0.055565 0.168848 0.273323
O O8 0.045920 0.258513 0.102717
O O9 0.698966 0.500000 0.357832
O O10 0.660573 0.374880 0.351130
O O11 0.788341 0.425305 0.095130
O O12 0.182201 0.202462 0.888109
O O13 0.818495 0.240818 0.784353
O O14 0.694377 0.869371 0.184860
O O15 0.428572 0.914227 0.817458
O O16 0.530776 0.000000 0.772064
O O17 0.500000 0.909259 0.000000
O O18 0.167887 0.500000 0.175876
#
# Coordination Sequence:
#
# PCOD9207521 Si02
#       8
#     8   8   8   8   8   8   8   8
#     4  12  23  36  63  95 128 168 213 251 318 384
#     4  10  24  39  63  90 130 161 210 260 320 382
#     4  11  23  42  67  92 126 171 220 266 317 378
#     4  11  23  41  61  94 125 168 202 258 320 384
#     4  11  23  42  62  99 126 162 212 274 320 370
#     4  12  25  40  64  92 135 161 209 269 319 371
#     4  10  21  37  58  88 127 169 209 247 296 380
#     4  10  24  41  61  93 131 174 214 253 310 382
#
# _framework density 20.761005000000001
#
# number of rings (size 3 to 8) (size 9 to 14) (size 15 to 20)
#    0.000    1.125    3.750    2.250    5.250    2.500 
#    0.000    2.500    0.000    1.500    0.000    5.250 
#    0.000    0.000    0.000    0.000    0.000    0.000 
#
# Total GULP energy -178622.322452 kJ/mol
# GULP energy per Si atom -5581.947577 kJ/mol
# Density = 2.071375 g / cm^3
# Si number density = 20.761005 Si / 1000 Ang^3
#
#
#
# Elastic Constant Matrix: (Units=GPa)
#
#
# Indices 1 2 3 4 5 6 
#
# 1 149.7430 63.2914 23.8919 0.0000 -8.9160 0.0000
# 2 63.2914 108.5647 17.7434 0.0000 4.3438 0.0000
# 3 23.8919 17.7434 68.0274 0.0000 -7.9123 0.0000
# 4 0.0000 0.0000 0.0000 19.1849 0.0000 5.9375
# 5 -8.9160 4.3438 -7.9123 0.0000 24.1977 0.0000
# 6 0.0000 0.0000 0.0000 5.9375 0.0000 28.8554
#
#
#
# Elastic Compliance Matrix: (Units=1/GPa)
#
#
# Indices 1 2 3 4 5 6 
#
# 1 0.009438 -0.005427 -0.001436 0.000000 0.003982 0.000000
# 2 -0.005427 0.012908 -0.002040 0.000000 -0.004984 0.000000
# 3 -0.001436 -0.002040 0.016339 0.000000 0.005180 0.000000
# 4 0.000000 0.000000 0.000000 0.055670 0.000000 -0.011455
# 5 0.003982 -0.004984 0.005180 0.000000 0.045382 0.000000
# 6 0.000000 0.000000 0.000000 -0.011455 0.000000 0.037013
#
#
# Mechanical properties :
#
#
# Convention : Reuss Voigt Hill
#
# Bulk Modulus (GPa) = 47.89714 59.57652 53.73683
# Shear Modulus (GPa) = 24.81205 29.20817 27.01011
#
# Velocity S-wave (km/s) = 3.46081 3.75490 3.61085
# Velocity P-wave (km/s) = 6.25223 6.89621 6.58210
#
# Compressibility (1/GPa) = 0.02087807
#
# Stress axis : x y z
#
# Youngs Moduli (GPa) = 105.95334 77.47281 61.20339
#
# Poissons Ratio (x) = 0.42044 0.08790
# Poissons Ratio (y) = 0.57500 0.12488
# Poissons Ratio (z) = 0.15216 0.15807
#
# Static dielectric constant tensor:
#      x y z
#    x 1.765560 0.000000 0.019450 
#    y 0.000000 1.722550 0.000000 
#    z 0.019450 0.000000 1.770020 
# 
# From -- ./inp_files/89576.got.cif
#   From: 2010.05.17/outbox.cif.g08.bks.cpg/sg12_45_cif.got.tgz:89576.got - 2010.06.03 13:09:07.
