data_PCOD9207271
_publ_section_title
;
Structure prediction by ZEFSAII (Michael W. Deem and Ramdas Pophale) SiO2 
 PCOD9207271
Probable space group: C 2/M
;
_chemical_formula_sum "Si O2"
_cell_formula_units_Z 40
_cell_length_a 31.343658
_cell_length_b 8.745081
_cell_length_c 7.743421
_cell_angle_alpha 90.000000
_cell_angle_beta 76.307660
_cell_angle_gamma 90.000000
_cell_volume 2062.173971
_symmetry_space_group_name_H-M "C 2/M"
_symmetry_group_IT_number 12
_symmetry_cell_setting 'monoclinic'
loop_
_space_group_symop_operation_xyz
x,y,z
-x,y,-z
-x,-y,-z
x,-y,z
1/2+x,1/2+y,z
1/2-x,1/2+y,-z
1/2-x,1/2-y,-z
1/2+x,1/2-y,z
loop_
_atom_site_type_symbol
_atom_site_label
_atom_site_fract_x
_atom_site_fract_y
_atom_site_fract_z
Si Si1 0.793777 0.682633 0.375614
Si Si2 0.796788 0.178499 0.001778
Si Si3 0.050849 0.182482 0.436803
Si Si4 0.888127 0.682791 0.913149
Si Si5 0.108304 0.681139 0.683880
O O1 0.788806 0.500000 0.342925
O O2 0.750000 0.750000 0.500000
O O3 0.799965 0.783131 0.199937
O O4 0.840719 0.699228 0.424323
O O5 0.796459 0.000000 0.963038
O O6 0.750000 0.250000 0.000000
O O7 0.841353 0.253879 0.888921
O O8 0.074230 0.257908 0.249126
O O9 0.076688 0.231157 0.584835
O O10 0.000000 0.228872 0.500000
O O11 0.052987 0.000000 0.415300
O O12 0.885777 0.500000 0.912429
O O13 0.895041 0.726629 0.109389
O O14 0.098508 0.500000 0.684853
#
# Coordination Sequence:
#
# PCOD9207271 Si02
#       5
#     8   8   8   8   8
#     4  10  21  37  57  86 121 160 204 249 303 364
#     4  11  22  37  58  86 121 161 203 248 302 365
#     4  11  25  42  63  93 125 162 208 256 313 375
#     4  10  22  42  65  90 123 160 206 258 311 371
#     4   9  21  41  63  88 121 161 206 256 308 367
#
# _framework density 19.397006000000001
#
# number of rings (size 3 to 8) (size 9 to 14) (size 15 to 20)
#    0.000    1.800    0.000    4.800    2.800    7.200 
#    0.000    4.000    0.000    0.000    0.000    0.000 
#    0.000    0.000    0.000    0.000    0.000    0.000 
#
# Total GULP energy -111589.969246 kJ/mol
# GULP energy per Si atom -5579.498462 kJ/mol
# Density = 1.935286 g / cm^3
# Si number density = 19.397006 Si / 1000 Ang^3
#
#
#
# Elastic Constant Matrix: (Units=GPa)
#
#
# Indices 1 2 3 4 5 6 
#
# 1 150.5976 59.2625 67.3099 0.0000 -20.0263 0.0000
# 2 59.2625 75.6016 37.9469 0.0000 -8.2033 0.0000
# 3 67.3099 37.9469 94.6812 0.0000 -20.3577 0.0000
# 4 0.0000 0.0000 0.0000 30.5320 0.0000 -1.5860
# 5 -20.0263 -8.2033 -20.3577 0.0000 36.2706 0.0000
# 6 0.0000 0.0000 0.0000 -1.5860 0.0000 35.8977
#
#
#
# Elastic Compliance Matrix: (Units=1/GPa)
#
#
# Indices 1 2 3 4 5 6 
#
# 1 0.011830 -0.006323 -0.005435 0.000000 0.002051 0.000000
# 2 -0.006323 0.019938 -0.003726 0.000000 -0.001073 0.000000
# 3 -0.005435 -0.003726 0.017164 0.000000 0.005790 0.000000
# 4 0.000000 0.000000 0.000000 0.032828 0.000000 0.001450
# 5 0.002051 -0.001073 0.005790 0.000000 0.031710 0.000000
# 6 0.000000 0.000000 0.000000 0.001450 0.000000 0.027921
#
#
# Mechanical properties :
#
#
# Convention : Reuss Voigt Hill
#
# Bulk Modulus (GPa) = 55.66997 72.21323 63.94160
# Shear Modulus (GPa) = 28.03504 30.96411 29.49957
#
# Velocity S-wave (km/s) = 3.80587 3.99975 3.90401
# Velocity P-wave (km/s) = 6.93365 7.65771 7.30466
#
# Compressibility (1/GPa) = 0.01796301
#
# Stress axis : x y z
#
# Youngs Moduli (GPa) = 84.52770 50.15636 58.26104
#
# Poissons Ratio (x) = 0.31714 0.31666
# Poissons Ratio (y) = 0.53447 0.21711
# Poissons Ratio (z) = 0.45942 0.18691
#
# Static dielectric constant tensor:
#      x y z
#    x 1.714250 0.000000 -0.018920 
#    y 0.000000 1.657080 0.000000 
#    z -0.018920 0.000000 1.649770 
# 
# From -- ./inp_files/107447.got.cif
#   From: 2010.05.17/outbox.cif.g08.bks.cpg/sg12_54_cif.got.tgz:107447.got - 2010.06.03 13:09:07.
