data_PCOD9207327
_publ_section_title
;
Structure prediction by ZEFSAII (Michael W. Deem and Ramdas Pophale) SiO2 
 PCOD9207327
Probable space group: C 2/M
;
_chemical_formula_sum "Si O2"
_cell_formula_units_Z 48
_cell_length_a 9.761446
_cell_length_b 13.772395
_cell_length_c 14.415890
_cell_angle_alpha 90.000000
_cell_angle_beta 65.913040
_cell_angle_gamma 90.000000
_cell_volume 1769.298781
_symmetry_space_group_name_H-M "C 2/M"
_symmetry_group_IT_number 12
_symmetry_cell_setting 'monoclinic'
loop_
_space_group_symop_operation_xyz
x,y,z
-x,y,-z
-x,-y,-z
x,-y,z
1/2+x,1/2+y,z
1/2-x,1/2+y,-z
1/2-x,1/2-y,-z
1/2+x,1/2-y,z
loop_
_atom_site_type_symbol
_atom_site_label
_atom_site_fract_x
_atom_site_fract_y
_atom_site_fract_z
Si Si1 0.274421 0.886098 0.574355
Si Si2 0.656292 0.329533 0.415308
Si Si3 0.394352 0.110260 0.210075
Si Si4 0.230164 0.648511 0.949704
Si Si5 0.965129 0.186067 0.227893
Si Si6 0.340339 0.398775 0.098004
O O1 0.355316 0.788336 0.591932
O O2 0.269555 0.861764 0.466491
O O3 0.110151 0.866656 0.665173
O O4 0.317960 0.000000 0.577575
O O5 0.500000 0.365819 0.500000
O O6 0.730157 0.372718 0.302932
O O7 0.384212 0.126928 0.101285
O O8 0.488105 0.198373 0.230648
O O9 0.438229 0.000000 0.218645
O O10 0.388207 0.635692 0.853023
O O11 0.250000 0.750000 0.000000
O O12 0.221855 0.592462 0.048496
O O13 0.843750 0.180855 0.176128
O O14 0.339826 0.500000 0.151592
O O15 0.500000 0.389305 0.000000
#
# Coordination Sequence:
#
# PCOD9207327 Si02
#       6
#     8   8   8   8   8   8
#     4  10  21  38  62  89 118 155 193 234 291 351
#     4  10  22  39  60  90 122 150 190 243 290 343
#     4  11  23  39  60  85 116 157 197 237 293 352
#     4  11  21  36  57  81 114 151 193 242 289 340
#     4  10  21  37  58  82 117 149 190 243 288 339
#     4   9  17  31  53  77 103 139 183 230 281 331
#
# _framework density 27.129390000000001
#
# number of rings (size 3 to 8) (size 9 to 14) (size 15 to 20)
#    0.000    1.833    1.667    2.500    0.000    5.000 
#    0.000    2.500    0.000    4.000    0.000    0.000 
#    0.000    0.000    0.000    0.000    0.000    0.000 
#
# Total GULP energy -133807.278790 kJ/mol
# GULP energy per Si atom -5575.303283 kJ/mol
# Density = 2.706764 g / cm^3
# Si number density = 27.129390 Si / 1000 Ang^3
#
#
#
# Elastic Constant Matrix: (Units=GPa)
#
#
# Indices 1 2 3 4 5 6 
#
# 1 60.0041 -14.5309 25.4051 0.0000 0.2338 0.0000
# 2 -14.5309 191.5667 16.8237 0.0000 9.6079 0.0000
# 3 25.4051 16.8237 180.4206 0.0000 3.5351 0.0000
# 4 0.0000 0.0000 0.0000 24.9848 0.0000 8.1583
# 5 0.2338 9.6079 3.5351 0.0000 54.3138 0.0000
# 6 0.0000 0.0000 0.0000 8.1583 0.0000 -15.1708
#
#
#
# Elastic Compliance Matrix: (Units=1/GPa)
#
#
# Indices 1 2 3 4 5 6 
#
# 1 0.018209 0.001629 -0.002712 0.000000 -0.000190 0.000000
# 2 0.001629 0.005453 -0.000720 0.000000 -0.000925 0.000000
# 3 -0.002712 -0.000720 0.005997 0.000000 -0.000251 0.000000
# 4 0.000000 0.000000 0.000000 0.034046 0.000000 0.018309
# 5 -0.000190 -0.000925 -0.000251 0.000000 0.018592 0.000000
# 6 0.000000 0.000000 0.000000 0.018309 0.000000 -0.056070
#
#
# Mechanical properties :
#
#
# Convention : Reuss Voigt Hill
#
# Bulk Modulus (GPa) = 38.38354 54.15415 46.26885
# Shear Modulus (GPa) = 129.81206 39.77845 84.79525
#
# Velocity S-wave (km/s) = 6.92482 3.83332 5.59676
# Velocity P-wave (km/s) = 8.83836 6.29263 7.67182
#
# Compressibility (1/GPa) = 0.02605283
#
# Stress axis : x y z
#
# Youngs Moduli (GPa) = 54.91774 183.37633 166.76262
#
# Poissons Ratio (x) = -0.29871 0.45229
# Poissons Ratio (y) = -0.08946 0.12003
# Poissons Ratio (z) = 0.14895 0.13199
#
# Static dielectric constant tensor:
#      x y z
#    x 2.308380 0.000000 0.029630 
#    y 0.000000 -2.632150 0.000000 
#    z 0.029630 0.000000 2.035190 
# 
# From -- ./inp_files/214087.got.cif
#   From: 2010.05.17/outbox.cif.g08.bks.cpg/sg12_108_cif.got.tgz:214087.got - 2010.06.03 13:09:07.
