data_PCOD9207912
_publ_section_title
;
Structure prediction by ZEFSAII (Michael W. Deem and Ramdas Pophale) SiO2 
 PCOD9207912
Probable space group: C 2/M
;
_chemical_formula_sum "Si O2"
_cell_formula_units_Z 56
_cell_length_a 29.885112
_cell_length_b 8.679709
_cell_length_c 11.592508
_cell_angle_alpha 90.000000
_cell_angle_beta 111.291312
_cell_angle_gamma 90.000000
_cell_volume 2801.787111
_symmetry_space_group_name_H-M "C 2/M"
_symmetry_group_IT_number 12
_symmetry_cell_setting 'monoclinic'
loop_
_space_group_symop_operation_xyz
x,y,z
-x,y,-z
-x,-y,-z
x,-y,z
1/2+x,1/2+y,z
1/2-x,1/2+y,-z
1/2-x,1/2-y,-z
1/2+x,1/2-y,z
loop_
_atom_site_type_symbol
_atom_site_label
_atom_site_fract_x
_atom_site_fract_y
_atom_site_fract_z
Si Si1 0.010217 0.178660 0.374430
Si Si2 0.680926 0.316316 0.869088
Si Si3 0.917512 0.316630 0.171467
Si Si4 0.400223 0.813987 0.660567
Si Si5 0.055334 0.312704 0.053196
Si Si6 0.794347 0.684578 0.613036
Si Si7 0.227210 0.816037 0.158052
O O1 0.062940 0.240146 0.393960
O O2 0.000000 0.190703 0.500000
O O3 0.969546 0.275239 0.270356
O O4 0.006116 0.000000 0.335788
O O5 0.685326 0.500000 0.863008
O O6 0.626181 0.264155 0.803860
O O7 0.718355 0.237510 0.817403
O O8 0.697664 0.270859 0.014978
O O9 0.910460 0.500000 0.168814
O O10 0.918432 0.263169 0.038885
O O11 0.418937 0.767207 0.805298
O O12 0.344748 0.768282 0.601971
O O13 0.403436 0.000000 0.655033
O O14 0.054591 0.500000 0.050285
O O15 0.000000 0.260625 0.000000
O O16 0.792559 0.500000 0.611734
O O17 0.750000 0.750000 0.500000
O O18 0.791933 0.741345 0.742829
O O19 0.225488 0.000000 0.167238
#
# Coordination Sequence:
#
# PCOD9207912 Si02
#       7
#     8   8   8   8   8   8   8
#     4  11  25  42  58  81 118 159 198 245 298 351
#     4  10  21  37  60  90 125 158 195 248 306 363
#     4  11  21  36  61  89 120 157 198 242 293 362
#     4  10  21  40  64  89 116 153 198 243 297 361
#     4   9  16  31  58  89 118 146 184 237 293 349
#     4  11  24  41  63  89 122 161 206 257 306 361
#     4  10  21  39  62  89 121 158 203 249 303 366
#
# _framework density 19.987242999999999
#
# number of rings (size 3 to 8) (size 9 to 14) (size 15 to 20)
#    0.000    1.714    1.429    3.000    0.000    6.286 
#    0.000    5.000    0.000    0.000    0.000    0.000 
#    0.000    0.000    0.000    0.000    0.000    0.000 
#
# Total GULP energy -156495.167959 kJ/mol
# GULP energy per Si atom -5589.113141 kJ/mol
# Density = 1.994175 g / cm^3
# Si number density = 19.987243 Si / 1000 Ang^3
#
#
#
# Elastic Constant Matrix: (Units=GPa)
#
#
# Indices 1 2 3 4 5 6 
#
# 1 152.2894 25.7851 23.4314 0.0000 7.1776 0.0000
# 2 25.7851 34.5053 14.4162 0.0000 -2.5414 0.0000
# 3 23.4314 14.4162 32.1246 0.0000 1.6206 0.0000
# 4 0.0000 0.0000 0.0000 28.0329 0.0000 -0.2897
# 5 7.1776 -2.5414 1.6206 0.0000 28.5450 0.0000
# 6 0.0000 0.0000 0.0000 -0.2897 0.0000 27.8323
#
#
#
# Elastic Compliance Matrix: (Units=1/GPa)
#
#
# Indices 1 2 3 4 5 6 
#
# 1 0.008017 -0.004626 -0.003660 0.000000 -0.002220 0.000000
# 2 -0.004626 0.038821 -0.014322 0.000000 0.005433 0.000000
# 3 -0.003660 -0.014322 0.040359 0.000000 -0.002646 0.000000
# 4 0.000000 0.000000 0.000000 0.035676 0.000000 0.000371
# 5 -0.002220 0.005433 -0.002646 0.000000 0.036224 0.000000
# 6 0.000000 0.000000 0.000000 0.000371 0.000000 0.035933
#
#
# Mechanical properties :
#
#
# Convention : Reuss Voigt Hill
#
# Bulk Modulus (GPa) = 23.81913 38.46496 31.14205
# Shear Modulus (GPa) = 19.66646 27.23451 23.45048
#
# Velocity S-wave (km/s) = 3.14020 3.69534 3.42902
# Velocity P-wave (km/s) = 5.00908 6.12323 5.59396
#
# Compressibility (1/GPa) = 0.04198305
#
# Stress axis : x y z
#
# Youngs Moduli (GPa) = 124.72868 25.75911 24.77778
#
# Poissons Ratio (x) = 0.11915 0.09069
# Poissons Ratio (y) = 0.57694 0.35486
# Poissons Ratio (z) = 0.45651 0.36891
#
# Static dielectric constant tensor:
#      x y z
#    x 1.700260 0.000000 0.005210 
#    y 0.000000 1.671380 0.000000 
#    z 0.005210 0.000000 1.697890 
# 
# From -- ./inp_files/181027.got.cif
#   From: 2010.05.17/outbox.cif.g08.bks.cpg/sg12_91_cif.got.tgz:181027.got - 2010.06.03 13:09:07.
