data_PCOD9207234
_publ_section_title
;
Structure prediction by ZEFSAII (Michael W. Deem and Ramdas Pophale) SiO2 
 PCOD9207234
Probable space group: C 2/M
;
_chemical_formula_sum "Si O2"
_cell_formula_units_Z 64
_cell_length_a 8.723950
_cell_length_b 28.926182
_cell_length_c 15.804579
_cell_angle_alpha 90.000000
_cell_angle_beta 56.496435
_cell_angle_gamma 90.000000
_cell_volume 3325.645221
_symmetry_space_group_name_H-M "C 2/M"
_symmetry_group_IT_number 12
_symmetry_cell_setting 'monoclinic'
loop_
_space_group_symop_operation_xyz
x,y,z
-x,y,-z
-x,-y,-z
x,-y,z
1/2+x,1/2+y,z
1/2-x,1/2+y,-z
1/2-x,1/2-y,-z
1/2+x,1/2-y,z
loop_
_atom_site_type_symbol
_atom_site_label
_atom_site_fract_x
_atom_site_fract_y
_atom_site_fract_z
Si Si1 0.490997 0.645338 0.692831
Si Si2 0.326999 0.556136 0.000000
Si Si3 0.069420 0.198058 0.114450
Si Si4 0.298321 0.198058 0.885550
Si Si5 0.530984 0.947487 0.784668
Si Si6 0.817526 0.698384 0.500000
Si Si7 0.899681 0.052513 0.784668
Si Si8 0.876659 0.354662 0.307169
O O1 0.440998 0.669180 0.796916
O O2 0.660862 0.671211 0.599021
O O3 0.524907 0.591351 0.703506
O O4 0.316149 0.648604 0.683851
O O5 0.332534 0.500000 0.000000
O O6 0.139378 0.567827 0.104713
O O7 0.500000 0.574429 0.000000
O O8 0.348804 0.567827 0.895287
O O9 0.130159 0.250000 0.119840
O O10 0.871826 0.198896 0.128174
O O11 0.215921 0.180432 0.000000
O O12 0.465169 0.169180 0.796917
O O13 0.710800 0.948501 0.789200
O O14 0.568081 0.908649 0.703506
O O15 0.497309 0.000000 0.764382
O O16 0.750000 0.750000 0.500000
O O17 0.858905 0.671211 0.400978
O O18 0.000000 0.701218 0.500000
O O19 0.973926 0.000000 0.764383
#
# Coordination Sequence:
#
# PCOD9207234 Si02
#       8
#     8   8   8   8   8   8   8   8
#     4  11  23  39  62  89 118 154 200 247 296 352
#     4   9  17  29  49  79 116 157 198 243 291 339
#     4  10  21  37  57  84 119 156 193 239 295 359
#     4  10  21  37  57  84 119 156 193 239 295 359
#     4   9  19  36  57  83 118 160 203 244 288 344
#     4  12  26  46  69  90 117 151 194 247 301 360
#     4   9  19  36  57  83 118 160 203 244 288 344
#     4  11  23  39  62  89 118 154 200 247 296 352
#
# _framework density 19.244387
#
# number of rings (size 3 to 8) (size 9 to 14) (size 15 to 20)
#    0.000    1.875    0.000    3.750    1.750    5.000 
#    0.000    0.625    0.000    3.750    0.000    0.000 
#    0.000    0.000    0.000    0.000    0.000    0.000 
#
# Total GULP energy -178773.325333 kJ/mol
# GULP energy per Si atom -5586.666417 kJ/mol
# Density = 1.920059 g / cm^3
# Si number density = 19.244387 Si / 1000 Ang^3
#
#
#
# Elastic Constant Matrix: (Units=GPa)
#
#
# Indices 1 2 3 4 5 6 
#
# 1 76.9819 52.9584 54.3494 0.0000 1.0407 0.0000
# 2 52.9584 143.7334 93.4582 0.0000 1.0368 0.0000
# 3 54.3494 93.4582 129.0617 0.0000 0.2920 0.0000
# 4 0.0000 0.0000 0.0000 35.5561 0.0000 0.3588
# 5 1.0407 1.0368 0.2920 0.0000 31.6250 0.0000
# 6 0.0000 0.0000 0.0000 0.3588 0.0000 21.5488
#
#
#
# Elastic Compliance Matrix: (Units=1/GPa)
#
#
# Indices 1 2 3 4 5 6 
#
# 1 0.019364 -0.003458 -0.005649 0.000000 -0.000472 0.000000
# 2 -0.003458 0.013769 -0.008514 0.000000 -0.000259 0.000000
# 3 -0.005649 -0.008514 0.016292 0.000000 0.000315 0.000000
# 4 0.000000 0.000000 0.000000 0.028129 0.000000 -0.000468
# 5 -0.000472 -0.000259 0.000315 0.000000 0.031642 0.000000
# 6 0.000000 0.000000 0.000000 -0.000468 0.000000 0.046414
#
#
# Mechanical properties :
#
#
# Convention : Reuss Voigt Hill
#
# Bulk Modulus (GPa) = 70.51012 83.47878 76.99445
# Shear Modulus (GPa) = 25.56504 27.68003 26.62254
#
# Velocity S-wave (km/s) = 3.64873 3.79666 3.72343
# Velocity P-wave (km/s) = 7.38037 7.91783 7.65382
#
# Compressibility (1/GPa) = 0.01418236
#
# Stress axis : x y z
#
# Youngs Moduli (GPa) = 51.64337 72.62548 61.38056
#
# Poissons Ratio (x) = 0.25113 0.34675
# Poissons Ratio (y) = 0.17858 0.52260
# Poissons Ratio (z) = 0.29174 0.61834
#
# Static dielectric constant tensor:
#      x y z
#    x 1.649160 0.000000 -0.000440 
#    y 0.000000 1.719250 0.000000 
#    z -0.000440 0.000000 1.632070 
# 
# From -- ./inp_files/201250.got.cif
#   From: 2010.05.17/outbox.cif.g08.bks.cpg/sg12_101_cif.got.tgz:201250.got - 2010.06.03 13:09:07.
