data_PCOD9207794
_publ_section_title
;
Structure prediction by ZEFSAII (Michael W. Deem and Ramdas Pophale) SiO2 
 PCOD9207794
Probable space group: C 2/M
;
_chemical_formula_sum "Si O2"
_cell_formula_units_Z 56
_cell_length_a 7.570396
_cell_length_b 23.130784
_cell_length_c 20.393672
_cell_angle_alpha 90.000000
_cell_angle_beta 46.710083
_cell_angle_gamma 90.000000
_cell_volume 2599.394435
_symmetry_space_group_name_H-M "C 2/M"
_symmetry_group_IT_number 12
_symmetry_cell_setting 'monoclinic'
loop_
_space_group_symop_operation_xyz
x,y,z
-x,y,-z
-x,-y,-z
x,-y,z
1/2+x,1/2+y,z
1/2-x,1/2+y,-z
1/2-x,1/2-y,-z
1/2+x,1/2-y,z
loop_
_atom_site_type_symbol
_atom_site_label
_atom_site_fract_x
_atom_site_fract_y
_atom_site_fract_z
Si Si1 0.979953 0.171756 0.157767
Si Si2 0.546674 0.936223 0.066624
Si Si3 0.510089 0.214966 0.783323
Si Si4 0.740850 0.791637 0.596543
Si Si5 0.752307 0.320190 0.965753
Si Si6 0.166945 0.339911 0.398916
Si Si7 0.997565 0.931681 0.240619
O O1 0.988153 0.215350 0.217028
O O2 0.735680 0.188318 0.182415
O O3 0.963635 0.105221 0.182121
O O4 0.211129 0.187191 0.053627
O O5 0.726948 0.888558 0.046416
O O6 0.290778 0.930646 0.170219
O O7 0.643078 0.000000 0.050795
O O8 0.500000 0.928561 0.000000
O O9 0.709534 0.193272 0.681605
O O10 0.487028 0.201286 0.866484
O O11 0.728843 0.721227 0.598933
O O12 0.520782 0.819852 0.611397
O O13 0.000000 0.807760 0.500000
O O14 0.500000 0.298491 0.000000
O O15 0.350424 0.390337 0.328361
O O16 0.000000 0.363937 0.500000
O O17 0.927199 0.000000 0.257740
#
# Coordination Sequence:
#
# PCOD9207794 Si02
#       7
#     8   8   8   8   8   8   8
#     4  11  22  39  58  91 121 166 195 249 305 363
#     4  10  21  37  60  84 113 162 210 252 291 346
#     4  11  22  37  58  90 127 157 196 245 311 366
#     4  11  21  37  62  96 125 157 194 247 311 374
#     4  10  23  37  57  90 128 160 201 243 310 371
#     4  11  23  40  64  95 123 158 198 253 315 365
#     4  11  23  40  64  87 117 162 214 252 298 356
#
# _framework density 21.543479000000001
#
# number of rings (size 3 to 8) (size 9 to 14) (size 15 to 20)
#    0.000    1.286    4.286    2.143    2.000    2.857 
#    0.000    2.143    0.000    0.429    0.000    0.000 
#    0.000    0.571    0.000    0.000    0.000    0.000 
#
# Total GULP energy -156051.196182 kJ/mol
# GULP energy per Si atom -5573.257007 kJ/mol
# Density = 2.149445 g / cm^3
# Si number density = 21.543479 Si / 1000 Ang^3
#
#
#
# Elastic Constant Matrix: (Units=GPa)
#
#
# Indices 1 2 3 4 5 6 
#
# 1 31.6050 15.3051 17.2922 0.0000 -11.0873 0.0000
# 2 15.3051 114.5755 29.9417 0.0000 -0.2628 0.0000
# 3 17.2922 29.9417 194.0853 0.0000 15.9209 0.0000
# 4 0.0000 0.0000 0.0000 36.6416 0.0000 -5.5601
# 5 -11.0873 -0.2628 15.9209 0.0000 26.1372 0.0000
# 6 0.0000 0.0000 0.0000 -5.5601 0.0000 21.8051
#
#
#
# Elastic Compliance Matrix: (Units=1/GPa)
#
#
# Indices 1 2 3 4 5 6 
#
# 1 0.044232 -0.004545 -0.005026 0.000000 0.021779 0.000000
# 2 -0.004545 0.009586 -0.000972 0.000000 -0.001239 0.000000
# 3 -0.005026 -0.000972 0.006238 0.000000 -0.005941 0.000000
# 4 0.000000 0.000000 0.000000 0.028390 0.000000 0.007239
# 5 0.021779 -0.001239 -0.005941 0.000000 0.051105 0.000000
# 6 0.000000 0.000000 0.000000 0.007239 0.000000 0.047707
#
#
# Mechanical properties :
#
#
# Convention : Reuss Voigt Hill
#
# Bulk Modulus (GPa) = 25.66183 51.70487 38.68335
# Shear Modulus (GPa) = 22.59038 35.43190 29.01114
#
# Velocity S-wave (km/s) = 3.24171 4.05985 3.67363
# Velocity P-wave (km/s) = 5.09403 6.78446 5.99908
#
# Compressibility (1/GPa) = 0.03896838
#
# Stress axis : x y z
#
# Youngs Moduli (GPa) = 22.60823 104.31613 160.31932
#
# Poissons Ratio (x) = 0.47412 0.80580
# Poissons Ratio (y) = 0.10276 0.15587
# Poissons Ratio (z) = 0.11363 0.10142
#
# Static dielectric constant tensor:
#      x y z
#    x 1.825270 0.000000 0.047300 
#    y 0.000000 1.796640 0.000000 
#    z 0.047300 0.000000 1.912060 
# 
# From -- ./inp_files/333953.got.cif
#   From: 2010.05.17/outbox.cif.g08.bks.cpg/sg12_167_cif.got.tgz:333953.got - 2010.06.03 13:09:07.
