data_PCOD9207062
_publ_section_title
;
Structure prediction by ZEFSAII (Michael W. Deem and Ramdas Pophale) SiO2 
 PCOD9207062
Probable space group: C 2/M
;
_chemical_formula_sum "Si O2"
_cell_formula_units_Z 44
_cell_length_a 13.803857
_cell_length_b 11.360367
_cell_length_c 25.350164
_cell_angle_alpha 90.000000
_cell_angle_beta 31.496843
_cell_angle_gamma 90.000000
_cell_volume 2076.919368
_symmetry_space_group_name_H-M "C 2/M"
_symmetry_group_IT_number 12
_symmetry_cell_setting 'monoclinic'
loop_
_space_group_symop_operation_xyz
x,y,z
-x,y,-z
-x,-y,-z
x,-y,z
1/2+x,1/2+y,z
1/2-x,1/2+y,-z
1/2-x,1/2-y,-z
1/2+x,1/2-y,z
loop_
_atom_site_type_symbol
_atom_site_label
_atom_site_fract_x
_atom_site_fract_y
_atom_site_fract_z
Si Si1 0.547943 0.229199 0.858687
Si Si2 0.697179 0.364866 0.690581
Si Si3 0.606382 0.253744 0.240749
Si Si4 0.294625 0.868994 0.446317
Si Si5 0.000000 0.797979 0.500000
Si Si6 0.767265 0.866711 0.062690
O O1 0.606181 0.325326 0.787822
O O2 0.737579 0.184151 0.796439
O O3 0.416856 0.139578 0.888417
O O4 0.421058 0.288663 0.962237
O O5 0.749568 0.500000 0.666875
O O6 0.545343 0.338420 0.715487
O O7 0.872518 0.283689 0.596226
O O8 0.492882 0.158884 0.327831
O O9 0.709161 0.187776 0.145310
O O10 0.250000 0.750000 0.500000
O O11 0.140723 0.868703 0.471480
O O12 0.293811 0.000000 0.472097
O O13 0.829902 0.000000 0.038629
#
# Coordination Sequence:
#
# PCOD9207062 Si02
#       6
#     8   8   8   8   4   8
#     4  10  21  37  56  83 115 146 189 239 288 343
#     4  10  21  37  58  86 118 154 196 241 291 346
#     4  10  22  38  57  85 116 150 191 238 289 346
#     4  11  24  41  62  89 120 156 199 244 294 352
#     4  10  22  40  60  84 119 158 195 238 291 348
#     4  10  21  37  58  82 110 148 190 233 286 347
#
# _framework density 21.185222
#
# number of rings (size 3 to 8) (size 9 to 14) (size 15 to 20)
#    0.000    1.818    0.000    3.273    0.000    9.455 
#    0.000    6.364    0.000    6.545    0.000    0.000 
#    0.000    0.000    0.000    0.000    0.000    0.000 
#
# Total GULP energy -122917.833119 kJ/mol
# GULP energy per Si atom -5587.174233 kJ/mol
# Density = 2.113700 g / cm^3
# Si number density = 21.185222 Si / 1000 Ang^3
#
#
#
# Elastic Constant Matrix: (Units=GPa)
#
#
# Indices 1 2 3 4 5 6 
#
# 1 85.4712 3.2408 35.8454 0.0000 -23.4021 0.0000
# 2 3.2408 100.3125 30.2431 -0.0001 18.5968 0.0000
# 3 35.8454 30.2431 90.3126 -0.0003 -0.0152 -0.0002
# 4 0.0000 -0.0001 -0.0003 2.4040 0.0000 6.0457
# 5 -23.4021 18.5968 -0.0152 0.0000 41.5563 0.0000
# 6 0.0000 0.0000 -0.0002 6.0457 0.0000 -5.7422
#
#
#
# Elastic Compliance Matrix: (Units=1/GPa)
#
#
# Indices 1 2 3 4 5 6 
#
# 1 0.017231 -0.000360 -0.006717 0.000000 0.009862 0.000000
# 2 -0.000360 0.012224 -0.003951 0.000000 -0.005674 0.000000
# 3 -0.006717 -0.003951 0.015061 0.000001 -0.002009 0.000000
# 4 0.000000 0.000000 0.000001 0.114036 0.000000 0.120063
# 5 0.009862 -0.005674 -0.002009 0.000000 0.032156 0.000000
# 6 0.000000 0.000000 0.000000 0.120063 0.000000 -0.047742
#
#
# Mechanical properties :
#
#
# Convention : Reuss Voigt Hill
#
# Bulk Modulus (GPa) = 44.52448 46.08387 45.30418
# Shear Modulus (GPa) = 28.98417 21.42810 25.20613
#
# Velocity S-wave (km/s) = 3.70284 3.18380 3.45309
# Velocity P-wave (km/s) = 6.27246 5.94269 6.10980
#
# Compressibility (1/GPa) = 0.02245955
#
# Stress axis : x y z
#
# Youngs Moduli (GPa) = 58.03642 81.80782 66.39479
#
# Poissons Ratio (x) = 0.02945 0.44595
# Poissons Ratio (y) = 0.02089 0.26236
# Poissons Ratio (z) = 0.38981 0.32326
#
# Static dielectric constant tensor:
#      x y z
#    x 1.803510 0.000000 -0.010730 
#    y 0.000000 1.712530 0.000000 
#    z -0.010730 0.000000 1.739880 
# 
# From -- ./inp_files/360708.got.cif
#   From: 2010.05.17/outbox.cif.g08.bks.cpg/sg12_181_cif.got.tgz:360708.got - 2010.06.03 13:09:07.
