data_PCOD9207321
_publ_section_title
;
Structure prediction by ZEFSAII (Michael W. Deem and Ramdas Pophale) SiO2 
 PCOD9207321
Probable space group: C 2/M
;
_chemical_formula_sum "Si O2"
_cell_formula_units_Z 56
_cell_length_a 21.155251
_cell_length_b 7.544803
_cell_length_c 29.434200
_cell_angle_alpha 90.000000
_cell_angle_beta 148.781974
_cell_angle_gamma 90.000000
_cell_volume 2434.984820
_symmetry_space_group_name_H-M "C 2/M"
_symmetry_group_IT_number 12
_symmetry_cell_setting 'monoclinic'
loop_
_space_group_symop_operation_xyz
x,y,z
-x,y,-z
-x,-y,-z
x,-y,z
1/2+x,1/2+y,z
1/2-x,1/2+y,-z
1/2-x,1/2-y,-z
1/2+x,1/2-y,z
loop_
_atom_site_type_symbol
_atom_site_label
_atom_site_fract_x
_atom_site_fract_y
_atom_site_fract_z
Si Si1 0.317875 0.293702 0.780046
Si Si2 0.253883 0.783409 0.933342
Si Si3 0.046431 0.203604 0.869360
Si Si4 0.137226 0.214043 0.594101
Si Si5 0.951786 0.206249 0.624712
Si Si6 0.215246 0.793130 0.809656
Si Si7 0.249618 0.284626 0.429441
O O1 0.346051 0.500000 0.803294
O O2 0.422497 0.212964 0.812063
O O3 0.192209 0.273785 0.675447
O O4 0.305108 0.217875 0.822385
O O5 0.124102 0.724050 0.874925
O O6 0.263314 0.724051 0.887165
O O7 0.260637 0.000000 0.941018
O O8 0.359374 0.711100 0.030610
O O9 0.018811 0.000000 0.840191
O O10 0.223399 0.270578 0.605295
O O11 0.000000 0.274585 0.500000
O O12 0.135017 0.000000 0.593369
O O13 0.873487 0.218324 0.622820
O O14 0.862370 0.278360 0.530590
O O15 0.084936 0.286013 0.714331
O O16 0.969280 0.000000 0.622795
O O17 0.190874 0.000000 0.804041
O O18 0.246276 0.500000 0.429015
#
# Coordination Sequence:
#
# PCOD9207321 Si02
#       7
#     8   8   8   8   8   8   8
#     4  11  24  38  57  85 118 151 187 236 288 339
#     4   9  19  37  62  86 109 146 192 233 277 338
#     4   9  20  39  59  84 116 147 183 231 289 341
#     4  10  21  38  58  79 111 153 194 233 278 334
#     4   9  18  33  54  77 107 145 182 226 279 330
#     4  10  21  37  58  82 111 151 191 231 280 337
#     4   9  18  32  51  78 106 141 186 231 276 325
#
# _framework density 22.998090999999999
#
# number of rings (size 3 to 8) (size 9 to 14) (size 15 to 20)
#    0.000    2.429    0.000    1.286    2.000    6.000 
#    0.000    5.714    0.000    0.000    0.000    0.000 
#    0.000    0.000    0.000    0.000    0.000    0.000 
#
# Total GULP energy -156390.013746 kJ/mol
# GULP energy per Si atom -5585.357634 kJ/mol
# Density = 2.294575 g / cm^3
# Si number density = 22.998091 Si / 1000 Ang^3
#
#
#
# Elastic Constant Matrix: (Units=GPa)
#
#
# Indices 1 2 3 4 5 6 
#
# 1 100.1438 -15.5518 22.1380 -0.0001 -22.7698 0.0011
# 2 -15.5518 54.8111 -8.7764 -0.0003 0.9001 0.0023
# 3 22.1380 -8.7764 35.3156 -0.0001 0.1432 -0.0001
# 4 -0.0001 -0.0003 -0.0001 5.9898 -0.0001 -2.1022
# 5 -22.7698 0.9001 0.1432 -0.0001 34.1838 0.0001
# 6 0.0011 0.0023 -0.0001 -2.1022 0.0001 21.4723
#
#
#
# Elastic Compliance Matrix: (Units=1/GPa)
#
#
# Indices 1 2 3 4 5 6 
#
# 1 0.014432 0.002586 -0.008443 0.000000 0.009580 -0.000001
# 2 0.002586 0.019473 0.003214 0.000000 0.001196 -0.000002
# 3 -0.008443 0.003214 0.034431 0.000001 -0.005853 0.000000
# 4 0.000000 0.000000 0.000001 0.172890 0.000000 0.016926
# 5 0.009580 0.001196 -0.005853 0.000000 0.035628 -0.000001
# 6 -0.000001 -0.000002 0.000000 0.016926 -0.000001 0.048229
#
#
# Mechanical properties :
#
#
# Convention : Reuss Voigt Hill
#
# Bulk Modulus (GPa) = 15.86082 20.65444 18.25763
# Shear Modulus (GPa) = 14.22934 25.15990 19.69462
#
# Velocity S-wave (km/s) = 2.49010 3.31115 2.92954
# Velocity P-wave (km/s) = 3.89603 4.85991 4.40442
#
# Compressibility (1/GPa) = 0.06304846
#
# Stress axis : x y z
#
# Youngs Moduli (GPa) = 69.29079 51.35301 29.04343
#
# Poissons Ratio (x) = -0.13278 0.24522
# Poissons Ratio (y) = -0.17916 -0.09334
# Poissons Ratio (z) = 0.58503 -0.16503
#
# Static dielectric constant tensor:
#      x y z
#    x 1.859670 0.000000 0.020380 
#    y 0.000000 2.192240 -0.000010 
#    z 0.020380 -0.000010 1.848850 
# 
# From -- ./inp_files/380718.got.cif
#   From: 2010.05.17/outbox.cif.g08.bks.cpg/sg12_191_cif.got.tgz:380718.got - 2010.06.03 13:09:07.
