data_PCOD9207578
_publ_section_title
;
Structure prediction by ZEFSAII (Michael W. Deem and Ramdas Pophale) SiO2 
 PCOD9207578
Probable space group: C 2/M
;
_chemical_formula_sum "Si O2"
_cell_formula_units_Z 48
_cell_length_a 31.167954
_cell_length_b 17.190424
_cell_length_c 8.596696
_cell_angle_alpha 90.000000
_cell_angle_beta 145.838195
_cell_angle_gamma 90.000000
_cell_volume 2586.430919
_symmetry_space_group_name_H-M "C 2/M"
_symmetry_group_IT_number 12
_symmetry_cell_setting 'monoclinic'
loop_
_space_group_symop_operation_xyz
x,y,z
-x,y,-z
-x,-y,-z
x,-y,z
1/2+x,1/2+y,z
1/2-x,1/2+y,-z
1/2-x,1/2-y,-z
1/2+x,1/2-y,z
loop_
_atom_site_type_symbol
_atom_site_label
_atom_site_fract_x
_atom_site_fract_y
_atom_site_fract_z
Si Si1 0.587431 0.000000 0.072338
Si Si2 0.000000 0.910013 0.313658
Si Si3 0.186808 0.647524 0.372470
Si Si4 0.351503 0.676947 0.740708
Si Si5 0.851503 0.823053 0.368312
Si Si6 0.587430 0.000000 0.452245
Si Si7 0.186808 0.352476 0.748377
O O1 0.632883 0.922929 0.160302
O O2 0.586379 0.000000 0.259137
O O3 0.500000 0.000000 0.757024
O O4 0.000000 0.909433 0.500000
O O5 0.075425 0.866207 0.480744
O O6 1.000000 0.000000 0.260642
O O7 0.924575 0.866207 0.028194
O O8 0.271798 0.640724 0.559673
O O9 0.153099 0.731848 0.226282
O O10 0.192276 0.646253 0.576829
O O11 0.354907 0.673551 0.564722
O O12 0.846901 0.731848 0.307687
O O13 0.771798 0.859277 0.071115
O O14 0.632883 0.922929 0.636995
#
# Coordination Sequence:
#
# PCOD9207578 Si02
#       7
#     4   8   8   8   8   4   8
#     4   9  18  32  57  86 111 146 191 227 262 325
#     4  11  25  41  59  82 111 148 194 239 287 347
#     4   9  19  36  59  85 115 152 190 227 275 335
#     4  10  21  37  59  85 115 148 187 235 287 335
#     4  10  21  37  59  85 115 148 187 235 287 335
#     4   9  18  32  57  86 111 146 191 227 262 325
#     4   9  19  36  59  85 115 152 190 227 275 335
#
# _framework density 18.558392999999999
#
# number of rings (size 3 to 8) (size 9 to 14) (size 15 to 20)
#    0.000    2.333    0.000    1.500    4.667    2.667 
#    0.000    0.000    0.000    1.000    0.000    0.000 
#    0.000    0.000    0.000    0.000    0.000    0.000 
#
# Total GULP energy -134005.725204 kJ/mol
# GULP energy per Si atom -5583.571884 kJ/mol
# Density = 1.851615 g / cm^3
# Si number density = 18.558393 Si / 1000 Ang^3
#
#
#
# Elastic Constant Matrix: (Units=GPa)
#
#
# Indices 1 2 3 4 5 6 
#
# 1 57.9572 56.5853 50.2452 0.0000 35.1038 0.0000
# 2 56.5853 137.9895 118.7977 0.0000 46.9885 0.0000
# 3 50.2452 118.7977 165.9928 0.0000 46.4950 0.0000
# 4 0.0000 0.0000 0.0000 29.2521 0.0000 3.7729
# 5 35.1038 46.9885 46.4950 0.0000 35.6979 0.0000
# 6 0.0000 0.0000 0.0000 3.7729 0.0000 24.2571
#
#
#
# Elastic Compliance Matrix: (Units=1/GPa)
#
#
# Indices 1 2 3 4 5 6 
#
# 1 0.045780 -0.008103 0.002462 0.000000 -0.037559 0.000000
# 2 -0.008103 0.023818 -0.012664 0.000000 -0.006889 0.000000
# 3 0.002462 -0.012664 0.016297 0.000000 -0.006978 0.000000
# 4 0.000000 0.000000 0.000000 0.034885 0.000000 -0.005426
# 5 -0.037559 -0.006889 -0.006978 0.000000 0.083104 0.000000
# 6 0.000000 0.000000 0.000000 -0.005426 0.000000 0.042069
#
#
# Mechanical properties :
#
#
# Convention : Reuss Voigt Hill
#
# Bulk Modulus (GPa) = 20.28992 90.35510 55.32251
# Shear Modulus (GPa) = 16.72297 26.92881 21.82589
#
# Velocity S-wave (km/s) = 3.00509 3.81337 3.43310
# Velocity P-wave (km/s) = 4.79557 8.25722 6.75201
#
# Compressibility (1/GPa) = 0.04928557
#
# Stress axis : x y z
#
# Youngs Moduli (GPa) = 21.84382 41.98502 61.36169
#
# Poissons Ratio (x) = 0.34020 -0.15109
# Poissons Ratio (y) = 0.17700 0.77706
# Poissons Ratio (z) = -0.05379 0.53168
#
# Static dielectric constant tensor:
#      x y z
#    x 1.620440 0.000000 -0.014530 
#    y 0.000000 1.641450 0.000000 
#    z -0.014530 0.000000 1.601200 
# 
# From -- ./inp_files/112969.got.cif
#   From: 2010.05.17/outbox.cif.g08.bks.cpg/sg12_57_cif.got.tgz:112969.got - 2010.06.03 13:09:07.
