data_PCOD9207386
_publ_section_title
;
Structure prediction by ZEFSAII (Michael W. Deem and Ramdas Pophale) SiO2 
 PCOD9207386
Probable space group: C 2/M
;
_chemical_formula_sum "Si O2"
_cell_formula_units_Z 40
_cell_length_a 16.320672
_cell_length_b 22.664743
_cell_length_c 8.907913
_cell_angle_alpha 90.000000
_cell_angle_beta 29.606911
_cell_angle_gamma 90.000000
_cell_volume 1627.919185
_symmetry_space_group_name_H-M "C 2/M"
_symmetry_group_IT_number 12
_symmetry_cell_setting 'monoclinic'
loop_
_space_group_symop_operation_xyz
x,y,z
-x,y,-z
-x,-y,-z
x,-y,z
1/2+x,1/2+y,z
1/2-x,1/2+y,-z
1/2-x,1/2-y,-z
1/2+x,1/2-y,z
loop_
_atom_site_type_symbol
_atom_site_label
_atom_site_fract_x
_atom_site_fract_y
_atom_site_fract_z
Si Si1 0.676220 0.431233 0.666900
Si Si2 0.497136 0.732963 0.328497
Si Si3 0.328232 0.569009 0.687580
Si Si4 0.327642 0.776561 0.225117
Si Si5 0.511612 0.124652 0.656374
O O1 0.682751 0.500000 0.705459
O O2 0.670940 0.431261 0.495055
O O3 0.833396 0.400594 0.496234
O O4 0.500000 0.405004 0.000000
O O5 0.500000 0.722814 0.500000
O O6 0.339780 0.691040 0.549493
O O7 0.477497 0.804315 0.355007
O O8 0.628729 0.730346 0.980729
O O9 0.500000 0.586710 0.500000
O O10 0.303322 0.500000 0.772455
O O11 0.164033 0.603913 0.998731
O O12 0.250000 0.750000 0.500000
O O13 0.500000 0.804838 0.000000
O O14 0.500000 0.107126 0.500000
#
# Coordination Sequence:
#
# PCOD9207386 Si02
#       5
#     8   8   8   8   8
#     4  10  21  37  58  84 115 154 195 236 287 342
#     4  10  21  38  58  82 112 147 187 230 284 345
#     4  10  21  38  59  83 114 153 195 239 288 340
#     4   9  19  36  58  82 107 141 184 229 282 338
#     4  11  23  37  56  86 118 151 192 238 285 338
#
# _framework density 24.571245000000001
#
# number of rings (size 3 to 8) (size 9 to 14) (size 15 to 20)
#    0.000    2.000    0.000    3.000    0.000   10.400 
#    0.000   11.000    0.000    0.000    0.000    0.000 
#    0.000    0.000    0.000    0.000    0.000    0.000 
#
# Total GULP energy -111403.207719 kJ/mol
# GULP energy per Si atom -5570.160386 kJ/mol
# Density = 2.451532 g / cm^3
# Si number density = 24.571245 Si / 1000 Ang^3
#
#
#
# Elastic Constant Matrix: (Units=GPa)
#
#
# Indices 1 2 3 4 5 6 
#
# 1 176.8793 30.9711 72.6934 0.0010 -0.7847 -0.0005
# 2 30.9711 103.7824 51.2851 0.0003 -20.0993 -0.0002
# 3 72.6934 51.2851 211.3658 0.0025 0.1778 -0.0014
# 4 0.0010 0.0003 0.0025 29.6039 -0.0008 2.5709
# 5 -0.7847 -20.0993 0.1778 -0.0008 68.0131 0.0006
# 6 -0.0005 -0.0002 -0.0014 2.5709 0.0006 12.7314
#
#
#
# Elastic Compliance Matrix: (Units=1/GPa)
#
#
# Indices 1 2 3 4 5 6 
#
# 1 0.006673 -0.001023 -0.002047 0.000000 -0.000220 0.000000
# 2 -0.001023 0.011870 -0.002531 0.000000 0.003503 0.000000
# 3 -0.002047 -0.002531 0.006050 0.000000 -0.000787 0.000001
# 4 0.000000 0.000000 0.000000 0.034382 0.000001 -0.006943
# 5 -0.000220 0.003503 -0.000787 0.000001 0.015738 -0.000001
# 6 0.000000 0.000000 0.000001 -0.006943 -0.000001 0.079948
#
#
# Mechanical properties :
#
#
# Convention : Reuss Voigt Hill
#
# Bulk Modulus (GPa) = 74.67391 89.10295 81.88843
# Shear Modulus (GPa) = 29.35557 44.54154 36.94855
#
# Velocity S-wave (km/s) = 3.46021 4.26226 3.88200
# Velocity P-wave (km/s) = 6.81328 7.78231 7.31386
#
# Compressibility (1/GPa) = 0.01339156
#
# Stress axis : x y z
#
# Youngs Moduli (GPa) = 149.86318 84.24645 165.29268
#
# Poissons Ratio (x) = 0.08614 0.33829
# Poissons Ratio (y) = 0.15324 0.41841
# Poissons Ratio (z) = 0.30671 0.21326
#
# Static dielectric constant tensor:
#      x y z
#    x 1.607760 0.000000 -0.081740 
#    y 0.000000 2.000460 0.000000 
#    z -0.081740 0.000000 2.004250 
# 
# From -- ./inp_files/41407.got.cif
#   From: 2010.05.17/outbox.cif.g08.bks.cpg/sg12_21_cif.got.tgz:41407.got - 2010.06.03 13:09:07.
