data_PCOD9207830
_publ_section_title
;
Structure prediction by ZEFSAII (Michael W. Deem and Ramdas Pophale) SiO2 
 PCOD9207830
Probable space group: C 2/M
;
_chemical_formula_sum "Si O2"
_cell_formula_units_Z 64
_cell_length_a 24.306408
_cell_length_b 20.992202
_cell_length_c 18.333297
_cell_angle_alpha 90.000000
_cell_angle_beta 160.831764
_cell_angle_gamma 90.000000
_cell_volume 3071.476369
_symmetry_space_group_name_H-M "C 2/M"
_symmetry_group_IT_number 12
_symmetry_cell_setting 'monoclinic'
loop_
_space_group_symop_operation_xyz
x,y,z
-x,y,-z
-x,-y,-z
x,-y,z
1/2+x,1/2+y,z
1/2-x,1/2+y,-z
1/2-x,1/2-y,-z
1/2+x,1/2-y,z
loop_
_atom_site_type_symbol
_atom_site_label
_atom_site_fract_x
_atom_site_fract_y
_atom_site_fract_z
Si Si1 0.337028 0.843503 0.667434
Si Si2 0.745431 0.429999 0.003561
Si Si3 0.134499 0.925841 0.529301
Si Si4 0.727850 0.833253 0.178439
Si Si5 0.703734 0.069210 0.760816
Si Si6 0.841134 0.302105 0.358710
Si Si7 0.325246 0.790042 0.508081
Si Si8 0.179875 0.301196 0.967236
O O1 0.239591 0.892897 0.596239
O O2 0.275960 0.843452 0.506041
O O3 0.290995 0.771819 0.636396
O O4 0.535394 0.855027 0.926934
O O5 0.811813 0.500000 0.065917
O O6 0.558932 0.423699 0.737742
O O7 0.846811 0.370182 0.101286
O O8 0.746059 0.426649 0.091743
O O9 0.173925 0.884546 0.650860
O O10 0.179225 0.000000 0.596024
O O11 0.739971 0.763530 0.228297
O O12 0.792390 0.817304 0.177791
O O13 0.500000 0.068451 0.500000
O O14 0.755807 0.134237 0.787092
O O15 0.761639 0.000000 0.804819
O O16 0.871093 0.308835 0.482944
O O17 0.000000 0.297391 0.500000
O O18 0.503380 0.770386 0.767603
O O19 0.250000 0.250000 0.000000
#
# Coordination Sequence:
#
# PCOD9207830 Si02
#       8
#     8   8   8   8   8   8   8   8
#     4  10  22  42  60  85 121 165 226 267 311 373
#     4  10  22  39  60  89 128 169 206 256 329 395
#     4  11  24  42  63  87 125 173 220 271 323 381
#     4  11  24  36  60  90 123 167 216 268 314 372
#     4   9  18  35  59  86 120 160 201 248 314 391
#     4  11  21  35  59  95 128 156 201 263 329 394
#     4  10  21  37  60  87 120 157 204 270 325 375
#     4  11  21  36  59  90 121 161 208 261 322 384
#
# _framework density 20.836886
#
# number of rings (size 3 to 8) (size 9 to 14) (size 15 to 20)
#    0.000    1.625    1.250    4.125    1.750    3.500 
#    0.000    3.750    0.000    0.000    0.000    5.250 
#    0.000    0.000    0.000    0.000    0.000    0.000 
#
# Total GULP energy -178312.029300 kJ/mol
# GULP energy per Si atom -5572.250916 kJ/mol
# Density = 2.078946 g / cm^3
# Si number density = 20.836886 Si / 1000 Ang^3
#
#
#
# Elastic Constant Matrix: (Units=GPa)
#
#
# Indices 1 2 3 4 5 6 
#
# 1 122.2573 49.2750 25.7440 0.0000 -30.6593 0.0000
# 2 49.2750 154.7987 42.4670 0.0000 -22.8398 0.0000
# 3 25.7440 42.4670 60.2010 0.0000 -20.3412 0.0000
# 4 0.0000 0.0000 0.0000 19.4262 0.0000 7.0671
# 5 -30.6593 -22.8398 -20.3412 0.0000 34.2494 0.0000
# 6 0.0000 0.0000 0.0000 7.0671 0.0000 16.0258
#
#
#
# Elastic Compliance Matrix: (Units=1/GPa)
#
#
# Indices 1 2 3 4 5 6 
#
# 1 0.011261 -0.002240 -0.000418 0.000000 0.008339 0.000000
# 2 -0.002240 0.008628 -0.004832 0.000000 0.000879 0.000000
# 3 -0.000418 -0.004832 0.023749 0.000000 0.010508 0.000000
# 4 0.000000 0.000000 0.000000 0.061313 0.000000 -0.027038
# 5 0.008339 0.000879 0.010508 0.000000 0.043490 0.000000
# 6 0.000000 0.000000 0.000000 -0.027038 0.000000 0.074323
#
#
# Mechanical properties :
#
#
# Convention : Reuss Voigt Hill
#
# Bulk Modulus (GPa) = 34.89244 63.58100 49.23672
# Shear Modulus (GPa) = 20.21871 28.59170 24.40520
#
# Velocity S-wave (km/s) = 3.11840 3.70830 3.42607
# Velocity P-wave (km/s) = 5.45415 6.99394 6.27148
#
# Compressibility (1/GPa) = 0.02865950
#
# Stress axis : x y z
#
# Youngs Moduli (GPa) = 88.79870 115.89985 42.10744
#
# Poissons Ratio (x) = 0.25956 0.01761
# Poissons Ratio (y) = 0.19887 0.20345
# Poissons Ratio (z) = 0.03714 0.55998
#
# Static dielectric constant tensor:
#      x y z
#    x 1.870660 0.000000 -0.020260 
#    y 0.000000 1.473200 0.000000 
#    z -0.020260 0.000000 1.778440 
# 
# From -- ./inp_files/290928.got.cif
#   From: 2010.05.17/outbox.cif.g08.bks.cpg/sg12_146_cif.got.tgz:290928.got - 2010.06.03 13:09:07.
