data_PCOD9207193
_publ_section_title
;
Structure prediction by ZEFSAII (Michael W. Deem and Ramdas Pophale) SiO2 
 PCOD9207193
Probable space group: C 2/M
;
_chemical_formula_sum "Si O2"
_cell_formula_units_Z 52
_cell_length_a 15.632685
_cell_length_b 9.807586
_cell_length_c 20.902025
_cell_angle_alpha 90.000000
_cell_angle_beta 51.452152
_cell_angle_gamma 90.000000
_cell_volume 2506.338339
_symmetry_space_group_name_H-M "C 2/M"
_symmetry_group_IT_number 12
_symmetry_cell_setting 'monoclinic'
loop_
_space_group_symop_operation_xyz
x,y,z
-x,y,-z
-x,-y,-z
x,-y,z
1/2+x,1/2+y,z
1/2-x,1/2+y,-z
1/2-x,1/2-y,-z
1/2+x,1/2-y,z
loop_
_atom_site_type_symbol
_atom_site_label
_atom_site_fract_x
_atom_site_fract_y
_atom_site_fract_z
Si Si1 0.100848 0.147840 0.828538
Si Si2 0.378304 0.657925 0.529550
Si Si3 0.827716 0.652631 0.305269
Si Si4 0.336726 0.157764 0.784708
Si Si5 0.000000 0.263561 0.000000
Si Si6 0.262031 0.159966 0.059453
Si Si7 0.445501 0.845915 0.386291
O O1 0.097303 0.261463 0.776472
O O2 0.224568 0.151504 0.797374
O O3 0.028405 0.176481 0.924144
O O4 0.075926 0.000000 0.812815
O O5 0.500000 0.659414 0.500000
O O6 0.348499 0.500000 0.529086
O O7 0.293049 0.708440 0.622821
O O8 0.384060 0.749354 0.464169
O O9 0.817276 0.500000 0.283549
O O10 0.880868 0.648751 0.350099
O O11 0.314197 0.262086 0.853026
O O12 0.434283 0.200584 0.692189
O O13 0.360297 0.000000 0.795671
O O14 0.113595 0.336691 0.968549
O O15 0.233958 0.000000 0.062270
O O16 0.250000 0.250000 0.000000
O O17 0.453938 0.000000 0.408744
#
# Coordination Sequence:
#
# PCOD9207193 Si02
#       7
#     8   8   8   8   4   8   8
#     4  10  21  38  62  87 116 154 200 252 305 361
#     4  10  21  37  57  83 116 154 194 242 295 350
#     4  10  22  37  55  84 120 154 194 245 300 360
#     4   9  20  39  58  83 117 153 194 247 304 359
#     4  10  24  44  64  92 128 166 210 260 318 380
#     4  11  24  41  64  92 123 162 209 257 312 375
#     4  10  21  37  58  84 116 154 194 242 295 354
#
# _framework density 20.747399000000001
#
# number of rings (size 3 to 8) (size 9 to 14) (size 15 to 20)
#    0.000    2.000    0.000    2.308    2.154    7.077 
#    0.000    0.000    0.000    0.000    0.000    0.000 
#    0.000    0.000    0.000    0.000    0.000    0.000 
#
# Total GULP energy -145078.471230 kJ/mol
# GULP energy per Si atom -5579.941201 kJ/mol
# Density = 2.070018 g / cm^3
# Si number density = 20.747399 Si / 1000 Ang^3
#
#
#
# Elastic Constant Matrix: (Units=GPa)
#
#
# Indices 1 2 3 4 5 6 
#
# 1 40.6394 10.6630 11.5597 0.0000 -3.7584 0.0000
# 2 10.6630 108.0426 62.2409 0.0000 19.0506 0.0000
# 3 11.5597 62.2409 111.9308 0.0000 2.7000 0.0000
# 4 0.0000 0.0000 0.0000 23.8832 0.0000 6.1132
# 5 -3.7584 19.0506 2.7000 0.0000 35.7710 0.0000
# 6 0.0000 0.0000 0.0000 6.1132 0.0000 19.3457
#
#
#
# Elastic Compliance Matrix: (Units=1/GPa)
#
#
# Indices 1 2 3 4 5 6 
#
# 1 0.026047 -0.002500 -0.001401 0.000000 0.004174 0.000000
# 2 -0.002500 0.015670 -0.008263 0.000000 -0.007984 0.000000
# 3 -0.001401 -0.008263 0.013596 0.000000 0.003227 0.000000
# 4 0.000000 0.000000 0.000000 0.045555 0.000000 -0.014395
# 5 0.004174 -0.007984 0.003227 0.000000 0.032403 0.000000
# 6 0.000000 0.000000 0.000000 -0.014395 0.000000 0.056240
#
#
# Mechanical properties :
#
#
# Convention : Reuss Voigt Hill
#
# Bulk Modulus (GPa) = 32.27238 47.72667 39.99953
# Shear Modulus (GPa) = 22.30491 27.54327 24.92409
#
# Velocity S-wave (km/s) = 3.28238 3.64751 3.46975
# Velocity P-wave (km/s) = 5.47303 6.38692 5.94755
#
# Compressibility (1/GPa) = 0.03098625
#
# Stress axis : x y z
#
# Youngs Moduli (GPa) = 38.39221 63.81516 73.55300
#
# Poissons Ratio (x) = 0.15951 0.10303
# Poissons Ratio (y) = 0.09597 0.60776
# Poissons Ratio (z) = 0.05378 0.52730
#
# Static dielectric constant tensor:
#      x y z
#    x 1.797900 0.000000 -0.042030 
#    y 0.000000 1.756770 0.000000 
#    z -0.042030 0.000000 1.720110 
# 
# From -- ./inp_files/314655.got.cif
#   From: 2010.05.17/outbox.cif.g08.bks.cpg/sg12_158_cif.got.tgz:314655.got - 2010.06.03 13:09:07.
