data_PCOD9207098
_publ_section_title
;
Structure prediction by ZEFSAII (Michael W. Deem and Ramdas Pophale) SiO2 
 PCOD9207098
Probable space group: C 2/M
;
_chemical_formula_sum "Si O2"
_cell_formula_units_Z 48
_cell_length_a 24.004962
_cell_length_b 8.745208
_cell_length_c 17.788795
_cell_angle_alpha 90.000000
_cell_angle_beta 47.450264
_cell_angle_gamma 90.000000
_cell_volume 2751.077531
_symmetry_space_group_name_H-M "C 2/M"
_symmetry_group_IT_number 12
_symmetry_cell_setting 'monoclinic'
loop_
_space_group_symop_operation_xyz
x,y,z
-x,y,-z
-x,-y,-z
x,-y,z
1/2+x,1/2+y,z
1/2-x,1/2+y,-z
1/2-x,1/2-y,-z
1/2+x,1/2-y,z
loop_
_atom_site_type_symbol
_atom_site_label
_atom_site_fract_x
_atom_site_fract_y
_atom_site_fract_z
Si Si1 0.805102 0.683127 0.885481
Si Si2 0.269365 0.816460 0.193886
Si Si3 0.260350 0.315761 0.609247
Si Si4 0.568179 0.682441 0.994414
Si Si5 0.964238 0.684532 0.812250
Si Si6 0.869411 0.684220 0.388672
O O1 0.797292 0.500000 0.892691
O O2 0.780467 0.747932 0.827663
O O3 0.891297 0.722155 0.828425
O O4 0.750000 0.750000 0.000000
O O5 0.244002 0.766461 0.300340
O O6 0.266397 0.000000 0.192956
O O7 0.354998 0.762568 0.101877
O O8 0.263607 0.500000 0.604956
O O9 0.184807 0.269952 0.631756
O O10 0.330653 0.250884 0.498370
O O11 0.579648 0.500000 0.984785
O O12 0.547322 0.740107 0.096241
O O13 0.500000 0.718636 0.000000
O O14 0.965683 0.500000 0.820405
O O15 0.044475 0.732105 0.704065
O O16 0.867764 0.500000 0.394678
#
# Coordination Sequence:
#
# PCOD9207098 Si02
#       6
#     8   8   8   8   8   8
#     4  11  22  37  57  81 110 147 190 231 278 330
#     4  11  22  37  57  80 110 149 188 227 276 333
#     4   9  19  35  56  82 110 142 181 225 277 332
#     4  11  23  35  52  82 114 142 178 228 281 332
#     4  10  21  37  57  80 108 146 186 225 276 335
#     4   9  18  35  58  82 108 141 182 226 275 333
#
# _framework density 17.447709
#
# number of rings (size 3 to 8) (size 9 to 14) (size 15 to 20)
#    0.000    1.833    1.667    2.500    0.000    5.333 
#    0.000    4.167    0.000    5.000    0.000    0.000 
#    0.000    0.000    0.000    0.000    0.000    0.000 
#
# Total GULP energy -134034.381293 kJ/mol
# GULP energy per Si atom -5584.765887 kJ/mol
# Density = 1.740800 g / cm^3
# Si number density = 17.447709 Si / 1000 Ang^3
#
#
#
# Elastic Constant Matrix: (Units=GPa)
#
#
# Indices 1 2 3 4 5 6 
#
# 1 152.5846 54.4744 108.1432 0.0001 18.8805 -0.0002
# 2 54.4744 31.3777 43.3732 -0.0004 2.8409 0.0002
# 3 108.1432 43.3732 173.7861 0.0000 18.3800 -0.0002
# 4 0.0001 -0.0004 0.0000 31.6051 0.0000 2.1619
# 5 18.8805 2.8409 18.3800 0.0000 11.8531 0.0002
# 6 -0.0002 0.0002 -0.0002 2.1619 0.0002 25.4868
#
#
#
# Elastic Compliance Matrix: (Units=1/GPa)
#
#
# Indices 1 2 3 4 5 6 
#
# 1 0.025813 -0.036716 -0.004164 -0.000001 -0.025859 0.000001
# 2 -0.036716 0.101619 -0.007325 0.000001 0.045487 -0.000002
# 3 -0.004164 -0.007325 0.011108 0.000000 -0.008836 0.000000
# 4 -0.000001 0.000001 0.000000 0.031825 0.000001 -0.002700
# 5 -0.025859 0.045487 -0.008836 0.000001 0.128356 -0.000002
# 6 0.000001 -0.000002 0.000000 -0.002700 -0.000002 0.039465
#
#
# Mechanical properties :
#
#
# Convention : Reuss Voigt Hill
#
# Bulk Modulus (GPa) = 23.73638 85.52557 54.63098
# Shear Modulus (GPa) = 11.14475 23.90617 17.52546
#
# Velocity S-wave (km/s) = 2.53010 3.70558 3.17275
# Velocity P-wave (km/s) = 4.70840 8.21177 6.69336
#
# Compressibility (1/GPa) = 0.04212943
#
# Stress axis : x y z
#
# Youngs Moduli (GPa) = 38.74007 9.84065 90.02224
#
# Poissons Ratio (x) = 0.36131 0.37489
# Poissons Ratio (y) = 1.42238 0.65943
# Poissons Ratio (z) = 0.16133 0.07208
#
# Static dielectric constant tensor:
#      x y z
#    x 1.584590 0.000000 -0.004140 
#    y 0.000000 1.589320 0.000000 
#    z -0.004140 0.000000 1.561220 
# 
# From -- ./inp_files/281807.got.cif
#   From: 2010.05.17/outbox.cif.g08.bks.cpg/sg12_141_cif.got.tgz:281807.got - 2010.06.03 13:09:07.
