data_PCOD9207815
_publ_section_title
;
Structure prediction by ZEFSAII (Michael W. Deem and Ramdas Pophale) SiO2 
 PCOD9207815
Probable space group: C 2/M
;
_chemical_formula_sum "Si O2"
_cell_formula_units_Z 44
_cell_length_a 7.690820
_cell_length_b 17.074691
_cell_length_c 22.684648
_cell_angle_alpha 90.000000
_cell_angle_beta 46.125728
_cell_angle_gamma 90.000000
_cell_volume 2147.385024
_symmetry_space_group_name_H-M "C 2/M"
_symmetry_group_IT_number 12
_symmetry_cell_setting 'monoclinic'
loop_
_space_group_symop_operation_xyz
x,y,z
-x,y,-z
-x,-y,-z
x,-y,z
1/2+x,1/2+y,z
1/2-x,1/2+y,-z
1/2-x,1/2-y,-z
1/2+x,1/2-y,z
loop_
_atom_site_type_symbol
_atom_site_label
_atom_site_fract_x
_atom_site_fract_y
_atom_site_fract_z
Si Si1 0.718042 0.318719 0.177898
Si Si2 0.470548 0.591538 0.615618
Si Si3 0.500000 0.690806 0.500000
Si Si4 0.242931 0.701417 0.061958
Si Si5 0.794004 0.911649 0.311990
Si Si6 0.064269 0.300463 0.671791
O O1 0.728368 0.265984 0.117058
O O2 0.536052 0.390793 0.218584
O O3 0.599128 0.260086 0.254406
O O4 0.991763 0.343869 0.126135
O O5 0.424229 0.500000 0.614491
O O6 0.591362 0.633329 0.530738
O O7 0.624239 0.595298 0.639146
O O8 0.218224 0.640638 0.677560
O O9 0.722761 0.735889 0.418758
O O10 0.500000 0.657611 0.000000
O O11 0.250000 0.750000 0.000000
O O12 0.600154 0.850581 0.333452
O O13 0.710359 0.000000 0.321532
#
# Coordination Sequence:
#
# PCOD9207815 Si02
#       6
#     8   8   4   8   8   8
#     4  11  19  38  60  90 122 152 201 247 297 361
#     4   9  19  36  55  81 120 162 207 253 301 353
#     4   8  21  36  56  84 121 162 210 258 299 344
#     4   9  19  34  62  94 114 146 193 247 295 359
#     4  11  23  37  61  91 120 162 205 248 306 358
#     4  10  21  37  60  86 121 162 204 253 300 346
#
# _framework density 20.490037999999998
#
# number of rings (size 3 to 8) (size 9 to 14) (size 15 to 20)
#    1.091    1.091    1.818    1.909    0.000    0.727 
#    0.000    5.455    0.000    5.455    0.000    0.000 
#    0.000    0.000    0.000    0.000    0.000    0.000 
#
# Total GULP energy -122594.836063 kJ/mol
# GULP energy per Si atom -5572.492548 kJ/mol
# Density = 2.044340 g / cm^3
# Si number density = 20.490038 Si / 1000 Ang^3
#
#
#
# Elastic Constant Matrix: (Units=GPa)
#
#
# Indices 1 2 3 4 5 6 
#
# 1 85.0816 15.2225 35.3365 -0.0004 -1.0855 -0.0006
# 2 15.2225 67.2608 21.5245 -0.0004 4.5084 -0.0003
# 3 35.3365 21.5245 133.8169 -0.0015 -7.4170 0.0007
# 4 -0.0004 -0.0004 -0.0015 9.0403 0.0017 0.1189
# 5 -1.0855 4.5084 -7.4170 0.0017 36.7045 -0.0003
# 6 -0.0006 -0.0003 0.0007 0.1189 -0.0003 14.2931
#
#
#
# Elastic Compliance Matrix: (Units=1/GPa)
#
#
# Indices 1 2 3 4 5 6 
#
# 1 0.013455 -0.002011 -0.003230 0.000000 -0.000008 0.000001
# 2 -0.002011 0.016198 -0.002213 0.000001 -0.002496 0.000000
# 3 -0.003230 -0.002213 0.008790 0.000001 0.001952 -0.000001
# 4 0.000000 0.000001 0.000001 0.110628 -0.000005 -0.000920
# 5 -0.000008 -0.002496 0.001952 -0.000005 0.027946 0.000000
# 6 0.000001 0.000000 -0.000001 -0.000920 0.000000 0.069971
#
#
# Mechanical properties :
#
#
# Convention : Reuss Voigt Hill
#
# Bulk Modulus (GPa) = 42.48920 47.81403 45.15162
# Shear Modulus (GPa) = 18.53636 26.27930 22.40783
#
# Velocity S-wave (km/s) = 3.01101 3.58514 3.31054
# Velocity P-wave (km/s) = 5.73321 6.36581 6.05778
#
# Compressibility (1/GPa) = 0.02353539
#
# Stress axis : x y z
#
# Youngs Moduli (GPa) = 74.32435 61.73574 113.76632
#
# Poissons Ratio (x) = 0.12415 0.36745
# Poissons Ratio (y) = 0.14946 0.25174
# Poissons Ratio (z) = 0.24006 0.13661
#
# Static dielectric constant tensor:
#      x y z
#    x 1.816190 0.000000 -0.025150 
#    y 0.000000 1.879760 0.000000 
#    z -0.025150 0.000000 1.751720 
# 
# From -- ./inp_files/356083.got.cif
#   From: 2010.05.17/outbox.cif.g08.bks.cpg/sg12_179_cif.got.tgz:356083.got - 2010.06.03 13:09:07.
