data_PCOD9207366
_publ_section_title
;
Structure prediction by ZEFSAII (Michael W. Deem and Ramdas Pophale) SiO2 
 PCOD9207366
Probable space group: C 2/M
;
_chemical_formula_sum "Si O2"
_cell_formula_units_Z 64
_cell_length_a 25.491127
_cell_length_b 8.926831
_cell_length_c 15.788478
_cell_angle_alpha 90.000000
_cell_angle_beta 68.825596
_cell_angle_gamma 90.000000
_cell_volume 3350.183464
_symmetry_space_group_name_H-M "C 2/M"
_symmetry_group_IT_number 12
_symmetry_cell_setting 'monoclinic'
loop_
_space_group_symop_operation_xyz
x,y,z
-x,y,-z
-x,-y,-z
x,-y,z
1/2+x,1/2+y,z
1/2-x,1/2+y,-z
1/2-x,1/2-y,-z
1/2+x,1/2-y,z
loop_
_atom_site_type_symbol
_atom_site_label
_atom_site_fract_x
_atom_site_fract_y
_atom_site_fract_z
Si Si1 0.010349 0.321671 0.196139
Si Si2 0.466143 0.319293 0.648190
Si Si3 0.780693 0.680337 0.250899
Si Si4 0.282034 0.176441 0.058945
Si Si5 0.291208 0.680059 0.544748
Si Si6 0.901505 0.822497 0.195320
Si Si7 0.913145 0.676603 0.008999
Si Si8 0.415085 0.681837 0.502708
O O1 0.004954 0.500000 0.205053
O O2 0.949160 0.246190 0.227491
O O3 0.043854 0.257856 0.256732
O O4 0.043461 0.286543 0.090188
O O5 0.464702 0.500000 0.657840
O O6 0.528979 0.274513 0.580590
O O7 0.424886 0.276828 0.595336
O O8 0.788971 0.500000 0.242703
O O9 0.766937 0.730806 0.162946
O O10 0.733371 0.713068 0.347577
O O11 0.839679 0.753372 0.244191
O O12 0.270022 0.000000 0.063419
O O13 0.250000 0.250000 0.000000
O O14 0.349401 0.196107 0.013307
O O15 0.290890 0.500000 0.534599
O O16 0.250000 0.750000 0.500000
O O17 0.355582 0.734408 0.501669
O O18 0.899622 0.000000 0.205739
O O19 0.918736 0.774052 0.089928
O O20 0.920056 0.500000 0.028058
O O21 0.414311 0.500000 0.501520
#
# Coordination Sequence:
#
# PCOD9207366 Si02
#       8
#     8   8   8   8   8   8   8   8
#     4  11  22  35  54  80 110 144 179 219 272 331
#     4   9  18  35  58  82 107 144 186 227 276 329
#     4   9  20  38  55  76 111 151 186 222 278 341
#     4   9  18  34  55  78 106 143 182 222 270 324
#     4  10  21  37  58  84 113 149 191 233 279 333
#     4  11  22  35  55  80 108 140 181 230 272 321
#     4   9  20  38  54  73 108 148 179 215 272 332
#     4   8  17  36  58  79 111 146 180 228 283 328
#
# _framework density 19.103432000000002
#
# number of rings (size 3 to 8) (size 9 to 14) (size 15 to 20)
#    0.000    2.500    0.000    3.375    1.750    6.000 
#    0.000    3.125    0.000    0.000    0.000    0.000 
#    0.000    0.000    0.000    0.000    0.000    0.000 
#
# Total GULP energy -178599.014799 kJ/mol
# GULP energy per Si atom -5581.219212 kJ/mol
# Density = 1.905995 g / cm^3
# Si number density = 19.103432 Si / 1000 Ang^3
#
#
#
# Elastic Constant Matrix: (Units=GPa)
#
#
# Indices 1 2 3 4 5 6 
#
# 1 84.5088 14.4086 15.1180 0.0000 11.4532 0.0000
# 2 14.4086 20.6056 10.2043 0.0000 0.5654 0.0000
# 3 15.1180 10.2043 22.6154 0.0000 0.8596 0.0000
# 4 0.0000 0.0000 0.0000 22.6264 0.0000 5.7779
# 5 11.4532 0.5654 0.8596 0.0000 22.4993 0.0000
# 6 0.0000 0.0000 0.0000 5.7779 0.0000 19.6455
#
#
#
# Elastic Compliance Matrix: (Units=1/GPa)
#
#
# Indices 1 2 3 4 5 6 
#
# 1 0.015240 -0.007145 -0.006685 0.000000 -0.007323 0.000000
# 2 -0.007145 0.065850 -0.025048 0.000000 0.002939 0.000000
# 3 -0.006685 -0.025048 0.059922 0.000000 0.001743 0.000000
# 4 0.000000 0.000000 0.000000 0.047785 0.000000 -0.014054
# 5 -0.007323 0.002939 0.001743 0.000000 0.048033 0.000000
# 6 0.000000 0.000000 0.000000 -0.014054 0.000000 0.055036
#
#
# Mechanical properties :
#
#
# Convention : Reuss Voigt Hill
#
# Bulk Modulus (GPa) = 15.80873 23.02129 19.41501
# Shear Modulus (GPa) = 12.79732 18.82082 15.80907
#
# Velocity S-wave (km/s) = 2.59104 3.14220 2.87984
# Velocity P-wave (km/s) = 4.15267 5.02410 4.60903
#
# Compressibility (1/GPa) = 0.06325619
#
# Stress axis : x y z
#
# Youngs Moduli (GPa) = 65.61837 15.18601 16.68832
#
# Poissons Ratio (x) = 0.10850 0.11157
# Poissons Ratio (y) = 0.46883 0.41801
# Poissons Ratio (z) = 0.43868 0.38038
#
# Static dielectric constant tensor:
#      x y z
#    x 1.667420 0.000000 -0.003400 
#    y 0.000000 1.641800 0.000000 
#    z -0.003400 0.000000 1.676110 
# 
# From -- ./inp_files/243761.got.cif
#   From: 2010.05.17/outbox.cif.g08.bks.cpg/sg12_122_cif.got.tgz:243761.got - 2010.06.03 13:09:07.
