data_PCOD9207693
_publ_section_title
;
Structure prediction by ZEFSAII (Michael W. Deem and Ramdas Pophale) SiO2 
 PCOD9207693
Probable space group: C 2/M
;
_chemical_formula_sum "Si O2"
_cell_formula_units_Z 64
_cell_length_a 14.933083
_cell_length_b 13.661126
_cell_length_c 18.093109
_cell_angle_alpha 90.000000
_cell_angle_beta 42.116405
_cell_angle_gamma 90.000000
_cell_volume 2475.357919
_symmetry_space_group_name_H-M "C 2/M"
_symmetry_group_IT_number 12
_symmetry_cell_setting 'monoclinic'
loop_
_space_group_symop_operation_xyz
x,y,z
-x,y,-z
-x,-y,-z
x,-y,z
1/2+x,1/2+y,z
1/2-x,1/2+y,-z
1/2-x,1/2-y,-z
1/2+x,1/2-y,z
loop_
_atom_site_type_symbol
_atom_site_label
_atom_site_fract_x
_atom_site_fract_y
_atom_site_fract_z
Si Si1 0.759239 0.117633 0.916513
Si Si2 0.391436 0.880443 0.851736
Si Si3 0.261061 0.639857 0.466454
Si Si4 0.951619 0.117217 0.207157
Si Si5 0.643935 0.381956 0.298901
Si Si6 0.309865 0.892562 0.335646
Si Si7 0.517078 0.811471 0.404322
Si Si8 0.783861 0.114402 0.174663
O O1 0.756671 0.133131 0.830702
O O2 0.902648 0.153732 0.858595
O O3 0.763916 0.000000 0.920710
O O4 0.643766 0.147058 0.043031
O O5 0.543221 0.848063 0.740105
O O6 0.271086 0.846352 0.870872
O O7 0.389824 0.000000 0.844124
O O8 0.250000 0.750000 0.500000
O O9 0.353139 0.627174 0.338706
O O10 0.276680 0.594575 0.537767
O O11 0.107976 0.620233 0.538378
O O12 0.896434 0.155465 0.161859
O O13 0.962348 0.000000 0.190522
O O14 0.606035 0.500000 0.323965
O O15 0.719300 0.348990 0.327133
O O16 0.531943 0.297305 0.357946
O O17 0.340466 0.000000 0.285708
O O18 0.500000 0.790484 0.500000
O O19 0.649496 0.871208 0.304508
O O20 0.816676 0.000000 0.142502
#
# Coordination Sequence:
#
# PCOD9207693 Si02
#       8
#     8   8   8   8   8   8   8   8
#     4   9  19  38  63  90 122 164 214 260 312 373
#     4   9  18  36  64  94 123 159 206 263 317 375
#     4  12  23  36  58  88 122 162 203 258 316 378
#     4  10  21  37  59  88 123 165 206 252 311 383
#     4  10  23  42  62  88 126 170 216 264 312 372
#     4  10  21  38  62  91 123 161 210 262 317 376
#     4  12  23  39  61  92 126 167 208 259 318 377
#     4  10  21  37  60  92 127 162 204 254 313 379
#
# _framework density 25.854846999999999
#
# number of rings (size 3 to 8) (size 9 to 14) (size 15 to 20)
#    0.000    1.750    2.500    1.875    0.000    2.000 
#    0.000    8.750    0.000    1.500    0.000    0.000 
#    0.000    0.000    0.000    0.000    0.000    0.000 
#
# Total GULP energy -178580.480906 kJ/mol
# GULP energy per Si atom -5580.640028 kJ/mol
# Density = 2.579600 g / cm^3
# Si number density = 25.854847 Si / 1000 Ang^3
#
#
#
# Elastic Constant Matrix: (Units=GPa)
#
#
# Indices 1 2 3 4 5 6 
#
# 1 125.0694 0.8845 28.2260 0.0000 23.7670 0.0000
# 2 0.8845 84.1976 -4.6847 0.0000 2.1022 0.0000
# 3 28.2260 -4.6847 100.3142 0.0000 25.1559 0.0000
# 4 0.0000 0.0000 0.0000 41.2979 0.0000 -12.3652
# 5 23.7670 2.1022 25.1559 0.0000 38.2968 0.0000
# 6 0.0000 0.0000 0.0000 -12.3652 0.0000 30.5116
#
#
#
# Elastic Compliance Matrix: (Units=1/GPa)
#
#
# Indices 1 2 3 4 5 6 
#
# 1 0.009224 -0.000054 -0.001393 0.000000 -0.004806 0.000000
# 2 -0.000054 0.011956 0.000874 0.000000 -0.001196 0.000000
# 3 -0.001393 0.000874 0.012207 0.000000 -0.007202 0.000000
# 4 0.000000 0.000000 0.000000 0.027558 0.000000 0.011168
# 5 -0.004806 -0.001196 -0.007202 0.000000 0.033892 0.000000
# 6 0.000000 0.000000 0.000000 0.011168 0.000000 0.037300
#
#
# Mechanical properties :
#
#
# Convention : Reuss Voigt Hill
#
# Bulk Modulus (GPa) = 31.01689 39.82590 35.42139
# Shear Modulus (GPa) = 34.71491 41.03163 37.87327
#
# Velocity S-wave (km/s) = 3.66824 3.98804 3.83148
# Velocity P-wave (km/s) = 5.47393 6.05335 5.77092
#
# Compressibility (1/GPa) = 0.03224050
#
# Stress axis : x y z
#
# Youngs Moduli (GPa) = 108.41768 83.64091 81.91713
#
# Poissons Ratio (x) = 0.00455 0.11407
# Poissons Ratio (y) = 0.00589 -0.07157
# Poissons Ratio (z) = 0.15097 -0.07307
#
# Static dielectric constant tensor:
#      x y z
#    x 2.153610 0.000000 -0.030300 
#    y 0.000000 1.933870 0.000000 
#    z -0.030300 0.000000 1.987050 
# 
# From -- ./inp_files/271719.got.cif
#   From: 2010.05.17/outbox.cif.g08.bks.cpg/sg12_136_cif.got.tgz:271719.got - 2010.06.03 13:09:07.
