data_PCOD9207333
_publ_section_title
;
Structure prediction by ZEFSAII (Michael W. Deem and Ramdas Pophale) SiO2 
 PCOD9207333
Probable space group: C 2/M
;
_chemical_formula_sum "Si O2"
_cell_formula_units_Z 56
_cell_length_a 28.119518
_cell_length_b 8.394080
_cell_length_c 14.043926
_cell_angle_alpha 90.000000
_cell_angle_beta 59.911116
_cell_angle_gamma 90.000000
_cell_volume 2868.206828
_symmetry_space_group_name_H-M "C 2/M"
_symmetry_group_IT_number 12
_symmetry_cell_setting 'monoclinic'
loop_
_space_group_symop_operation_xyz
x,y,z
-x,y,-z
-x,-y,-z
x,-y,z
1/2+x,1/2+y,z
1/2-x,1/2+y,-z
1/2-x,1/2-y,-z
1/2+x,1/2-y,z
loop_
_atom_site_type_symbol
_atom_site_label
_atom_site_fract_x
_atom_site_fract_y
_atom_site_fract_z
Si Si1 0.916559 0.807402 0.832423
Si Si2 0.296845 0.308963 0.024568
Si Si3 0.987662 0.192634 0.120079
Si Si4 0.844209 0.692711 0.548616
Si Si5 0.369234 0.807401 0.308192
Si Si6 0.440126 0.807336 0.596067
Si Si7 0.273526 0.809043 0.260570
O O1 0.928120 0.750001 0.714390
O O2 0.964490 0.753228 0.856043
O O3 0.916498 0.000000 0.832706
O O4 0.856812 0.753414 0.928861
O O5 0.296789 0.500000 0.024517
O O6 0.284933 0.250594 0.142855
O O7 0.250000 0.250000 0.000000
O O8 0.928499 0.249730 0.214488
O O9 0.987757 0.000000 0.119766
O O10 0.000000 0.246463 0.000000
O O11 0.843975 0.500000 0.549070
O O12 0.856376 0.746284 0.428657
O O13 0.892414 0.746153 0.571653
O O14 0.785349 0.750666 0.643604
O O15 0.321649 0.753188 0.283622
O O16 0.369392 0.000000 0.308182
O O17 0.500000 0.753558 0.500000
O O18 0.440238 0.000000 0.596081
O O19 0.273596 0.000000 0.260138
#
# Coordination Sequence:
#
# PCOD9207333 Si02
#       7
#     8   8   8   8   8   8   8
#     4  10  22  38  57  83 113 146 185 231 281 334
#     4  11  23  40  61  85 116 152 191 235 283 336
#     4  10  21  38  59  83 112 148 189 231 282 343
#     4  10  21  38  59  83 113 151 193 235 283 337
#     4  10  22  39  59  85 115 148 190 238 285 337
#     4  10  21  37  58  83 112 148 187 228 278 335
#     4  11  23  38  58  86 117 149 189 235 285 340
#
# _framework density 19.524394000000001
#
# number of rings (size 3 to 8) (size 9 to 14) (size 15 to 20)
#    0.000    1.714    0.000    3.857    0.000    9.143 
#    0.000    0.000    0.000    0.000    0.000    0.000 
#    0.000    0.000    0.000    0.000    0.000    0.000 
#
# Total GULP energy -156550.548989 kJ/mol
# GULP energy per Si atom -5591.091035 kJ/mol
# Density = 1.947996 g / cm^3
# Si number density = 19.524394 Si / 1000 Ang^3
#
#
#
# Elastic Constant Matrix: (Units=GPa)
#
#
# Indices 1 2 3 4 5 6 
#
# 1 249.1711 30.0838 151.9386 0.0000 1.3664 0.0000
# 2 30.0838 12.1571 25.9612 0.0000 1.7977 0.0000
# 3 151.9386 25.9612 244.8426 0.0000 0.6885 0.0000
# 4 0.0000 0.0000 0.0000 -9.8769 0.0000 19.8822
# 5 1.3664 1.7977 0.6885 0.0000 47.3302 0.0000
# 6 0.0000 0.0000 0.0000 19.8822 0.0000 17.3980
#
#
#
# Elastic Compliance Matrix: (Units=1/GPa)
#
#
# Indices 1 2 3 4 5 6 
#
# 1 0.007459 -0.011130 -0.003449 0.000000 0.000258 0.000000
# 2 -0.011130 0.123657 -0.006193 0.000000 -0.004285 0.000000
# 3 -0.003449 -0.006193 0.006881 0.000000 0.000235 0.000000
# 4 0.000000 0.000000 0.000000 -0.030677 0.000000 0.035057
# 5 0.000258 -0.004285 0.000235 0.000000 0.021280 0.000000
# 6 0.000000 0.000000 0.000000 0.035057 0.000000 0.017415
#
#
# Mechanical properties :
#
#
# Convention : Reuss Voigt Hill
#
# Bulk Modulus (GPa) = 10.36777 102.45977 56.41377
# Shear Modulus (GPa) = 22.75719 30.84943 26.80331
#
# Velocity S-wave (km/s) = 3.41776 3.97929 3.70917
# Velocity P-wave (km/s) = 4.57127 8.58515 6.87754
#
# Compressibility (1/GPa) = 0.09645272
#
# Stress axis : x y z
#
# Youngs Moduli (GPa) = 134.06612 8.08686 145.33394
#
# Poissons Ratio (x) = 0.09001 0.50130
# Poissons Ratio (y) = 1.49218 0.90001
# Poissons Ratio (z) = 0.46243 0.05008
#
# Static dielectric constant tensor:
#      x y z
#    x 1.651620 0.000000 -0.002360 
#    y 0.000000 1.681640 0.000000 
#    z -0.002360 0.000000 1.620960 
# 
# From -- ./inp_files/180673.got.cif
#   From: 2010.05.17/outbox.cif.g08.bks.cpg/sg12_91_cif.got.tgz:180673.got - 2010.06.03 13:09:07.
