data_PCOD9207616
_publ_section_title
;
Structure prediction by ZEFSAII (Michael W. Deem and Ramdas Pophale) SiO2 
 PCOD9207616
Probable space group: C 2/M
;
_chemical_formula_sum "Si O2"
_cell_formula_units_Z 48
_cell_length_a 30.400298
_cell_length_b 8.457254
_cell_length_c 9.621765
_cell_angle_alpha 90.000000
_cell_angle_beta 83.147270
_cell_angle_gamma 90.000000
_cell_volume 2456.112624
_symmetry_space_group_name_H-M "C 2/M"
_symmetry_group_IT_number 12
_symmetry_cell_setting 'monoclinic'
loop_
_space_group_symop_operation_xyz
x,y,z
-x,y,-z
-x,-y,-z
x,-y,z
1/2+x,1/2+y,z
1/2-x,1/2+y,-z
1/2-x,1/2-y,-z
1/2+x,1/2-y,z
loop_
_atom_site_type_symbol
_atom_site_label
_atom_site_fract_x
_atom_site_fract_y
_atom_site_fract_z
Si Si1 0.034855 0.819273 0.610895
Si Si2 0.708395 0.190197 0.604348
Si Si3 0.626772 0.690186 0.454306
Si Si4 0.026763 0.814929 0.132209
Si Si5 0.875717 0.688782 0.858413
Si Si6 0.791984 0.691389 0.072436
O O1 0.080173 0.749761 0.535464
O O2 0.000000 0.829039 0.500000
O O3 0.007084 0.740248 0.743800
O O4 0.045837 0.000000 0.653051
O O5 0.750000 0.250000 0.500000
O O6 0.665400 0.253828 0.541107
O O7 0.710094 0.242648 0.765305
O O8 0.707944 0.000000 0.603452
O O9 0.625476 0.500000 0.449171
O O10 0.632441 0.749026 0.294577
O O11 0.075141 0.739406 0.113091
O O12 0.034179 0.000000 0.168558
O O13 0.000000 0.810031 0.000000
O O14 0.873805 0.500000 0.855141
O O15 0.837172 0.744392 0.978256
O O16 0.791430 0.500000 0.072307
O O17 0.750000 0.750000 0.000000
#
# Coordination Sequence:
#
# PCOD9207616 Si02
#       6
#     8   8   8   8   8   8
#     4   9  17  34  57  84 118 154 197 246 291 340
#     4  11  24  43  64  91 122 153 195 245 299 357
#     4  11  22  38  63  91 121 158 201 248 297 350
#     4  10  21  37  59  86 118 158 205 250 293 349
#     4  11  23  40  60  87 123 161 199 244 299 355
#     4  10  24  43  63  87 120 156 194 241 294 355
#
# _framework density 19.543077
#
# number of rings (size 3 to 8) (size 9 to 14) (size 15 to 20)
#    0.000    1.667    1.667    2.500    2.333    5.667 
#    0.000    2.500    0.000    0.000    0.000    0.000 
#    0.000    0.000    0.000    0.000    0.000    0.000 
#
# Total GULP energy -133990.025017 kJ/mol
# GULP energy per Si atom -5582.917709 kJ/mol
# Density = 1.949860 g / cm^3
# Si number density = 19.543077 Si / 1000 Ang^3
#
#
#
# Elastic Constant Matrix: (Units=GPa)
#
#
# Indices 1 2 3 4 5 6 
#
# 1 184.8459 29.1815 110.8356 0.0000 -17.2642 0.0000
# 2 29.1815 38.2707 31.1668 0.0000 -3.7998 0.0000
# 3 110.8356 31.1668 159.9193 0.0000 -21.1108 0.0000
# 4 0.0000 0.0000 0.0000 52.0755 0.0000 49.1319
# 5 -17.2642 -3.7998 -21.1108 0.0000 41.4927 0.0000
# 6 0.0000 0.0000 0.0000 49.1319 0.0000 113.9413
#
#
#
# Elastic Compliance Matrix: (Units=1/GPa)
#
#
# Indices 1 2 3 4 5 6 
#
# 1 0.009429 -0.002227 -0.006014 0.000000 0.000659 0.000000
# 2 -0.002227 0.031587 -0.004667 0.000000 -0.000408 0.000000
# 3 -0.006014 -0.004667 0.011732 0.000000 0.003039 0.000000
# 4 0.000000 0.000000 0.000000 0.032373 0.000000 -0.013960
# 5 0.000659 -0.000408 0.003039 0.000000 0.025884 0.000000
# 6 0.000000 0.000000 0.000000 -0.013960 0.000000 0.014796
#
#
# Mechanical properties :
#
#
# Convention : Reuss Voigt Hill
#
# Bulk Modulus (GPa) = 37.12807 80.60041 58.86424
# Shear Modulus (GPa) = 31.13429 55.62536 43.37983
#
# Velocity S-wave (km/s) = 3.99571 5.34086 4.71648
# Velocity P-wave (km/s) = 6.35035 8.90870 7.73602
#
# Compressibility (1/GPa) = 0.02693380
#
# Stress axis : x y z
#
# Youngs Moduli (GPa) = 106.05470 31.65814 85.23636
#
# Poissons Ratio (x) = 0.07049 0.51262
# Poissons Ratio (y) = 0.23613 0.39778
# Poissons Ratio (z) = 0.63782 0.14774
#
# Static dielectric constant tensor:
#      x y z
#    x 1.649050 0.000000 -0.021360 
#    y 0.000000 1.695420 0.000000 
#    z -0.021360 0.000000 1.668400 
# 
# From -- ./inp_files/108727.got.cif
#   From: 2010.05.17/outbox.cif.g08.bks.cpg/sg12_55_cif.got.tgz:108727.got - 2010.06.03 13:09:07.
