data_PCOD9207380
_publ_section_title
;
Structure prediction by ZEFSAII (Michael W. Deem and Ramdas Pophale) SiO2 
 PCOD9207380
Probable space group: C 2/M
;
_chemical_formula_sum "Si O2"
_cell_formula_units_Z 48
_cell_length_a 25.243421
_cell_length_b 7.701625
_cell_length_c 17.272964
_cell_angle_alpha 90.000000
_cell_angle_beta 33.799399
_cell_angle_gamma 90.000000
_cell_volume 1868.083475
_symmetry_space_group_name_H-M "C 2/M"
_symmetry_group_IT_number 12
_symmetry_cell_setting 'monoclinic'
loop_
_space_group_symop_operation_xyz
x,y,z
-x,y,-z
-x,-y,-z
x,-y,z
1/2+x,1/2+y,z
1/2-x,1/2+y,-z
1/2-x,1/2-y,-z
1/2+x,1/2-y,z
loop_
_atom_site_type_symbol
_atom_site_label
_atom_site_fract_x
_atom_site_fract_y
_atom_site_fract_z
Si Si1 0.914238 0.800053 0.500184
Si Si2 0.559499 0.699730 0.855947
Si Si3 0.712676 0.211070 0.782376
Si Si4 0.615250 0.297108 0.227616
Si Si5 0.171617 0.710211 0.997599
Si Si6 0.145296 0.699530 0.595624
O O1 0.821984 0.729249 0.655922
O O2 0.885018 0.799651 0.444810
O O3 0.019082 0.719928 0.379686
O O4 0.923078 0.000000 0.514554
O O5 0.530638 0.500000 0.882161
O O6 0.664867 0.709424 0.765484
O O7 0.571543 0.780433 0.756851
O O8 0.500000 0.781761 0.000000
O O9 0.653305 0.257435 0.931175
O O10 0.712947 0.000000 0.775151
O O11 0.619599 0.500000 0.243644
O O12 0.719676 0.226197 0.119501
O O13 0.608241 0.283498 0.142974
O O14 0.168817 0.500000 0.006923
O O15 0.146911 0.500000 0.570510
O O16 0.250000 0.750000 0.500000
#
# Coordination Sequence:
#
# PCOD9207380 Si02
#       6
#     8   8   8   8   8   8
#     4  10  21  37  58  85 115 153 195 236 286 341
#     4  11  25  42  60  85 117 154 195 239 288 346
#     4  10  21  37  58  84 115 151 192 240 287 340
#     4   9  19  36  58  83 114 151 191 236 287 344
#     4   9  19  36  57  84 115 149 192 238 287 341
#     4  12  24  40  62  86 117 155 193 238 288 344
#
# _framework density 25.694783999999999
#
# number of rings (size 3 to 8) (size 9 to 14) (size 15 to 20)
#    0.000    1.833    1.667    2.000    2.333    3.333 
#    0.000    3.333    0.000    0.000    0.000    7.000 
#    0.000    0.000    0.000    0.000    0.000    0.000 
#
# Total GULP energy -134225.478415 kJ/mol
# GULP energy per Si atom -5592.728267 kJ/mol
# Density = 2.563630 g / cm^3
# Si number density = 25.694784 Si / 1000 Ang^3
#
#
#
# Elastic Constant Matrix: (Units=GPa)
#
#
# Indices 1 2 3 4 5 6 
#
# 1 64.2625 -1.3291 4.0071 -0.0043 13.8772 0.0025
# 2 -1.3291 74.7488 4.8876 -0.0079 0.7222 0.0097
# 3 4.0071 4.8876 134.7238 -0.0091 9.5239 0.0059
# 4 -0.0043 -0.0079 -0.0091 19.6691 0.0045 -0.9061
# 5 13.8772 0.7222 9.5239 0.0045 53.1298 -0.0014
# 6 0.0025 0.0097 0.0059 -0.9061 -0.0014 11.0944
#
#
#
# Elastic Compliance Matrix: (Units=1/GPa)
#
#
# Indices 1 2 3 4 5 6 
#
# 1 0.016505 0.000348 -0.000201 0.000004 -0.004280 -0.000004
# 2 0.000348 0.013418 -0.000484 0.000005 -0.000187 -0.000011
# 3 -0.000201 -0.000484 0.007537 0.000003 -0.001292 -0.000003
# 4 0.000004 0.000005 0.000003 0.051033 -0.000006 0.004168
# 5 -0.004280 -0.000187 -0.001292 -0.000006 0.020174 0.000004
# 6 -0.000004 -0.000011 -0.000003 0.004168 0.000004 0.090476
#
#
# Mechanical properties :
#
#
# Convention : Reuss Voigt Hill
#
# Bulk Modulus (GPa) = 27.18395 32.09625 29.64010
# Shear Modulus (GPa) = 23.57613 34.52332 29.04973
#
# Velocity S-wave (km/s) = 3.03239 3.66948 3.36604
# Velocity P-wave (km/s) = 4.78153 5.52014 5.16406
#
# Compressibility (1/GPa) = 0.03678642
#
# Stress axis : x y z
#
# Youngs Moduli (GPa) = 60.58731 74.52802 132.67058
#
# Poissons Ratio (x) = -0.02593 0.02667
# Poissons Ratio (y) = -0.02108 0.06420
# Poissons Ratio (z) = 0.01218 0.03607
#
# Static dielectric constant tensor:
#      x y z
#    x 2.085510 0.000000 -0.041920 
#    y 0.000000 1.936390 0.000010 
#    z -0.041920 0.000010 2.067350 
# 
# From -- ./inp_files/244660.got.cif
#   From: 2010.05.17/outbox.cif.g08.bks.cpg/sg12_123_cif.got.tgz:244660.got - 2010.06.03 13:09:07.
