data_PCOD9207787
_publ_section_title
;
Structure prediction by ZEFSAII (Michael W. Deem and Ramdas Pophale) SiO2 
 PCOD9207787
Probable space group: C 2/M
;
_chemical_formula_sum "Si O2"
_cell_formula_units_Z 48
_cell_length_a 29.411091
_cell_length_b 7.497232
_cell_length_c 18.759755
_cell_angle_alpha 90.000000
_cell_angle_beta 148.490444
_cell_angle_gamma 90.000000
_cell_volume 2161.934476
_symmetry_space_group_name_H-M "C 2/M"
_symmetry_group_IT_number 12
_symmetry_cell_setting 'monoclinic'
loop_
_space_group_symop_operation_xyz
x,y,z
-x,y,-z
-x,-y,-z
x,-y,z
1/2+x,1/2+y,z
1/2-x,1/2+y,-z
1/2-x,1/2-y,-z
1/2+x,1/2-y,z
loop_
_atom_site_type_symbol
_atom_site_label
_atom_site_fract_x
_atom_site_fract_y
_atom_site_fract_z
Si Si1 0.950973 0.782192 0.363401
Si Si2 0.260736 0.713733 0.430460
Si Si3 0.410623 0.702778 0.044100
Si Si4 0.255956 0.711647 0.091091
Si Si5 0.596037 0.796215 0.122541
Si Si6 0.544209 0.281358 0.341045
O O1 0.851629 0.724359 0.239224
O O2 0.000000 0.726916 0.500000
O O3 0.996418 0.724882 0.350249
O O4 0.950628 0.000000 0.360282
O O5 0.262479 0.500000 0.422424
O O6 0.250000 0.750000 0.500000
O O7 0.177241 0.782962 0.274561
O O8 0.355617 0.777517 0.531039
O O9 0.434263 0.500000 0.057020
O O10 0.488395 0.776892 0.197346
O O11 0.324730 0.702571 0.977258
O O12 0.387684 0.798069 0.940031
O O13 0.250307 0.500000 0.096546
O O14 0.250000 0.750000 0.000000
O O15 0.587462 0.000000 0.138297
O O16 0.500000 0.712973 0.000000
O O17 0.542454 0.500000 0.338056
#
# Coordination Sequence:
#
# PCOD9207787 Si02
#       6
#     8   8   8   8   8   8
#     4   9  18  32  55  82 109 144 189 232 269 324
#     4  10  21  37  60  83 112 147 185 230 277 335
#     4  11  22  37  58  84 115 149 191 236 277 333
#     4  11  21  36  59  85 114 150 190 233 283 334
#     4  10  22  39  59  87 117 145 183 234 289 341
#     4   9  18  34  54  80 109 145 191 230 269 325
#
# _framework density 22.202338999999998
#
# number of rings (size 3 to 8) (size 9 to 14) (size 15 to 20)
#    0.000    2.000    1.667    2.000    2.333    1.000 
#    0.000    0.833    0.000    2.000    0.000    0.000 
#    0.000    0.000    0.000    0.000    0.000    0.000 
#
# Total GULP energy -134070.589301 kJ/mol
# GULP energy per Si atom -5586.274554 kJ/mol
# Density = 2.215181 g / cm^3
# Si number density = 22.202339 Si / 1000 Ang^3
#
#
#
# Elastic Constant Matrix: (Units=GPa)
#
#
# Indices 1 2 3 4 5 6 
#
# 1 106.3113 -4.4537 68.5007 0.0000 8.9125 0.0000
# 2 -4.4537 64.9984 7.4108 0.0000 3.7311 0.0000
# 3 68.5007 7.4108 238.0843 0.0000 9.5443 0.0000
# 4 0.0000 0.0000 0.0000 -2.2729 0.0000 -3.2538
# 5 8.9125 3.7311 9.5443 0.0000 43.8951 0.0000
# 6 0.0000 0.0000 0.0000 -3.2538 0.0000 20.6054
#
#
#
# Elastic Compliance Matrix: (Units=1/GPa)
#
#
# Indices 1 2 3 4 5 6 
#
# 1 0.011771 0.001291 -0.003356 0.000000 -0.001770 0.000000
# 2 0.001291 0.015646 -0.000802 0.000000 -0.001418 0.000000
# 3 -0.003356 -0.000802 0.005206 0.000000 -0.000382 0.000000
# 4 0.000000 0.000000 0.000000 -0.358850 0.000000 -0.056667
# 5 -0.001770 -0.001418 -0.000382 0.000000 0.023345 0.000000
# 6 0.000000 0.000000 0.000000 -0.056667 0.000000 0.039583
#
#
# Mechanical properties :
#
#
# Convention : Reuss Voigt Hill
#
# Bulk Modulus (GPa) = 37.18860 61.36773 49.27817
# Shear Modulus (GPa) = -20.11246 34.97460 7.43107
#
# Velocity S-wave (km/s) = -3.01303 3.97327 1.83146
# Velocity P-wave (km/s) = 2.16373 6.98207 5.16871
#
# Compressibility (1/GPa) = 0.02688996
#
# Stress axis : x y z
#
# Youngs Moduli (GPa) = 84.95311 63.91323 192.08445
#
# Poissons Ratio (x) = -0.08250 0.64463
# Poissons Ratio (y) = -0.10966 0.15397
# Poissons Ratio (z) = 0.28510 0.05123
#
# Static dielectric constant tensor:
#      x y z
#    x 1.757420 0.000000 -0.001880 
#    y 0.000000 2.381350 0.000000 
#    z -0.001880 0.000000 1.807860 
# 
# From -- ./inp_files/244721.got.cif
#   From: 2010.05.17/outbox.cif.g08.bks.cpg/sg12_123_cif.got.tgz:244721.got - 2010.06.03 13:09:07.
