data_PCOD9207469
_publ_section_title
;
Structure prediction by ZEFSAII (Michael W. Deem and Ramdas Pophale) SiO2 
 PCOD9207469
Probable space group: C 2/M
;
_chemical_formula_sum "Si O2"
_cell_formula_units_Z 56
_cell_length_a 20.127352
_cell_length_b 9.041810
_cell_length_c 29.132753
_cell_angle_alpha 90.000000
_cell_angle_beta 150.895792
_cell_angle_gamma 90.000000
_cell_volume 2578.794359
_symmetry_space_group_name_H-M "C 2/M"
_symmetry_group_IT_number 12
_symmetry_cell_setting 'monoclinic'
loop_
_space_group_symop_operation_xyz
x,y,z
-x,y,-z
-x,-y,-z
x,-y,z
1/2+x,1/2+y,z
1/2-x,1/2+y,-z
1/2-x,1/2-y,-z
1/2+x,1/2-y,z
loop_
_atom_site_type_symbol
_atom_site_label
_atom_site_fract_x
_atom_site_fract_y
_atom_site_fract_z
Si Si1 0.404992 0.824734 0.696422
Si Si2 0.664128 0.328308 0.104131
Si Si3 0.397474 0.323857 0.597628
Si Si4 0.664734 0.164141 0.013503
Si Si5 0.179028 0.178028 0.718671
Si Si6 0.348001 0.320502 0.400265
Si Si7 0.950251 0.164858 0.134343
O O1 0.447024 0.734933 0.677072
O O2 0.249259 0.785696 0.615967
O O3 0.482430 0.776188 0.789113
O O4 0.417717 0.000000 0.696194
O O5 0.704019 0.500000 0.125593
O O6 0.714023 0.238742 0.089920
O O7 0.724620 0.256716 0.186365
O O8 0.500000 0.318975 0.000000
O O9 0.379427 0.500000 0.587168
O O10 0.250000 0.250000 0.500000
O O11 0.520185 0.290852 0.636138
O O12 0.796227 0.149353 0.060412
O O13 0.608048 0.000000 0.987934
O O14 0.559817 0.266705 0.922339
O O15 0.204622 0.226386 0.681661
O O16 0.197263 0.000000 0.732990
O O17 0.500000 0.264895 0.500000
O O18 0.352375 0.500000 0.400859
O O19 0.011931 0.000000 0.171962
#
# Coordination Sequence:
#
# PCOD9207469 Si02
#       7
#     8   8   8   8   8   8   8
#     4  11  22  36  60  91 120 154 200 248 302 367
#     4  11  25  41  58  86 124 164 204 255 315 367
#     4  11  23  40  64  93 124 160 204 257 317 374
#     4  10  21  38  60  84 113 155 203 245 293 356
#     4  10  22  41  65  91 121 164 214 258 304 369
#     4   9  19  38  62  88 119 156 201 251 299 356
#     4  10  21  37  58  86 120 153 191 247 304 357
#
# _framework density 21.715572999999999
#
# number of rings (size 3 to 8) (size 9 to 14) (size 15 to 20)
#    0.000    1.714    0.000    3.857    2.000    9.714 
#    0.000    0.714    0.000    3.000    0.000    0.000 
#    0.000    0.000    0.000    0.000    0.000    0.000 
#
# Total GULP energy -156492.214758 kJ/mol
# GULP energy per Si atom -5589.007670 kJ/mol
# Density = 2.166615 g / cm^3
# Si number density = 21.715573 Si / 1000 Ang^3
#
#
#
# Elastic Constant Matrix: (Units=GPa)
#
#
# Indices 1 2 3 4 5 6 
#
# 1 70.8203 26.7836 -1.2794 0.0000 -14.1565 0.0001
# 2 26.7836 65.5697 5.6241 0.0000 3.7898 0.0002
# 3 -1.2794 5.6241 50.9329 0.0002 -12.4351 0.0001
# 4 0.0000 0.0000 0.0002 35.8874 0.0000 -4.2769
# 5 -14.1565 3.7898 -12.4351 0.0000 33.9902 0.0000
# 6 0.0001 0.0002 0.0001 -4.2769 0.0000 17.2595
#
#
#
# Elastic Compliance Matrix: (Units=1/GPa)
#
#
# Indices 1 2 3 4 5 6 
#
# 1 0.019765 -0.009048 0.004120 0.000000 0.010748 0.000000
# 2 -0.009048 0.019746 -0.004244 0.000000 -0.007523 0.000000
# 3 0.004120 -0.004244 0.022774 0.000000 0.010521 0.000000
# 4 0.000000 0.000000 0.000000 0.028713 0.000000 0.007115
# 5 0.010748 -0.007523 0.010521 0.000000 0.038584 0.000000
# 6 0.000000 0.000000 0.000000 0.007115 0.000000 0.059702
#
#
# Mechanical properties :
#
#
# Convention : Reuss Voigt Hill
#
# Bulk Modulus (GPa) = 22.75845 27.73107 25.24476
# Shear Modulus (GPa) = 22.49449 27.84040 25.16744
#
# Velocity S-wave (km/s) = 3.22198 3.58445 3.40804
# Velocity P-wave (km/s) = 4.93402 5.47073 5.20929
#
# Compressibility (1/GPa) = 0.04393972
#
# Stress axis : x y z
#
# Youngs Moduli (GPa) = 50.59447 50.64393 43.90885
#
# Poissons Ratio (x) = 0.45823 -0.18089
# Poissons Ratio (y) = 0.45778 0.18636
# Poissons Ratio (z) = -0.20843 0.21495
#
# Static dielectric constant tensor:
#      x y z
#    x 1.798200 0.000000 0.054150 
#    y 0.000000 1.756970 0.000000 
#    z 0.054150 0.000000 1.817000 
# 
# From -- ./inp_files/380712.got.cif
#   From: 2010.05.17/outbox.cif.g08.bks.cpg/sg12_191_cif.got.tgz:380712.got - 2010.06.03 13:09:07.
