data_PCOD9207132
_publ_section_title
;
Structure prediction by ZEFSAII (Michael W. Deem and Ramdas Pophale) SiO2 
 PCOD9207132
Probable space group: C 2/M
;
_chemical_formula_sum "Si O2"
_cell_formula_units_Z 56
_cell_length_a 8.992281
_cell_length_b 25.648601
_cell_length_c 15.616823
_cell_angle_alpha 90.000000
_cell_angle_beta 117.881443
_cell_angle_gamma 90.000000
_cell_volume 3183.741462
_symmetry_space_group_name_H-M "C 2/M"
_symmetry_group_IT_number 12
_symmetry_cell_setting 'monoclinic'
loop_
_space_group_symop_operation_xyz
x,y,z
-x,y,-z
-x,-y,-z
x,-y,z
1/2+x,1/2+y,z
1/2-x,1/2+y,-z
1/2-x,1/2-y,-z
1/2+x,1/2-y,z
loop_
_atom_site_type_symbol
_atom_site_label
_atom_site_fract_x
_atom_site_fract_y
_atom_site_fract_z
Si Si1 0.937748 0.652598 0.314320
Si Si2 0.558875 0.348332 0.271649
Si Si3 0.062396 0.236730 0.424573
Si Si4 0.703049 0.061031 0.426168
Si Si5 0.737511 0.697398 0.901415
Si Si6 0.502114 0.440848 0.634931
Si Si7 0.568228 0.809946 0.880263
O O1 0.748208 0.642545 0.293254
O O2 0.940901 0.659770 0.211966
O O3 0.984040 0.708566 0.370374
O O4 0.062841 0.605728 0.376714
O O5 0.551273 0.305143 0.345642
O O6 0.436440 0.330667 0.164238
O O7 0.478734 0.400431 0.285852
O O8 0.250000 0.250000 0.500000
O O9 0.000000 0.216067 0.500000
O O10 0.841203 0.063991 0.387463
O O11 0.823673 0.070742 0.540298
O O12 0.642782 0.000000 0.413463
O O13 0.671926 0.756655 0.892005
O O14 0.877402 0.697607 0.863514
O O15 0.827974 0.671655 0.008074
O O16 0.495255 0.500000 0.662153
#
# Coordination Sequence:
#
# PCOD9207132 Si02
#       7
#     8   8   8   8   8   8   8
#     4  12  24  37  56  85 115 152 191 229 287 336
#     4  12  24  36  58  84 113 154 189 232 283 336
#     4  12  26  38  49  78 119 154 189 223 273 334
#     4   9  20  38  60  82 111 151 193 236 279 330
#     4  10  21  37  57  82 110 149 189 232 284 334
#     4   9  20  38  59  83 110 150 196 234 278 332
#     4  10  21  37  57  81 113 146 189 235 279 341
#
# _framework density 17.589369000000001
#
# number of rings (size 3 to 8) (size 9 to 14) (size 15 to 20)
#    0.000    1.429    2.857    3.429    6.000    2.286 
#    0.000    1.429    0.000    0.857    0.000    6.000 
#    0.000    0.000    0.000    0.000    0.000    0.000 
#
# Total GULP energy -156041.054910 kJ/mol
# GULP energy per Si atom -5572.894818 kJ/mol
# Density = 1.754933 g / cm^3
# Si number density = 17.589369 Si / 1000 Ang^3
#
#
#
# Elastic Constant Matrix: (Units=GPa)
#
#
# Indices 1 2 3 4 5 6 
#
# 1 43.6839 16.8149 3.6963 0.0000 9.8798 0.0000
# 2 16.8149 53.4544 11.6038 0.0000 3.5221 0.0000
# 3 3.6963 11.6038 30.5531 0.0000 2.6067 0.0000
# 4 0.0000 0.0000 0.0000 9.7540 0.0000 2.5403
# 5 9.8798 3.5221 2.6067 0.0000 29.1292 0.0000
# 6 0.0000 0.0000 0.0000 2.5403 0.0000 17.5865
#
#
#
# Elastic Compliance Matrix: (Units=1/GPa)
#
#
# Indices 1 2 3 4 5 6 
#
# 1 0.027994 -0.008355 0.000514 0.000000 -0.008530 0.000000
# 2 -0.008355 0.022975 -0.007779 0.000000 0.000752 0.000000
# 3 0.000514 -0.007779 0.035830 0.000000 -0.002440 0.000000
# 4 0.000000 0.000000 0.000000 0.106530 0.000000 -0.015388
# 5 -0.008530 0.000752 -0.002440 0.000000 0.037351 0.000000
# 6 0.000000 0.000000 0.000000 -0.015388 0.000000 0.059085
#
#
# Mechanical properties :
#
#
# Convention : Reuss Voigt Hill
#
# Bulk Modulus (GPa) = 17.99893 21.32460 19.66176
# Shear Modulus (GPa) = 14.72651 17.66569 16.19610
#
# Velocity S-wave (km/s) = 2.89665 3.17257 3.03774
# Velocity P-wave (km/s) = 4.63060 5.05669 4.84833
#
# Compressibility (1/GPa) = 0.05555887
#
# Stress axis : x y z
#
# Youngs Moduli (GPa) = 35.72240 43.52560 27.90931
#
# Poissons Ratio (x) = 0.36367 -0.01436
# Poissons Ratio (y) = 0.29848 0.21711
# Poissons Ratio (z) = -0.01838 0.33859
#
# Static dielectric constant tensor:
#      x y z
#    x 1.560930 0.000000 0.006290 
#    y 0.000000 1.550920 0.000000 
#    z 0.006290 0.000000 1.606260 
# 
# From -- ./inp_files/198762.got.cif
#   From: 2010.05.17/outbox.cif.g08.bks.cpg/sg12_100_cif.got.tgz:198762.got - 2010.06.03 13:09:07.
