data_PCOD9207295
_publ_section_title
;
Structure prediction by ZEFSAII (Michael W. Deem and Ramdas Pophale) SiO2 
 PCOD9207295
Probable space group: C 2/M
;
_chemical_formula_sum "Si O2"
_cell_formula_units_Z 48
_cell_length_a 11.958229
_cell_length_b 24.336411
_cell_length_c 15.787846
_cell_angle_alpha 90.000000
_cell_angle_beta 154.190839
_cell_angle_gamma 90.000000
_cell_volume 2000.367599
_symmetry_space_group_name_H-M "C 2/M"
_symmetry_group_IT_number 12
_symmetry_cell_setting 'monoclinic'
loop_
_space_group_symop_operation_xyz
x,y,z
-x,y,-z
-x,-y,-z
x,-y,z
1/2+x,1/2+y,z
1/2-x,1/2+y,-z
1/2-x,1/2-y,-z
1/2+x,1/2-y,z
loop_
_atom_site_type_symbol
_atom_site_label
_atom_site_fract_x
_atom_site_fract_y
_atom_site_fract_z
Si Si1 0.719631 0.595233 0.710000
Si Si2 0.557578 0.060262 0.639511
Si Si3 0.718331 0.853419 0.996177
Si Si4 0.572486 0.701310 0.697383
Si Si5 0.038874 0.678066 0.694402
Si Si6 0.514551 0.559086 0.744992
O O1 0.500000 0.571891 0.500000
O O2 0.662440 0.659632 0.687426
O O3 0.693015 0.569619 0.784930
O O4 0.997078 0.600004 0.858182
O O5 0.500000 0.059907 0.500000
O O6 0.642653 0.121306 0.724978
O O7 0.273132 0.058763 0.486891
O O8 0.681429 0.000000 0.743584
O O9 0.654429 0.822328 0.867667
O O10 0.762030 0.813598 0.106005
O O11 0.964764 0.892955 0.171893
O O12 0.273384 0.684637 0.511209
O O13 0.610590 0.764506 0.699508
O O14 0.568869 0.500000 0.820271
#
# Coordination Sequence:
#
# PCOD9207295 Si02
#       6
#     8   8   8   8   8   8
#     4  11  20  37  59  90 125 160 195 239 303 363
#     4  10  21  41  64  87 119 159 206 259 303 344
#     4  11  21  38  62  87 129 157 192 247 303 357
#     4  10  21  37  57  89 124 155 196 243 295 354
#     4  11  21  39  62  87 117 159 202 244 298 363
#     4  10  21  38  59  86 122 159 200 249 298 353
#
# _framework density 23.99559
#
# number of rings (size 3 to 8) (size 9 to 14) (size 15 to 20)
#    0.000    1.500    5.000    2.500    0.000    3.000 
#    0.000    2.500    0.000    3.000    0.000    0.000 
#    0.000    0.000    0.000    0.000    0.000    0.000 
#
# Total GULP energy -133822.670723 kJ/mol
# GULP energy per Si atom -5575.944613 kJ/mol
# Density = 2.394097 g / cm^3
# Si number density = 23.995590 Si / 1000 Ang^3
#
#
#
# Elastic Constant Matrix: (Units=GPa)
#
#
# Indices 1 2 3 4 5 6 
#
# 1 28.0704 3.5587 0.4679 0.0000 -6.1083 0.0006
# 2 3.5587 155.8327 8.5606 0.0011 -8.0642 0.0008
# 3 0.4679 8.5606 83.2646 0.0010 -19.1764 0.0003
# 4 0.0000 0.0011 0.0010 14.6169 0.0006 0.1954
# 5 -6.1083 -8.0642 -19.1764 0.0006 27.3414 -0.0001
# 6 0.0006 0.0008 0.0003 0.1954 -0.0001 0.2232
#
#
#
# Elastic Compliance Matrix: (Units=1/GPa)
#
#
# Indices 1 2 3 4 5 6 
#
# 1 0.037774 -0.000472 0.002084 0.000001 0.009762 -0.000094
# 2 -0.000472 0.006528 -0.000297 0.000000 0.001611 -0.000022
# 3 0.002084 -0.000297 0.014450 -0.000001 0.010513 -0.000017
# 4 0.000001 0.000000 -0.000001 0.069224 -0.000002 -0.060621
# 5 0.009762 0.001611 0.010513 -0.000002 0.046604 -0.000026
# 6 -0.000094 -0.000022 -0.000017 -0.060621 -0.000026 4.534263
#
#
# Mechanical properties :
#
#
# Convention : Reuss Voigt Hill
#
# Bulk Modulus (GPa) = 16.29147 32.48246 24.38696
# Shear Modulus (GPa) = 1.05783 25.40832 13.23307
#
# Velocity S-wave (km/s) = 0.66468 3.25757 2.35091
# Velocity P-wave (km/s) = 2.71904 5.26452 4.18977
#
# Compressibility (1/GPa) = 0.06138183
#
# Stress axis : x y z
#
# Youngs Moduli (GPa) = 26.47320 153.19479 69.20454
#
# Poissons Ratio (x) = 0.07230 -0.14425
# Poissons Ratio (y) = 0.01249 0.02058
# Poissons Ratio (z) = -0.05518 0.04556
#
# Static dielectric constant tensor:
#      x y z
#    x 1.928300 0.000000 0.093530 
#    y 0.000000 1.966520 0.000000 
#    z 0.093530 0.000000 2.021390 
# 
# From -- ./inp_files/209473.got.cif
#   From: 2010.05.17/outbox.cif.g08.bks.cpg/sg12_105_cif.got.tgz:209473.got - 2010.06.03 13:09:07.
