data_PCOD9207049
_publ_section_title
;
Structure prediction by ZEFSAII (Michael W. Deem and Ramdas Pophale) SiO2 
 PCOD9207049
Probable space group: C 2/M
;
_chemical_formula_sum "Si O2"
_cell_formula_units_Z 64
_cell_length_a 30.435990
_cell_length_b 13.382762
_cell_length_c 10.149183
_cell_angle_alpha 90.000000
_cell_angle_beta 120.209439
_cell_angle_gamma 90.000000
_cell_volume 3572.518389
_symmetry_space_group_name_H-M "C 2/M"
_symmetry_group_IT_number 12
_symmetry_cell_setting 'monoclinic'
loop_
_space_group_symop_operation_xyz
x,y,z
-x,y,-z
-x,-y,-z
x,-y,z
1/2+x,1/2+y,z
1/2-x,1/2+y,-z
1/2-x,1/2-y,-z
1/2+x,1/2-y,z
loop_
_atom_site_type_symbol
_atom_site_label
_atom_site_fract_x
_atom_site_fract_y
_atom_site_fract_z
Si Si1 0.818485 0.755159 0.231084
Si Si2 0.864248 0.117998 0.833228
Si Si3 0.025793 0.884081 0.409682
Si Si4 0.718951 0.618555 0.070339
Si Si5 0.415686 0.885098 0.382221
Si Si6 0.637832 0.380046 0.477964
Si Si7 0.530617 0.693181 0.918288
Si Si8 0.998492 0.613553 0.274383
O O1 0.771508 0.678485 0.163702
O O2 0.869945 0.691223 0.296200
O O3 0.823667 0.820556 0.371188
O O4 0.810387 0.830176 0.096355
O O5 0.814923 0.130425 0.849453
O O6 0.856703 0.143262 0.668364
O O7 0.878899 0.000000 0.860612
O O8 0.910345 0.181773 0.962061
O O9 0.080972 0.851021 0.441672
O O10 0.000000 0.835757 0.500000
O O11 0.986136 0.871596 0.232125
O O12 0.034084 0.000000 0.453154
O O13 0.726397 0.500000 0.058815
O O14 0.449986 0.868078 0.564480
O O15 0.453647 0.879357 0.315183
O O16 0.397006 0.000000 0.361132
O O17 0.643674 0.500000 0.501800
O O18 0.512420 0.804046 0.851367
O O19 0.500000 0.658197 0.000000
O O20 0.999880 0.500000 0.226370
#
# Coordination Sequence:
#
# PCOD9207049 Si02
#       8
#     8   8   8   8   8   8   8   8
#     4  11  21  36  61  86 108 137 186 234 277 330
#     4  10  22  39  56  79 115 150 182 221 276 338
#     4  10  22  35  52  85 120 150 186 227 270 329
#     4  10  23  40  58  83 111 143 180 228 283 332
#     4   9  18  34  57  81 108 143 183 231 275 322
#     4  10  21  37  56  82 115 148 183 226 275 326
#     4  12  22  33  56  82 114 153 185 221 273 336
#     4   9  20  35  52  79 112 147 187 226 271 319
#
# _framework density 17.914532999999999
#
# number of rings (size 3 to 8) (size 9 to 14) (size 15 to 20)
#    0.000    1.875    1.250    3.375    5.250    1.250 
#    0.000    0.000    0.000    0.750    0.000    0.000 
#    0.000    0.000    0.000    0.000    0.000    0.000 
#
# Total GULP energy -178619.515369 kJ/mol
# GULP energy per Si atom -5581.859855 kJ/mol
# Density = 1.787376 g / cm^3
# Si number density = 17.914533 Si / 1000 Ang^3
#
#
#
# Elastic Constant Matrix: (Units=GPa)
#
#
# Indices 1 2 3 4 5 6 
#
# 1 79.9733 38.9242 52.4355 0.0000 -4.7924 0.0000
# 2 38.9242 70.2500 37.7057 0.0000 4.9954 0.0000
# 3 52.4355 37.7057 119.1247 0.0000 -3.8008 0.0000
# 4 0.0000 0.0000 0.0000 14.7223 0.0000 10.4295
# 5 -4.7924 4.9954 -3.8008 0.0000 30.6175 0.0000
# 6 0.0000 0.0000 0.0000 10.4295 0.0000 15.0600
#
#
#
# Elastic Compliance Matrix: (Units=1/GPa)
#
#
# Indices 1 2 3 4 5 6 
#
# 1 0.021127 -0.008502 -0.006484 0.000000 0.003889 0.000000
# 2 -0.008502 0.020948 -0.003052 0.000000 -0.005127 0.000000
# 3 -0.006484 -0.003052 0.012247 0.000000 0.001003 0.000000
# 4 0.000000 0.000000 0.000000 0.133341 0.000000 -0.092343
# 5 0.003889 -0.005127 0.001003 0.000000 0.034231 0.000000
# 6 0.000000 0.000000 0.000000 -0.092343 0.000000 0.130352
#
#
# Mechanical properties :
#
#
# Convention : Reuss Voigt Hill
#
# Bulk Modulus (GPa) = 54.80811 58.60875 56.70843
# Shear Modulus (GPa) = 12.67733 21.43215 17.05474
#
# Velocity S-wave (km/s) = 2.66307 3.46259 3.08881
# Velocity P-wave (km/s) = 6.33376 6.98375 6.66668
#
# Compressibility (1/GPa) = 0.01824547
#
# Stress axis : x y z
#
# Youngs Moduli (GPa) = 47.33315 47.73639 81.65438
#
# Poissons Ratio (x) = 0.40586 0.52947
# Poissons Ratio (y) = 0.40244 0.24919
# Poissons Ratio (z) = 0.30692 0.14568
#
# Static dielectric constant tensor:
#      x y z
#    x 1.598200 0.000000 -0.003420 
#    y 0.000000 1.643860 0.000000 
#    z -0.003420 0.000000 1.593640 
# 
# From -- ./inp_files/111644.got.cif
#   From: 2010.05.17/outbox.cif.g08.bks.cpg/sg12_56_cif.got.tgz:111644.got - 2010.06.03 13:09:07.
