data_PCOD9207628
_publ_section_title
;
Structure prediction by ZEFSAII (Michael W. Deem and Ramdas Pophale) SiO2 
 PCOD9207628
Probable space group: C 2/M
;
_chemical_formula_sum "Si O2"
_cell_formula_units_Z 50
_cell_length_a 12.349491
_cell_length_b 12.999972
_cell_length_c 15.331316
_cell_angle_alpha 90.000000
_cell_angle_beta 116.646700
_cell_angle_gamma 90.000000
_cell_volume 2199.915038
_symmetry_space_group_name_H-M "C 2/M"
_symmetry_group_IT_number 12
_symmetry_cell_setting 'monoclinic'
loop_
_space_group_symop_operation_xyz
x,y,z
-x,y,-z
-x,-y,-z
x,-y,z
1/2+x,1/2+y,z
1/2-x,1/2+y,-z
1/2-x,1/2-y,-z
1/2+x,1/2-y,z
loop_
_atom_site_type_symbol
_atom_site_label
_atom_site_fract_x
_atom_site_fract_y
_atom_site_fract_z
Si Si1 0.898083 0.164978 0.392058
Si Si2 0.949496 0.836255 0.716031
Si Si3 0.930434 0.162324 0.065727
Si Si4 0.868698 0.613084 0.644763
Si Si5 0.325766 0.886224 0.422282
Si Si6 0.843996 0.612750 0.019166
Si Si7 0.000000 0.500000 0.000000
O O1 0.768881 0.119180 0.369909
O O2 0.880212 0.289193 0.391364
O O3 0.000000 0.137451 0.500000
O O4 0.948588 0.134530 0.316721
O O5 0.936319 0.712039 0.706796
O O6 0.819004 0.877945 0.640112
O O7 0.986638 0.872227 0.824882
O O8 0.797910 0.110556 0.017451
O O9 0.894589 0.281416 0.071117
O O10 0.000000 0.150723 0.000000
O O11 0.920088 0.500000 0.681987
O O12 0.857240 0.625799 0.535693
O O13 0.365497 0.000000 0.407444
O O14 0.904901 0.500000 0.068275
O O15 0.895212 0.594395 0.940829
#
# Coordination Sequence:
#
# PCOD9207628 Si02
#       7
#     8   8   8   8   8   8   2
#     4  11  19  37  58  83 118 157 199 250 298 358
#     4  11  23  39  59  89 122 158 201 249 305 361
#     4  11  23  41  64  91 123 167 214 260 312 368
#     4  10  21  37  59  89 121 161 200 246 301 364
#     4  10  21  37  59  86 123 161 196 244 307 359
#     4   9  20  40  66  88 118 163 201 260 321 359
#     4   8  16  44  66  88 114 156 200 258 312 388
#
# _framework density 22.728151
#
# number of rings (size 3 to 8) (size 9 to 14) (size 15 to 20)
#    0.480    1.280    4.000    0.960    0.000    8.640 
#    0.000    3.200    0.000    0.000    0.000    0.000 
#    0.000    0.000    0.000    0.000    0.000    0.000 
#
# Total GULP energy -139359.836612 kJ/mol
# GULP energy per Si atom -5574.393464 kJ/mol
# Density = 2.267642 g / cm^3
# Si number density = 22.728151 Si / 1000 Ang^3
#
#
#
# Elastic Constant Matrix: (Units=GPa)
#
#
# Indices 1 2 3 4 5 6 
#
# 1 138.7945 13.2698 31.6816 0.0000 -5.9847 0.0000
# 2 13.2698 119.0585 13.3841 0.0000 -1.2044 0.0000
# 3 31.6816 13.3841 85.6748 0.0000 -15.7987 0.0000
# 4 0.0000 0.0000 0.0000 -18.4737 0.0000 -16.4543
# 5 -5.9847 -1.2044 -15.7987 0.0000 18.7044 0.0000
# 6 0.0000 0.0000 0.0000 -16.4543 0.0000 3.7412
#
#
#
# Elastic Compliance Matrix: (Units=1/GPa)
#
#
# Indices 1 2 3 4 5 6 
#
# 1 0.007906 -0.000564 -0.002814 0.000000 0.000116 0.000000
# 2 -0.000564 0.008597 -0.001262 0.000000 -0.000693 0.000000
# 3 -0.002814 -0.001262 0.015077 0.000000 0.011753 0.000000
# 4 0.000000 0.000000 0.000000 -0.011008 0.000000 -0.048415
# 5 0.000116 -0.000693 0.011753 0.000000 0.063383 0.000000
# 6 0.000000 0.000000 0.000000 -0.048415 0.000000 0.054357
#
#
# Mechanical properties :
#
#
# Convention : Reuss Voigt Hill
#
# Bulk Modulus (GPa) = 44.84287 51.13321 47.98804
# Shear Modulus (GPa) = 32.25257 19.80719 26.02988
#
# Velocity S-wave (km/s) = 3.77113 2.95529 3.38786
# Velocity P-wave (km/s) = 6.22373 5.84736 6.03847
#
# Compressibility (1/GPa) = 0.02230009
#
# Stress axis : x y z
#
# Youngs Moduli (GPa) = 126.48366 116.32018 66.32519
#
# Poissons Ratio (x) = 0.06557 0.18664
# Poissons Ratio (y) = 0.07129 0.08373
# Poissons Ratio (z) = 0.35594 0.14684
#
# Static dielectric constant tensor:
#      x y z
#    x 1.877780 0.000000 -0.001540 
#    y 0.000000 1.959540 0.000000 
#    z -0.001540 0.000000 1.838030 
# 
# From -- ./inp_files/205068.got.cif
#   From: 2010.05.17/outbox.cif.g08.bks.cpg/sg12_103_cif.got.tgz:205068.got - 2010.06.03 13:09:07.
