data_PCOD9207033
_publ_section_title
;
Structure prediction by ZEFSAII (Michael W. Deem and Ramdas Pophale) SiO2 
 PCOD9207033
Probable space group: C 2/M
;
_chemical_formula_sum "Si O2"
_cell_formula_units_Z 56
_cell_length_a 12.077467
_cell_length_b 18.806786
_cell_length_c 16.016969
_cell_angle_alpha 90.000000
_cell_angle_beta 121.174614
_cell_angle_gamma 90.000000
_cell_volume 3112.707803
_symmetry_space_group_name_H-M "C 2/M"
_symmetry_group_IT_number 12
_symmetry_cell_setting 'monoclinic'
loop_
_space_group_symop_operation_xyz
x,y,z
-x,y,-z
-x,-y,-z
x,-y,z
1/2+x,1/2+y,z
1/2-x,1/2+y,-z
1/2-x,1/2-y,-z
1/2+x,1/2-y,z
loop_
_atom_site_type_symbol
_atom_site_label
_atom_site_fract_x
_atom_site_fract_y
_atom_site_fract_z
Si Si1 0.117705 0.678403 0.693102
Si Si2 0.946204 0.176274 0.257089
Si Si3 0.755407 0.807433 0.578989
Si Si4 0.141145 0.415935 0.417387
Si Si5 0.604273 0.418155 0.920449
Si Si6 0.382209 0.584215 0.392153
Si Si7 0.808194 0.919322 0.866848
O O1 0.105543 0.744871 0.749543
O O2 0.156531 0.707075 0.616254
O O3 0.228349 0.628806 0.773539
O O4 0.986681 0.631993 0.640248
O O5 0.897534 0.137395 0.155159
O O6 0.898367 0.128369 0.315197
O O7 0.101295 0.185353 0.327511
O O8 0.750000 0.750000 0.500000
O O9 0.715088 0.883826 0.526040
O O10 0.113841 0.500000 0.413900
O O11 0.243828 0.404824 0.382495
O O12 0.636950 0.500000 0.908334
O O13 0.456453 0.420158 0.895018
O O14 0.689722 0.397969 0.034652
O O15 0.500000 0.604731 0.500000
O O16 0.396340 0.500000 0.381314
O O17 0.758264 0.000000 0.843488
#
# Coordination Sequence:
#
# PCOD9207033 Si02
#       7
#     8   8   8   8   8   8   8
#     4  12  25  37  60  86 120 161 193 241 300 361
#     4  12  23  35  63  84 118 157 198 242 290 359
#     4  12  24  40  54  83 123 161 198 240 295 345
#     4  11  24  39  57  83 119 160 202 243 289 349
#     4   9  19  38  64  91 113 146 196 252 299 351
#     4  10  21  37  56  81 115 156 200 243 284 338
#     4   9  19  39  63  87 119 147 189 252 308 349
#
# _framework density 17.990767999999999
#
# number of rings (size 3 to 8) (size 9 to 14) (size 15 to 20)
#    0.000    1.286    4.286    3.000    0.000    2.857 
#    0.000    0.000    0.000    0.857    0.000    4.000 
#    0.000    0.000    0.000    0.000    0.000    0.000 
#
# Total GULP energy -156276.274287 kJ/mol
# GULP energy per Si atom -5581.295510 kJ/mol
# Density = 1.794982 g / cm^3
# Si number density = 17.990768 Si / 1000 Ang^3
#
#
#
# Elastic Constant Matrix: (Units=GPa)
#
#
# Indices 1 2 3 4 5 6 
#
# 1 67.1060 38.0196 21.9615 0.0000 -7.1274 0.0000
# 2 38.0196 79.0189 42.1642 0.0000 -22.1320 0.0000
# 3 21.9615 42.1642 68.7517 0.0000 -15.2476 0.0000
# 4 0.0000 0.0000 0.0000 29.8558 0.0000 -4.4152
# 5 -7.1274 -22.1320 -15.2476 0.0000 24.5818 0.0000
# 6 0.0000 0.0000 0.0000 -4.4152 0.0000 19.7749
#
#
#
# Elastic Compliance Matrix: (Units=1/GPa)
#
#
# Indices 1 2 3 4 5 6 
#
# 1 0.020825 -0.010625 -0.001065 0.000000 -0.004188 0.000000
# 2 -0.010625 0.027420 -0.010007 0.000000 0.015400 0.000000
# 3 -0.001065 -0.010007 0.021979 0.000000 0.004315 0.000000
# 4 0.000000 0.000000 0.000000 0.034638 0.000000 0.007734
# 5 -0.004188 0.015400 0.004315 0.000000 0.056008 0.000000
# 6 0.000000 0.000000 0.000000 0.007734 0.000000 0.052296
#
#
# Mechanical properties :
#
#
# Convention : Reuss Voigt Hill
#
# Bulk Modulus (GPa) = 37.27056 46.57416 41.92236
# Shear Modulus (GPa) = 18.83214 22.35793 20.59503
#
# Velocity S-wave (km/s) = 3.23889 3.52908 3.38709
# Velocity P-wave (km/s) = 5.89480 6.52303 6.21685
#
# Compressibility (1/GPa) = 0.02683082
#
# Stress axis : x y z
#
# Youngs Moduli (GPa) = 48.01918 36.46947 45.49695
#
# Poissons Ratio (x) = 0.38747 0.04846
# Poissons Ratio (y) = 0.51018 0.45530
# Poissons Ratio (z) = 0.05115 0.36496
#
# Static dielectric constant tensor:
#      x y z
#    x 1.649520 0.000000 -0.013260 
#    y 0.000000 1.620780 0.000000 
#    z -0.013260 0.000000 1.608160 
# 
# From -- ./inp_files/206755.got.cif
#   From: 2010.05.17/outbox.cif.g08.bks.cpg/sg12_104_cif.got.tgz:206755.got - 2010.06.03 13:09:07.
