data_PCOD9207192
_publ_section_title
;
Structure prediction by ZEFSAII (Michael W. Deem and Ramdas Pophale) SiO2 
 PCOD9207192
Probable space group: C 2/M
;
_chemical_formula_sum "Si O2"
_cell_formula_units_Z 64
_cell_length_a 21.133530
_cell_length_b 8.572086
_cell_length_c 20.798581
_cell_angle_alpha 90.000000
_cell_angle_beta 67.176028
_cell_angle_gamma 90.000000
_cell_volume 3472.820205
_symmetry_space_group_name_H-M "C 2/M"
_symmetry_group_IT_number 12
_symmetry_cell_setting 'monoclinic'
loop_
_space_group_symop_operation_xyz
x,y,z
-x,y,-z
-x,-y,-z
x,-y,z
1/2+x,1/2+y,z
1/2-x,1/2+y,-z
1/2-x,1/2-y,-z
1/2+x,1/2-y,z
loop_
_atom_site_type_symbol
_atom_site_label
_atom_site_fract_x
_atom_site_fract_y
_atom_site_fract_z
Si Si1 0.579527 0.188619 0.460458
Si Si2 0.350037 0.688418 0.920472
Si Si3 0.643894 0.686737 0.303852
Si Si4 0.390173 0.813378 0.296238
Si Si5 0.956282 0.188335 0.774019
Si Si6 0.706330 0.311563 0.923829
Si Si7 0.325875 0.811622 0.456663
Si Si8 0.203760 0.186790 0.780450
O O1 0.500000 0.233157 0.500000
O O2 0.612038 0.261734 0.384036
O O3 0.623139 0.235155 0.505882
O O4 0.582499 0.000000 0.453556
O O5 0.348116 0.500000 0.919276
O O6 0.416734 0.738582 0.854546
O O7 0.281969 0.749312 0.911443
O O8 0.342687 0.737416 0.997788
O O9 0.651558 0.500000 0.298819
O O10 0.592212 0.733461 0.266843
O O11 0.718331 0.761948 0.264573
O O12 0.468231 0.756376 0.262028
O O13 0.354767 0.757549 0.376499
O O14 0.346752 0.755191 0.252759
O O15 0.389451 0.000000 0.297402
O O16 0.961160 0.000000 0.772340
O O17 0.709139 0.500000 0.922850
O O18 0.686427 0.260907 0.860138
O O19 0.250000 0.750000 0.500000
O O20 0.323733 0.000000 0.456631
O O21 0.199627 0.000000 0.779621
#
# Coordination Sequence:
#
# PCOD9207192 Si02
#       8
#     8   8   8   8   8   8   8   8
#     4  10  21  38  58  80 108 143 184 232 284 335
#     4   9  17  33  56  83 115 148 184 229 277 327
#     4  11  22  36  57  86 115 145 186 233 281 334
#     4  11  24  40  59  82 112 149 190 234 281 336
#     4  10  21  37  57  83 116 152 186 227 281 334
#     4   9  18  32  55  85 113 146 188 230 275 328
#     4  10  22  39  58  80 105 140 184 229 278 332
#     4  11  22  37  57  84 115 148 188 232 280 334
#
# _framework density 18.428826999999998
#
# number of rings (size 3 to 8) (size 9 to 14) (size 15 to 20)
#    0.000    1.875    1.250    2.625    0.000    6.750 
#    0.000    0.625    0.000    3.750    0.000    0.000 
#    0.000    0.000    0.000    0.000    0.000    0.000 
#
# Total GULP energy -178722.384131 kJ/mol
# GULP energy per Si atom -5585.074504 kJ/mol
# Density = 1.838688 g / cm^3
# Si number density = 18.428827 Si / 1000 Ang^3
#
#
#
# Elastic Constant Matrix: (Units=GPa)
#
#
# Indices 1 2 3 4 5 6 
#
# 1 150.8342 29.9964 91.8460 0.0000 4.0426 0.0000
# 2 29.9964 16.6054 31.6731 0.0001 2.0502 0.0002
# 3 91.8460 31.6731 188.3777 -0.0001 8.0711 -0.0002
# 4 0.0000 0.0001 -0.0001 19.9203 0.0000 -0.8084
# 5 4.0426 2.0502 8.0711 0.0000 22.8132 0.0001
# 6 0.0000 0.0002 -0.0002 -0.8084 0.0001 32.3793
#
#
#
# Elastic Compliance Matrix: (Units=1/GPa)
#
#
# Indices 1 2 3 4 5 6 
#
# 1 0.011462 -0.014813 -0.003115 0.000000 0.000402 0.000000
# 2 -0.014813 0.107964 -0.010791 -0.000001 -0.003260 -0.000001
# 3 -0.003115 -0.010791 0.008708 0.000000 -0.001559 0.000000
# 4 0.000000 -0.000001 0.000000 0.050251 0.000000 0.001255
# 5 0.000402 -0.003260 -0.001559 0.000000 0.044608 0.000000
# 6 0.000000 -0.000001 0.000000 0.001255 0.000000 0.030915
#
#
# Mechanical properties :
#
#
# Convention : Reuss Voigt Hill
#
# Bulk Modulus (GPa) = 14.14486 73.64982 43.89734
# Shear Modulus (GPa) = 14.92937 28.50935 21.71936
#
# Velocity S-wave (km/s) = 2.84933 3.93746 3.43673
# Velocity P-wave (km/s) = 4.30314 7.79247 6.29443
#
# Compressibility (1/GPa) = 0.07069704
#
# Stress axis : x y z
#
# Youngs Moduli (GPa) = 87.24814 9.26234 114.83251
#
# Poissons Ratio (x) = 0.13720 0.35769
# Poissons Ratio (y) = 1.29238 1.23914
# Poissons Ratio (z) = 0.27177 0.09995
#
# Static dielectric constant tensor:
#      x y z
#    x 1.590200 0.000000 0.016360 
#    y 0.000000 1.629200 0.000000 
#    z 0.016360 0.000000 1.646210 
# 
# From -- ./inp_files/319848.got.cif
#   From: 2010.05.17/outbox.cif.g08.bks.cpg/sg12_160_cif.got.tgz:319848.got - 2010.06.03 13:09:07.
