data_PCOD9207840
_publ_section_title
;
Structure prediction by ZEFSAII (Michael W. Deem and Ramdas Pophale) SiO2 
 PCOD9207840
Probable space group: C 2/M
;
_chemical_formula_sum "Si O2"
_cell_formula_units_Z 56
_cell_length_a 16.336058
_cell_length_b 8.737227
_cell_length_c 23.620868
_cell_angle_alpha 90.000000
_cell_angle_beta 58.743918
_cell_angle_gamma 90.000000
_cell_volume 2882.107051
_symmetry_space_group_name_H-M "C 2/M"
_symmetry_group_IT_number 12
_symmetry_cell_setting 'monoclinic'
loop_
_space_group_symop_operation_xyz
x,y,z
-x,y,-z
-x,-y,-z
x,-y,z
1/2+x,1/2+y,z
1/2-x,1/2+y,-z
1/2-x,1/2-y,-z
1/2+x,1/2-y,z
loop_
_atom_site_type_symbol
_atom_site_label
_atom_site_fract_x
_atom_site_fract_y
_atom_site_fract_z
Si Si1 0.261691 0.826709 0.435548
Si Si2 0.447044 0.818144 0.851096
Si Si3 0.731766 0.316418 0.156221
Si Si4 0.397910 0.170904 0.567185
Si Si5 0.113614 0.179024 0.308659
Si Si6 0.055473 0.683265 0.699390
Si Si7 0.946269 0.817497 0.078317
O O1 0.250000 0.750000 0.500000
O O2 0.162051 0.801967 0.441034
O O3 0.341160 0.773762 0.361935
O O4 0.286337 0.000000 0.438742
O O5 0.348345 0.751338 0.858779
O O6 0.530387 0.794127 0.773994
O O7 0.487964 0.746776 0.894126
O O8 0.433335 0.000000 0.863382
O O9 0.731359 0.500000 0.149530
O O10 0.695548 0.282429 0.233396
O O11 0.839471 0.253465 0.112771
O O12 0.500000 0.169426 0.500000
O O13 0.395130 0.213122 0.633947
O O14 0.356243 0.000000 0.573571
O O15 0.017435 0.211363 0.308498
O O16 0.122783 0.000000 0.321252
O O17 0.038538 0.500000 0.694980
O O18 0.936851 0.000000 0.089046
O O19 0.000000 0.786771 0.000000
#
# Coordination Sequence:
#
# PCOD9207840 Si02
#       7
#     8   8   8   8   8   8   8
#     4  11  23  38  56  81 114 151 195 245 298 356
#     4  10  21  40  66  94 126 165 209 258 315 373
#     4  10  22  41  65  94 128 165 209 258 313 376
#     4  11  24  39  55  79 113 154 198 244 297 355
#     4  10  21  37  60  88 116 149 194 246 297 356
#     4   9  20  38  59  84 116 151 190 243 299 356
#     4  11  25  43  64  94 130 167 210 260 313 374
#
# _framework density 19.430228
#
# number of rings (size 3 to 8) (size 9 to 14) (size 15 to 20)
#    0.000    1.714    0.000    3.429    2.000    9.714 
#    0.000    0.000    0.000    0.000    0.000    0.000 
#    0.000    0.000    0.000    0.000    0.000    0.000 
#
# Total GULP energy -156158.214132 kJ/mol
# GULP energy per Si atom -5577.079076 kJ/mol
# Density = 1.938600 g / cm^3
# Si number density = 19.430228 Si / 1000 Ang^3
#
#
#
# Elastic Constant Matrix: (Units=GPa)
#
#
# Indices 1 2 3 4 5 6 
#
# 1 88.5867 38.3169 78.8209 0.0000 4.1018 0.0000
# 2 38.3169 55.9061 67.6272 0.0000 4.2609 0.0000
# 3 78.8209 67.6272 126.8562 0.0000 4.1506 0.0000
# 4 0.0000 0.0000 0.0000 62.4900 0.0000 15.9929
# 5 4.1018 4.2609 4.1506 0.0000 38.3741 0.0000
# 6 0.0000 0.0000 0.0000 15.9929 0.0000 39.8003
#
#
#
# Elastic Compliance Matrix: (Units=1/GPa)
#
#
# Indices 1 2 3 4 5 6 
#
# 1 0.025756 0.004936 -0.018593 0.000000 -0.001290 0.000000
# 2 0.004936 0.051594 -0.030475 0.000000 -0.002960 0.000000
# 3 -0.018593 -0.030475 0.035632 0.000000 0.001517 0.000000
# 4 0.000000 0.000000 0.000000 0.017837 0.000000 -0.007167
# 5 -0.001290 -0.002960 0.001517 0.000000 0.026362 0.000000
# 6 0.000000 0.000000 0.000000 -0.007167 0.000000 0.028006
#
#
# Mechanical properties :
#
#
# Convention : Reuss Voigt Hill
#
# Bulk Modulus (GPa) = 40.45446 71.20878 55.83162
# Shear Modulus (GPa) = 17.75013 33.90514 25.82764
#
# Velocity S-wave (km/s) = 3.02575 4.18181 3.64984
# Velocity P-wave (km/s) = 5.75086 7.74886 6.82339
#
# Compressibility (1/GPa) = 0.02471915
#
# Stress axis : x y z
#
# Youngs Moduli (GPa) = 38.82618 19.38213 28.06472
#
# Poissons Ratio (x) = -0.09568 0.52179
# Poissons Ratio (y) = -0.19166 0.85528
# Poissons Ratio (z) = 0.72188 0.59067
#
# Static dielectric constant tensor:
#      x y z
#    x 1.912050 0.000000 0.347480 
#    y 0.000000 1.662950 0.000000 
#    z 0.347480 0.000000 2.208490 
# 
# From -- ./inp_files/338577.got.cif
#   From: 2010.05.17/outbox.cif.g08.bks.cpg/sg12_170_cif.got.tgz:338577.got - 2010.06.03 13:09:07.
