data_PCOD9207544
_publ_section_title
;
Structure prediction by ZEFSAII (Michael W. Deem and Ramdas Pophale) SiO2 
 PCOD9207544
Probable space group: C 2/M
;
_chemical_formula_sum "Si O2"
_cell_formula_units_Z 32
_cell_length_a 19.830045
_cell_length_b 11.664610
_cell_length_c 7.073425
_cell_angle_alpha 90.000000
_cell_angle_beta 54.159047
_cell_angle_gamma 90.000000
_cell_volume 1326.339350
_symmetry_space_group_name_H-M "C 2/M"
_symmetry_group_IT_number 12
_symmetry_cell_setting 'monoclinic'
loop_
_space_group_symop_operation_xyz
x,y,z
-x,y,-z
-x,-y,-z
x,-y,z
1/2+x,1/2+y,z
1/2-x,1/2+y,-z
1/2-x,1/2-y,-z
1/2+x,1/2-y,z
loop_
_atom_site_type_symbol
_atom_site_label
_atom_site_fract_x
_atom_site_fract_y
_atom_site_fract_z
Si Si1 0.444516 0.500000 0.382234
Si Si2 0.128316 0.000000 0.916120
Si Si3 0.723330 0.734539 0.823968
Si Si4 0.405155 0.247344 0.495470
Si Si5 0.566674 0.865498 0.144365
O O1 0.396228 0.500000 0.262985
O O2 0.420224 0.380685 0.519022
O O3 0.541612 0.500000 0.171158
O O4 0.181194 0.111832 0.873215
O O5 0.811490 0.740913 0.573083
O O6 0.750000 0.750000 0.000000
O O7 0.650418 0.825567 0.902343
O O8 0.413571 0.168839 0.668913
O O9 0.481956 0.204697 0.241072
O O10 0.552161 0.000000 0.147897
#
# Coordination Sequence:
#
# PCOD9207544 Si02
#       5
#     4   4   8   8   8
#     4  11  24  42  65  85 126 172 207 249 306 374
#     4  11  24  45  62  89 125 164 210 259 303 368
#     4  10  23  37  65  92 121 155 207 263 311 352
#     4  10  21  37  61  92 119 164 202 250 312 365
#     4  10  21  37  58  94 128 154 200 258 310 360
#
# _framework density 24.126553999999999
#
# number of rings (size 3 to 8) (size 9 to 14) (size 15 to 20)
#    0.000    1.750    2.500    1.500   10.500    6.000 
#    0.000    0.000    0.000    1.500    0.000    0.000 
#    0.000    0.000    0.000    0.000    0.000    0.000 
#
# Total GULP energy -89540.779558 kJ/mol
# GULP energy per Si atom -5596.298722 kJ/mol
# Density = 2.407164 g / cm^3
# Si number density = 24.126554 Si / 1000 Ang^3
#
#
#
# Elastic Constant Matrix: (Units=GPa)
#
#
# Indices 1 2 3 4 5 6 
#
# 1 152.5533 52.1964 61.2690 0.0000 -46.1513 0.0000
# 2 52.1964 190.9032 19.7727 0.0000 -25.5641 0.0000
# 3 61.2690 19.7727 99.5665 0.0000 -32.2027 0.0000
# 4 0.0000 0.0000 0.0000 8.3990 0.0000 -24.6668
# 5 -46.1513 -25.5641 -32.2027 0.0000 69.7290 0.0000
# 6 0.0000 0.0000 0.0000 -24.6668 0.0000 31.0879
#
#
#
# Elastic Compliance Matrix: (Units=1/GPa)
#
#
# Indices 1 2 3 4 5 6 
#
# 1 0.010239 -0.001785 -0.004663 0.000000 0.003969 0.000000
# 2 -0.001785 0.005843 0.000293 0.000000 0.001096 0.000000
# 3 -0.004663 0.000293 0.013979 0.000000 0.003477 0.000000
# 4 0.000000 0.000000 0.000000 -0.089501 0.000000 -0.071015
# 5 0.003969 0.001096 0.003477 0.000000 0.018976 0.000000
# 6 0.000000 0.000000 0.000000 -0.071015 0.000000 -0.024181
#
#
# Mechanical properties :
#
#
# Convention : Reuss Voigt Hill
#
# Bulk Modulus (GPa) = 56.33469 78.83321 67.58395
# Shear Modulus (GPa) = -107.71792 42.49551 -32.61120
#
# Velocity S-wave (km/s) = -6.68909 4.20141 -3.68050
# Velocity P-wave (km/s) = 6.02148 7.50210 3.16412
#
# Compressibility (1/GPa) = 0.01775105
#
# Stress axis : x y z
#
# Youngs Moduli (GPa) = 97.66324 171.15171 71.53484
#
# Poissons Ratio (x) = 0.30553 0.33353
# Poissons Ratio (y) = 0.17434 -0.02093
# Poissons Ratio (z) = 0.45536 -0.05007
#
# Static dielectric constant tensor:
#      x y z
#    x 1.953480 0.000000 0.042780 
#    y 0.000000 1.817080 0.000000 
#    z 0.042780 0.000000 2.183380 
# 
# From -- ./inp_files/93563.got.cif
#   From: 2010.05.17/outbox.cif.g08.bks.cpg/sg12_47_cif.got.tgz:93563.got - 2010.06.03 13:09:07.
