data_PCOD9207063
_publ_section_title
;
Structure prediction by ZEFSAII (Michael W. Deem and Ramdas Pophale) SiO2 
 PCOD9207063
Probable space group: C 2/M
;
_chemical_formula_sum "Si O2"
_cell_formula_units_Z 40
_cell_length_a 5.242307
_cell_length_b 18.468470
_cell_length_c 20.182300
_cell_angle_alpha 90.000000
_cell_angle_beta 85.103429
_cell_angle_gamma 90.000000
_cell_volume 1946.866304
_symmetry_space_group_name_H-M "C 2/M"
_symmetry_group_IT_number 12
_symmetry_cell_setting 'monoclinic'
loop_
_space_group_symop_operation_xyz
x,y,z
-x,y,-z
-x,-y,-z
x,-y,z
1/2+x,1/2+y,z
1/2-x,1/2+y,-z
1/2-x,1/2-y,-z
1/2+x,1/2-y,z
loop_
_atom_site_type_symbol
_atom_site_label
_atom_site_fract_x
_atom_site_fract_y
_atom_site_fract_z
Si Si1 0.588583 0.419728 0.869801
Si Si2 0.766616 0.777960 0.074795
Si Si3 0.118995 0.583018 0.781354
Si Si4 0.265127 0.916952 0.454189
Si Si5 0.700387 0.199109 0.664346
O O1 0.595050 0.500000 0.898139
O O2 0.637050 0.358994 0.922774
O O3 0.324517 0.409997 0.836280
O O4 0.828207 0.412433 0.814194
O O5 0.481755 0.767679 0.108166
O O6 0.750000 0.750000 0.000000
O O7 0.153659 0.500000 0.754663
O O8 0.172066 0.645227 0.727350
O O9 0.500000 0.909434 0.500000
O O10 0.282454 0.855068 0.398674
O O11 0.000000 0.909862 0.500000
O O12 0.275064 0.000000 0.426965
O O13 0.453745 0.251414 0.664317
#
# Coordination Sequence:
#
# PCOD9207063 Si02
#       5
#     8   8   8   8   8
#     4  10  21  38  61  85 112 151 196 238 284 342
#     4  10  21  37  56  83 115 149 185 228 285 341
#     4  10  22  40  60  84 116 154 194 239 289 346
#     4  10  22  41  63  84 113 159 204 240 287 347
#     4  12  25  38  58  90 122 152 191 244 299 346
#
# _framework density 20.545839999999998
#
# number of rings (size 3 to 8) (size 9 to 14) (size 15 to 20)
#    0.000    1.600    0.000    4.200    0.000    7.200 
#    0.000   12.000    0.000    0.000    0.000    0.000 
#    0.000    0.000    0.000    0.000    0.000    0.000 
#
# Total GULP energy -111712.442450 kJ/mol
# GULP energy per Si atom -5585.622122 kJ/mol
# Density = 2.049908 g / cm^3
# Si number density = 20.545840 Si / 1000 Ang^3
#
#
#
# Elastic Constant Matrix: (Units=GPa)
#
#
# Indices 1 2 3 4 5 6 
#
# 1 146.1088 39.9096 8.5806 0.0000 -0.7093 0.0000
# 2 39.9096 184.2266 65.6096 0.0000 7.8126 0.0000
# 3 8.5806 65.6096 50.1342 0.0000 0.7026 0.0000
# 4 0.0000 0.0000 0.0000 52.9705 0.0000 2.5311
# 5 -0.7093 7.8126 0.7026 0.0000 18.6020 0.0000
# 6 0.0000 0.0000 0.0000 2.5311 0.0000 45.5460
#
#
#
# Elastic Compliance Matrix: (Units=1/GPa)
#
#
# Indices 1 2 3 4 5 6 
#
# 1 0.007362 -0.002227 0.001639 0.000000 0.001154 0.000000
# 2 -0.002227 0.011111 -0.014101 0.000000 -0.004219 0.000000
# 3 0.001639 -0.014101 0.038056 0.000000 0.004547 0.000000
# 4 0.000000 0.000000 0.000000 0.018929 0.000000 -0.001052
# 5 0.001154 -0.004219 0.004547 0.000000 0.055402 0.000000
# 6 0.000000 0.000000 0.000000 -0.001052 0.000000 0.022014
#
#
# Mechanical properties :
#
#
# Convention : Reuss Voigt Hill
#
# Bulk Modulus (GPa) = 36.83221 67.62992 52.23107
# Shear Modulus (GPa) = 26.13654 41.18169 33.65911
#
# Velocity S-wave (km/s) = 3.57053 4.48189 4.05191
# Velocity P-wave (km/s) = 5.91304 7.73118 6.88241
#
# Compressibility (1/GPa) = 0.02715015
#
# Stress axis : x y z
#
# Youngs Moduli (GPa) = 135.83256 89.99782 26.27720
#
# Poissons Ratio (x) = 0.20047 -0.04306
# Poissons Ratio (y) = 0.30256 0.37053
# Poissons Ratio (z) = -0.22260 1.26905
#
# Static dielectric constant tensor:
#      x y z
#    x 1.755320 0.000000 -0.012860 
#    y 0.000000 1.751000 0.000000 
#    z -0.012860 0.000000 1.688770 
# 
# From -- ./inp_files/252546.got.cif
#   From: 2010.05.17/outbox.cif.g08.bks.cpg/sg12_127_cif.got.tgz:252546.got - 2010.06.03 13:09:07.
