data_PCOD9207311
_publ_section_title
;
Structure prediction by ZEFSAII (Michael W. Deem and Ramdas Pophale) SiO2 
 PCOD9207311
Probable space group: C 2/M
;
_chemical_formula_sum "Si O2"
_cell_formula_units_Z 48
_cell_length_a 21.261996
_cell_length_b 14.176529
_cell_length_c 11.547384
_cell_angle_alpha 90.000000
_cell_angle_beta 44.690383
_cell_angle_gamma 90.000000
_cell_volume 2447.839671
_symmetry_space_group_name_H-M "C 2/M"
_symmetry_group_IT_number 12
_symmetry_cell_setting 'monoclinic'
loop_
_space_group_symop_operation_xyz
x,y,z
-x,y,-z
-x,-y,-z
x,-y,z
1/2+x,1/2+y,z
1/2-x,1/2+y,-z
1/2-x,1/2-y,-z
1/2+x,1/2-y,z
loop_
_atom_site_type_symbol
_atom_site_label
_atom_site_fract_x
_atom_site_fract_y
_atom_site_fract_z
Si Si1 0.598205 0.183584 0.854672
Si Si2 0.082111 0.608516 0.625854
Si Si3 0.610658 0.112458 0.097645
Si Si4 0.217407 0.887552 0.978714
Si Si5 0.728687 0.766606 0.308875
Si Si6 0.394777 0.612340 0.655723
O O1 0.588481 0.115756 0.757202
O O2 0.688179 0.241977 0.716957
O O3 0.500000 0.230967 0.000000
O O4 0.617221 0.136630 0.954044
O O5 0.088616 0.500000 0.580971
O O6 0.157613 0.667981 0.465770
O O7 0.983050 0.648277 0.728742
O O8 0.696289 0.140978 0.058007
O O9 0.605805 0.000000 0.111519
O O10 0.224416 0.824938 0.856169
O O11 0.222645 0.000000 0.945861
O O12 0.133366 0.872632 0.173274
O O13 0.671469 0.677855 0.333784
O O14 0.500000 0.631901 0.500000
O O15 0.378954 0.500000 0.652141
#
# Coordination Sequence:
#
# PCOD9207311 Si02
#       6
#     8   8   8   8   8   8
#     4  10  21  37  58  81 111 154 204 243 280 329
#     4  10  22  37  56  87 121 152 191 240 293 342
#     4   9  18  35  59  85 113 147 186 239 297 344
#     4  10  21  38  60  88 119 149 188 240 299 350
#     4  12  23  36  62  86 119 155 191 237 294 348
#     4  10  23  39  57  84 119 156 194 230 276 345
#
# _framework density 19.609127000000001
#
# number of rings (size 3 to 8) (size 9 to 14) (size 15 to 20)
#    0.000    1.833    1.667    2.000    2.333    4.000 
#    0.000    2.500    0.000    2.000    0.000    0.000 
#    0.000    0.000    0.000    0.000    0.000    0.000 
#
# Total GULP energy -133898.715522 kJ/mol
# GULP energy per Si atom -5579.113147 kJ/mol
# Density = 1.956450 g / cm^3
# Si number density = 19.609127 Si / 1000 Ang^3
#
#
#
# Elastic Constant Matrix: (Units=GPa)
#
#
# Indices 1 2 3 4 5 6 
#
# 1 51.8731 16.2512 19.8915 0.0000 -18.4344 0.0000
# 2 16.2512 71.3363 40.7358 0.0000 -12.1997 0.0000
# 3 19.8915 40.7358 124.3837 0.0000 -31.4895 0.0000
# 4 0.0000 0.0000 0.0000 35.5151 0.0000 0.9687
# 5 -18.4344 -12.1997 -31.4895 0.0000 31.6043 0.0000
# 6 0.0000 0.0000 0.0000 0.9687 0.0000 17.8485
#
#
#
# Elastic Compliance Matrix: (Units=1/GPa)
#
#
# Indices 1 2 3 4 5 6 
#
# 1 0.025128 -0.003765 0.000745 0.000000 0.013946 0.000000
# 2 -0.003765 0.017852 -0.005424 0.000000 -0.000709 0.000000
# 3 0.000745 -0.005424 0.012406 0.000000 0.010702 0.000000
# 4 0.000000 0.000000 0.000000 0.028199 0.000000 -0.001531
# 5 0.013946 -0.000709 0.010702 0.000000 0.050165 0.000000
# 6 0.000000 0.000000 0.000000 -0.001531 0.000000 0.056110
#
#
# Mechanical properties :
#
#
# Convention : Reuss Voigt Hill
#
# Bulk Modulus (GPa) = 25.97529 44.59445 35.28487
# Shear Modulus (GPa) = 22.77077 28.37454 25.57265
#
# Velocity S-wave (km/s) = 3.41138 3.80808 3.61518
# Velocity P-wave (km/s) = 5.36582 6.49048 5.95476
#
# Compressibility (1/GPa) = 0.03849812
#
# Stress axis : x y z
#
# Youngs Moduli (GPa) = 39.79702 56.01682 80.60488
#
# Poissons Ratio (x) = 0.21090 -0.06006
# Poissons Ratio (y) = 0.14983 0.43720
# Poissons Ratio (z) = -0.02966 0.30383
#
# Static dielectric constant tensor:
#      x y z
#    x 1.681810 0.000000 -0.030770 
#    y 0.000000 1.704710 0.000000 
#    z -0.030770 0.000000 1.715610 
# 
# From -- ./inp_files/142745.got.cif
#   From: 2010.05.17/outbox.cif.g08.bks.cpg/sg12_72_cif.got.tgz:142745.got - 2010.06.03 13:09:07.
