data_PCOD9207670
_publ_section_title
;
Structure prediction by ZEFSAII (Michael W. Deem and Ramdas Pophale) SiO2 
 PCOD9207670
Probable space group: C 2/M
;
_chemical_formula_sum "Si O2"
_cell_formula_units_Z 56
_cell_length_a 9.385442
_cell_length_b 16.724999
_cell_length_c 19.014854
_cell_angle_alpha 90.000000
_cell_angle_beta 64.476730
_cell_angle_gamma 90.000000
_cell_volume 2693.505705
_symmetry_space_group_name_H-M "C 2/M"
_symmetry_group_IT_number 12
_symmetry_cell_setting 'monoclinic'
loop_
_space_group_symop_operation_xyz
x,y,z
-x,y,-z
-x,-y,-z
x,-y,z
1/2+x,1/2+y,z
1/2-x,1/2+y,-z
1/2-x,1/2-y,-z
1/2+x,1/2-y,z
loop_
_atom_site_type_symbol
_atom_site_label
_atom_site_fract_x
_atom_site_fract_y
_atom_site_fract_z
Si Si1 0.677562 0.334009 0.989609
Si Si2 0.660188 0.907841 0.922991
Si Si3 0.311913 0.684822 0.766610
Si Si4 0.370066 0.590611 0.275941
Si Si5 0.814324 0.631515 0.812696
Si Si6 0.464744 0.097104 0.585885
Si Si7 0.647205 0.908062 0.683494
O O1 0.776559 0.365958 0.902467
O O2 0.500000 0.324023 0.000000
O O3 0.750000 0.250000 0.000000
O O4 0.699692 0.392058 0.051111
O O5 0.691809 0.852539 0.849560
O O6 0.656169 0.000000 0.901638
O O7 0.500000 0.889581 0.000000
O O8 0.483291 0.647560 0.743434
O O9 0.318538 0.778176 0.781386
O O10 0.255033 0.654158 0.702683
O O11 0.409536 0.500000 0.289588
O O12 0.320499 0.590483 0.204906
O O13 0.211004 0.617894 0.350284
O O14 0.980249 0.591400 0.760024
O O15 0.500000 0.125897 0.500000
O O16 0.595714 0.119249 0.616223
O O17 0.467110 0.000000 0.585147
O O18 0.708687 0.000000 0.669347
#
# Coordination Sequence:
#
# PCOD9207670 Si02
#       7
#     8   8   8   8   8   8   8
#     4  12  25  39  57  79 110 151 200 248 296 353
#     4  11  24  40  59  82 114 155 197 248 309 355
#     4  12  22  36  58  85 120 149 190 247 294 346
#     4  10  21  37  59  88 115 148 192 242 292 341
#     4  11  23  37  61  79 113 154 198 238 286 357
#     4   8  16  35  61  87 117 152 189 230 281 348
#     4  10  21  37  61  89 114 150 195 235 285 349
#
# _framework density 20.790747
#
# number of rings (size 3 to 8) (size 9 to 14) (size 15 to 20)
#    0.000    1.429    1.429    5.571    2.000    2.571 
#    0.000    0.714    0.000   17.143    0.000    0.000 
#    0.000    0.000    0.000    0.000    0.000    0.000 
#
# Total GULP energy -156548.666062 kJ/mol
# GULP energy per Si atom -5591.023788 kJ/mol
# Density = 2.074343 g / cm^3
# Si number density = 20.790747 Si / 1000 Ang^3
#
#
#
# Elastic Constant Matrix: (Units=GPa)
#
#
# Indices 1 2 3 4 5 6 
#
# 1 80.5767 2.6525 0.9204 0.0000 11.3477 0.0000
# 2 2.6525 85.0254 4.1101 0.0000 -2.8984 0.0000
# 3 0.9204 4.1101 94.9125 0.0000 19.9659 0.0000
# 4 0.0000 0.0000 0.0000 21.0587 0.0000 3.9216
# 5 11.3477 -2.8984 19.9659 0.0000 26.6228 0.0000
# 6 0.0000 0.0000 0.0000 3.9216 0.0000 38.2286
#
#
#
# Elastic Compliance Matrix: (Units=1/GPa)
#
#
# Indices 1 2 3 4 5 6 
#
# 1 0.013372 -0.000712 0.001326 0.000000 -0.006772 0.000000
# 2 -0.000712 0.011912 -0.001004 0.000000 0.002353 0.000000
# 3 0.001326 -0.001004 0.012714 0.000000 -0.010210 0.000000
# 4 0.000000 0.000000 0.000000 0.048411 0.000000 -0.004966
# 5 -0.006772 0.002353 -0.010210 0.000000 0.048361 0.000000
# 6 0.000000 0.000000 0.000000 -0.004966 0.000000 0.026668
#
#
# Mechanical properties :
#
#
# Convention : Reuss Voigt Hill
#
# Bulk Modulus (GPa) = 26.86869 30.65342 28.76106
# Shear Modulus (GPa) = 28.63265 34.03746 31.33505
#
# Velocity S-wave (km/s) = 3.71507 4.05055 3.88643
# Velocity P-wave (km/s) = 5.59944 6.05407 5.83119
#
# Compressibility (1/GPa) = 0.03721804
#
# Stress axis : x y z
#
# Youngs Moduli (GPa) = 74.78050 83.94785 78.65146
#
# Poissons Ratio (x) = 0.05978 -0.10426
# Poissons Ratio (y) = 0.05325 0.07897
# Poissons Ratio (z) = -0.09913 0.08428
#
# Static dielectric constant tensor:
#      x y z
#    x 1.753710 0.000000 0.012520 
#    y 0.000000 1.751530 0.000000 
#    z 0.012520 0.000000 1.739420 
# 
# From -- ./inp_files/257008.got.cif
#   From: 2010.05.17/outbox.cif.g08.bks.cpg/sg12_129_cif.got.tgz:257008.got - 2010.06.03 13:09:07.
