data_PCOD9207643
_publ_section_title
;
Structure prediction by ZEFSAII (Michael W. Deem and Ramdas Pophale) SiO2 
 PCOD9207643
Probable space group: C 2/M
;
_chemical_formula_sum "Si O2"
_cell_formula_units_Z 48
_cell_length_a 14.554608
_cell_length_b 18.824559
_cell_length_c 9.053556
_cell_angle_alpha 90.000000
_cell_angle_beta 88.958892
_cell_angle_gamma 90.000000
_cell_volume 2480.120689
_symmetry_space_group_name_H-M "C 2/M"
_symmetry_group_IT_number 12
_symmetry_cell_setting 'monoclinic'
loop_
_space_group_symop_operation_xyz
x,y,z
-x,y,-z
-x,-y,-z
x,-y,z
1/2+x,1/2+y,z
1/2-x,1/2+y,-z
1/2-x,1/2-y,-z
1/2+x,1/2-y,z
loop_
_atom_site_type_symbol
_atom_site_label
_atom_site_fract_x
_atom_site_fract_y
_atom_site_fract_z
Si Si1 0.602117 0.220162 0.559434
Si Si2 0.218006 0.858320 0.446038
Si Si3 0.600878 0.355320 0.931900
Si Si4 0.403384 0.198315 0.087017
Si Si5 0.925748 0.078866 0.378113
Si Si6 0.748626 0.916922 0.877824
O O1 0.500000 0.214554 0.500000
O O2 0.677194 0.159832 0.516904
O O3 0.653966 0.290619 0.494126
O O4 0.590063 0.212054 0.736733
O O5 0.172065 0.920812 0.538802
O O6 0.215655 0.879587 0.274305
O O7 0.634097 0.275029 0.965665
O O8 0.585858 0.370507 0.760253
O O9 0.500000 0.363268 0.000000
O O10 0.672166 0.408683 0.002878
O O11 0.337553 0.130974 0.068491
O O12 0.500000 0.187839 0.000000
O O13 0.000000 0.100725 0.500000
O O14 0.952790 0.000000 0.326850
O O15 0.727246 0.000000 0.853373
#
# Coordination Sequence:
#
# PCOD9207643 Si02
#       6
#     8   8   8   8   8   8
#     4  10  21  37  61  90 119 152 201 254 302 357
#     4  10  21  37  59  87 117 160 197 248 304 357
#     4  11  23  38  59  90 123 157 203 252 302 361
#     4  10  23  40  63  91 118 161 203 254 301 353
#     4  11  22  36  58  89 125 162 200 247 308 370
#     4  11  24  41  61  88 125 163 202 249 304 367
#
# _framework density 19.353897
#
# number of rings (size 3 to 8) (size 9 to 14) (size 15 to 20)
#    0.000    1.500    1.667    3.000    4.667    4.333 
#    0.000    0.000    0.000   12.500    0.000    0.000 
#    0.000    0.000    0.000    0.000    0.000    0.000 
#
# Total GULP energy -133797.117335 kJ/mol
# GULP energy per Si atom -5574.879889 kJ/mol
# Density = 1.930985 g / cm^3
# Si number density = 19.353897 Si / 1000 Ang^3
#
#
#
# Elastic Constant Matrix: (Units=GPa)
#
#
# Indices 1 2 3 4 5 6 
#
# 1 124.6095 57.1064 49.7866 0.0000 -4.6916 0.0000
# 2 57.1064 107.2885 39.9194 0.0000 1.6258 0.0000
# 3 49.7866 39.9194 69.1310 0.0000 -15.2439 0.0000
# 4 0.0000 0.0000 0.0000 8.4826 0.0000 -0.8156
# 5 -4.6916 1.6258 -15.2439 0.0000 35.8363 0.0000
# 6 0.0000 0.0000 0.0000 -0.8156 0.0000 12.7967
#
#
#
# Elastic Compliance Matrix: (Units=1/GPa)
#
#
# Indices 1 2 3 4 5 6 
#
# 1 0.012664 -0.004124 -0.006988 0.000000 -0.001127 0.000000
# 2 -0.004124 0.013705 -0.005739 0.000000 -0.003603 0.000000
# 3 -0.006988 -0.005739 0.025014 0.000000 0.009986 0.000000
# 4 0.000000 0.000000 0.000000 0.118615 0.000000 0.007560
# 5 -0.001127 -0.003603 0.009986 0.000000 0.032168 0.000000
# 6 0.000000 0.000000 0.000000 0.007560 0.000000 0.078627
#
#
# Mechanical properties :
#
#
# Convention : Reuss Voigt Hill
#
# Bulk Modulus (GPa) = 56.55312 66.07264 61.31288
# Shear Modulus (GPa) = 15.60602 21.70423 18.65512
#
# Velocity S-wave (km/s) = 2.84271 3.35242 3.10803
# Velocity P-wave (km/s) = 6.32919 7.01415 6.68045
#
# Compressibility (1/GPa) = 0.01768249
#
# Stress axis : x y z
#
# Youngs Moduli (GPa) = 78.96095 72.96366 39.97814
#
# Poissons Ratio (x) = 0.30088 0.27937
# Poissons Ratio (y) = 0.32562 0.22942
# Poissons Ratio (z) = 0.55178 0.41872
#
# Static dielectric constant tensor:
#      x y z
#    x 1.657060 0.000000 -0.014240 
#    y 0.000000 1.724900 0.000000 
#    z -0.014240 0.000000 1.712250 
# 
# From -- ./inp_files/61679.got.cif
#   From: 2010.05.17/outbox.cif.g08.bks.cpg/sg12_31_cif.got.tgz:61679.got - 2010.06.03 13:09:07.
