data_PCOD9207421
_publ_section_title
;
Structure prediction by ZEFSAII (Michael W. Deem and Ramdas Pophale) SiO2 
 PCOD9207421
Probable space group: C 2/M
;
_chemical_formula_sum "Si O2"
_cell_formula_units_Z 52
_cell_length_a 21.570323
_cell_length_b 12.433164
_cell_length_c 21.798575
_cell_angle_alpha 90.000000
_cell_angle_beta 152.212086
_cell_angle_gamma 90.000000
_cell_volume 2725.453128
_symmetry_space_group_name_H-M "C 2/M"
_symmetry_group_IT_number 12
_symmetry_cell_setting 'monoclinic'
loop_
_space_group_symop_operation_xyz
x,y,z
-x,y,-z
-x,-y,-z
x,-y,z
1/2+x,1/2+y,z
1/2-x,1/2+y,-z
1/2-x,1/2-y,-z
1/2+x,1/2-y,z
loop_
_atom_site_type_symbol
_atom_site_label
_atom_site_fract_x
_atom_site_fract_y
_atom_site_fract_z
Si Si1 0.913171 0.873448 0.982562
Si Si2 0.448184 0.375545 0.653801
Si Si3 0.798823 0.500000 0.860450
Si Si4 0.656741 0.272934 0.753355
Si Si5 0.229292 0.837603 0.615500
Si Si6 0.000000 0.802390 0.500000
Si Si7 0.070481 0.500000 0.159290
Si Si8 0.864549 0.123783 0.720072
O O1 0.007912 0.863698 0.124403
O O2 0.883352 0.000000 0.946945
O O3 0.779143 0.805960 0.871428
O O4 0.000000 0.835215 0.000000
O O5 0.496683 0.500000 0.693747
O O6 0.556444 0.292534 0.721960
O O7 0.325021 0.366492 0.498962
O O8 0.405377 0.354094 0.685655
O O9 0.714495 0.391846 0.791155
O O10 0.870294 0.500000 0.857319
O O11 0.912966 0.500000 0.012763
O O12 0.575320 0.240759 0.620829
O O13 0.365053 0.897967 0.750478
O O14 0.255677 0.710838 0.643826
O O15 0.113258 0.867544 0.562149
O O16 0.819491 0.000000 0.685575
#
# Coordination Sequence:
#
# PCOD9207421 Si02
#       8
#     8   8   4   8   8   4   4   8
#     4  10  22  40  61  82 112 152 196 240 287 340
#     4  10  21  37  58  85 115 157 189 232 289 344
#     4  11  22  32  54  92 122 146 182 236 289 339
#     4  11  21  36  58  85 118 148 191 232 287 347
#     4  11  20  37  58  85 117 150 192 230 289 345
#     4  10  22  33  57  86 112 150 177 233 288 336
#     4  11  22  32  56  86 122 150 178 237 287 344
#     4  10  22  40  61  82 109 152 200 236 281 338
#
# _framework density 19.079395000000002
#
# number of rings (size 3 to 8) (size 9 to 14) (size 15 to 20)
#    0.000    1.538    3.077    2.308    2.154    1.231 
#    0.000    3.846    1.692    0.000    0.000    0.000 
#    0.000    0.000    0.000    0.000    0.000    0.000 
#
# Total GULP energy -145138.168899 kJ/mol
# GULP energy per Si atom -5582.237265 kJ/mol
# Density = 1.903597 g / cm^3
# Si number density = 19.079395 Si / 1000 Ang^3
#
#
#
# Elastic Constant Matrix: (Units=GPa)
#
#
# Indices 1 2 3 4 5 6 
#
# 1 64.0745 32.2702 44.1269 0.0011 -12.9858 0.0002
# 2 32.2702 84.3470 32.7086 0.0020 7.7880 0.0001
# 3 44.1269 32.7086 95.0311 0.0006 -7.6508 -0.0001
# 4 0.0011 0.0020 0.0006 162.6342 0.0011 24.9889
# 5 -12.9858 7.7880 -7.6508 0.0011 26.4047 0.0001
# 6 0.0002 0.0001 -0.0001 24.9889 0.0001 12.3306
#
#
#
# Elastic Compliance Matrix: (Units=1/GPa)
#
#
# Indices 1 2 3 4 5 6 
#
# 1 0.029590 -0.008976 -0.009487 0.000000 0.014451 0.000000
# 2 -0.008976 0.017241 -0.002592 0.000000 -0.010251 0.000000
# 3 -0.009487 -0.002592 0.015876 0.000000 0.000699 0.000000
# 4 0.000000 0.000000 0.000000 0.008929 0.000000 -0.018096
# 5 0.014451 -0.010251 0.000699 0.000000 0.048205 0.000000
# 6 0.000000 0.000000 0.000000 -0.018096 0.000000 0.117771
#
#
# Mechanical properties :
#
#
# Convention : Reuss Voigt Hill
#
# Bulk Modulus (GPa) = 48.54768 51.29598 49.92183
# Shear Modulus (GPa) = 17.44673 49.23036 33.33854
#
# Velocity S-wave (km/s) = 3.02723 5.08517 4.18468
# Velocity P-wave (km/s) = 6.14159 7.83725 7.04065
#
# Compressibility (1/GPa) = 0.02059831
#
# Stress axis : x y z
#
# Youngs Moduli (GPa) = 33.79571 58.00008 62.98706
#
# Poissons Ratio (x) = 0.52061 0.59755
# Poissons Ratio (y) = 0.30335 0.16324
# Poissons Ratio (z) = 0.32061 0.15031
#
# Static dielectric constant tensor:
#      x y z
#    x 1.655610 0.000000 -0.002300 
#    y 0.000000 1.671000 0.000000 
#    z -0.002300 0.000000 1.660680 
# 
# From -- ./inp_files/321607.got.cif
#   From: 2010.05.17/outbox.cif.g08.bks.cpg/sg12_161_cif.got.tgz:321607.got - 2010.06.03 13:09:07.
