data_PCOD9207048
_publ_section_title
;
Structure prediction by ZEFSAII (Michael W. Deem and Ramdas Pophale) SiO2 
 PCOD9207048
Probable space group: C 2/M
;
_chemical_formula_sum "Si O2"
_cell_formula_units_Z 58
_cell_length_a 20.569452
_cell_length_b 8.717076
_cell_length_c 17.720189
_cell_angle_alpha 90.000000
_cell_angle_beta 75.457024
_cell_angle_gamma 90.000000
_cell_volume 3075.523992
_symmetry_space_group_name_H-M "C 2/M"
_symmetry_group_IT_number 12
_symmetry_cell_setting 'monoclinic'
loop_
_space_group_symop_operation_xyz
x,y,z
-x,y,-z
-x,-y,-z
x,-y,z
1/2+x,1/2+y,z
1/2-x,1/2+y,-z
1/2-x,1/2-y,-z
1/2+x,1/2-y,z
loop_
_atom_site_type_symbol
_atom_site_label
_atom_site_fract_x
_atom_site_fract_y
_atom_site_fract_z
Si Si1 0.694494 0.683158 0.276513
Si Si2 0.165266 0.684989 0.833954
Si Si3 0.889159 0.683173 0.838219
Si Si4 0.042479 0.313032 0.768403
Si Si5 0.897205 0.314995 0.573583
Si Si6 0.863221 0.167777 0.001704
Si Si7 0.542583 0.813583 0.598256
Si Si8 0.000000 0.000000 0.000000
O O1 0.690923 0.500000 0.279301
O O2 0.770603 0.728470 0.234914
O O3 0.649419 0.744862 0.220947
O O4 0.664716 0.747562 0.362808
O O5 0.163285 0.500000 0.839580
O O6 0.097785 0.740156 0.811695
O O7 0.168692 0.752980 0.916355
O O8 0.887167 0.500000 0.831690
O O9 0.967187 0.733751 0.811574
O O10 0.859690 0.736146 0.926464
O O11 0.043940 0.500000 0.768031
O O12 0.057759 0.261713 0.678392
O O13 0.893271 0.500000 0.576212
O O14 0.908355 0.264603 0.483738
O O15 0.966469 0.271753 0.596765
O O16 0.831547 0.000000 0.998124
O O17 0.941466 0.131016 0.998650
O O18 0.543940 0.000000 0.598139
#
# Coordination Sequence:
#
# PCOD9207048 Si02
#       8
#     8   8   8   8   8   8   8   2
#     4  11  23  37  53  81 119 154 183 233 290 336
#     4  10  22  39  57  78 113 156 195 227 276 339
#     4  11  21  36  63  86 107 143 198 241 271 329
#     4   9  17  32  57  85 105 137 190 240 271 317
#     4   9  16  31  56  82 110 142 186 233 280 338
#     4  10  21  37  56  82 115 147 176 230 286 334
#     4   8  14  28  55  86 108 134 183 243 280 318
#     4   8  20  36  58  84 120 140 172 220 308 332
#
# _framework density 18.858574999999998
#
# number of rings (size 3 to 8) (size 9 to 14) (size 15 to 20)
#    0.414    1.931    1.379    2.897    0.000    1.655 
#    0.000    4.828    0.000    0.000    0.000    0.000 
#    0.000    0.000    0.000    0.000    0.000    0.000 
#
# Total GULP energy -161490.874727 kJ/mol
# GULP energy per Si atom -5568.650853 kJ/mol
# Density = 1.881565 g / cm^3
# Si number density = 18.858575 Si / 1000 Ang^3
#
#
#
# Elastic Constant Matrix: (Units=GPa)
#
#
# Indices 1 2 3 4 5 6 
#
# 1 34.5952 8.4187 1.9425 0.0000 1.2401 0.0000
# 2 8.4187 13.5121 11.1765 0.0000 -2.6770 0.0000
# 3 1.9425 11.1765 112.9726 0.0000 7.7062 0.0000
# 4 0.0000 0.0000 0.0000 27.4167 0.0000 -3.5349
# 5 1.2401 -2.6770 7.7062 0.0000 11.8992 0.0000
# 6 0.0000 0.0000 0.0000 -3.5349 0.0000 18.7289
#
#
#
# Elastic Compliance Matrix: (Units=1/GPa)
#
#
# Indices 1 2 3 4 5 6 
#
# 1 0.035708 -0.026896 0.002839 0.000000 -0.011611 0.000000
# 2 -0.026896 0.108238 -0.012657 0.000000 0.035350 0.000000
# 3 0.002839 -0.012657 0.010744 0.000000 -0.010101 0.000000
# 4 0.000000 0.000000 0.000000 0.037384 0.000000 0.007056
# 5 -0.011611 0.035350 -0.010101 0.000000 0.099744 0.000000
# 6 0.000000 0.000000 0.000000 0.007056 0.000000 0.054725
#
#
# Mechanical properties :
#
#
# Convention : Reuss Voigt Hill
#
# Bulk Modulus (GPa) = 12.30592 22.68390 17.49491
# Shear Modulus (GPa) = 11.18423 20.91177 16.04800
#
# Velocity S-wave (km/s) = 2.43792 3.33359 2.92030
# Velocity P-wave (km/s) = 3.80318 5.18378 4.54619
#
# Compressibility (1/GPa) = 0.08126171
#
# Stress axis : x y z
#
# Youngs Moduli (GPa) = 28.00522 9.23889 93.07435
#
# Poissons Ratio (x) = 0.24849 -0.26422
# Poissons Ratio (y) = 0.75323 1.17804
# Poissons Ratio (z) = -0.07950 0.11694
#
# Static dielectric constant tensor:
#      x y z
#    x 1.650110 0.000000 -0.012390 
#    y 0.000000 1.649040 0.000000 
#    z -0.012390 0.000000 1.648760 
# 
# From -- ./inp_files/281107.got.cif
#   From: 2010.05.17/outbox.cif.g08.bks.cpg/sg12_141_cif.got.tgz:281107.got - 2010.06.03 13:09:07.
