data_PCOD9207621
_publ_section_title
;
Structure prediction by ZEFSAII (Michael W. Deem and Ramdas Pophale) SiO2 
 PCOD9207621
Probable space group: C 2/M
;
_chemical_formula_sum "Si O2"
_cell_formula_units_Z 64
_cell_length_a 30.232253
_cell_length_b 9.036304
_cell_length_c 19.889986
_cell_angle_alpha 90.000000
_cell_angle_beta 36.984676
_cell_angle_gamma 90.000000
_cell_volume 3268.922801
_symmetry_space_group_name_H-M "C 2/M"
_symmetry_group_IT_number 12
_symmetry_cell_setting 'monoclinic'
loop_
_space_group_symop_operation_xyz
x,y,z
-x,y,-z
-x,-y,-z
x,-y,z
1/2+x,1/2+y,z
1/2-x,1/2+y,-z
1/2-x,1/2-y,-z
1/2+x,1/2-y,z
loop_
_atom_site_type_symbol
_atom_site_label
_atom_site_fract_x
_atom_site_fract_y
_atom_site_fract_z
Si Si1 0.497665 0.673275 0.677064
Si Si2 0.377897 0.327200 0.580810
Si Si3 0.105079 0.328663 0.304632
Si Si4 0.708513 0.822656 0.753127
Si Si5 0.979151 0.676786 0.209916
Si Si6 0.688293 0.177937 0.621791
Si Si7 0.615695 0.678103 0.983104
Si Si8 0.766145 0.827462 0.050935
O O1 0.486629 0.500000 0.706078
O O2 0.574487 0.690965 0.544100
O O3 0.436490 0.730478 0.699668
O O4 0.498672 0.767583 0.743175
O O5 0.383766 0.500000 0.593832
O O6 0.408633 0.228807 0.603780
O O7 0.292943 0.292592 0.670607
O O8 0.083762 0.500000 0.322872
O O9 0.192166 0.315739 0.184823
O O10 0.697915 0.780668 0.688258
O O11 0.696444 0.000000 0.773781
O O12 0.654919 0.738513 0.868846
O O13 0.986068 0.500000 0.196029
O O14 0.894241 0.717768 0.300481
O O15 0.035093 0.755072 0.090977
O O16 0.750000 0.250000 0.500000
O O17 0.695690 0.000000 0.608319
O O18 0.614229 0.500000 0.984424
O O19 0.666071 0.727460 0.986022
O O20 0.779763 0.000000 0.020201
O O21 0.750000 0.750000 0.000000
#
# Coordination Sequence:
#
# PCOD9207621 Si02
#       8
#     8   8   8   8   8   8   8   8
#     4  11  23  39  59  87 122 161 207 256 305 367
#     4  10  21  37  59  86 119 159 203 249 304 365
#     4  11  22  37  56  84 120 158 204 254 306 365
#     4  10  21  40  65  91 121 163 206 253 309 368
#     4  11  24  42  63  91 124 161 203 252 308 365
#     4  10  23  43  68  97 128 161 205 253 307 370
#     4  11  23  41  62  89 123 162 207 256 307 365
#     4  10  22  37  55  81 115 156 203 252 300 355
#
# _framework density 19.578316000000001
#
# number of rings (size 3 to 8) (size 9 to 14) (size 15 to 20)
#    0.000    1.500    1.250    3.375    0.000    9.500 
#    0.000    2.500    0.000    0.000    0.000    0.000 
#    0.000    0.000    0.000    0.000    0.000    0.000 
#
# Total GULP energy -178925.611756 kJ/mol
# GULP energy per Si atom -5591.425367 kJ/mol
# Density = 1.953376 g / cm^3
# Si number density = 19.578316 Si / 1000 Ang^3
#
#
#
# Elastic Constant Matrix: (Units=GPa)
#
#
# Indices 1 2 3 4 5 6 
#
# 1 92.0318 37.1904 58.8606 -0.0001 4.7535 0.0001
# 2 37.1904 48.9423 52.4818 -0.0114 -5.3590 0.0016
# 3 58.8606 52.4818 111.9227 -0.0026 -11.0644 -0.0027
# 4 -0.0001 -0.0114 -0.0026 38.9726 0.0002 3.8160
# 5 4.7535 -5.3590 -11.0644 0.0002 30.9861 -0.0003
# 6 0.0001 0.0016 -0.0027 3.8160 -0.0003 26.3170
#
#
#
# Elastic Compliance Matrix: (Units=1/GPa)
#
#
# Indices 1 2 3 4 5 6 
#
# 1 0.018688 -0.007412 -0.007010 -0.000003 -0.006652 0.000000
# 2 -0.007412 0.044038 -0.016468 0.000012 0.002873 -0.000006
# 3 -0.007010 -0.016468 0.020906 -0.000004 0.005692 0.000004
# 4 -0.000003 0.000012 -0.000004 0.026029 0.000001 -0.003774
# 5 -0.006652 0.002873 0.005692 0.000001 0.035822 0.000001
# 6 0.000000 -0.000006 0.000004 -0.003774 0.000001 0.038545
#
#
# Mechanical properties :
#
#
# Convention : Reuss Voigt Hill
#
# Bulk Modulus (GPa) = 45.76222 61.10691 53.43456
# Shear Modulus (GPa) = 19.75563 26.21275 22.98419
#
# Velocity S-wave (km/s) = 3.18001 3.66302 3.43003
# Velocity P-wave (km/s) = 6.07519 7.01210 6.56039
#
# Compressibility (1/GPa) = 0.02185209
#
# Stress axis : x y z
#
# Youngs Moduli (GPa) = 53.51005 22.70779 47.83293
#
# Poissons Ratio (x) = 0.16831 0.33532
# Poissons Ratio (y) = 0.39661 0.78770
# Poissons Ratio (z) = 0.37512 0.37395
#
# Static dielectric constant tensor:
#      x y z
#    x 1.667560 0.000000 -0.012670 
#    y 0.000000 1.659970 0.000000 
#    z -0.012670 0.000000 1.684140 
# 
# From -- ./inp_files/295657.got.cif
#   From: 2010.05.17/outbox.cif.g08.bks.cpg/sg12_148_cif.got.tgz:295657.got - 2010.06.03 13:09:07.
