data_PCOD9207931
_publ_section_title
;
Structure prediction by ZEFSAII (Michael W. Deem and Ramdas Pophale) SiO2 
 PCOD9207931
Probable space group: C 2/M
;
_chemical_formula_sum "Si O2"
_cell_formula_units_Z 56
_cell_length_a 18.929830
_cell_length_b 26.229044
_cell_length_c 9.635416
_cell_angle_alpha 90.000000
_cell_angle_beta 144.798022
_cell_angle_gamma 90.000000
_cell_volume 2757.840967
_symmetry_space_group_name_H-M "C 2/M"
_symmetry_group_IT_number 12
_symmetry_cell_setting 'monoclinic'
loop_
_space_group_symop_operation_xyz
x,y,z
-x,y,-z
-x,-y,-z
x,-y,z
1/2+x,1/2+y,z
1/2-x,1/2+y,-z
1/2-x,1/2-y,-z
1/2+x,1/2-y,z
loop_
_atom_site_type_symbol
_atom_site_label
_atom_site_fract_x
_atom_site_fract_y
_atom_site_fract_z
Si Si1 0.612035 0.773184 0.764690
Si Si2 0.715215 0.876794 0.813259
Si Si3 0.070742 0.439748 0.346096
Si Si4 0.223520 0.441005 0.095223
Si Si5 0.387367 0.215959 0.921790
Si Si6 0.859266 0.175207 0.813266
Si Si7 0.222483 0.614751 0.354715
O O1 0.500000 0.747581 0.500000
O O2 0.636019 0.828388 0.735698
O O3 0.750000 0.750000 0.000000
O O4 0.566597 0.776250 0.849131
O O5 0.635548 0.912005 0.580823
O O6 0.826904 0.853938 0.902733
O O7 0.756981 0.907420 0.015814
O O8 0.100433 0.500000 0.393363
O O9 0.120656 0.414013 0.284892
O O10 0.924353 0.434877 0.123725
O O11 0.249449 0.500000 0.110218
O O12 0.277966 0.423475 0.330514
O O13 0.312254 0.266490 0.756127
O O14 0.319146 0.162672 0.804525
O O15 0.500000 0.210097 0.000000
O O16 0.803031 0.141977 0.600596
O O17 0.000000 0.180539 0.000000
#
# Coordination Sequence:
#
# PCOD9207931 Si02
#       7
#     8   8   8   8   8   8   8
#     4  12  26  43  64  97 133 171 215 266 318 375
#     4  11  22  40  63  88 123 166 207 253 316 378
#     4  10  21  37  60  91 126 160 196 247 313 385
#     4  11  21  36  60  94 124 152 196 255 320 380
#     4  11  23  40  63  93 128 168 208 253 308 378
#     4  10  24  43  60  85 119 164 218 257 305 371
#     4  11  22  36  62  90 125 163 202 249 314 369
#
# _framework density 20.305738000000002
#
# number of rings (size 3 to 8) (size 9 to 14) (size 15 to 20)
#    0.000    1.143    2.857    3.857    4.000    4.571 
#    0.000    0.714    0.000   16.286    0.000    0.000 
#    0.000    0.000    0.000    0.000    0.000    0.000 
#
# Total GULP energy -156325.649093 kJ/mol
# GULP energy per Si atom -5583.058896 kJ/mol
# Density = 2.025952 g / cm^3
# Si number density = 20.305738 Si / 1000 Ang^3
#
#
#
# Elastic Constant Matrix: (Units=GPa)
#
#
# Indices 1 2 3 4 5 6 
#
# 1 70.7297 16.8988 29.0411 0.0000 -29.2127 0.0000
# 2 16.8988 116.7598 25.7647 0.0000 -2.3135 0.0000
# 3 29.0411 25.7647 59.1971 0.0000 -19.0055 0.0000
# 4 0.0000 0.0000 0.0000 15.8947 0.0000 -7.2914
# 5 -29.2127 -2.3135 -19.0055 0.0000 33.3243 0.0000
# 6 0.0000 0.0000 0.0000 -7.2914 0.0000 31.6763
#
#
#
# Elastic Compliance Matrix: (Units=1/GPa)
#
#
# Indices 1 2 3 4 5 6 
#
# 1 0.024248 -0.002003 -0.005195 0.000000 0.018154 0.000000
# 2 -0.002003 0.009759 -0.004420 0.000000 -0.003600 0.000000
# 3 -0.005195 -0.004420 0.024244 0.000000 0.008966 0.000000
# 4 0.000000 0.000000 0.000000 0.070342 0.000000 0.016192
# 5 0.018154 -0.003600 0.008966 0.000000 0.050786 0.000000
# 6 0.000000 0.000000 0.000000 0.016192 0.000000 0.035296
#
#
# Mechanical properties :
#
#
# Convention : Reuss Voigt Hill
#
# Bulk Modulus (GPa) = 28.56091 43.34398 35.95244
# Shear Modulus (GPa) = 20.03340 27.84451 23.93895
#
# Velocity S-wave (km/s) = 3.14441 3.70707 3.43727
# Velocity P-wave (km/s) = 5.22293 6.30200 5.78767
#
# Compressibility (1/GPa) = 0.03501290
#
# Stress axis : x y z
#
# Youngs Moduli (GPa) = 41.24014 102.47384 41.24786
#
# Poissons Ratio (x) = 0.20529 0.21429
# Poissons Ratio (y) = 0.08262 0.18232
# Poissons Ratio (z) = 0.21425 0.45295
#
# Static dielectric constant tensor:
#      x y z
#    x 1.709180 0.000000 0.001130 
#    y 0.000000 1.736460 0.000000 
#    z 0.001130 0.000000 1.747400 
# 
# From -- ./inp_files/53307.got.cif
#   From: 2010.05.17/outbox.cif.g08.bks.cpg/sg12_27_cif.got.tgz:53307.got - 2010.06.03 13:09:07.
