data_PCOD9207599
_publ_section_title
;
Structure prediction by ZEFSAII (Michael W. Deem and Ramdas Pophale) SiO2 
 PCOD9207599
Probable space group: C 2/M
;
_chemical_formula_sum "Si O2"
_cell_formula_units_Z 36
_cell_length_a 14.871150
_cell_length_b 9.765827
_cell_length_c 12.430144
_cell_angle_alpha 90.000000
_cell_angle_beta 105.767590
_cell_angle_gamma 90.000000
_cell_volume 1737.291342
_symmetry_space_group_name_H-M "C 2/M"
_symmetry_group_IT_number 12
_symmetry_cell_setting 'monoclinic'
loop_
_space_group_symop_operation_xyz
x,y,z
-x,y,-z
-x,-y,-z
x,-y,z
1/2+x,1/2+y,z
1/2-x,1/2+y,-z
1/2-x,1/2-y,-z
1/2+x,1/2-y,z
loop_
_atom_site_type_symbol
_atom_site_label
_atom_site_fract_x
_atom_site_fract_y
_atom_site_fract_z
Si Si1 0.720413 0.660317 0.291726
Si Si2 0.793032 0.344418 0.921775
Si Si3 0.990324 0.154896 0.756953
Si Si4 0.000000 0.258505 0.000000
Si Si5 0.575925 0.162032 0.611066
O O1 0.721262 0.500000 0.254360
O O2 0.725481 0.766426 0.195556
O O3 0.618479 0.679688 0.310036
O O4 0.816172 0.680335 0.388206
O O5 0.757418 0.500000 0.912653
O O6 0.904886 0.343643 0.972288
O O7 0.750000 0.250000 0.000000
O O8 0.996294 0.173250 0.887773
O O9 0.054947 0.260308 0.715054
O O10 0.015476 0.000000 0.736466
O O11 0.500000 0.210743 0.500000
O O12 0.561192 0.000000 0.622618
#
# Coordination Sequence:
#
# PCOD9207599 Si02
#       5
#     8   8   8   4   8
#     4   9  20  38  56  78 111 147 184 229 282 334
#     4  11  22  35  54  81 113 149 188 229 276 332
#     4  10  21  37  59  86 115 148 187 233 281 331
#     4  10  22  38  58  84 118 152 186 226 280 340
#     4  10  22  40  60  82 112 151 191 232 281 336
#
# _framework density 20.721913000000001
#
# number of rings (size 3 to 8) (size 9 to 14) (size 15 to 20)
#    0.000    2.000    0.000    2.667    0.000   12.889 
#    0.000    0.000    0.000    0.000    0.000    0.000 
#    0.000    0.000    0.000    0.000    0.000    0.000 
#
# Total GULP energy -100469.540308 kJ/mol
# GULP energy per Si atom -5581.641128 kJ/mol
# Density = 2.067475 g / cm^3
# Si number density = 20.721913 Si / 1000 Ang^3
#
#
#
# Elastic Constant Matrix: (Units=GPa)
#
#
# Indices 1 2 3 4 5 6 
#
# 1 97.9393 22.5568 21.8071 0.0000 26.4028 0.0000
# 2 22.5568 67.6252 -1.6396 0.0000 1.2212 0.0000
# 3 21.8071 -1.6396 37.3251 0.0000 16.3658 0.0000
# 4 0.0000 0.0000 0.0000 6.6576 0.0000 5.0093
# 5 26.4028 1.2212 16.3658 0.0000 35.4932 0.0000
# 6 0.0000 0.0000 0.0000 5.0093 0.0000 13.1073
#
#
#
# Elastic Compliance Matrix: (Units=1/GPa)
#
#
# Indices 1 2 3 4 5 6 
#
# 1 0.014757 -0.004894 -0.005135 0.000000 -0.008441 0.000000
# 2 -0.004894 0.016456 0.002800 0.000000 0.001783 0.000000
# 3 -0.005135 0.002800 0.035449 0.000000 -0.012622 0.000000
# 4 0.000000 0.000000 0.000000 0.210828 0.000000 -0.080573
# 5 -0.008441 0.001783 -0.012622 0.000000 0.040212 0.000000
# 6 0.000000 0.000000 0.000000 -0.080573 0.000000 0.107087
#
#
# Mechanical properties :
#
#
# Convention : Reuss Voigt Hill
#
# Bulk Modulus (GPa) = 19.15611 32.03759 25.59685
# Shear Modulus (GPa) = 10.94936 21.72930 16.33933
#
# Velocity S-wave (km/s) = 2.30118 3.24174 2.81108
# Velocity P-wave (km/s) = 4.04042 5.43196 4.78702
#
# Compressibility (1/GPa) = 0.05220267
#
# Stress axis : x y z
#
# Youngs Moduli (GPa) = 67.76639 60.76969 28.20939
#
# Poissons Ratio (x) = 0.29742 0.14487
# Poissons Ratio (y) = 0.33166 -0.07900
# Poissons Ratio (z) = 0.34801 -0.17018
#
# Static dielectric constant tensor:
#      x y z
#    x 1.765700 0.000000 0.056890 
#    y 0.000000 1.698830 0.000000 
#    z 0.056890 0.000000 1.741580 
# 
# From -- ./inp_files/152082.got.cif
#   From: 2010.05.17/outbox.cif.g08.bks.cpg/sg12_77_cif.got.tgz:152082.got - 2010.06.03 13:09:07.
