data_PCOD9207106
_publ_section_title
;
Structure prediction by ZEFSAII (Michael W. Deem and Ramdas Pophale) SiO2 
 PCOD9207106
Probable space group: C 2/M
;
_chemical_formula_sum "Si O2"
_cell_formula_units_Z 64
_cell_length_a 30.958300
_cell_length_b 8.325474
_cell_length_c 26.585219
_cell_angle_alpha 90.000000
_cell_angle_beta 152.614807
_cell_angle_gamma 90.000000
_cell_volume 3151.781738
_symmetry_space_group_name_H-M "C 2/M"
_symmetry_group_IT_number 12
_symmetry_cell_setting 'monoclinic'
loop_
_space_group_symop_operation_xyz
x,y,z
-x,y,-z
-x,-y,-z
x,-y,z
1/2+x,1/2+y,z
1/2-x,1/2+y,-z
1/2-x,1/2-y,-z
1/2+x,1/2-y,z
loop_
_atom_site_type_symbol
_atom_site_label
_atom_site_fract_x
_atom_site_fract_y
_atom_site_fract_z
Si Si1 0.343133 0.808620 0.569279
Si Si2 0.542471 0.690190 0.812031
Si Si3 0.744956 0.696527 0.830002
Si Si4 0.419365 0.310183 0.877388
Si Si5 0.608326 0.691182 0.774153
Si Si6 0.049427 0.310295 0.930593
Si Si7 0.088559 0.311306 0.467637
Si Si8 0.788300 0.809572 0.314637
O O1 0.250000 0.750000 0.500000
O O2 0.434038 0.720554 0.685520
O O3 0.344188 0.775553 0.510581
O O4 0.354476 0.000000 0.588140
O O5 0.558971 0.500000 0.835198
O O6 0.600055 0.753041 0.822848
O O7 0.560160 0.777078 0.882700
O O8 0.744254 0.500000 0.830193
O O9 0.689477 0.754991 0.821689
O O10 0.699488 0.747086 0.730322
O O11 0.853388 0.746151 0.943657
O O12 0.406044 0.500000 0.871167
O O13 0.462514 0.277275 0.867002
O O14 0.319669 0.226565 0.782367
O O15 0.500000 0.253108 0.000000
O O16 0.621268 0.500000 0.791951
O O17 0.508904 0.721692 0.643991
O O18 0.038210 0.500000 0.927575
O O19 0.067471 0.500000 0.444505
O O20 0.140866 0.268056 0.572738
O O21 0.803144 0.000000 0.331415
#
# Coordination Sequence:
#
# PCOD9207106 Si02
#       8
#     8   8   8   8   8   8   8   8
#     4  10  21  37  57  80 111 150 192 238 289 348
#     4  10  21  37  58  85 117 150 191 240 292 345
#     4   9  20  38  61  87 114 150 199 245 283 339
#     4  11  23  39  59  84 119 155 190 241 295 342
#     4   9  19  40  64  84 113 154 196 241 290 343
#     4  11  22  38  60  86 118 156 197 238 286 348
#     4  10  22  39  57  84 119 151 189 241 294 343
#     4  11  22  38  61  87 116 155 199 237 284 347
#
# _framework density 20.305973999999999
#
# number of rings (size 3 to 8) (size 9 to 14) (size 15 to 20)
#    0.000    1.875    1.250    2.250    1.750    3.500 
#    0.000    5.000    0.000    0.000    0.000    0.000 
#    0.000    0.000    0.000    0.000    0.000    0.000 
#
# Total GULP energy -178742.358108 kJ/mol
# GULP energy per Si atom -5585.698691 kJ/mol
# Density = 2.025976 g / cm^3
# Si number density = 20.305974 Si / 1000 Ang^3
#
#
#
# Elastic Constant Matrix: (Units=GPa)
#
#
# Indices 1 2 3 4 5 6 
#
# 1 87.1869 -9.2871 -7.4132 0.0000 -1.4251 0.0000
# 2 -9.2871 17.1481 -14.0011 0.0000 -1.4465 0.0000
# 3 -7.4132 -14.0011 14.8814 0.0000 -21.4316 0.0000
# 4 0.0000 0.0000 0.0000 20.7735 0.0000 -6.8794
# 5 -1.4251 -1.4465 -21.4316 0.0000 33.8010 0.0000
# 6 0.0000 0.0000 0.0000 -6.8794 0.0000 20.0742
#
#
#
# Elastic Compliance Matrix: (Units=1/GPa)
#
#
# Indices 1 2 3 4 5 6 
#
# 1 0.009510 -0.006459 -0.013356 0.000000 -0.008344 0.000000
# 2 -0.006459 -0.002061 -0.065346 0.000000 -0.041793 0.000000
# 3 -0.013356 -0.065346 -0.066473 0.000000 -0.045507 0.000000
# 4 0.000000 0.000000 0.000000 0.054301 0.000000 0.018609
# 5 -0.008344 -0.041793 -0.045507 0.000000 -0.001409 0.000000
# 6 0.000000 0.000000 0.000000 0.018609 0.000000 0.056192
#
#
# Mechanical properties :
#
#
# Convention : Reuss Voigt Hill
#
# Bulk Modulus (GPa) = -4.36022 6.42374 1.03176
# Shear Modulus (GPa) = 34.73849 24.92427 29.83138
#
# Velocity S-wave (km/s) = 4.14061 3.50728 3.83703
# Velocity P-wave (km/s) = 4.55056 4.42399 4.48772
#
# Compressibility (1/GPa) = -0.22934619
#
# Stress axis : x y z
#
# Youngs Moduli (GPa) = 105.15722 -485.09803 -15.04381
#
# Poissons Ratio (x) = -3.13318 -0.20093
# Poissons Ratio (y) = 0.67920 -0.98305
# Poissons Ratio (z) = 1.40452 -31.69906
#
# Static dielectric constant tensor:
#      x y z
#    x 1.741280 0.000000 -0.025950 
#    y 0.000000 1.690700 0.000000 
#    z -0.025950 0.000000 1.694070 
# 
# From -- ./inp_files/353507.got.cif
#   From: 2010.05.17/outbox.cif.g08.bks.cpg/sg12_177_cif.got.tgz:353507.got - 2010.06.03 13:09:07.
