data_PCOD9207009
_publ_section_title
;
Structure prediction by ZEFSAII (Michael W. Deem and Ramdas Pophale) SiO2 
 PCOD9207009
Probable space group: C 2/M
;
_chemical_formula_sum "Si O2"
_cell_formula_units_Z 48
_cell_length_a 19.802351
_cell_length_b 8.455345
_cell_length_c 22.700731
_cell_angle_alpha 90.000000
_cell_angle_beta 43.728900
_cell_angle_gamma 90.000000
_cell_volume 2627.369664
_symmetry_space_group_name_H-M "C 2/M"
_symmetry_group_IT_number 12
_symmetry_cell_setting 'monoclinic'
loop_
_space_group_symop_operation_xyz
x,y,z
-x,y,-z
-x,-y,-z
x,-y,z
1/2+x,1/2+y,z
1/2-x,1/2+y,-z
1/2-x,1/2-y,-z
1/2+x,1/2-y,z
loop_
_atom_site_type_symbol
_atom_site_label
_atom_site_fract_x
_atom_site_fract_y
_atom_site_fract_z
Si Si1 0.069027 0.192239 0.404315
Si Si2 0.963629 0.812166 0.220645
Si Si3 0.065838 0.808560 0.273791
Si Si4 0.786457 0.186240 0.126560
Si Si5 0.850089 0.686707 0.965838
Si Si6 0.707734 0.187928 0.749007
O O1 0.036460 0.236597 0.358706
O O2 0.182592 0.239765 0.337799
O O3 0.000000 0.251778 0.500000
O O4 0.067211 0.000000 0.407861
O O5 0.991224 0.762175 0.269674
O O6 0.058409 0.771703 0.121792
O O7 0.870669 0.728644 0.250917
O O8 0.947409 0.000000 0.230379
O O9 0.172473 0.736348 0.194230
O O10 0.076715 0.000000 0.264924
O O11 0.818503 0.231194 0.172321
O O12 0.795846 0.000000 0.110903
O O13 0.843626 0.276520 0.039245
O O14 0.857536 0.500000 0.950933
O O15 0.750000 0.750000 0.000000
O O16 0.710794 0.000000 0.757432
#
# Coordination Sequence:
#
# PCOD9207009 Si02
#       6
#     8   8   8   8   8   8
#     4   8  15  32  59  85 106 138 184 227 273 334
#     4  11  22  36  54  79 113 149 186 230 278 324
#     4   9  18  33  55  80 109 145 184 227 274 326
#     4  11  21  35  56  80 108 146 189 231 274 324
#     4  12  23  36  55  81 111 146 190 231 270 318
#     4  10  21  37  56  80 112 146 183 230 282 331
#
# _framework density 18.269221000000002
#
# number of rings (size 3 to 8) (size 9 to 14) (size 15 to 20)
#    0.000    1.833    1.667    5.000    0.000    1.333 
#    0.000    4.167    0.000   12.500    0.000    0.000 
#    0.000    0.000    0.000    0.000    0.000    0.000 
#
# Total GULP energy -134024.662319 kJ/mol
# GULP energy per Si atom -5584.360930 kJ/mol
# Density = 1.822764 g / cm^3
# Si number density = 18.269221 Si / 1000 Ang^3
#
#
#
# Elastic Constant Matrix: (Units=GPa)
#
#
# Indices 1 2 3 4 5 6 
#
# 1 119.2960 -5.1168 38.1534 0.0000 10.6017 0.0001
# 2 -5.1168 21.9352 -15.7749 0.0000 0.3008 0.0002
# 3 38.1534 -15.7749 101.3913 0.0000 15.2087 0.0000
# 4 0.0000 0.0000 0.0000 14.7088 0.0000 -0.1883
# 5 10.6017 0.3008 15.2087 0.0000 17.7167 0.0000
# 6 0.0001 0.0002 0.0000 -0.1883 0.0000 30.4222
#
#
#
# Elastic Compliance Matrix: (Units=1/GPa)
#
#
# Indices 1 2 3 4 5 6 
#
# 1 0.009671 0.000012 -0.003179 0.000000 -0.003059 0.000000
# 2 0.000012 0.052576 0.009539 0.000000 -0.009088 0.000000
# 3 -0.003179 0.009539 0.014097 0.000000 -0.010361 0.000000
# 4 0.000000 0.000000 0.000000 0.067992 0.000000 0.000421
# 5 -0.003059 -0.009088 -0.010361 0.000000 0.067324 0.000000
# 6 0.000000 0.000000 0.000000 0.000421 0.000000 0.032873
#
#
# Mechanical properties :
#
#
# Convention : Reuss Voigt Hill
#
# Bulk Modulus (GPa) = 11.22473 30.79399 21.00936
# Shear Modulus (GPa) = 19.12150 27.59356 23.35753
#
# Velocity S-wave (km/s) = 3.23871 3.89058 3.57952
# Velocity P-wave (km/s) = 4.48810 6.08888 5.34871
#
# Compressibility (1/GPa) = 0.08908897
#
# Stress axis : x y z
#
# Youngs Moduli (GPa) = 103.39679 19.02006 70.93620
#
# Poissons Ratio (x) = -0.00023 0.22548
# Poissons Ratio (y) = -0.00125 -0.67664
# Poissons Ratio (z) = 0.32866 -0.18143
#
# Static dielectric constant tensor:
#      x y z
#    x 1.629740 0.000000 0.021260 
#    y 0.000000 1.619820 0.000000 
#    z 0.021260 0.000000 1.611220 
# 
# From -- ./inp_files/313611.got.cif
#   From: 2010.05.17/outbox.cif.g08.bks.cpg/sg12_157_cif.got.tgz:313611.got - 2010.06.03 13:09:07.
