data_PCOD9207906
_publ_section_title
;
Structure prediction by ZEFSAII (Michael W. Deem and Ramdas Pophale) SiO2 
 PCOD9207906
Probable space group: C 2/M
;
_chemical_formula_sum "Si O2"
_cell_formula_units_Z 48
_cell_length_a 26.349066
_cell_length_b 12.119387
_cell_length_c 20.655681
_cell_angle_alpha 90.000000
_cell_angle_beta 19.599697
_cell_angle_gamma 90.000000
_cell_volume 2212.629893
_symmetry_space_group_name_H-M "C 2/M"
_symmetry_group_IT_number 12
_symmetry_cell_setting 'monoclinic'
loop_
_space_group_symop_operation_xyz
x,y,z
-x,y,-z
-x,-y,-z
x,-y,z
1/2+x,1/2+y,z
1/2-x,1/2+y,-z
1/2-x,1/2-y,-z
1/2+x,1/2-y,z
loop_
_atom_site_type_symbol
_atom_site_label
_atom_site_fract_x
_atom_site_fract_y
_atom_site_fract_z
Si Si1 0.149134 0.833562 0.714084
Si Si2 0.513902 0.622320 0.405233
Si Si3 0.809562 0.697836 0.994742
Si Si4 0.316483 0.617475 0.094208
Si Si5 0.879686 0.621027 0.328463
Si Si6 0.108337 0.627774 0.467125
O O1 0.134369 0.704565 0.714189
O O2 0.226434 0.876578 0.554796
O O3 0.259717 0.865523 0.638313
O O4 0.981074 0.875366 0.928873
O O5 0.500000 0.627147 0.500000
O O6 0.442809 0.500000 0.472395
O O7 0.684066 0.616141 0.173483
O O8 0.465691 0.747733 0.439378
O O9 0.812428 0.791926 0.045124
O O10 0.750000 0.750000 0.000000
O O11 0.981391 0.652789 0.790175
O O12 0.303321 0.500000 0.077032
O O13 0.185166 0.628417 0.304177
O O14 0.910377 0.500000 0.266804
O O15 0.040355 0.500000 0.555915
#
# Coordination Sequence:
#
# PCOD9207906 Si02
#       6
#     8   8   8   8   8   8
#     4  10  21  37  60  91 122 158 203 256 319 377
#     4  11  24  43  64  90 130 173 213 262 318 377
#     4  11  23  40  62  91 124 167 218 263 317 379
#     4  10  21  37  60  90 123 157 202 261 317 374
#     4  10  21  38  59  85 123 163 205 258 315 381
#     4  11  22  39  65  94 124 163 211 263 317 379
#
# _framework density 21.693642000000001
#
# number of rings (size 3 to 8) (size 9 to 14) (size 15 to 20)
#    0.000    1.500    1.667    3.500    0.000    4.333 
#    0.000    0.000    0.000    3.000    0.000    0.000 
#    0.000    0.000    0.000    0.000    0.000    0.000 
#
# Total GULP energy -133689.581785 kJ/mol
# GULP energy per Si atom -5570.399241 kJ/mol
# Density = 2.164427 g / cm^3
# Si number density = 21.693642 Si / 1000 Ang^3
#
#
#
# Elastic Constant Matrix: (Units=GPa)
#
#
# Indices 1 2 3 4 5 6 
#
# 1 46.8081 24.5369 -2.7609 -0.0008 -2.9863 0.0000
# 2 24.5369 207.3124 22.5926 -0.0005 -16.6525 0.0001
# 3 -2.7609 22.5926 71.1621 -0.0009 -7.3589 0.0003
# 4 -0.0008 -0.0005 -0.0009 -62.4606 0.0007 -53.5918
# 5 -2.9863 -16.6525 -7.3589 0.0007 25.2513 -0.0001
# 6 0.0000 0.0001 0.0003 -53.5918 -0.0001 -30.2247
#
#
#
# Elastic Compliance Matrix: (Units=1/GPa)
#
#
# Indices 1 2 3 4 5 6 
#
# 1 0.023050 -0.002825 0.001939 0.000001 0.001428 -0.000001
# 2 -0.002825 0.005561 -0.001578 0.000000 0.002873 0.000000
# 3 0.001939 -0.001578 0.014997 0.000001 0.003559 -0.000001
# 4 0.000001 0.000000 0.000001 0.030709 -0.000001 -0.054451
# 5 0.001428 0.002873 0.003559 -0.000001 0.042703 0.000002
# 6 -0.000001 0.000000 -0.000001 -0.054451 0.000002 0.063462
#
#
# Mechanical properties :
#
#
# Convention : Reuss Voigt Hill
#
# Bulk Modulus (GPa) = 25.85332 46.00219 35.92776
# Shear Modulus (GPa) = 25.21404 5.24080 15.22742
#
# Velocity S-wave (km/s) = 3.41292 1.55598 2.65227
# Velocity P-wave (km/s) = 5.24157 4.94768 5.09674
#
# Compressibility (1/GPa) = 0.03867974
#
# Stress axis : x y z
#
# Youngs Moduli (GPa) = 43.38389 179.83306 66.68159
#
# Poissons Ratio (x) = 0.50797 -0.12928
# Poissons Ratio (y) = 0.12255 0.10522
# Poissons Ratio (z) = -0.08411 0.28376
#
# Static dielectric constant tensor:
#      x y z
#    x 1.717920 0.000000 -0.046620 
#    y 0.000000 1.864380 0.000000 
#    z -0.046620 0.000000 1.844210 
# 
# From -- ./inp_files/327943.got.cif
#   From: 2010.05.17/outbox.cif.g08.bks.cpg/sg12_164_cif.got.tgz:327943.got - 2010.06.03 13:09:07.
