data_PCOD9207952
_publ_section_title
;
Structure prediction by ZEFSAII (Michael W. Deem and Ramdas Pophale) SiO2 
 PCOD9207952
Probable space group: C 2/M
;
_chemical_formula_sum "Si O2"
_cell_formula_units_Z 56
_cell_length_a 21.568208
_cell_length_b 16.841163
_cell_length_c 9.405528
_cell_angle_alpha 90.000000
_cell_angle_beta 132.324632
_cell_angle_gamma 90.000000
_cell_volume 2525.890504
_symmetry_space_group_name_H-M "C 2/M"
_symmetry_group_IT_number 12
_symmetry_cell_setting 'monoclinic'
loop_
_space_group_symop_operation_xyz
x,y,z
-x,y,-z
-x,-y,-z
x,-y,z
1/2+x,1/2+y,z
1/2-x,1/2+y,-z
1/2-x,1/2-y,-z
1/2+x,1/2-y,z
loop_
_atom_site_type_symbol
_atom_site_label
_atom_site_fract_x
_atom_site_fract_y
_atom_site_fract_z
Si Si1 0.315682 0.676782 0.589252
Si Si2 0.756643 0.407067 0.267619
Si Si3 0.877575 0.817894 0.143064
Si Si4 0.400717 0.162082 0.330275
Si Si5 0.335069 0.914073 0.955812
Si Si6 0.359517 0.410895 0.370125
Si Si7 0.924301 0.272709 0.959564
O O1 0.250000 0.750000 0.500000
O O2 0.273174 0.607418 0.617184
O O3 0.349187 0.646416 0.489981
O O4 0.393541 0.708866 0.799440
O O5 0.753672 0.500000 0.227177
O O6 0.849445 0.371727 0.384401
O O7 0.693608 0.357009 0.067085
O O8 0.854255 0.742536 0.206068
O O9 0.908800 0.880139 0.307859
O O10 0.940811 0.775688 0.130157
O O11 0.500000 0.175429 0.500000
O O12 0.385465 0.100262 0.178626
O O13 0.355764 0.000000 0.924720
O O14 0.236635 0.913501 0.835130
O O15 0.355785 0.838820 0.890906
O O16 0.384289 0.500000 0.450893
O O17 0.000000 0.316090 0.000000
#
# Coordination Sequence:
#
# PCOD9207952 Si02
#       7
#     8   8   8   8   8   8   8
#     4  11  22  38  63  93 125 165 213 264 311 375
#     4  11  22  39  65  94 125 165 215 262 317 377
#     4  10  22  40  68  88 122 170 221 257 304 376
#     4  11  23  38  61  95 132 169 210 261 320 383
#     4  10  21  37  60  92 128 166 206 255 317 382
#     4  11  21  38  65  96 124 156 211 274 318 364
#     4  10  23  41  62  89 126 169 211 255 317 378
#
# _framework density 22.170397999999999
#
# number of rings (size 3 to 8) (size 9 to 14) (size 15 to 20)
#    0.000    1.429    2.857    2.571    2.000    6.000 
#    0.000    0.000    0.000   23.143    0.000    0.000 
#    0.000    0.000    0.000    0.000    0.000    0.000 
#
# Total GULP energy -156200.658545 kJ/mol
# GULP energy per Si atom -5578.594948 kJ/mol
# Density = 2.211994 g / cm^3
# Si number density = 22.170398 Si / 1000 Ang^3
#
#
#
# Elastic Constant Matrix: (Units=GPa)
#
#
# Indices 1 2 3 4 5 6 
#
# 1 38.7118 14.4888 10.9071 0.0000 -9.6376 0.0000
# 2 14.4888 108.1345 18.4176 0.0000 -10.8113 0.0000
# 3 10.9071 18.4176 72.9063 0.0000 -16.3148 0.0000
# 4 0.0000 0.0000 0.0000 24.5356 0.0000 -7.1949
# 5 -9.6376 -10.8113 -16.3148 0.0000 35.3442 0.0000
# 6 0.0000 0.0000 0.0000 -7.1949 0.0000 7.8982
#
#
#
# Elastic Compliance Matrix: (Units=1/GPa)
#
#
# Indices 1 2 3 4 5 6 
#
# 1 0.029050 -0.002907 -0.002273 0.000000 0.005983 0.000000
# 2 -0.002907 0.010088 -0.001785 0.000000 0.001469 0.000000
# 3 -0.002273 -0.001785 0.015887 0.000000 0.006168 0.000000
# 4 0.000000 0.000000 0.000000 0.055613 0.000000 0.050661
# 5 0.005983 0.001469 0.006168 0.000000 0.033221 0.000000
# 6 0.000000 0.000000 0.000000 0.050661 0.000000 0.172762
#
#
# Mechanical properties :
#
#
# Convention : Reuss Voigt Hill
#
# Bulk Modulus (GPa) = 24.33321 34.15330 29.24326
# Shear Modulus (GPa) = 14.52434 25.28486 19.90460
#
# Velocity S-wave (km/s) = 2.56231 3.38076 2.99958
# Velocity P-wave (km/s) = 4.44447 5.53875 5.02151
#
# Compressibility (1/GPa) = 0.04109610
#
# Stress axis : x y z
#
# Youngs Moduli (GPa) = 34.42369 99.12625 62.94309
#
# Poissons Ratio (x) = 0.28817 0.14305
# Poissons Ratio (y) = 0.10007 0.11234
# Poissons Ratio (z) = 0.07824 0.17692
#
# Static dielectric constant tensor:
#      x y z
#    x 1.832960 0.000000 -0.011480 
#    y 0.000000 1.837600 0.000000 
#    z -0.011480 0.000000 1.844050 
# 
# From -- ./inp_files/88068.got.cif
#   From: 2010.05.17/outbox.cif.g08.bks.cpg/sg12_45_cif.got.tgz:88068.got - 2010.06.03 13:09:07.
