data_PCOD9207269
_publ_section_title
;
Structure prediction by ZEFSAII (Michael W. Deem and Ramdas Pophale) SiO2 
 PCOD9207269
Probable space group: C 2/M
;
_chemical_formula_sum "Si O2"
_cell_formula_units_Z 64
_cell_length_a 14.846443
_cell_length_b 7.749516
_cell_length_c 28.304919
_cell_angle_alpha 90.000000
_cell_angle_beta 118.012321
_cell_angle_gamma 90.000000
_cell_volume 2875.041830
_symmetry_space_group_name_H-M "C 2/M"
_symmetry_group_IT_number 12
_symmetry_cell_setting 'monoclinic'
loop_
_space_group_symop_operation_xyz
x,y,z
-x,y,-z
-x,-y,-z
x,-y,z
1/2+x,1/2+y,z
1/2-x,1/2+y,-z
1/2-x,1/2-y,-z
1/2+x,1/2-y,z
loop_
_atom_site_type_symbol
_atom_site_label
_atom_site_fract_x
_atom_site_fract_y
_atom_site_fract_z
Si Si1 0.809960 0.205899 0.770915
Si Si2 0.545292 0.201260 0.113526
Si Si3 0.170843 0.711484 0.909399
Si Si4 0.671653 0.702395 0.421744
Si Si5 0.397006 0.201190 0.496482
Si Si6 0.903053 0.704841 0.699206
Si Si7 0.877074 0.710713 0.209782
Si Si8 0.388933 0.303083 0.964614
O O1 0.907312 0.279263 0.823073
O O2 0.819670 0.256251 0.718910
O O3 0.709917 0.265465 0.774599
O O4 0.813945 0.000000 0.775245
O O5 0.428067 0.262127 0.084919
O O6 0.613770 0.303484 0.093283
O O7 0.548678 0.000000 0.101987
O O8 0.174343 0.500000 0.910718
O O9 0.149406 0.766239 0.850076
O O10 0.281516 0.776269 0.953277
O O11 0.676272 0.500000 0.434755
O O12 0.606406 0.786616 0.447598
O O13 0.787647 0.774033 0.452694
O O14 0.626154 0.723005 0.358775
O O15 0.500000 0.278415 0.500000
O O16 0.395566 0.000000 0.481764
O O17 0.911555 0.500000 0.696196
O O18 0.012018 0.770257 0.745538
O O19 0.878385 0.500000 0.209062
O O20 0.393858 0.500000 0.983093
O O21 0.500000 0.219817 0.000000
#
# Coordination Sequence:
#
# PCOD9207269 Si02
#       8
#     8   8   8   8   8   8   8   8
#     4  11  21  36  58  82 108 143 188 232 272 322
#     4  11  21  35  57  81 109 143 179 221 276 336
#     4   9  17  34  56  78 107 143 178 216 274 336
#     4  10  21  37  57  86 119 148 186 238 283 320
#     4   9  19  38  63  85 111 153 197 229 274 338
#     4  11  22  38  57  81 115 152 188 226 278 337
#     4   9  18  34  56  77 105 147 185 218 270 335
#     4  10  21  38  59  81 107 142 184 229 276 329
#
# _framework density 22.260548
#
# number of rings (size 3 to 8) (size 9 to 14) (size 15 to 20)
#    0.000    2.000    2.500    1.500    0.000    2.500 
#    0.000   10.000    0.000    0.000    0.000    0.000 
#    0.000    0.000    0.000    0.000    0.000    0.000 
#
# Total GULP energy -178780.560659 kJ/mol
# GULP energy per Si atom -5586.892521 kJ/mol
# Density = 2.220988 g / cm^3
# Si number density = 22.260548 Si / 1000 Ang^3
#
#
#
# Elastic Constant Matrix: (Units=GPa)
#
#
# Indices 1 2 3 4 5 6 
#
# 1 140.8806 3.9342 20.8185 0.0000 1.9752 0.0000
# 2 3.9342 46.6790 1.1307 0.0000 7.0623 0.0000
# 3 20.8185 1.1307 79.7252 0.0000 -5.5858 0.0000
# 4 0.0000 0.0000 0.0000 25.2371 0.0000 -8.3617
# 5 1.9752 7.0623 -5.5858 0.0000 18.8737 0.0000
# 6 0.0000 0.0000 0.0000 -8.3617 0.0000 14.0097
#
#
#
# Elastic Compliance Matrix: (Units=1/GPa)
#
#
# Indices 1 2 3 4 5 6 
#
# 1 0.007425 -0.000391 -0.002019 0.000000 -0.001228 0.000000
# 2 -0.000391 0.022798 -0.000833 0.000000 -0.008736 0.000000
# 3 -0.002019 -0.000833 0.013397 0.000000 0.004488 0.000000
# 4 0.000000 0.000000 0.000000 0.049391 0.000000 0.029479
# 5 -0.001228 -0.008736 0.004488 0.000000 0.057710 0.000000
# 6 0.000000 0.000000 0.000000 0.029479 0.000000 0.088974
#
#
# Mechanical properties :
#
#
# Convention : Reuss Voigt Hill
#
# Bulk Modulus (GPa) = 26.93106 35.45021 31.19064
# Shear Modulus (GPa) = 19.33794 27.71753 23.52774
#
# Velocity S-wave (km/s) = 2.95058 3.53248 3.25457
# Velocity P-wave (km/s) = 4.87158 5.70943 5.30707
#
# Compressibility (1/GPa) = 0.03713184
#
# Stress axis : x y z
#
# Youngs Moduli (GPa) = 134.68453 43.86388 74.64559
#
# Poissons Ratio (x) = 0.01715 0.15073
# Poissons Ratio (y) = 0.05266 0.06220
# Poissons Ratio (z) = 0.27197 0.03655
#
# Static dielectric constant tensor:
#      x y z
#    x 1.834350 0.000000 0.021850 
#    y 0.000000 1.825850 0.000000 
#    z 0.021850 0.000000 1.823140 
# 
# From -- ./inp_files/375094.got.cif
#   From: 2010.05.17/outbox.cif.g08.bks.cpg/sg12_188_cif.got.tgz:375094.got - 2010.06.03 13:09:07.
