data_PCOD9207242
_publ_section_title
;
Structure prediction by ZEFSAII (Michael W. Deem and Ramdas Pophale) SiO2 
 PCOD9207242
Probable space group: C 2/M
;
_chemical_formula_sum "Si O2"
_cell_formula_units_Z 64
_cell_length_a 18.300665
_cell_length_b 24.298208
_cell_length_c 14.904953
_cell_angle_alpha 90.000000
_cell_angle_beta 149.700871
_cell_angle_gamma 90.000000
_cell_volume 3343.839155
_symmetry_space_group_name_H-M "C 2/M"
_symmetry_group_IT_number 12
_symmetry_cell_setting 'monoclinic'
loop_
_space_group_symop_operation_xyz
x,y,z
-x,y,-z
-x,-y,-z
x,-y,z
1/2+x,1/2+y,z
1/2-x,1/2+y,-z
1/2-x,1/2-y,-z
1/2+x,1/2-y,z
loop_
_atom_site_type_symbol
_atom_site_label
_atom_site_fract_x
_atom_site_fract_y
_atom_site_fract_z
Si Si1 0.752076 0.618267 0.461679
Si Si2 0.001965 0.191018 0.894910
Si Si3 0.005214 0.563105 0.397942
Si Si4 0.495008 0.188753 0.177565
Si Si5 0.631065 0.096207 0.085580
Si Si6 0.729901 0.149189 0.924258
Si Si7 0.833999 0.936823 0.444907
Si Si8 0.846165 0.940550 0.171600
O O1 0.617281 0.649494 0.273223
O O2 0.700644 0.579868 0.489496
O O3 0.844672 0.584200 0.486487
O O4 0.866419 0.660652 0.628473
O O5 0.969264 0.251824 0.822958
O O6 0.000000 0.189327 0.000000
O O7 0.164890 0.177094 0.035035
O O8 0.979285 0.500000 0.341064
O O9 0.882306 0.604972 0.234607
O O10 0.000000 0.564230 0.500000
O O11 0.366570 0.189158 0.115856
O O12 0.435113 0.149506 0.034137
O O13 0.753066 0.103670 0.290795
O O14 0.707304 0.062030 0.088441
O O15 0.500000 0.068838 0.000000
O O16 0.833526 0.112082 0.096011
O O17 0.006362 0.935489 0.616730
O O18 0.787159 0.000000 0.378085
O O19 0.851635 0.000000 0.130349
#
# Coordination Sequence:
#
# PCOD9207242 Si02
#       8
#     8   8   8   8   8   8   8   8
#     4  11  22  41  62  89 122 161 205 252 309 365
#     4  12  24  40  65  90 118 158 209 264 313 351
#     4  10  21  39  62  88 122 158 201 253 308 363
#     4  10  23  42  63  86 123 162 206 253 307 366
#     4  11  21  37  58  90 124 158 200 250 295 367
#     4  10  21  40  62  87 119 160 202 251 305 369
#     4  11  22  37  59  87 128 163 197 243 302 372
#     4  10  21  37  57  84 123 163 196 239 302 370
#
# _framework density 19.139676000000001
#
# number of rings (size 3 to 8) (size 9 to 14) (size 15 to 20)
#    0.000    1.375    2.500    3.375    0.000    2.000 
#    0.000    0.000    0.000    3.000    0.000    0.000 
#    0.000    0.000    0.000    0.000    0.000    0.000 
#
# Total GULP energy -178594.361262 kJ/mol
# GULP energy per Si atom -5581.073789 kJ/mol
# Density = 1.909611 g / cm^3
# Si number density = 19.139676 Si / 1000 Ang^3
#
#
#
# Elastic Constant Matrix: (Units=GPa)
#
#
# Indices 1 2 3 4 5 6 
#
# 1 105.3969 20.9101 14.3533 0.0000 2.2706 0.0000
# 2 20.9101 51.7693 14.4160 0.0000 -2.4333 0.0000
# 3 14.3533 14.4160 66.3048 0.0000 3.0974 0.0000
# 4 0.0000 0.0000 0.0000 20.6174 0.0000 0.1523
# 5 2.2706 -2.4333 3.0974 0.0000 33.4074 0.0000
# 6 0.0000 0.0000 0.0000 0.1523 0.0000 19.8283
#
#
#
# Elastic Compliance Matrix: (Units=1/GPa)
#
#
# Indices 1 2 3 4 5 6 
#
# 1 0.010465 -0.003883 -0.001381 0.000000 -0.000866 0.000000
# 2 -0.003883 0.022126 -0.004075 0.000000 0.002253 0.000000
# 3 -0.001381 -0.004075 0.016347 0.000000 -0.001719 0.000000
# 4 0.000000 0.000000 0.000000 0.048506 0.000000 -0.000373
# 5 -0.000866 0.002253 -0.001719 0.000000 0.030316 0.000000
# 6 0.000000 0.000000 0.000000 -0.000373 0.000000 0.050436
#
#
# Mechanical properties :
#
#
# Convention : Reuss Voigt Hill
#
# Bulk Modulus (GPa) = 33.04733 35.86997 34.45865
# Shear Modulus (GPa) = 24.15930 26.35671 25.25801
#
# Velocity S-wave (km/s) = 3.55669 3.71492 3.63666
# Velocity P-wave (km/s) = 5.84556 6.09776 5.97299
#
# Compressibility (1/GPa) = 0.03025963
#
# Stress axis : x y z
#
# Youngs Moduli (GPa) = 95.55639 45.19643 61.17312
#
# Poissons Ratio (x) = 0.17551 0.08446
# Poissons Ratio (y) = 0.37106 0.24929
# Poissons Ratio (z) = 0.13193 0.18418
#
# Static dielectric constant tensor:
#      x y z
#    x 1.675820 0.000000 0.000600 
#    y 0.000000 1.644780 0.000000 
#    z 0.000600 0.000000 1.672630 
# 
# From -- ./inp_files/228180.got.cif
#   From: 2010.05.17/outbox.cif.g08.bks.cpg/sg12_115_cif.got.tgz:228180.got - 2010.06.03 13:09:07.
