data_PCOD9207909
_publ_section_title
;
Structure prediction by ZEFSAII (Michael W. Deem and Ramdas Pophale) SiO2 
 PCOD9207909
Probable space group: C 2/M
;
_chemical_formula_sum "Si O2"
_cell_formula_units_Z 64
_cell_length_a 14.594322
_cell_length_b 18.712147
_cell_length_c 23.719848
_cell_angle_alpha 90.000000
_cell_angle_beta 27.163889
_cell_angle_gamma 90.000000
_cell_volume 2957.302088
_symmetry_space_group_name_H-M "C 2/M"
_symmetry_group_IT_number 12
_symmetry_cell_setting 'monoclinic'
loop_
_space_group_symop_operation_xyz
x,y,z
-x,y,-z
-x,-y,-z
x,-y,z
1/2+x,1/2+y,z
1/2-x,1/2+y,-z
1/2-x,1/2-y,-z
1/2+x,1/2-y,z
loop_
_atom_site_type_symbol
_atom_site_label
_atom_site_fract_x
_atom_site_fract_y
_atom_site_fract_z
Si Si1 0.624282 0.581619 0.198319
Si Si2 0.004109 0.776705 0.237607
Si Si3 0.930413 0.215459 0.974820
Si Si4 0.275631 0.417179 0.989232
Si Si5 0.624470 0.079766 0.838347
Si Si6 0.626523 0.817929 0.591469
Si Si7 0.003821 0.118516 0.563305
Si Si8 0.705723 0.231666 0.300156
O O1 0.566464 0.500000 0.244709
O O2 0.490647 0.651176 0.282245
O O3 0.816928 0.601730 0.130779
O O4 0.653077 0.583063 0.115129
O O5 0.224900 0.761967 0.089790
O O6 0.963641 0.709728 0.299901
O O7 0.834201 0.787615 0.284181
O O8 0.888897 0.141149 0.964779
O O9 0.000000 0.201378 0.000000
O O10 0.122410 0.251689 0.839527
O O11 0.291031 0.500000 0.001451
O O12 0.045513 0.389789 0.109429
O O13 0.834426 0.078557 0.691119
O O14 0.542268 0.000000 0.891996
O O15 0.750000 0.750000 0.500000
O O16 0.442814 0.825513 0.647932
O O17 0.780380 0.880506 0.524171
O O18 0.925469 0.200380 0.610122
O O19 0.000000 0.096832 0.500000
#
# Coordination Sequence:
#
# PCOD9207909 Si02
#       8
#     8   8   8   8   8   8   8   8
#     4  10  21  37  60  90 124 158 194 239 299 366
#     4  12  22  37  62  91 123 157 196 253 303 363
#     4  12  25  38  61  93 122 154 202 255 308 364
#     4  10  22  40  61  88 125 163 197 238 304 376
#     4  10  22  39  61  89 121 160 202 246 298 361
#     4  10  22  38  57  87 117 157 199 243 302 357
#     4  11  22  38  62  85 121 158 203 254 301 355
#     4  11  22  39  56  86 122 154 193 247 306 358
#
# _framework density 21.641345999999999
#
# number of rings (size 3 to 8) (size 9 to 14) (size 15 to 20)
#    0.000    1.250    3.750    3.000    1.750    2.000 
#    0.000    0.000    0.000    1.500    0.000   10.500 
#    0.000    0.000    0.000    0.000    0.000    0.000 
#
# Total GULP energy -178481.494445 kJ/mol
# GULP energy per Si atom -5577.546701 kJ/mol
# Density = 2.159209 g / cm^3
# Si number density = 21.641346 Si / 1000 Ang^3
#
#
#
# Elastic Constant Matrix: (Units=GPa)
#
#
# Indices 1 2 3 4 5 6 
#
# 1 148.9846 20.6402 14.8708 0.0082 -15.9862 -0.0018
# 2 20.6402 66.5418 -9.5441 -0.0013 -5.9268 -0.0017
# 3 14.8708 -9.5441 41.3930 0.0112 -5.4438 -0.0033
# 4 0.0082 -0.0013 0.0112 24.8811 -0.0139 -3.4256
# 5 -15.9862 -5.9268 -5.4438 -0.0139 39.0471 -0.0049
# 6 -0.0018 -0.0017 -0.0033 -3.4256 -0.0049 7.8045
#
#
#
# Elastic Compliance Matrix: (Units=1/GPa)
#
#
# Indices 1 2 3 4 5 6 
#
# 1 0.007621 -0.002594 -0.003033 0.000000 0.002304 0.000001
# 2 -0.002594 0.016757 0.005084 0.000002 0.002190 0.000007
# 3 -0.003033 0.005084 0.026851 -0.000007 0.003273 0.000011
# 4 0.000000 0.000002 -0.000007 0.042776 0.000017 0.018775
# 5 0.002304 0.002190 0.003273 0.000017 0.027342 0.000027
# 6 0.000001 0.000007 0.000011 0.018775 0.000027 0.136371
#
#
# Mechanical properties :
#
#
# Convention : Reuss Voigt Hill
#
# Bulk Modulus (GPa) = 19.94315 34.31701 27.13008
# Shear Modulus (GPa) = 18.14752 29.74338 23.94545
#
# Velocity S-wave (km/s) = 2.89893 3.71128 3.32997
# Velocity P-wave (km/s) = 4.52110 5.85290 5.22957
#
# Compressibility (1/GPa) = 0.05014252
#
# Stress axis : x y z
#
# Youngs Moduli (GPa) = 131.20955 59.67666 37.24252
#
# Poissons Ratio (x) = 0.15480 0.11296
# Poissons Ratio (y) = 0.34034 -0.18933
# Poissons Ratio (z) = 0.39798 -0.30337
#
# Static dielectric constant tensor:
#      x y z
#    x 1.823870 0.000000 -0.013390 
#    y 0.000000 1.828710 0.000010 
#    z -0.013390 0.000010 1.858280 
# 
# From -- ./inp_files/340810.got.cif
#   From: 2010.05.17/outbox.cif.g08.bks.cpg/sg12_171_cif.got.tgz:340810.got - 2010.06.03 13:09:07.
