data_PCOD9207811
_publ_section_title
;
Structure prediction by ZEFSAII (Michael W. Deem and Ramdas Pophale) SiO2 
 PCOD9207811
Probable space group: C 2/M
;
_chemical_formula_sum "Si O2"
_cell_formula_units_Z 40
_cell_length_a 27.271823
_cell_length_b 10.241465
_cell_length_c 7.000870
_cell_angle_alpha 90.000000
_cell_angle_beta 77.398340
_cell_angle_gamma 90.000000
_cell_volume 1908.263013
_symmetry_space_group_name_H-M "C 2/M"
_symmetry_group_IT_number 12
_symmetry_cell_setting 'monoclinic'
loop_
_space_group_symop_operation_xyz
x,y,z
-x,y,-z
-x,-y,-z
x,-y,z
1/2+x,1/2+y,z
1/2-x,1/2+y,-z
1/2-x,1/2-y,-z
1/2+x,1/2-y,z
loop_
_atom_site_type_symbol
_atom_site_label
_atom_site_fract_x
_atom_site_fract_y
_atom_site_fract_z
Si Si1 0.689118 0.859188 0.606802
Si Si2 0.905401 0.345696 0.081744
Si Si3 0.553331 0.849743 0.554009
Si Si4 0.606118 0.650509 0.249018
Si Si5 0.219800 0.792463 0.213302
O O1 0.646352 0.793857 0.772675
O O2 0.739342 0.865280 0.690410
O O3 0.702868 0.814528 0.383721
O O4 0.665910 0.000000 0.602286
O O5 0.900485 0.500000 0.022212
O O6 0.946137 0.343275 0.216577
O O7 0.913363 0.244054 0.904934
O O8 0.500000 0.828303 0.500000
O O9 0.589147 0.734863 0.447021
O O10 0.568075 0.000000 0.490684
O O11 0.588053 0.500000 0.261083
O O12 0.667023 0.645885 0.196468
O O13 0.250000 0.750000 0.000000
#
# Coordination Sequence:
#
# PCOD9207811 Si02
#       5
#     8   8   8   8   8
#     4  10  21  37  60  86 119 164 218 262 297 355
#     4  10  21  41  66  92 121 163 215 263 307 365
#     4  10  23  46  72  94 119 160 215 269 317 368
#     4  12  25  40  62  97 135 168 203 253 320 382
#     4  11  22  39  56  89 129 170 210 247 305 372
#
# _framework density 20.961471
#
# number of rings (size 3 to 8) (size 9 to 14) (size 15 to 20)
#    0.000    1.400    4.000    1.200    0.000    4.400 
#    0.000    4.000    0.000    0.000    0.000    0.000 
#    0.000    0.000    0.000    0.000    0.000    0.000 
#
# Total GULP energy -111335.394631 kJ/mol
# GULP energy per Si atom -5566.769732 kJ/mol
# Density = 2.091376 g / cm^3
# Si number density = 20.961471 Si / 1000 Ang^3
#
#
#
# Elastic Constant Matrix: (Units=GPa)
#
#
# Indices 1 2 3 4 5 6 
#
# 1 96.4608 13.7357 -6.1176 0.0000 26.5425 0.0000
# 2 13.7357 122.6416 59.4913 0.0000 2.7222 0.0000
# 3 -6.1176 59.4913 110.0057 0.0000 14.9047 0.0000
# 4 0.0000 0.0000 0.0000 -28.0953 0.0000 -31.7450
# 5 26.5425 2.7222 14.9047 0.0000 31.1527 0.0000
# 6 0.0000 0.0000 0.0000 -31.7450 0.0000 -6.1636
#
#
#
# Elastic Compliance Matrix: (Units=1/GPa)
#
#
# Indices 1 2 3 4 5 6 
#
# 1 0.015392 -0.003794 0.004962 0.000000 -0.015157 0.000000
# 2 -0.003794 0.012110 -0.007544 0.000000 0.005784 0.000000
# 3 0.004962 -0.007544 0.014895 0.000000 -0.010694 0.000000
# 4 0.000000 0.000000 0.000000 0.007385 0.000000 -0.038037
# 5 -0.015157 0.005784 -0.010694 0.000000 0.049625 0.000000
# 6 0.000000 0.000000 0.000000 -0.038037 0.000000 0.033664
#
#
# Mechanical properties :
#
#
# Convention : Reuss Voigt Hill
#
# Bulk Modulus (GPa) = 33.73312 51.48078 42.60695
# Shear Modulus (GPa) = 32.11189 16.84533 24.47861
#
# Velocity S-wave (km/s) = 3.91826 2.83792 3.42100
# Velocity P-wave (km/s) = 6.04964 5.94570 5.99790
#
# Compressibility (1/GPa) = 0.02964445
#
# Stress axis : x y z
#
# Youngs Moduli (GPa) = 64.96689 82.57869 67.13701
#
# Poissons Ratio (x) = 0.31332 -0.33310
# Poissons Ratio (y) = 0.24650 0.50645
# Poissons Ratio (z) = -0.32234 0.62294
#
# Static dielectric constant tensor:
#      x y z
#    x 1.801960 0.000000 -0.007550 
#    y 0.000000 1.765300 0.000000 
#    z -0.007550 0.000000 1.759870 
# 
# From -- ./inp_files/30598.got.cif
#   From: 2010.05.17/outbox.cif.g08.bks.cpg/sg12_16_cif.got.tgz:30598.got - 2010.06.03 13:09:07.
