data_PCOD9207542
_publ_section_title
;
Structure prediction by ZEFSAII (Michael W. Deem and Ramdas Pophale) SiO2 
 PCOD9207542
Probable space group: C 2/M
;
_chemical_formula_sum "Si O2"
_cell_formula_units_Z 40
_cell_length_a 27.602225
_cell_length_b 7.647202
_cell_length_c 19.410589
_cell_angle_alpha 90.000000
_cell_angle_beta 29.751547
_cell_angle_gamma 90.000000
_cell_volume 2033.185894
_symmetry_space_group_name_H-M "C 2/M"
_symmetry_group_IT_number 12
_symmetry_cell_setting 'monoclinic'
loop_
_space_group_symop_operation_xyz
x,y,z
-x,y,-z
-x,-y,-z
x,-y,z
1/2+x,1/2+y,z
1/2-x,1/2+y,-z
1/2-x,1/2-y,-z
1/2+x,1/2-y,z
loop_
_atom_site_type_symbol
_atom_site_label
_atom_site_fract_x
_atom_site_fract_y
_atom_site_fract_z
Si Si1 0.007228 0.798217 0.840361
Si Si2 0.379479 0.710400 0.437489
Si Si3 0.667027 0.790379 0.748733
Si Si4 0.657859 0.000000 0.273321
Si Si5 0.798794 0.301676 0.136366
Si Si6 0.537915 0.000000 0.564427
O O1 0.075194 0.744725 0.692540
O O2 0.071626 0.781515 0.829607
O O3 0.980836 0.000000 0.862759
O O4 0.905982 0.697901 0.970864
O O5 0.389300 0.500000 0.436883
O O6 0.264603 0.753148 0.585487
O O7 0.433567 0.828347 0.427177
O O8 0.684829 0.735064 0.805388
O O9 0.655971 0.000000 0.763623
O O10 0.726149 0.170618 0.188259
O O11 0.601059 0.000000 0.416518
O O12 0.575172 0.000000 0.317289
O O13 0.760210 0.500000 0.187170
#
# Coordination Sequence:
#
# PCOD9207542 Si02
#       6
#     8   8   8   4   8   4
#     4  11  23  36  61  92 130 166 206 243 302 369
#     4  10  23  41  60  92 128 161 204 254 301 369
#     4  10  21  37  58  91 125 169 205 240 302 371
#     4  11  24  44  66  99 110 154 217 259 307 369
#     4  11  23  41  62  89 130 162 201 258 305 361
#     4  11  24  42  73  88 118 157 205 265 315 353
#
# _framework density 19.673559000000001
#
# number of rings (size 3 to 8) (size 9 to 14) (size 15 to 20)
#    0.000    1.400    3.000    1.800    5.600    3.200 
#    0.000    3.000    0.000    0.000    0.000    0.000 
#    0.000    0.000    0.000    0.000    0.000    0.000 
#
# Total GULP energy -111784.385066 kJ/mol
# GULP energy per Si atom -5589.219253 kJ/mol
# Density = 1.962878 g / cm^3
# Si number density = 19.673559 Si / 1000 Ang^3
#
#
#
# Elastic Constant Matrix: (Units=GPa)
#
#
# Indices 1 2 3 4 5 6 
#
# 1 51.7734 21.1985 9.1876 0.0152 -29.6536 -0.0062
# 2 21.1985 67.5364 18.6170 0.0221 -20.2563 -0.0149
# 3 9.1876 18.6170 82.2510 0.0266 -16.2087 -0.0139
# 4 0.0152 0.0221 0.0266 2.6980 -0.0014 20.8479
# 5 -29.6536 -20.2563 -16.2087 -0.0014 36.6839 0.0011
# 6 -0.0062 -0.0149 -0.0139 20.8479 0.0011 -0.6093
#
#
#
# Elastic Compliance Matrix: (Units=1/GPa)
#
#
# Indices 1 2 3 4 5 6 
#
# 1 0.036923 -0.003570 0.002385 0.000008 0.028929 -0.000025
# 2 -0.003570 0.018492 -0.002567 0.000010 0.006191 -0.000015
# 3 0.002385 -0.002567 0.013772 0.000007 0.006595 -0.000017
# 4 0.000008 0.000010 0.000007 0.001397 0.000013 0.047786
# 5 0.028929 0.006191 0.006595 0.000013 0.056977 -0.000034
# 6 -0.000025 -0.000015 -0.000017 0.047786 -0.000034 -0.006184
#
#
# Mechanical properties :
#
#
# Convention : Reuss Voigt Hill
#
# Bulk Modulus (GPa) = 16.21210 33.28523 24.74867
# Shear Modulus (GPa) = 33.45778 17.92503 25.69140
#
# Velocity S-wave (km/s) = 4.12836 3.02176 3.61762
# Velocity P-wave (km/s) = 5.56623 5.39724 5.48239
#
# Compressibility (1/GPa) = 0.06168231
#
# Stress axis : x y z
#
# Youngs Moduli (GPa) = 27.08356 54.07808 72.60985
#
# Poissons Ratio (x) = 0.19306 -0.17314
# Poissons Ratio (y) = 0.09669 0.18637
# Poissons Ratio (z) = -0.06458 0.13880
#
# Static dielectric constant tensor:
#      x y z
#    x 1.648770 0.000000 0.026960 
#    y 0.000000 1.704240 0.000000 
#    z 0.026960 0.000000 1.697840 
# 
# From -- ./inp_files/151761.got.cif
#   From: 2010.05.17/outbox.cif.g08.bks.cpg/sg12_76_cif.got.tgz:151761.got - 2010.06.03 13:09:07.
