data_PCOD9207346
_publ_section_title
;
Structure prediction by ZEFSAII (Michael W. Deem and Ramdas Pophale) SiO2 
 PCOD9207346
Probable space group: C 2/M
;
_chemical_formula_sum "Si O2"
_cell_formula_units_Z 56
_cell_length_a 12.394370
_cell_length_b 14.456976
_cell_length_c 16.038622
_cell_angle_alpha 90.000000
_cell_angle_beta 113.442657
_cell_angle_gamma 90.000000
_cell_volume 2636.668244
_symmetry_space_group_name_H-M "C 2/M"
_symmetry_group_IT_number 12
_symmetry_cell_setting 'monoclinic'
loop_
_space_group_symop_operation_xyz
x,y,z
-x,y,-z
-x,-y,-z
x,-y,z
1/2+x,1/2+y,z
1/2-x,1/2+y,-z
1/2-x,1/2-y,-z
1/2+x,1/2-y,z
loop_
_atom_site_type_symbol
_atom_site_label
_atom_site_fract_x
_atom_site_fract_y
_atom_site_fract_z
Si Si1 0.075412 0.676389 0.172860
Si Si2 0.240496 0.396133 0.100516
Si Si3 0.329339 0.107725 0.100312
Si Si4 0.633712 0.112859 0.505752
Si Si5 0.837707 0.758219 0.636483
Si Si6 0.420032 0.631036 0.898703
Si Si7 0.523675 0.604214 0.750783
O O1 0.134423 0.600922 0.132571
O O2 0.159451 0.710434 0.272279
O O3 0.059602 0.760580 0.104841
O O4 0.949073 0.650950 0.169792
O O5 0.282019 0.500000 0.093057
O O6 0.350881 0.353821 0.182867
O O7 0.204735 0.353175 0.001615
O O8 0.215483 0.115016 0.122387
O O9 0.356389 0.000000 0.095946
O O10 0.500000 0.120199 0.500000
O O11 0.727488 0.171657 0.590429
O O12 0.648434 0.173862 0.425125
O O13 0.658579 0.000000 0.506580
O O14 0.950852 0.826596 0.670605
O O15 0.455436 0.596405 0.818270
O O16 0.500000 0.597562 0.000000
O O17 0.536571 0.500000 0.719753
#
# Coordination Sequence:
#
# PCOD9207346 Si02
#       7
#     8   8   8   8   8   8   8
#     4  11  25  37  58  90 129 168 207 266 320 375
#     4  10  21  37  58  83 125 178 223 265 312 363
#     4  11  23  39  59  85 126 177 230 273 309 358
#     4  10  23  46  76  99 124 160 199 252 322 400
#     4  10  24  42  66  99 131 158 200 260 319 392
#     4  11  22  35  58  85 123 171 227 276 313 357
#     4  10  21  37  61  92 129 173 218 268 317 368
#
# _framework density 21.238924999999998
#
# number of rings (size 3 to 8) (size 9 to 14) (size 15 to 20)
#    0.000    1.571    1.429    2.571    6.000    5.143 
#    0.000    2.857    0.000    2.143    0.000    0.000 
#    0.000    0.000    0.000    0.000    0.000    0.000 
#
# Total GULP energy -156114.399252 kJ/mol
# GULP energy per Si atom -5575.514259 kJ/mol
# Density = 2.119058 g / cm^3
# Si number density = 21.238925 Si / 1000 Ang^3
#
#
#
# Elastic Constant Matrix: (Units=GPa)
#
#
# Indices 1 2 3 4 5 6 
#
# 1 106.4633 31.1848 30.4959 0.0000 13.7022 0.0000
# 2 31.1848 128.1257 38.0865 0.0000 6.1890 0.0000
# 3 30.4959 38.0865 80.1538 0.0000 16.0864 0.0000
# 4 0.0000 0.0000 0.0000 9.0631 0.0000 5.5071
# 5 13.7022 6.1890 16.0864 0.0000 24.6021 0.0000
# 6 0.0000 0.0000 0.0000 5.5071 0.0000 19.4100
#
#
#
# Elastic Compliance Matrix: (Units=1/GPa)
#
#
# Indices 1 2 3 4 5 6 
#
# 1 0.011176 -0.001750 -0.002601 0.000000 -0.004084 0.000000
# 2 -0.001750 0.009371 -0.004040 0.000000 0.001258 0.000000
# 3 -0.002601 -0.004040 0.017140 0.000000 -0.008742 0.000000
# 4 0.000000 0.000000 0.000000 0.133322 0.000000 -0.037827
# 5 -0.004084 0.001258 -0.008742 0.000000 0.048321 0.000000
# 6 0.000000 0.000000 0.000000 -0.037827 0.000000 0.062252
#
#
# Mechanical properties :
#
#
# Convention : Reuss Voigt Hill
#
# Bulk Modulus (GPa) = 47.83412 57.14189 52.48801
# Shear Modulus (GPa) = 16.37568 24.94675 20.66122
#
# Velocity S-wave (km/s) = 2.77974 3.43093 3.12236
# Velocity P-wave (km/s) = 5.73353 6.53129 6.14537
#
# Compressibility (1/GPa) = 0.02090558
#
# Stress axis : x y z
#
# Youngs Moduli (GPa) = 89.47678 106.71571 58.34438
#
# Poissons Ratio (x) = 0.18672 0.15177
# Poissons Ratio (y) = 0.15656 0.23568
# Poissons Ratio (z) = 0.23275 0.43108
#
# Static dielectric constant tensor:
#      x y z
#    x 1.765900 0.000000 0.038260 
#    y 0.000000 1.777590 0.000000 
#    z 0.038260 0.000000 1.785960 
# 
# From -- ./inp_files/263416.got.cif
#   From: 2010.05.17/outbox.cif.g08.bks.cpg/sg12_132_cif.got.tgz:263416.got - 2010.06.03 13:09:07.
