data_PCOD9207633
_publ_section_title
;
Structure prediction by ZEFSAII (Michael W. Deem and Ramdas Pophale) SiO2 
 PCOD9207633
Probable space group: C 2/M
;
_chemical_formula_sum "Si O2"
_cell_formula_units_Z 56
_cell_length_a 12.817137
_cell_length_b 14.720434
_cell_length_c 33.584147
_cell_angle_alpha 90.000000
_cell_angle_beta 24.446266
_cell_angle_gamma 90.000000
_cell_volume 2622.274059
_symmetry_space_group_name_H-M "C 2/M"
_symmetry_group_IT_number 12
_symmetry_cell_setting 'monoclinic'
loop_
_space_group_symop_operation_xyz
x,y,z
-x,y,-z
-x,-y,-z
x,-y,z
1/2+x,1/2+y,z
1/2-x,1/2+y,-z
1/2-x,1/2-y,-z
1/2+x,1/2-y,z
loop_
_atom_site_type_symbol
_atom_site_label
_atom_site_fract_x
_atom_site_fract_y
_atom_site_fract_z
Si Si1 0.766595 0.899047 0.611662
Si Si2 0.011045 0.782195 0.685866
Si Si3 0.915412 0.107434 0.932537
Si Si4 0.493965 0.605209 0.813627
Si Si5 0.361695 0.098547 0.614392
Si Si6 0.100306 0.161723 0.567976
Si Si7 0.385239 0.208756 0.107946
O O1 0.570578 0.823964 0.666490
O O2 0.000000 0.897761 0.500000
O O3 0.890159 0.872490 0.610774
O O4 0.657476 0.000000 0.650525
O O5 0.259281 0.828143 0.619138
O O6 0.981571 0.817075 0.651732
O O7 0.784985 0.806408 0.793692
O O8 0.028386 0.116038 0.848621
O O9 0.045249 0.183817 0.915563
O O10 0.924995 0.000000 0.940498
O O11 0.631004 0.145768 0.026362
O O12 0.409887 0.500000 0.836638
O O13 0.738955 0.617799 0.700347
O O14 0.284008 0.674417 0.869978
O O15 0.661180 0.095892 0.511410
O O16 0.262727 0.000000 0.636050
O O17 0.250000 0.250000 0.500000
#
# Coordination Sequence:
#
# PCOD9207633 Si02
#       7
#     8   8   8   8   8   8   8
#     4  11  23  39  58  83 115 154 196 240 284 332
#     4  11  23  39  58  84 119 153 193 237 290 342
#     4  10  21  39  63  89 114 147 193 240 291 348
#     4   9  19  37  63  89 114 148 195 244 288 338
#     4  10  21  37  59  87 115 150 197 243 286 338
#     4  12  22  37  58  81 117 159 192 234 280 340
#     4  10  22  36  61  89 117 149 188 242 292 343
#
# _framework density 21.355508
#
# number of rings (size 3 to 8) (size 9 to 14) (size 15 to 20)
#    0.000    1.571    2.857    1.714    2.000    4.000 
#    0.000    0.000    0.000    7.714    0.000    0.000 
#    0.000    0.000    0.000    0.000    0.000    0.000 
#
# Total GULP energy -156512.760770 kJ/mol
# GULP energy per Si atom -5589.741456 kJ/mol
# Density = 2.130690 g / cm^3
# Si number density = 21.355508 Si / 1000 Ang^3
#
#
#
# Elastic Constant Matrix: (Units=GPa)
#
#
# Indices 1 2 3 4 5 6 
#
# 1 68.7488 52.8374 19.9019 -0.0387 3.0752 0.0175
# 2 52.8374 152.7054 23.9616 0.0210 -2.3810 0.0039
# 3 19.9019 23.9616 67.7042 0.0343 -0.1326 0.0012
# 4 -0.0387 0.0210 0.0343 17.2327 -0.0324 3.8399
# 5 3.0752 -2.3810 -0.1326 -0.0324 23.6318 -0.0034
# 6 0.0175 0.0039 0.0012 3.8399 -0.0034 19.8131
#
#
#
# Elastic Compliance Matrix: (Units=1/GPa)
#
#
# Indices 1 2 3 4 5 6 
#
# 1 0.020952 -0.006708 -0.003792 0.000063 -0.003423 -0.000030
# 2 -0.006708 0.009092 -0.001243 -0.000022 0.001782 0.000009
# 3 -0.003792 -0.001243 0.016325 -0.000041 0.000460 0.000011
# 4 0.000063 -0.000022 -0.000041 0.060649 0.000071 -0.011754
# 5 -0.003423 0.001782 0.000460 0.000071 0.042944 -0.000004
# 6 -0.000030 0.000009 0.000011 -0.011754 -0.000004 0.052750
#
#
# Mechanical properties :
#
#
# Convention : Reuss Voigt Hill
#
# Bulk Modulus (GPa) = 43.69600 53.61778 48.65689
# Shear Modulus (GPa) = 21.38355 24.96602 23.17478
#
# Velocity S-wave (km/s) = 3.16779 3.42287 3.29780
# Velocity P-wave (km/s) = 5.82112 6.38617 6.11018
#
# Compressibility (1/GPa) = 0.02288539
#
# Stress axis : x y z
#
# Youngs Moduli (GPa) = 47.72817 109.98258 61.25431
#
# Poissons Ratio (x) = 0.73776 0.23225
# Poissons Ratio (y) = 0.32016 0.07611
# Poissons Ratio (z) = 0.18096 0.13666
#
# Static dielectric constant tensor:
#      x y z
#    x 1.752500 0.000000 -0.012540 
#    y 0.000000 1.841760 0.000020 
#    z -0.012540 0.000020 1.776630 
# 
# From -- ./inp_files/374183.got.cif
#   From: 2010.05.17/outbox.cif.g08.bks.cpg/sg12_188_cif.got.tgz:374183.got - 2010.06.03 13:09:07.
