data_PCOD9207562
_publ_section_title
;
Structure prediction by ZEFSAII (Michael W. Deem and Ramdas Pophale) SiO2 
 PCOD9207562
Probable space group: C 2/M
;
_chemical_formula_sum "Si O2"
_cell_formula_units_Z 56
_cell_length_a 18.378403
_cell_length_b 21.157447
_cell_length_c 5.703509
_cell_angle_alpha 90.000000
_cell_angle_beta 79.232260
_cell_angle_gamma 90.000000
_cell_volume 2178.704072
_symmetry_space_group_name_H-M "C 2/M"
_symmetry_group_IT_number 12
_symmetry_cell_setting 'monoclinic'
loop_
_space_group_symop_operation_xyz
x,y,z
-x,y,-z
-x,-y,-z
x,-y,z
1/2+x,1/2+y,z
1/2-x,1/2+y,-z
1/2-x,1/2-y,-z
1/2+x,1/2-y,z
loop_
_atom_site_type_symbol
_atom_site_label
_atom_site_fract_x
_atom_site_fract_y
_atom_site_fract_z
Si Si1 0.307241 0.931677 0.184074
Si Si2 0.615030 0.603090 0.925333
Si Si3 0.282012 0.148577 0.809330
Si Si4 0.355487 0.590479 0.581111
Si Si5 0.344854 0.742704 0.590649
Si Si6 0.418093 0.250224 0.051995
Si Si7 0.917839 0.427413 0.504330
O O1 0.229643 0.933356 0.373304
O O2 0.386853 0.931481 0.259450
O O3 0.303749 0.000000 0.054005
O O4 0.300956 0.863352 0.067720
O O5 0.703472 0.614135 0.849689
O O6 0.599221 0.572918 0.680738
O O7 0.580211 0.672777 0.947630
O O8 0.607782 0.573758 0.189077
O O9 0.271492 0.216014 0.692439
O O10 0.350256 0.111766 0.653557
O O11 0.347867 0.667235 0.589390
O O12 0.381827 0.765364 0.326598
O O13 0.384249 0.762691 0.814656
O O14 0.500000 0.222931 0.000000
O O15 0.918698 0.500000 0.592790
O O16 0.000000 0.401680 0.500000
#
# Coordination Sequence:
#
# PCOD9207562 Si02
#       7
#     8   8   8   8   8   8   8
#     4  10  21  37  59  84 116 155 201 255 301 349
#     4   9  19  33  58  81 110 148 191 237 292 349
#     4  11  22  37  58  81 116 150 205 245 299 353
#     4   9  18  36  54  87 113 146 193 240 295 356
#     4  10  23  35  61  83 120 156 196 241 303 356
#     4  10  21  38  55  83 119 156 191 235 290 363
#     4  10  22  39  57  79 114 159 205 253 302 346
#
# _framework density 25.703354999999998
#
# number of rings (size 3 to 8) (size 9 to 14) (size 15 to 20)
#    0.000    2.143    1.429    0.857    2.000    9.143 
#    0.000    2.143    0.000    0.000    0.000    0.000 
#    0.000  153.143    0.000    0.000    0.000    0.000 
#
# Total GULP energy -155960.499302 kJ/mol
# GULP energy per Si atom -5570.017832 kJ/mol
# Density = 2.564485 g / cm^3
# Si number density = 25.703355 Si / 1000 Ang^3
#
#
#
# Elastic Constant Matrix: (Units=GPa)
#
#
# Indices 1 2 3 4 5 6 
#
# 1 55.6001 -3.4848 34.2018 0.0000 -8.3239 0.0000
# 2 -3.4848 101.9043 27.0111 0.0000 0.9190 0.0000
# 3 34.2018 27.0111 183.6183 0.0000 22.5130 0.0000
# 4 0.0000 0.0000 0.0000 -1.8432 0.0000 6.3050
# 5 -8.3239 0.9190 22.5130 0.0000 19.8976 0.0000
# 6 0.0000 0.0000 0.0000 6.3050 0.0000 18.7609
#
#
#
# Elastic Compliance Matrix: (Units=1/GPa)
#
#
# Indices 1 2 3 4 5 6 
#
# 1 0.025636 0.002696 -0.007514 0.000000 0.019101 0.000000
# 2 0.002696 0.010530 -0.002473 0.000000 0.003439 0.000000
# 3 -0.007514 -0.002473 0.008802 0.000000 -0.012988 0.000000
# 4 0.000000 0.000000 0.000000 -0.252392 0.000000 0.084822
# 5 0.019101 0.003439 -0.012988 0.000000 0.072784 0.000000
# 6 0.000000 0.000000 0.000000 0.084822 0.000000 0.024796
#
#
# Mechanical properties :
#
#
# Convention : Reuss Voigt Hill
#
# Bulk Modulus (GPa) = 32.90916 50.73098 41.82007
# Shear Modulus (GPa) = -58.73098 26.25605 -16.23747
#
# Velocity S-wave (km/s) = -4.78530 3.19956 -2.51614
# Velocity P-wave (km/s) = 4.20725 5.78183 2.80434
#
# Compressibility (1/GPa) = 0.03038667
#
# Stress axis : x y z
#
# Youngs Moduli (GPa) = 39.00736 94.96891 113.61335
#
# Poissons Ratio (x) = -0.25604 0.85366
# Poissons Ratio (y) = -0.10516 0.28095
# Poissons Ratio (z) = 0.29309 0.23484
#
# Static dielectric constant tensor:
#      x y z
#    x 2.090320 0.000000 0.113410 
#    y 0.000000 2.116500 0.000000 
#    z 0.113410 0.000000 2.217550 
# 
# From -- ./inp_files/21612.got.cif
#   From: 2010.05.17/outbox.cif.g08.bks.cpg/sg12_11_cif.got.tgz:21612.got - 2010.06.03 13:09:07.
