data_PCOD9207569
_publ_section_title
;
Structure prediction by ZEFSAII (Michael W. Deem and Ramdas Pophale) SiO2 
 PCOD9207569
Probable space group: C 2/M
;
_chemical_formula_sum "Si O2"
_cell_formula_units_Z 56
_cell_length_a 32.585762
_cell_length_b 13.448518
_cell_length_c 16.577507
_cell_angle_alpha 90.000000
_cell_angle_beta 23.839831
_cell_angle_gamma 90.000000
_cell_volume 2936.281614
_symmetry_space_group_name_H-M "C 2/M"
_symmetry_group_IT_number 12
_symmetry_cell_setting 'monoclinic'
loop_
_space_group_symop_operation_xyz
x,y,z
-x,y,-z
-x,-y,-z
x,-y,z
1/2+x,1/2+y,z
1/2-x,1/2+y,-z
1/2-x,1/2-y,-z
1/2+x,1/2-y,z
loop_
_atom_site_type_symbol
_atom_site_label
_atom_site_fract_x
_atom_site_fract_y
_atom_site_fract_z
Si Si1 0.805846 0.681878 0.781934
Si Si2 0.937906 0.607571 0.029130
Si Si3 0.500423 0.115530 0.645938
Si Si4 0.824686 0.117365 0.137983
Si Si5 0.475730 0.265748 0.249487
Si Si6 0.747391 0.728601 0.408959
Si Si7 0.238875 0.387199 0.963811
O O1 0.919945 0.641052 0.567905
O O2 0.747563 0.651102 0.805603
O O3 0.752703 0.633841 0.955792
O O4 0.797689 0.800450 0.810715
O O5 0.941776 0.500000 0.982411
O O6 0.824117 0.639424 0.252885
O O7 0.988060 0.688504 0.883156
O O8 0.000000 0.605209 0.000000
O O9 0.523013 0.200022 0.671817
O O10 0.381497 0.123077 0.838689
O O11 0.519248 0.000000 0.636989
O O12 0.789414 0.177775 0.281095
O O13 0.816769 0.000000 0.164857
O O14 0.938671 0.149410 0.907411
O O15 0.363441 0.297023 0.425719
O O16 0.750000 0.750000 0.500000
O O17 0.269860 0.500000 0.888802
#
# Coordination Sequence:
#
# PCOD9207569 Si02
#       7
#     8   8   8   8   8   8   8
#     4  11  21  38  64  92 125 157 207 251 295 357
#     4  10  21  37  59  85 111 145 191 242 297 352
#     4  11  21  37  62  91 118 158 206 250 299 353
#     4  11  24  40  62  89 121 162 201 245 303 365
#     4  11  22  39  58  85 121 152 193 251 298 356
#     4  11  23  40  61  85 119 152 196 250 300 355
#     4  10  22  39  62  90 126 163 200 249 304 355
#
# _framework density 19.071739999999998
#
# number of rings (size 3 to 8) (size 9 to 14) (size 15 to 20)
#    0.000    1.286    4.286    2.143    0.000    2.857 
#    0.000    1.429    0.000    1.714    0.000    0.000 
#    0.000    0.000    0.000    0.000    0.000    0.000 
#
# Total GULP energy -156338.834099 kJ/mol
# GULP energy per Si atom -5583.529789 kJ/mol
# Density = 1.902833 g / cm^3
# Si number density = 19.071740 Si / 1000 Ang^3
#
#
#
# Elastic Constant Matrix: (Units=GPa)
#
#
# Indices 1 2 3 4 5 6 
#
# 1 87.7638 26.7824 18.8158 0.0000 -1.6534 0.0000
# 2 26.7824 97.0894 16.9985 0.0000 -4.2719 0.0000
# 3 18.8158 16.9985 71.3723 0.0000 -11.0218 0.0000
# 4 0.0000 0.0000 0.0000 20.1133 0.0000 -4.5763
# 5 -1.6534 -4.2719 -11.0218 0.0000 26.7844 0.0000
# 6 0.0000 0.0000 0.0000 -4.5763 0.0000 15.7809
#
#
#
# Elastic Compliance Matrix: (Units=1/GPa)
#
#
# Indices 1 2 3 4 5 6 
#
# 1 0.012928 -0.003114 -0.002798 0.000000 -0.000850 0.000000
# 2 -0.003114 0.011510 -0.001780 0.000000 0.000911 0.000000
# 3 -0.002798 -0.001780 0.016127 0.000000 0.006180 0.000000
# 4 0.000000 0.000000 0.000000 0.053230 0.000000 0.015436
# 5 -0.000850 0.000911 0.006180 0.000000 0.039971 0.000000
# 6 0.000000 0.000000 0.000000 0.015436 0.000000 0.067844
#
#
# Mechanical properties :
#
#
# Convention : Reuss Voigt Hill
#
# Bulk Modulus (GPa) = 39.71009 42.37985 41.04497
# Shear Modulus (GPa) = 22.18396 25.44431 23.81413
#
# Velocity S-wave (km/s) = 3.41425 3.65655 3.53747
# Velocity P-wave (km/s) = 6.03402 6.33219 6.18490
#
# Compressibility (1/GPa) = 0.02518252
#
# Stress axis : x y z
#
# Youngs Moduli (GPa) = 77.34975 86.87762 62.00846
#
# Poissons Ratio (x) = 0.27052 0.17349
# Poissons Ratio (y) = 0.24085 0.11036
# Poissons Ratio (z) = 0.21642 0.15462
#
# Static dielectric constant tensor:
#      x y z
#    x 1.666000 0.000000 0.004870 
#    y 0.000000 1.642040 0.000000 
#    z 0.004870 0.000000 1.668040 
# 
# From -- ./inp_files/250988.got.cif
#   From: 2010.05.17/outbox.cif.g08.bks.cpg/sg12_126_cif.got.tgz:250988.got - 2010.06.03 13:09:07.
