data_PCOD9207064
_publ_section_title
;
Structure prediction by ZEFSAII (Michael W. Deem and Ramdas Pophale) SiO2 
 PCOD9207064
Probable space group: C 2/M
;
_chemical_formula_sum "Si O2"
_cell_formula_units_Z 56
_cell_length_a 29.917872
_cell_length_b 8.870424
_cell_length_c 22.392898
_cell_angle_alpha 90.000000
_cell_angle_beta 30.265462
_cell_angle_gamma 90.000000
_cell_volume 2995.173706
_symmetry_space_group_name_H-M "C 2/M"
_symmetry_group_IT_number 12
_symmetry_cell_setting 'monoclinic'
loop_
_space_group_symop_operation_xyz
x,y,z
-x,y,-z
-x,-y,-z
x,-y,z
1/2+x,1/2+y,z
1/2-x,1/2+y,-z
1/2-x,1/2-y,-z
1/2+x,1/2-y,z
loop_
_atom_site_type_symbol
_atom_site_label
_atom_site_fract_x
_atom_site_fract_y
_atom_site_fract_z
Si Si1 0.336957 0.678939 0.136895
Si Si2 0.365341 0.820555 0.226738
Si Si3 0.459308 0.819256 0.898064
Si Si4 0.856534 0.818163 0.647677
Si Si5 0.474306 0.680609 0.625420
Si Si6 0.714470 0.818645 0.479157
Si Si7 0.007974 0.681242 0.709645
O O1 0.341300 0.500000 0.136537
O O2 0.383465 0.754299 0.140639
O O3 0.235844 0.735973 0.254286
O O4 0.384809 0.736330 0.022033
O O5 0.446380 0.790964 0.178362
O O6 0.277245 0.744462 0.354875
O O7 0.352843 0.000000 0.237290
O O8 0.466626 0.771576 0.820694
O O9 0.444222 0.000000 0.917750
O O10 0.900462 0.781420 0.661142
O O11 0.930520 0.775850 0.513097
O O12 0.844259 0.000000 0.658893
O O13 0.474753 0.500000 0.630448
O O14 0.462733 0.753369 0.703076
O O15 0.750000 0.750000 0.500000
O O16 0.611915 0.774762 0.589167
O O17 0.719570 0.000000 0.475616
O O18 0.004868 0.500000 0.711327
#
# Coordination Sequence:
#
# PCOD9207064 Si02
#       7
#     8   8   8   8   8   8   8
#     4  12  25  38  56  86 114 144 192 242 285 333
#     4  11  22  39  60  82 111 154 196 233 286 342
#     4  10  22  41  58  76 110 157 197 230 278 341
#     4   9  19  39  62  85 115 148 184 228 280 342
#     4   9  19  36  62  91 113 142 186 230 279 338
#     4  11  21  35  55  84 118 151 188 233 279 332
#     4  10  21  37  56  83 117 151 188 228 282 340
#
# _framework density 18.696745
#
# number of rings (size 3 to 8) (size 9 to 14) (size 15 to 20)
#    0.000    1.714    1.429    4.286    0.000    8.000 
#    0.000    2.143    0.000    0.000    0.000    0.000 
#    0.000    0.000    0.000    0.000    0.000    0.000 
#
# Total GULP energy -156488.052079 kJ/mol
# GULP energy per Si atom -5588.859003 kJ/mol
# Density = 1.865419 g / cm^3
# Si number density = 18.696745 Si / 1000 Ang^3
#
#
#
# Elastic Constant Matrix: (Units=GPa)
#
#
# Indices 1 2 3 4 5 6 
#
# 1 98.7414 29.9755 34.2429 -0.0010 35.6356 -0.0004
# 2 29.9755 40.6401 25.7838 -0.0075 6.5132 0.0030
# 3 34.2429 25.7838 66.0372 -0.0071 22.1644 0.0028
# 4 -0.0010 -0.0075 -0.0071 26.5882 -0.0003 5.3871
# 5 35.6356 6.5132 22.1644 -0.0003 28.1584 0.0013
# 6 -0.0004 0.0030 0.0028 5.3871 0.0013 33.3246
#
#
#
# Elastic Compliance Matrix: (Units=1/GPa)
#
#
# Indices 1 2 3 4 5 6 
#
# 1 0.024489 -0.015411 0.003430 -0.000004 -0.030128 0.000003
# 2 -0.015411 0.042645 -0.016165 0.000008 0.022363 -0.000005
# 3 0.003430 -0.016165 0.027015 0.000003 -0.021866 0.000000
# 4 -0.000004 0.000008 0.000003 0.038884 0.000001 -0.006286
# 5 -0.030128 0.022363 -0.021866 0.000001 0.085680 -0.000004
# 6 0.000003 -0.000005 0.000000 -0.006286 -0.000004 0.031024
#
#
# Mechanical properties :
#
#
# Convention : Reuss Voigt Hill
#
# Bulk Modulus (GPa) = 26.41466 42.82478 34.61972
# Shear Modulus (GPa) = 15.69131 25.30867 20.49999
#
# Velocity S-wave (km/s) = 2.90013 3.68318 3.31486
# Velocity P-wave (km/s) = 5.03716 6.40643 5.76261
#
# Compressibility (1/GPa) = 0.03785777
#
# Stress axis : x y z
#
# Youngs Moduli (GPa) = 40.83433 23.44954 37.01653
#
# Poissons Ratio (x) = 0.36138 -0.12698
# Poissons Ratio (y) = 0.62929 0.59838
# Poissons Ratio (z) = -0.14007 0.37906
#
# Static dielectric constant tensor:
#      x y z
#    x 1.644060 0.000000 0.010120 
#    y 0.000000 1.621220 0.000000 
#    z 0.010120 0.000000 1.638190 
# 
# From -- ./inp_files/238941.got.cif
#   From: 2010.05.17/outbox.cif.g08.bks.cpg/sg12_120_cif.got.tgz:238941.got - 2010.06.03 13:09:07.
