data_PCOD9207969
_publ_section_title
;
Structure prediction by ZEFSAII (Michael W. Deem and Ramdas Pophale) SiO2 
 PCOD9207969
Probable space group: C 2/M
;
_chemical_formula_sum "Si O2"
_cell_formula_units_Z 58
_cell_length_a 12.601924
_cell_length_b 16.897461
_cell_length_c 22.183201
_cell_angle_alpha 90.000000
_cell_angle_beta 142.837931
_cell_angle_gamma 90.000000
_cell_volume 2853.454729
_symmetry_space_group_name_H-M "C 2/M"
_symmetry_group_IT_number 12
_symmetry_cell_setting 'monoclinic'
loop_
_space_group_symop_operation_xyz
x,y,z
-x,y,-z
-x,-y,-z
x,-y,z
1/2+x,1/2+y,z
1/2-x,1/2+y,-z
1/2-x,1/2-y,-z
1/2+x,1/2-y,z
loop_
_atom_site_type_symbol
_atom_site_label
_atom_site_fract_x
_atom_site_fract_y
_atom_site_fract_z
Si Si1 0.710569 0.142870 0.161162
Si Si2 0.000000 0.500000 0.000000
Si Si3 0.901852 0.150058 0.704307
Si Si4 0.311397 0.594872 0.434920
Si Si5 0.723907 0.090129 0.732650
Si Si6 0.809463 0.181056 0.893081
Si Si7 0.654988 0.095663 0.490599
Si Si8 0.939355 0.673122 0.773368
O O1 0.682213 0.224395 0.111483
O O2 0.641465 0.158385 0.197598
O O3 0.920645 0.130211 0.251442
O O4 0.609577 0.069783 0.086328
O O5 0.874876 0.095843 0.750837
O O6 0.739175 0.137539 0.585847
O O7 0.909603 0.238083 0.735149
O O8 0.500000 0.626839 0.500000
O O9 0.319751 0.500000 0.439668
O O10 0.264519 0.619614 0.481142
O O11 0.160663 0.619101 0.320279
O O12 0.761434 0.144809 0.806447
O O13 0.545025 0.114314 0.617534
O O14 0.700415 0.000000 0.742859
O O15 0.649336 0.159939 0.865241
O O16 0.000000 0.151994 0.000000
O O17 0.665304 0.000000 0.504773
#
# Coordination Sequence:
#
# PCOD9207969 Si02
#       8
#     8   2   8   8   8   8   8   8
#     4  11  26  47  68 104 133 176 232 285 354 412
#     4  12  28  48  76 100 136 180 224 298 340 426
#     4  11  24  41  70  99 140 181 228 281 348 417
#     4  10  21  37  60  94 139 184 229 279 344 408
#     4  11  23  43  67  98 140 180 233 286 342 408
#     4  11  24  47  70  96 136 180 233 292 351 408
#     4  10  21  39  63  95 138 180 229 285 336 405
#     4  11  24  43  68  97 137 179 222 290 342 418
#
# _framework density 20.326238
#
# number of rings (size 3 to 8) (size 9 to 14) (size 15 to 20)
#    0.000    1.241    3.448    1.655    2.897    4.690 
#    0.000    0.000    0.000    0.000    0.000    0.000 
#    0.000    0.000    0.000    0.000    0.000    0.000 
#
# Total GULP energy -161792.316923 kJ/mol
# GULP energy per Si atom -5579.045411 kJ/mol
# Density = 2.027997 g / cm^3
# Si number density = 20.326238 Si / 1000 Ang^3
#
#
#
# Elastic Constant Matrix: (Units=GPa)
#
#
# Indices 1 2 3 4 5 6 
#
# 1 146.0509 40.7638 47.5621 0.0000 8.6856 0.0000
# 2 40.7638 47.9648 37.4048 0.0000 4.0653 0.0000
# 3 47.5621 37.4048 110.4364 -0.0002 18.0630 -0.0001
# 4 0.0000 0.0000 -0.0002 28.1457 -0.0001 -3.7803
# 5 8.6856 4.0653 18.0630 -0.0001 18.3170 0.0000
# 6 0.0000 0.0000 -0.0001 -3.7803 0.0000 13.3750
#
#
#
# Elastic Compliance Matrix: (Units=1/GPa)
#
#
# Indices 1 2 3 4 5 6 
#
# 1 0.009260 -0.006551 -0.001537 0.000000 -0.001422 0.000000
# 2 -0.006551 0.033188 -0.009208 0.000000 0.004821 0.000000
# 3 -0.001537 -0.009208 0.014763 0.000000 -0.011786 0.000000
# 4 0.000000 0.000000 0.000000 0.036931 0.000000 0.010438
# 5 -0.001422 0.004821 -0.011786 0.000000 0.065821 0.000000
# 6 0.000000 0.000000 0.000000 0.010438 0.000000 0.077717
#
#
# Mechanical properties :
#
#
# Convention : Reuss Voigt Hill
#
# Bulk Modulus (GPa) = 44.20823 61.76816 52.98820
# Shear Modulus (GPa) = 17.86904 23.88229 20.87566
#
# Velocity S-wave (km/s) = 2.96820 3.43147 3.20821
# Velocity P-wave (km/s) = 5.79167 6.79370 6.31260
#
# Compressibility (1/GPa) = 0.02262022
#
# Stress axis : x y z
#
# Youngs Moduli (GPa) = 107.98641 30.13094 67.73516
#
# Poissons Ratio (x) = 0.19739 0.10410
# Poissons Ratio (y) = 0.70744 0.62371
# Poissons Ratio (z) = 0.16596 0.27745
#
# Static dielectric constant tensor:
#      x y z
#    x 1.746400 0.000000 0.040560 
#    y 0.000000 1.724640 0.000000 
#    z 0.040560 0.000000 1.690150 
# 
# From -- ./inp_files/306407.got.cif
#   From: 2010.05.17/outbox.cif.g08.bks.cpg/sg12_154_cif.got.tgz:306407.got - 2010.06.03 13:09:07.
