data_PCOD9207995
_publ_section_title
;
Structure prediction by ZEFSAII (Michael W. Deem and Ramdas Pophale) SiO2 
 PCOD9207995
Probable space group: C 2/M
;
_chemical_formula_sum "Si O2"
_cell_formula_units_Z 40
_cell_length_a 19.884788
_cell_length_b 7.525231
_cell_length_c 25.845465
_cell_angle_alpha 90.000000
_cell_angle_beta 27.728244
_cell_angle_gamma 90.000000
_cell_volume 1799.442959
_symmetry_space_group_name_H-M "C 2/M"
_symmetry_group_IT_number 12
_symmetry_cell_setting 'monoclinic'
loop_
_space_group_symop_operation_xyz
x,y,z
-x,y,-z
-x,-y,-z
x,-y,z
1/2+x,1/2+y,z
1/2-x,1/2+y,-z
1/2-x,1/2-y,-z
1/2+x,1/2-y,z
loop_
_atom_site_type_symbol
_atom_site_label
_atom_site_fract_x
_atom_site_fract_y
_atom_site_fract_z
Si Si1 0.878926 0.206581 0.045639
Si Si2 0.562559 0.782033 0.290674
Si Si3 0.136911 0.715830 0.666083
Si Si4 0.586948 0.211038 0.093652
Si Si5 0.466325 0.206671 0.466265
O O1 0.716451 0.277712 0.162787
O O2 0.864803 0.000000 0.070446
O O3 0.930786 0.214698 0.951517
O O4 0.000000 0.288802 0.000000
O O5 0.432590 0.726598 0.341180
O O6 0.543987 0.719206 0.362200
O O7 0.557867 0.000000 0.293657
O O8 0.141864 0.500000 0.662790
O O9 0.296549 0.782360 0.569311
O O10 0.026996 0.774455 0.786151
O O11 0.570272 0.000000 0.101696
O O12 0.750000 0.250000 0.000000
O O13 0.500000 0.284961 0.500000
O O14 0.511234 0.000000 0.438361
#
# Coordination Sequence:
#
# PCOD9207995 Si02
#       5
#     8   8   8   8   8
#     4  10  21  37  61  87 118 158 190 231 294 352
#     4   9  18  37  57  81 116 148 186 233 282 336
#     4  10  21  38  59  80 113 153 187 233 287 339
#     4  11  22  38  60  87 119 152 193 241 287 344
#     4  10  22  37  58  86 113 144 189 240 282 335
#
# _framework density 22.229102000000001
#
# number of rings (size 3 to 8) (size 9 to 14) (size 15 to 20)
#    0.000    2.000    2.000    1.200    2.800    2.400 
#    0.000    1.000    0.000    0.000    0.000    0.000 
#    0.000    0.000    0.000    0.000    0.000    0.000 
#
# Total GULP energy -111744.349851 kJ/mol
# GULP energy per Si atom -5587.217493 kJ/mol
# Density = 2.217851 g / cm^3
# Si number density = 22.229102 Si / 1000 Ang^3
#
#
#
# Elastic Constant Matrix: (Units=GPa)
#
#
# Indices 1 2 3 4 5 6 
#
# 1 168.5576 -0.6641 20.8201 -0.0002 19.0081 0.0005
# 2 -0.6641 49.0477 1.5684 -0.0006 -3.3353 0.0023
# 3 20.8201 1.5684 51.8888 0.0000 27.2680 0.0002
# 4 -0.0002 -0.0006 0.0000 15.0405 0.0002 4.9047
# 5 19.0081 -3.3353 27.2680 0.0002 37.8670 -0.0003
# 6 0.0005 0.0023 0.0002 4.9047 -0.0003 -25.4384
#
#
#
# Elastic Compliance Matrix: (Units=1/GPa)
#
#
# Indices 1 2 3 4 5 6 
#
# 1 0.006352 -0.000017 -0.001402 0.000000 -0.002180 0.000000
# 2 -0.000017 0.020719 -0.002547 0.000000 0.003667 0.000002
# 3 -0.001402 -0.002547 0.031628 0.000000 -0.022296 0.000000
# 4 0.000000 0.000000 0.000000 0.062554 0.000000 0.012061
# 5 -0.002180 0.003667 -0.022296 0.000000 0.043881 -0.000001
# 6 0.000000 0.000002 0.000000 0.012061 -0.000001 -0.036985
#
#
# Mechanical properties :
#
#
# Convention : Reuss Voigt Hill
#
# Bulk Modulus (GPa) = 19.69814 34.77145 27.23479
# Shear Modulus (GPa) = 32.67902 22.01181 27.34541
#
# Velocity S-wave (km/s) = 3.83835 3.15020 3.51117
# Velocity P-wave (km/s) = 5.34084 5.37661 5.35875
#
# Compressibility (1/GPa) = 0.05076622
#
# Stress axis : x y z
#
# Youngs Moduli (GPa) = 157.43854 48.26517 31.61719
#
# Poissons Ratio (x) = 0.00084 0.04434
# Poissons Ratio (y) = 0.00274 0.08051
# Poissons Ratio (z) = 0.22080 0.12291
#
# Static dielectric constant tensor:
#      x y z
#    x 1.793260 0.000000 0.016780 
#    y 0.000000 1.770930 0.000000 
#    z 0.016780 0.000000 1.789020 
# 
# From -- ./inp_files/151651.got.cif
#   From: 2010.05.17/outbox.cif.g08.bks.cpg/sg12_76_cif.got.tgz:151651.got - 2010.06.03 13:09:07.
