data_PCOD9207642
_publ_section_title
;
Structure prediction by ZEFSAII (Michael W. Deem and Ramdas Pophale) SiO2 
 PCOD9207642
Probable space group: C 2/M
;
_chemical_formula_sum "Si O2"
_cell_formula_units_Z 56
_cell_length_a 31.358884
_cell_length_b 8.947131
_cell_length_c 19.686988
_cell_angle_alpha 90.000000
_cell_angle_beta 32.628406
_cell_angle_gamma 90.000000
_cell_volume 2978.270928
_symmetry_space_group_name_H-M "C 2/M"
_symmetry_group_IT_number 12
_symmetry_cell_setting 'monoclinic'
loop_
_space_group_symop_operation_xyz
x,y,z
-x,y,-z
-x,-y,-z
x,-y,z
1/2+x,1/2+y,z
1/2-x,1/2+y,-z
1/2-x,1/2-y,-z
1/2+x,1/2-y,z
loop_
_atom_site_type_symbol
_atom_site_label
_atom_site_fract_x
_atom_site_fract_y
_atom_site_fract_z
Si Si1 0.823304 0.326663 0.815040
Si Si2 0.545206 0.678120 0.869560
Si Si3 0.638663 0.672650 0.098938
Si Si4 0.082725 0.820554 0.425278
Si Si5 0.000229 0.323805 0.207935
Si Si6 0.624852 0.320949 0.522616
Si Si7 0.269866 0.321069 0.399606
O O1 0.846671 0.500000 0.789848
O O2 0.863225 0.230529 0.821294
O O3 0.849413 0.260318 0.708544
O O4 0.729298 0.318116 0.952968
O O5 0.536144 0.500000 0.869016
O O6 0.507916 0.768782 0.857835
O O7 0.639297 0.709386 0.742953
O O8 0.500000 0.712549 0.000000
O O9 0.612534 0.500000 0.130845
O O10 0.583732 0.774762 0.126788
O O11 0.090750 0.782457 0.493885
O O12 0.000000 0.778665 0.500000
O O13 0.090740 0.000000 0.408585
O O14 0.988227 0.500000 0.229254
O O15 0.934559 0.239379 0.340728
O O16 0.631142 0.500000 0.518851
O O17 0.709089 0.247355 0.426753
O O18 0.259467 0.500000 0.418016
O O19 0.250000 0.250000 0.500000
#
# Coordination Sequence:
#
# PCOD9207642 Si02
#       7
#     8   8   8   8   8   8   8
#     4  10  21  37  59  87 117 155 201 250 301 357
#     4  10  23  43  65  89 122 164 204 249 309 374
#     4  10  21  38  60  84 118 160 199 243 300 368
#     4  10  22  39  59  85 121 164 204 249 306 363
#     4  12  24  38  61  91 120 153 201 255 305 364
#     4  11  23  39  62  90 122 163 209 255 309 372
#     4  11  22  39  65  92 123 162 207 258 311 373
#
# _framework density 18.802856999999999
#
# number of rings (size 3 to 8) (size 9 to 14) (size 15 to 20)
#    0.000    1.429    1.429    3.857    0.000    6.286 
#    0.000    4.286    0.000    0.000    0.000    0.000 
#    0.000    0.000    0.000    0.000    0.000    0.000 
#
# Total GULP energy -156518.548339 kJ/mol
# GULP energy per Si atom -5589.948155 kJ/mol
# Density = 1.876006 g / cm^3
# Si number density = 18.802857 Si / 1000 Ang^3
#
#
#
# Elastic Constant Matrix: (Units=GPa)
#
#
# Indices 1 2 3 4 5 6 
#
# 1 111.6406 46.3548 37.0441 -0.0061 2.2610 0.0023
# 2 46.3548 56.1942 43.0770 -0.0097 7.0901 0.0058
# 3 37.0441 43.0770 82.4152 -0.0156 16.9852 0.0088
# 4 -0.0061 -0.0097 -0.0156 27.4258 0.0021 -0.2085
# 5 2.2610 7.0901 16.9852 0.0021 25.3156 -0.0038
# 6 0.0023 0.0058 0.0088 -0.2085 -0.0038 19.5769
#
#
#
# Elastic Compliance Matrix: (Units=1/GPa)
#
#
# Indices 1 2 3 4 5 6 
#
# 1 0.013766 -0.010901 -0.001005 -0.000002 0.002498 0.000003
# 2 -0.010901 0.038454 -0.015296 0.000002 0.000466 -0.000003
# 3 -0.001005 -0.015296 0.022836 0.000008 -0.010948 -0.000008
# 4 -0.000002 0.000002 0.000008 0.036465 -0.000009 0.000388
# 5 0.002498 0.000466 -0.010948 -0.000009 0.046493 0.000013
# 6 0.000003 -0.000003 -0.000008 0.000388 0.000013 0.051085
#
#
# Mechanical properties :
#
#
# Convention : Reuss Voigt Hill
#
# Bulk Modulus (GPa) = 48.41598 55.91130 52.16364
# Shear Modulus (GPa) = 18.49205 22.71527 20.60366
#
# Velocity S-wave (km/s) = 3.13944 3.47951 3.31384
# Velocity P-wave (km/s) = 6.24072 6.77811 6.51496
#
# Compressibility (1/GPa) = 0.02065434
#
# Stress axis : x y z
#
# Youngs Moduli (GPa) = 72.64127 26.00526 43.78976
#
# Poissons Ratio (x) = 0.28348 0.04400
# Poissons Ratio (y) = 0.79184 0.66979
# Poissons Ratio (z) = 0.07299 0.39776
#
# Static dielectric constant tensor:
#      x y z
#    x 1.636350 0.000000 -0.018400 
#    y 0.000000 1.625830 0.000000 
#    z -0.018400 0.000000 1.642010 
# 
# From -- ./inp_files/281017.got.cif
#   From: 2010.05.17/outbox.cif.g08.bks.cpg/sg12_141_cif.got.tgz:281017.got - 2010.06.03 13:09:07.
