data_PCOD9207535
_publ_section_title
;
Structure prediction by ZEFSAII (Michael W. Deem and Ramdas Pophale) SiO2 
 PCOD9207535
Probable space group: C 2/M
;
_chemical_formula_sum "Si O2"
_cell_formula_units_Z 28
_cell_length_a 5.113122
_cell_length_b 35.527989
_cell_length_c 8.964468
_cell_angle_alpha 90.000000
_cell_angle_beta 120.283722
_cell_angle_gamma 90.000000
_cell_volume 1406.252104
_symmetry_space_group_name_H-M "C 2/M"
_symmetry_group_IT_number 12
_symmetry_cell_setting 'monoclinic'
loop_
_space_group_symop_operation_xyz
x,y,z
-x,y,-z
-x,-y,-z
x,-y,z
1/2+x,1/2+y,z
1/2-x,1/2+y,-z
1/2-x,1/2-y,-z
1/2+x,1/2-y,z
loop_
_atom_site_type_symbol
_atom_site_label
_atom_site_fract_x
_atom_site_fract_y
_atom_site_fract_z
Si Si1 0.359628 0.382867 0.796899
Si Si2 0.141623 0.958093 0.379451
Si Si3 0.500000 0.223169 0.000000
Si Si4 0.761332 0.664129 0.688877
O O1 0.380005 0.426263 0.752361
O O2 0.579418 0.362896 0.745399
O O3 0.035039 0.361214 0.699188
O O4 0.500000 0.378177 0.000000
O O5 0.500000 0.961561 0.500000
O O6 0.000000 0.946794 0.500000
O O7 0.017301 0.000000 0.307390
O O8 0.388250 0.196993 0.831213
O O9 0.250000 0.250000 0.000000
O O10 0.500000 0.677930 0.500000
#
# Coordination Sequence:
#
# PCOD9207535 Si02
#       4
#     8   8   4   8
#     4  12  22  40  65  95 132 170 222 273 316 375
#     4  10  21  37  58  89 129 172 219 269 321 376
#     4  12  26  46  70  98 135 162 207 268 326 388
#     4  12  25  44  69  98 130 172 217 261 322 388
#
# _framework density 19.911080999999999
#
# number of rings (size 3 to 8) (size 9 to 14) (size 15 to 20)
#    0.000    0.571    2.857    6.857    0.000    1.714 
#    0.000    0.000    0.000    8.571    0.000    0.000 
#    0.000    0.000    0.000    0.000    0.000    0.000 
#
# Total GULP energy -78136.946046 kJ/mol
# GULP energy per Si atom -5581.210432 kJ/mol
# Density = 1.986576 g / cm^3
# Si number density = 19.911081 Si / 1000 Ang^3
#
#
#
# Elastic Constant Matrix: (Units=GPa)
#
#
# Indices 1 2 3 4 5 6 
#
# 1 136.0567 37.6120 -4.9769 0.0000 1.1061 0.0000
# 2 37.6120 118.1530 48.9006 0.0000 9.5458 0.0000
# 3 -4.9769 48.9006 90.6651 0.0000 18.6073 0.0000
# 4 0.0000 0.0000 0.0000 -23.3447 0.0000 -13.2480
# 5 1.1061 9.5458 18.6073 0.0000 22.4780 0.0000
# 6 0.0000 0.0000 0.0000 -13.2480 0.0000 35.9453
#
#
#
# Elastic Compliance Matrix: (Units=1/GPa)
#
#
# Indices 1 2 3 4 5 6 
#
# 1 0.008489 -0.003733 0.002698 0.000000 -0.001066 0.000000
# 2 -0.003733 0.012539 -0.007123 0.000000 0.000755 0.000000
# 3 0.002698 -0.007123 0.017378 0.000000 -0.011494 0.000000
# 4 0.000000 0.000000 0.000000 -0.035427 0.000000 -0.013057
# 5 -0.001066 0.000755 -0.011494 0.000000 0.053734 0.000000
# 6 0.000000 0.000000 0.000000 -0.013057 0.000000 0.023008
#
#
# Mechanical properties :
#
#
# Convention : Reuss Voigt Hill
#
# Bulk Modulus (GPa) = 45.26684 56.43846 50.85265
# Shear Modulus (GPa) = 48.35554 24.57165 36.46359
#
# Velocity S-wave (km/s) = 4.93340 3.51674 4.28404
# Velocity P-wave (km/s) = 7.43203 6.70050 7.07573
#
# Compressibility (1/GPa) = 0.02209122
#
# Stress axis : x y z
#
# Youngs Moduli (GPa) = 117.79665 79.75195 57.54310
#
# Poissons Ratio (x) = 0.29771 -0.15526
# Poissons Ratio (y) = 0.43973 0.40987
# Poissons Ratio (z) = -0.31784 0.56805
#
# Static dielectric constant tensor:
#      x y z
#    x 1.671550 0.000000 -0.035300 
#    y 0.000000 1.814130 0.000000 
#    z -0.035300 0.000000 2.209100 
# 
# From -- ./inp_files/34219.got.cif
#   From: 2010.05.17/outbox.cif.g08.bks.cpg/sg12_18_cif.got.tgz:34219.got - 2010.06.03 13:09:07.
