data_PCOD9207838
_publ_section_title
;
Structure prediction by ZEFSAII (Michael W. Deem and Ramdas Pophale) SiO2 
 PCOD9207838
Probable space group: C 2/M
;
_chemical_formula_sum "Si O2"
_cell_formula_units_Z 56
_cell_length_a 22.215264
_cell_length_b 9.031918
_cell_length_c 14.332521
_cell_angle_alpha 90.000000
_cell_angle_beta 95.251222
_cell_angle_gamma 90.000000
_cell_volume 2863.699681
_symmetry_space_group_name_H-M "C 2/M"
_symmetry_group_IT_number 12
_symmetry_cell_setting 'monoclinic'
loop_
_space_group_symop_operation_xyz
x,y,z
-x,y,-z
-x,-y,-z
x,-y,z
1/2+x,1/2+y,z
1/2-x,1/2+y,-z
1/2-x,1/2-y,-z
1/2+x,1/2-y,z
loop_
_atom_site_type_symbol
_atom_site_label
_atom_site_fract_x
_atom_site_fract_y
_atom_site_fract_z
Si Si1 0.771912 0.670841 0.323663
Si Si2 0.350684 0.328854 0.478474
Si Si3 0.083216 0.674808 0.349195
Si Si4 0.960840 0.170845 0.346645
Si Si5 0.851816 0.176912 0.802544
Si Si6 0.118466 0.671661 0.808449
Si Si7 0.184347 0.677987 0.009339
O O1 0.770206 0.500000 0.355059
O O2 0.793668 0.772352 0.411392
O O3 0.709183 0.707405 0.265471
O O4 0.822908 0.680950 0.250390
O O5 0.344187 0.500000 0.504793
O O6 0.367344 0.231854 0.569861
O O7 0.408087 0.316502 0.416263
O O8 0.086124 0.500000 0.339421
O O9 0.095245 0.754941 0.252449
O O10 0.017943 0.727434 0.376049
O O11 0.931176 0.223924 0.245342
O O12 0.980325 0.000000 0.346363
O O13 0.843223 0.254034 0.900743
O O14 0.857607 0.000000 0.813537
O O15 0.097765 0.500000 0.803493
O O16 0.141108 0.709145 0.914854
O O17 0.191040 0.500000 0.017376
O O18 0.250000 0.750000 0.000000
#
# Coordination Sequence:
#
# PCOD9207838 Si02
#       7
#     8   8   8   8   8   8   8
#     4   9  18  35  57  84 116 151 189 233 288 342
#     4  10  21  37  60  88 115 148 192 241 287 338
#     4  12  25  40  58  82 114 157 196 236 289 348
#     4  10  21  38  61  88 115 148 192 242 288 337
#     4  11  23  40  59  84 119 156 193 241 291 344
#     4   9  18  35  58  87 118 149 188 236 285 336
#     4  11  21  36  60  90 121 154 193 236 285 343
#
# _framework density 19.555123999999999
#
# number of rings (size 3 to 8) (size 9 to 14) (size 15 to 20)
#    0.000    1.714    1.429    3.429    0.000    6.286 
#    0.000    0.714    0.000    4.286    0.000    0.000 
#    0.000    0.000    0.000    0.000    0.000    0.000 
#
# Total GULP energy -156526.541448 kJ/mol
# GULP energy per Si atom -5590.233623 kJ/mol
# Density = 1.951062 g / cm^3
# Si number density = 19.555124 Si / 1000 Ang^3
#
#
#
# Elastic Constant Matrix: (Units=GPa)
#
#
# Indices 1 2 3 4 5 6 
#
# 1 23.4292 17.1953 16.1011 0.0000 2.1485 0.0000
# 2 17.1953 79.5014 60.6782 0.0000 4.5638 0.0000
# 3 16.1011 60.6782 109.4652 0.0000 1.8919 0.0000
# 4 0.0000 0.0000 0.0000 34.4014 0.0000 5.2406
# 5 2.1485 4.5638 1.8919 0.0000 22.8945 0.0000
# 6 0.0000 0.0000 0.0000 5.2406 0.0000 26.8469
#
#
#
# Elastic Compliance Matrix: (Units=1/GPa)
#
#
# Indices 1 2 3 4 5 6 
#
# 1 0.051277 -0.009031 -0.002488 0.000000 -0.002806 0.000000
# 2 -0.009031 0.023653 -0.011733 0.000000 -0.002898 0.000000
# 3 -0.002488 -0.011733 0.015983 0.000000 0.001252 0.000000
# 4 0.000000 0.000000 0.000000 0.029959 0.000000 -0.005848
# 5 -0.002806 -0.002898 0.001252 0.000000 0.044416 0.000000
# 6 0.000000 0.000000 0.000000 -0.005848 0.000000 0.038390
#
#
# Mechanical properties :
#
#
# Convention : Reuss Voigt Hill
#
# Bulk Modulus (GPa) = 22.51737 44.48280 33.50008
# Shear Modulus (GPa) = 18.86906 24.72330 21.79618
#
# Velocity S-wave (km/s) = 3.10968 3.55954 3.34219
# Velocity P-wave (km/s) = 4.94300 6.30004 5.66232
#
# Compressibility (1/GPa) = 0.04441016
#
# Stress axis : x y z
#
# Youngs Moduli (GPa) = 19.50208 42.27835 62.56547
#
# Poissons Ratio (x) = 0.38180 0.15566
# Poissons Ratio (y) = 0.17612 0.73406
# Poissons Ratio (z) = 0.04852 0.49604
#
# Static dielectric constant tensor:
#      x y z
#    x 1.696120 0.000000 -0.014630 
#    y 0.000000 1.651600 0.000000 
#    z -0.014630 0.000000 1.670470 
# 
# From -- ./inp_files/230990.got.cif
#   From: 2010.05.17/outbox.cif.g08.bks.cpg/sg12_116_cif.got.tgz:230990.got - 2010.06.03 13:09:07.
