data_PCOD9207798
_publ_section_title
;
Structure prediction by ZEFSAII (Michael W. Deem and Ramdas Pophale) SiO2 
 PCOD9207798
Probable space group: C 2/M
;
_chemical_formula_sum "Si O2"
_cell_formula_units_Z 64
_cell_length_a 24.990824
_cell_length_b 18.951328
_cell_length_c 19.311433
_cell_angle_alpha 90.000000
_cell_angle_beta 20.373231
_cell_angle_gamma 90.000000
_cell_volume 3184.060391
_symmetry_space_group_name_H-M "C 2/M"
_symmetry_group_IT_number 12
_symmetry_cell_setting 'monoclinic'
loop_
_space_group_symop_operation_xyz
x,y,z
-x,y,-z
-x,-y,-z
x,-y,z
1/2+x,1/2+y,z
1/2-x,1/2+y,-z
1/2-x,1/2-y,-z
1/2+x,1/2-y,z
loop_
_atom_site_type_symbol
_atom_site_label
_atom_site_fract_x
_atom_site_fract_y
_atom_site_fract_z
Si Si1 0.800656 0.084128 0.497851
Si Si2 0.026105 0.820680 0.136782
Si Si3 0.835924 0.157515 0.722413
Si Si4 0.674982 0.915588 0.796714
Si Si5 0.850095 0.867758 0.221297
Si Si6 0.657363 0.195719 0.063789
Si Si7 0.827070 0.676540 0.698656
Si Si8 0.582840 0.920853 0.636345
O O1 0.769881 0.107653 0.613820
O O2 0.648730 0.093378 0.633871
O O3 0.934918 0.128694 0.299249
O O4 0.833395 0.000000 0.457034
O O5 0.056657 0.745781 0.135343
O O6 0.926027 0.816800 0.187409
O O7 0.193720 0.851078 0.911916
O O8 0.721661 0.116991 0.812117
O O9 0.834111 0.240267 0.705706
O O10 0.000000 0.129098 0.500000
O O11 0.783355 0.154272 0.865160
O O12 0.687027 0.000000 0.784504
O O13 0.500000 0.895431 0.000000
O O14 0.742062 0.833690 0.293888
O O15 0.735358 0.917091 0.403542
O O16 0.000000 0.899222 0.000000
O O17 0.539490 0.138560 0.237415
O O18 0.750000 0.250000 0.000000
O O19 0.000000 0.648152 0.500000
O O20 0.518653 0.000000 0.711877
#
# Coordination Sequence:
#
# PCOD9207798 Si02
#       8
#     8   8   8   8   8   8   8   8
#     4   9  19  37  62  92 124 159 201 254 308 368
#     4   9  20  37  58  89 119 160 207 254 312 362
#     4  10  23  38  57  86 114 159 197 247 309 359
#     4  10  21  37  60  85 115 154 198 246 297 362
#     4   9  19  36  62  94 122 159 206 261 308 374
#     4  11  25  40  62  90 124 168 210 260 311 372
#     4   9  19  35  58  85 121 156 197 253 309 371
#     4  10  22  39  62  91 126 166 208 259 318 374
#
# _framework density 20.10012
#
# number of rings (size 3 to 8) (size 9 to 14) (size 15 to 20)
#    0.000    2.375    0.000    0.750    7.000    7.500 
#    0.000    2.500    0.000    0.750    0.000    0.000 
#    0.000    0.000    0.000    0.000    0.000    0.000 
#
# Total GULP energy -178383.001727 kJ/mol
# GULP energy per Si atom -5574.468804 kJ/mol
# Density = 2.005437 g / cm^3
# Si number density = 20.100120 Si / 1000 Ang^3
#
#
#
# Elastic Constant Matrix: (Units=GPa)
#
#
# Indices 1 2 3 4 5 6 
#
# 1 69.0455 14.5873 48.8952 0.0073 0.0938 -0.0022
# 2 14.5873 40.2686 41.9437 0.0068 -2.8196 -0.0014
# 3 48.8952 41.9437 129.1412 0.0092 -1.2145 -0.0027
# 4 0.0073 0.0068 0.0092 -2.4465 -0.0058 6.4210
# 5 0.0938 -2.8196 -1.2145 -0.0058 37.0916 0.0027
# 6 -0.0022 -0.0014 -0.0027 6.4210 0.0027 24.7511
#
#
#
# Elastic Compliance Matrix: (Units=1/GPa)
#
#
# Indices 1 2 3 4 5 6 
#
# 1 0.019816 0.000940 -0.007810 0.000021 -0.000234 -0.000004
# 2 0.000940 0.037799 -0.012610 0.000033 0.002458 -0.000008
# 3 -0.007810 -0.012610 0.014792 -0.000001 -0.000454 0.000000
# 4 0.000021 0.000033 -0.000001 -0.243174 -0.000040 0.063085
# 5 -0.000234 0.002458 -0.000454 -0.000040 0.027133 0.000008
# 6 -0.000004 -0.000008 0.000000 0.063085 0.000008 0.024037
#
#
# Mechanical properties :
#
#
# Convention : Reuss Voigt Hill
#
# Bulk Modulus (GPa) = 29.89763 49.92309 39.91036
# Shear Modulus (GPa) = -71.95266 20.74783 -25.60242
#
# Velocity S-wave (km/s) = -5.98956 3.21631 -3.57283
# Velocity P-wave (km/s) = 5.73816 6.21965 1.69669
#
# Compressibility (1/GPa) = 0.03344747
#
# Stress axis : x y z
#
# Youngs Moduli (GPa) = 50.46497 26.45587 67.60518
#
# Poissons Ratio (x) = -0.02488 0.52801
# Poissons Ratio (y) = -0.04746 0.85248
# Poissons Ratio (z) = 0.39414 0.33360
#
# Static dielectric constant tensor:
#      x y z
#    x 1.711710 0.000000 0.039690 
#    y 0.000000 1.674520 0.000000 
#    z 0.039690 0.000000 1.734260 
# 
# From -- ./inp_files/290904.got.cif
#   From: 2010.05.17/outbox.cif.g08.bks.cpg/sg12_146_cif.got.tgz:290904.got - 2010.06.03 13:09:07.
