data_PCOD9207355
_publ_section_title
;
Structure prediction by ZEFSAII (Michael W. Deem and Ramdas Pophale) SiO2 
 PCOD9207355
Probable space group: C 2/M
;
_chemical_formula_sum "Si O2"
_cell_formula_units_Z 40
_cell_length_a 11.811854
_cell_length_b 27.574168
_cell_length_c 8.304138
_cell_angle_alpha 90.000000
_cell_angle_beta 130.170754
_cell_angle_gamma 90.000000
_cell_volume 2066.710658
_symmetry_space_group_name_H-M "C 2/M"
_symmetry_group_IT_number 12
_symmetry_cell_setting 'monoclinic'
loop_
_space_group_symop_operation_xyz
x,y,z
-x,y,-z
-x,-y,-z
x,-y,z
1/2+x,1/2+y,z
1/2-x,1/2+y,-z
1/2-x,1/2-y,-z
1/2+x,1/2-y,z
loop_
_atom_site_type_symbol
_atom_site_label
_atom_site_fract_x
_atom_site_fract_y
_atom_site_fract_z
Si Si1 0.178860 0.751686 0.620304
Si Si2 0.670053 0.853660 0.610883
Si Si3 0.835306 0.650781 0.778944
Si Si4 0.167276 0.946304 0.719400
Si Si5 0.329565 0.447625 0.892574
O O1 0.250000 0.750000 0.500000
O O2 0.225061 0.698527 0.728395
O O3 0.248347 0.800812 0.754872
O O4 0.000000 0.753977 0.500000
O O5 0.500000 0.859335 0.500000
O O6 0.670981 0.849692 0.419700
O O7 0.754912 0.900423 0.750733
O O8 0.761261 0.600038 0.757073
O O9 0.000000 0.653105 0.000000
O O10 0.000000 0.940796 0.500000
O O11 0.219708 0.000000 0.711424
O O12 0.172151 0.946430 0.916572
O O13 0.264926 0.500000 0.779725
O O14 0.500000 0.447031 0.000000
#
# Coordination Sequence:
#
# PCOD9207355 Si02
#       5
#     8   8   8   8   8
#     4   9  20  39  60  85 118 156 198 245 297 354
#     4  10  21  39  58  82 116 151 191 237 288 347
#     4  11  22  37  59  87 118 154 196 243 296 351
#     4  10  21  38  59  84 115 151 193 242 296 354
#     4  10  21  37  58  84 112 147 191 236 287 347
#
# _framework density 19.354427000000001
#
# number of rings (size 3 to 8) (size 9 to 14) (size 15 to 20)
#    0.000    2.000    0.000    3.000    0.000    5.600 
#    0.000   16.000    0.000    0.000    0.000    0.000 
#    0.000    0.000    0.000    0.000    0.000    0.000 
#
# Total GULP energy -111369.894444 kJ/mol
# GULP energy per Si atom -5568.494722 kJ/mol
# Density = 1.931037 g / cm^3
# Si number density = 19.354427 Si / 1000 Ang^3
#
#
#
# Elastic Constant Matrix: (Units=GPa)
#
#
# Indices 1 2 3 4 5 6 
#
# 1 84.2341 69.5297 13.5812 0.0000 7.7546 0.0000
# 2 69.5297 263.2564 85.2960 0.0000 28.5873 0.0000
# 3 13.5812 85.2960 75.6293 0.0000 8.7976 0.0000
# 4 0.0000 0.0000 0.0000 51.0293 0.0000 3.4295
# 5 7.7546 28.5873 8.7976 0.0000 23.4592 0.0000
# 6 0.0000 0.0000 0.0000 3.4295 0.0000 31.9030
#
#
#
# Elastic Compliance Matrix: (Units=1/GPa)
#
#
# Indices 1 2 3 4 5 6 
#
# 1 0.015576 -0.005045 0.002903 0.000000 -0.000090 0.000000
# 2 -0.005045 0.008233 -0.007744 0.000000 -0.005461 0.000000
# 3 0.002903 -0.007744 0.021382 0.000000 0.000459 0.000000
# 4 0.000000 0.000000 0.000000 0.019739 0.000000 -0.002122
# 5 -0.000090 -0.005461 0.000459 0.000000 0.049140 0.000000
# 6 0.000000 0.000000 0.000000 -0.002122 0.000000 0.031573
#
#
# Mechanical properties :
#
#
# Convention : Reuss Voigt Hill
#
# Bulk Modulus (GPa) = 39.34117 84.43706 61.88912
# Shear Modulus (GPa) = 28.75414 38.25917 33.50666
#
# Velocity S-wave (km/s) = 3.85861 4.45091 4.16530
# Velocity P-wave (km/s) = 6.34213 8.37470 7.42826
#
# Compressibility (1/GPa) = 0.02541866
#
# Stress axis : x y z
#
# Youngs Moduli (GPa) = 64.20184 121.46069 46.76856
#
# Poissons Ratio (x) = 0.61271 -0.13576
# Poissons Ratio (y) = 0.32387 0.36219
# Poissons Ratio (z) = -0.18636 0.94063
#
# Static dielectric constant tensor:
#      x y z
#    x 1.668880 0.000000 -0.016260 
#    y 0.000000 1.726820 0.000000 
#    z -0.016260 0.000000 1.633840 
# 
# From -- ./inp_files/52315.got.cif
#   From: 2010.05.17/outbox.cif.g08.bks.cpg/sg12_27_cif.got.tgz:52315.got - 2010.06.03 13:09:07.
