data_PCOD9207852
_publ_section_title
;
Structure prediction by ZEFSAII (Michael W. Deem and Ramdas Pophale) SiO2 
 PCOD9207852
Probable space group: C 2/M
;
_chemical_formula_sum "Si O2"
_cell_formula_units_Z 56
_cell_length_a 27.600275
_cell_length_b 9.164650
_cell_length_c 17.873155
_cell_angle_alpha 90.000000
_cell_angle_beta 141.030876
_cell_angle_gamma 90.000000
_cell_volume 2843.237568
_symmetry_space_group_name_H-M "C 2/M"
_symmetry_group_IT_number 12
_symmetry_cell_setting 'monoclinic'
loop_
_space_group_symop_operation_xyz
x,y,z
-x,y,-z
-x,-y,-z
x,-y,z
1/2+x,1/2+y,z
1/2-x,1/2+y,-z
1/2-x,1/2-y,-z
1/2+x,1/2-y,z
loop_
_atom_site_type_symbol
_atom_site_label
_atom_site_fract_x
_atom_site_fract_y
_atom_site_fract_z
Si Si1 0.411253 0.831019 0.089578
Si Si2 0.136340 0.834450 0.527395
Si Si3 0.457755 0.176419 0.872833
Si Si4 0.378349 0.331975 0.312093
Si Si5 0.786841 0.325499 0.617614
Si Si6 0.259366 0.672374 0.931398
Si Si7 0.509835 0.832491 0.656231
O O1 0.483364 0.793723 0.123995
O O2 0.436623 0.822278 0.206468
O O3 0.389436 0.000000 0.047714
O O4 0.338945 0.727295 0.991353
O O5 0.125431 0.828762 0.603276
O O6 0.223103 0.804138 0.605968
O O7 0.074563 0.721529 0.421539
O O8 0.117653 0.000000 0.479933
O O9 0.371369 0.227118 0.746783
O O10 0.451066 0.000000 0.872356
O O11 0.500000 0.228585 0.000000
O O12 0.367074 0.500000 0.274372
O O13 0.311010 0.228690 0.202092
O O14 0.455200 0.270474 0.365763
O O15 0.792984 0.500000 0.610512
O O16 0.750000 0.250000 0.500000
O O17 0.257861 0.500000 0.938944
O O18 0.250000 0.750000 0.000000
O O19 0.507895 0.000000 0.628564
#
# Coordination Sequence:
#
# PCOD9207852 Si02
#       7
#     8   8   8   8   8   8   8
#     4  10  21  37  60  88 119 158 201 247 300 355
#     4  10  23  39  60  88 120 158 201 248 304 361
#     4   9  19  36  63  92 119 156 208 260 304 360
#     4  11  23  39  60  87 121 158 199 250 300 357
#     4  10  21  40  64  92 121 159 208 257 312 367
#     4  12  24  39  60  88 120 160 201 244 297 359
#     4  11  22  37  59  88 122 161 202 245 295 360
#
# _framework density 19.695855999999999
#
# number of rings (size 3 to 8) (size 9 to 14) (size 15 to 20)
#    0.000    1.571    1.429    3.429    2.000    5.143 
#    0.000    0.714    0.000    0.857    0.000    0.000 
#    0.000    0.000    0.000    0.000    0.000    0.000 
#
# Total GULP energy -156372.329002 kJ/mol
# GULP energy per Si atom -5584.726036 kJ/mol
# Density = 1.965103 g / cm^3
# Si number density = 19.695856 Si / 1000 Ang^3
#
#
#
# Elastic Constant Matrix: (Units=GPa)
#
#
# Indices 1 2 3 4 5 6 
#
# 1 106.1996 46.6518 44.6602 0.0000 16.0759 0.0000
# 2 46.6518 91.2298 40.8189 0.0000 17.0978 0.0000
# 3 44.6602 40.8189 108.7158 0.0000 25.7500 0.0000
# 4 0.0000 0.0000 0.0000 30.1479 0.0000 6.9233
# 5 16.0759 17.0978 25.7500 0.0000 34.6842 0.0000
# 6 0.0000 0.0000 0.0000 6.9233 0.0000 21.5634
#
#
#
# Elastic Compliance Matrix: (Units=1/GPa)
#
#
# Indices 1 2 3 4 5 6 
#
# 1 0.013184 -0.005071 -0.003223 0.000000 -0.001218 0.000000
# 2 -0.005071 0.015469 -0.003004 0.000000 -0.003045 0.000000
# 3 -0.003223 -0.003004 0.013281 0.000000 -0.006885 0.000000
# 4 0.000000 0.000000 0.000000 0.035810 0.000000 -0.011497
# 5 -0.001218 -0.003045 -0.006885 0.000000 0.036009 0.000000
# 6 0.000000 0.000000 0.000000 -0.011497 0.000000 0.050066
#
#
# Mechanical properties :
#
#
# Convention : Reuss Voigt Hill
#
# Bulk Modulus (GPa) = 51.71294 63.37857 57.54576
# Shear Modulus (GPa) = 25.92530 28.88007 27.40268
#
# Velocity S-wave (km/s) = 3.63200 3.83339 3.73405
# Velocity P-wave (km/s) = 6.62580 7.20011 6.91892
#
# Compressibility (1/GPa) = 0.01933752
#
# Stress axis : x y z
#
# Youngs Moduli (GPa) = 75.85047 64.64437 75.29533
#
# Poissons Ratio (x) = 0.32783 0.24271
# Poissons Ratio (y) = 0.38466 0.22616
# Poissons Ratio (z) = 0.24450 0.19416
#
# Static dielectric constant tensor:
#      x y z
#    x 1.692630 0.000000 0.008690 
#    y 0.000000 1.674410 0.000000 
#    z 0.008690 0.000000 1.700040 
# 
# From -- ./inp_files/292588.got.cif
#   From: 2010.05.17/outbox.cif.g08.bks.cpg/sg12_147_cif.got.tgz:292588.got - 2010.06.03 13:09:07.
