data_PCOD9207669
_publ_section_title
;
Structure prediction by ZEFSAII (Michael W. Deem and Ramdas Pophale) SiO2 
 PCOD9207669
Probable space group: C 2/M
;
_chemical_formula_sum "Si O2"
_cell_formula_units_Z 50
_cell_length_a 27.543257
_cell_length_b 7.969836
_cell_length_c 13.277861
_cell_angle_alpha 90.000000
_cell_angle_beta 50.322392
_cell_angle_gamma 90.000000
_cell_volume 2243.290841
_symmetry_space_group_name_H-M "C 2/M"
_symmetry_group_IT_number 12
_symmetry_cell_setting 'monoclinic'
loop_
_space_group_symop_operation_xyz
x,y,z
-x,y,-z
-x,-y,-z
x,-y,z
1/2+x,1/2+y,z
1/2-x,1/2+y,-z
1/2-x,1/2-y,-z
1/2+x,1/2-y,z
loop_
_atom_site_type_symbol
_atom_site_label
_atom_site_fract_x
_atom_site_fract_y
_atom_site_fract_z
Si Si1 0.283694 0.698636 0.557633
Si Si2 0.111882 0.307212 0.303511
Si Si3 0.004850 0.195425 0.852583
Si Si4 0.500000 0.000000 0.000000
Si Si5 0.578518 0.804660 0.565902
Si Si6 0.125159 0.806853 0.067452
Si Si7 0.246150 0.807844 0.183648
O O1 0.296612 0.500000 0.536559
O O2 0.250000 0.750000 0.500000
O O3 0.349776 0.790148 0.489095
O O4 0.243058 0.731366 0.712633
O O5 0.092534 0.500000 0.316714
O O6 0.080210 0.241391 0.448165
O O7 0.101099 0.216284 0.212916
O O8 0.187427 0.299387 0.222733
O O9 0.036396 0.208087 0.701219
O O10 0.930979 0.239894 0.933626
O O11 0.011410 0.000000 0.876588
O O12 0.029818 0.346935 0.888454
O O13 0.559741 0.000000 0.588905
O O14 0.140650 0.000000 0.029864
O O15 0.189599 0.709641 0.962358
O O16 0.223892 0.000000 0.206005
#
# Coordination Sequence:
#
# PCOD9207669 Si02
#       7
#     8   8   8   2   8   8   8
#     4  10  21  37  59  89 122 162 214 271 325 387
#     4  10  21  37  64  94 129 170 212 262 325 389
#     4  11  26  46  69  98 129 172 220 270 327 390
#     4  12  26  48  72  88 132 164 222 268 332 384
#     4  10  21  41  65  93 127 168 213 266 326 387
#     4  11  24  40  61  92 130 167 217 266 321 389
#     4  10  21  37  59  87 127 171 215 262 324 384
#
# _framework density 22.288685000000001
#
# number of rings (size 3 to 8) (size 9 to 14) (size 15 to 20)
#    0.000    1.600    0.800    3.120    2.240    5.760 
#    2.880    4.800    0.000    0.000    0.000    0.000 
#    0.000    0.000    0.000    0.000    0.000    0.000 
#
# Total GULP energy -139425.883120 kJ/mol
# GULP energy per Si atom -5577.035325 kJ/mol
# Density = 2.223795 g / cm^3
# Si number density = 22.288685 Si / 1000 Ang^3
#
#
#
# Elastic Constant Matrix: (Units=GPa)
#
#
# Indices 1 2 3 4 5 6 
#
# 1 46.6427 14.3630 21.0027 0.0000 16.6482 0.0000
# 2 14.3630 65.5021 20.1410 0.0000 3.0320 0.0000
# 3 21.0027 20.1410 114.4894 0.0000 6.9778 0.0000
# 4 0.0000 0.0000 0.0000 20.9953 0.0000 0.3705
# 5 16.6482 3.0320 6.9778 0.0000 26.7022 0.0000
# 6 0.0000 0.0000 0.0000 0.3705 0.0000 12.2217
#
#
#
# Elastic Compliance Matrix: (Units=1/GPa)
#
#
# Indices 1 2 3 4 5 6 
#
# 1 0.030953 -0.004812 -0.003748 0.000000 -0.017772 0.000000
# 2 -0.004812 0.016920 -0.002195 0.000000 0.001652 0.000000
# 3 -0.003748 -0.002195 0.009807 0.000000 0.000024 0.000000
# 4 0.000000 0.000000 0.000000 0.047655 0.000000 -0.001445
# 5 -0.017772 0.001652 0.000024 0.000000 0.048337 0.000000
# 6 0.000000 0.000000 0.000000 -0.001445 0.000000 0.081866
#
#
# Mechanical properties :
#
#
# Convention : Reuss Voigt Hill
#
# Bulk Modulus (GPa) = 27.64750 37.51639 32.58195
# Shear Modulus (GPa) = 18.58018 23.39233 20.98626
#
# Velocity S-wave (km/s) = 2.89037 3.24314 3.07182
# Velocity P-wave (km/s) = 4.85492 5.55810 5.21837
#
# Compressibility (1/GPa) = 0.03616963
#
# Stress axis : x y z
#
# Youngs Moduli (GPa) = 32.30736 59.10116 101.97106
#
# Poissons Ratio (x) = 0.28439 0.38223
# Poissons Ratio (y) = 0.15546 0.22378
# Poissons Ratio (z) = 0.12110 0.12970
#
# Static dielectric constant tensor:
#      x y z
#    x 1.836880 0.000000 0.009930 
#    y 0.000000 1.755580 0.000000 
#    z 0.009930 0.000000 1.844260 
# 
# From -- ./inp_files/180548.got.cif
#   From: 2010.05.17/outbox.cif.g08.bks.cpg/sg12_91_cif.got.tgz:180548.got - 2010.06.03 13:09:07.
