data_PCOD9207694
_publ_section_title
;
Structure prediction by ZEFSAII (Michael W. Deem and Ramdas Pophale) SiO2 
 PCOD9207694
Probable space group: C 2/M
;
_chemical_formula_sum "Si O2"
_cell_formula_units_Z 48
_cell_length_a 10.924367
_cell_length_b 15.282943
_cell_length_c 14.577366
_cell_angle_alpha 90.000000
_cell_angle_beta 69.453326
_cell_angle_gamma 90.000000
_cell_volume 2278.964292
_symmetry_space_group_name_H-M "C 2/M"
_symmetry_group_IT_number 12
_symmetry_cell_setting 'monoclinic'
loop_
_space_group_symop_operation_xyz
x,y,z
-x,y,-z
-x,-y,-z
x,-y,z
1/2+x,1/2+y,z
1/2-x,1/2+y,-z
1/2-x,1/2-y,-z
1/2+x,1/2-y,z
loop_
_atom_site_type_symbol
_atom_site_label
_atom_site_fract_x
_atom_site_fract_y
_atom_site_fract_z
Si Si1 0.113680 0.599217 0.527779
Si Si2 0.573824 0.294009 0.759470
Si Si3 0.614923 0.301193 0.028738
Si Si4 0.045162 0.595276 0.757996
Si Si5 0.413784 0.393718 0.431361
Si Si6 0.760532 0.096039 0.157866
O O1 0.126648 0.500000 0.485676
O O2 0.061303 0.592698 0.644295
O O3 0.261990 0.631367 0.489618
O O4 0.000000 0.645939 0.500000
O O5 0.449710 0.317965 0.856405
O O6 0.599825 0.190679 0.765603
O O7 0.548849 0.333208 0.665344
O O8 0.698935 0.339625 0.772070
O O9 0.500000 0.254001 0.000000
O O10 0.750000 0.250000 0.000000
O O11 0.654406 0.382499 0.954155
O O12 0.096064 0.500000 0.779106
O O13 0.892326 0.600729 0.823471
O O14 0.500000 0.379000 0.500000
O O15 0.422907 0.500000 0.409719
O O16 0.791223 0.000000 0.184047
#
# Coordination Sequence:
#
# PCOD9207694 Si02
#       6
#     8   8   8   8   8   8
#     4   9  18  35  58  82 116 161 213 264 310 372
#     4  11  22  36  64  91 124 170 216 263 319 390
#     4  10  21  40  64  95 130 167 209 266 328 382
#     4  10  21  37  59  88 123 165 210 265 324 377
#     4  10  22  39  57  88 133 171 208 267 330 383
#     4  10  21  39  66  96 127 164 219 273 318 381
#
# _framework density 21.062197999999999
#
# number of rings (size 3 to 8) (size 9 to 14) (size 15 to 20)
#    0.000    2.000    1.667    1.500    0.000    9.000 
#    0.000    0.000    0.000   10.000    0.000    0.000 
#    0.000    0.000    0.000    0.000    0.000    0.000 
#
# Total GULP energy -133725.809841 kJ/mol
# GULP energy per Si atom -5571.908743 kJ/mol
# Density = 2.101426 g / cm^3
# Si number density = 21.062198 Si / 1000 Ang^3
#
#
#
# Elastic Constant Matrix: (Units=GPa)
#
#
# Indices 1 2 3 4 5 6 
#
# 1 78.5950 5.4364 -1.3205 0.0000 -12.1516 0.0000
# 2 5.4364 128.4789 -16.8093 0.0000 13.6765 0.0000
# 3 -1.3205 -16.8093 69.4923 0.0000 -7.7703 0.0000
# 4 0.0000 0.0000 0.0000 17.2690 0.0000 -17.9425
# 5 -12.1516 13.6765 -7.7703 0.0000 21.8835 0.0000
# 6 0.0000 0.0000 0.0000 -17.9425 0.0000 -32.4581
#
#
#
# Elastic Compliance Matrix: (Units=1/GPa)
#
#
# Indices 1 2 3 4 5 6 
#
# 1 0.014256 -0.001455 0.000943 0.000000 0.009161 0.000000
# 2 -0.001455 0.008638 0.001424 0.000000 -0.005701 0.000000
# 3 0.000943 0.001424 0.015320 0.000000 0.005073 0.000000
# 4 0.000000 0.000000 0.000000 0.036782 0.000000 -0.020333
# 5 0.009161 -0.005701 0.005073 0.000000 0.056147 0.000000
# 6 0.000000 0.000000 0.000000 -0.020333 0.000000 -0.019569
#
#
# Mechanical properties :
#
#
# Convention : Reuss Voigt Hill
#
# Bulk Modulus (GPa) = 24.97530 27.90881 26.44205
# Shear Modulus (GPa) = 40.61894 20.62285 30.62090
#
# Velocity S-wave (km/s) = 4.39626 3.13252 3.81705
# Velocity P-wave (km/s) = 6.13621 5.13449 5.65756
#
# Compressibility (1/GPa) = 0.04003956
#
# Stress axis : x y z
#
# Youngs Moduli (GPa) = 70.14461 115.76561 65.27497
#
# Poissons Ratio (x) = 0.16843 -0.06157
# Poissons Ratio (y) = 0.10206 -0.09298
# Poissons Ratio (z) = -0.06616 -0.16489
#
# Static dielectric constant tensor:
#      x y z
#    x 1.780040 0.000000 0.000430 
#    y 0.000000 1.835500 0.000000 
#    z 0.000430 0.000000 1.757850 
# 
# From -- ./inp_files/204854.got.cif
#   From: 2010.05.17/outbox.cif.g08.bks.cpg/sg12_103_cif.got.tgz:204854.got - 2010.06.03 13:09:07.
