data_PCOD9207922
_publ_section_title
;
Structure prediction by ZEFSAII (Michael W. Deem and Ramdas Pophale) SiO2 
 PCOD9207922
Probable space group: C 2/M
;
_chemical_formula_sum "Si O2"
_cell_formula_units_Z 48
_cell_length_a 17.689691
_cell_length_b 14.747428
_cell_length_c 17.646119
_cell_angle_alpha 90.000000
_cell_angle_beta 152.653063
_cell_angle_gamma 90.000000
_cell_volume 2114.731931
_symmetry_space_group_name_H-M "C 2/M"
_symmetry_group_IT_number 12
_symmetry_cell_setting 'monoclinic'
loop_
_space_group_symop_operation_xyz
x,y,z
-x,y,-z
-x,-y,-z
x,-y,z
1/2+x,1/2+y,z
1/2-x,1/2+y,-z
1/2-x,1/2-y,-z
1/2+x,1/2-y,z
loop_
_atom_site_type_symbol
_atom_site_label
_atom_site_fract_x
_atom_site_fract_y
_atom_site_fract_z
Si Si1 0.167322 0.096008 0.105268
Si Si2 0.982430 0.747970 0.334157
Si Si3 0.683088 0.897266 0.600869
Si Si4 0.129216 0.702182 0.046980
Si Si5 0.140551 0.395477 0.902435
Si Si6 0.463002 0.399278 0.726598
O O1 0.292105 0.108628 0.286643
O O2 0.129610 0.190320 0.032139
O O3 0.206275 0.000000 0.099997
O O4 0.000000 0.082131 0.000000
O O5 0.828863 0.804013 0.234726
O O6 0.921780 0.669820 0.220235
O O7 0.080824 0.820727 0.371539
O O8 0.086308 0.689860 0.485426
O O9 0.854037 0.893977 0.705510
O O10 0.617599 0.000000 0.526834
O O11 0.083200 0.646459 0.931532
O O12 0.000000 0.684368 0.000000
O O13 0.086349 0.500000 0.847861
O O14 0.340366 0.391892 0.085102
O O15 0.432596 0.500000 0.667863
#
# Coordination Sequence:
#
# PCOD9207922 Si02
#       6
#     8   8   8   8   8   8
#     4   9  20  35  57  85 115 155 197 236 295 366
#     4  11  22  37  61  95 121 153 200 257 304 346
#     4  10  21  37  60  91 122 153 193 251 310 357
#     4  10  22  38  60  85 123 164 204 237 295 359
#     4  10  22  39  63  91 120 158 205 251 295 353
#     4   9  19  36  59  87 121 156 194 239 297 361
#
# _framework density 22.697911999999999
#
# number of rings (size 3 to 8) (size 9 to 14) (size 15 to 20)
#    0.000    2.167    0.000    3.000    9.333    2.333 
#    0.000    1.667    0.000    1.000    0.000    4.667 
#    0.000    0.000    0.000    0.000    0.000    0.000 
#
# Total GULP energy -133874.213546 kJ/mol
# GULP energy per Si atom -5578.092231 kJ/mol
# Density = 2.264625 g / cm^3
# Si number density = 22.697912 Si / 1000 Ang^3
#
#
#
# Elastic Constant Matrix: (Units=GPa)
#
#
# Indices 1 2 3 4 5 6 
#
# 1 136.7793 50.1438 15.9833 0.0009 10.6304 0.0004
# 2 50.1438 132.8699 26.9019 0.0003 -11.0450 -0.0004
# 3 15.9833 26.9019 48.4921 0.0019 -11.9725 0.0003
# 4 0.0009 0.0003 0.0019 28.9766 0.0010 2.6596
# 5 10.6304 -11.0450 -11.9725 0.0010 23.8190 0.0003
# 6 0.0004 -0.0004 0.0003 2.6596 0.0003 28.7403
#
#
#
# Elastic Compliance Matrix: (Units=1/GPa)
#
#
# Indices 1 2 3 4 5 6 
#
# 1 0.009568 -0.003627 -0.002981 0.000000 -0.007450 0.000000
# 2 -0.003627 0.009920 -0.003166 0.000000 0.004627 0.000000
# 3 -0.002981 -0.003166 0.026632 -0.000002 0.013249 0.000000
# 4 0.000000 0.000000 -0.000002 0.034806 -0.000003 -0.003221
# 5 -0.007450 0.004627 0.013249 -0.000003 0.054114 0.000000
# 6 0.000000 0.000000 0.000000 -0.003221 0.000000 0.035092
#
#
# Mechanical properties :
#
#
# Convention : Reuss Voigt Hill
#
# Bulk Modulus (GPa) = 37.63172 56.02215 46.82693
# Shear Modulus (GPa) = 25.18418 31.31466 28.24942
#
# Velocity S-wave (km/s) = 3.33459 3.71836 3.53169
# Velocity P-wave (km/s) = 5.60726 6.57040 6.10784
#
# Compressibility (1/GPa) = 0.02657333
#
# Stress axis : x y z
#
# Youngs Moduli (GPa) = 104.51534 100.80224 37.54896
#
# Poissons Ratio (x) = 0.36557 0.11194
# Poissons Ratio (y) = 0.37903 0.11887
# Poissons Ratio (z) = 0.31158 0.31911
#
# Static dielectric constant tensor:
#      x y z
#    x 1.948570 0.000000 0.043690 
#    y 0.000000 1.859110 0.000000 
#    z 0.043690 0.000000 1.952650 
# 
# From -- ./inp_files/278245.got.cif
#   From: 2010.05.17/outbox.cif.g08.bks.cpg/sg12_140_cif.got.tgz:278245.got - 2010.06.03 13:09:07.
