data_PCOD9207301
_publ_section_title
;
Structure prediction by ZEFSAII (Michael W. Deem and Ramdas Pophale) SiO2 
 PCOD9207301
Probable space group: C 2/M
;
_chemical_formula_sum "Si O2"
_cell_formula_units_Z 64
_cell_length_a 21.870864
_cell_length_b 23.276303
_cell_length_c 19.266786
_cell_angle_alpha 90.000000
_cell_angle_beta 161.039318
_cell_angle_gamma 90.000000
_cell_volume 3186.872136
_symmetry_space_group_name_H-M "C 2/M"
_symmetry_group_IT_number 12
_symmetry_cell_setting 'monoclinic'
loop_
_space_group_symop_operation_xyz
x,y,z
-x,y,-z
-x,-y,-z
x,-y,z
1/2+x,1/2+y,z
1/2-x,1/2+y,-z
1/2-x,1/2-y,-z
1/2+x,1/2-y,z
loop_
_atom_site_type_symbol
_atom_site_label
_atom_site_fract_x
_atom_site_fract_y
_atom_site_fract_z
Si Si1 0.899207 0.229064 0.082702
Si Si2 0.773236 0.937391 0.131508
Si Si3 0.725096 0.938065 0.240559
Si Si4 0.625610 0.714098 0.192362
Si Si5 0.388217 0.932314 0.648812
Si Si6 0.508565 0.181784 0.321134
Si Si7 0.361467 0.316045 0.416992
Si Si8 0.947549 0.858907 0.648738
O O1 0.971226 0.283020 0.207636
O O2 0.984320 0.236524 0.099114
O O3 0.998669 0.174880 0.224897
O O4 0.680982 0.207666 0.845294
O O5 0.800048 0.932580 0.242372
O O6 0.878056 0.891436 0.198324
O O7 0.836877 0.000000 0.176183
O O8 0.552280 0.934094 0.881943
O O9 0.792263 0.881409 0.349315
O O10 0.787067 0.000000 0.335355
O O11 0.500000 0.938050 0.000000
O O12 0.707687 0.768349 0.239252
O O13 0.808025 0.689703 0.431214
O O14 0.500000 0.679700 0.000000
O O15 0.466117 0.885531 0.675693
O O16 0.210823 0.903450 0.496687
O O17 0.358517 0.000000 0.595119
O O18 0.500000 0.313061 0.500000
O O19 0.415350 0.309404 0.556001
#
# Coordination Sequence:
#
# PCOD9207301 Si02
#       8
#     8   8   8   8   8   8   8   8
#     4  11  24  43  71  96 128 178 218 277 334 390
#     4  10  21  37  57  90 130 175 223 270 315 371
#     4  10  21  38  55  79 127 183 228 265 312 368
#     4  12  27  43  66  98 133 166 215 278 338 402
#     4  11  23  38  65  99 130 167 223 281 326 393
#     4  11  23  44  71  98 133 171 223 272 338 398
#     4  12  25  38  58  91 133 176 227 269 320 373
#     4  12  21  40  64  92 129 173 223 270 321 381
#
# _framework density 20.082388000000002
#
# number of rings (size 3 to 8) (size 9 to 14) (size 15 to 20)
#    0.000    0.875    5.000    2.625    1.750    3.250 
#    0.000    0.000    0.000    0.375    0.000    0.875 
#    0.000    0.000    0.000    0.000    0.000    0.000 
#
# Total GULP energy -178211.138257 kJ/mol
# GULP energy per Si atom -5569.098071 kJ/mol
# Density = 2.003668 g / cm^3
# Si number density = 20.082388 Si / 1000 Ang^3
#
#
#
# Elastic Constant Matrix: (Units=GPa)
#
#
# Indices 1 2 3 4 5 6 
#
# 1 67.9847 21.5867 40.1384 -0.0004 9.2244 -0.0005
# 2 21.5867 103.7875 39.4697 -0.0001 4.2138 -0.0002
# 3 40.1384 39.4697 120.4589 -0.0013 -3.7821 -0.0015
# 4 -0.0004 -0.0001 -0.0013 24.1869 -0.0005 -6.8249
# 5 9.2244 4.2138 -3.7821 -0.0005 32.3634 -0.0004
# 6 -0.0005 -0.0002 -0.0015 -6.8249 -0.0004 -0.9958
#
#
#
# Elastic Compliance Matrix: (Units=1/GPa)
#
#
# Indices 1 2 3 4 5 6 
#
# 1 0.019721 -0.001461 -0.006286 0.000000 -0.006165 0.000001
# 2 -0.001461 0.011228 -0.003237 0.000000 -0.001424 0.000002
# 3 -0.006286 -0.003237 0.011569 -0.000001 0.003565 -0.000006
# 4 0.000000 0.000000 -0.000001 0.014092 -0.000001 -0.096581
# 5 -0.006165 -0.001424 0.003565 -0.000001 0.033258 -0.000008
# 6 0.000001 0.000002 -0.000006 -0.096581 -0.000008 -0.342279
#
#
# Mechanical properties :
#
#
# Convention : Reuss Voigt Hill
#
# Bulk Modulus (GPa) = 48.66253 54.95786 51.81019
# Shear Modulus (GPa) = -22.36203 23.84667 0.74232
#
# Velocity S-wave (km/s) = -3.34056 3.44967 0.60864
# Velocity P-wave (km/s) = 3.06675 6.57971 5.13310
#
# Compressibility (1/GPa) = 0.02054969
#
# Stress axis : x y z
#
# Youngs Moduli (GPa) = 50.70750 89.06581 86.43998
#
# Poissons Ratio (x) = 0.13011 0.54338
# Poissons Ratio (y) = 0.07408 0.27979
# Poissons Ratio (z) = 0.31876 0.28829
#
# Static dielectric constant tensor:
#      x y z
#    x 1.713900 0.000000 -0.025220 
#    y 0.000000 1.763870 0.000000 
#    z -0.025220 0.000000 1.835880 
# 
# From -- ./inp_files/286453.got.cif
#   From: 2010.05.17/outbox.cif.g08.bks.cpg/sg12_144_cif.got.tgz:286453.got - 2010.06.03 13:09:07.
