data_PCOD9207844
_publ_section_title
;
Structure prediction by ZEFSAII (Michael W. Deem and Ramdas Pophale) SiO2 
 PCOD9207844
Probable space group: C 2/M
;
_chemical_formula_sum "Si O2"
_cell_formula_units_Z 40
_cell_length_a 14.419537
_cell_length_b 22.137800
_cell_length_c 13.725323
_cell_angle_alpha 90.000000
_cell_angle_beta 150.698843
_cell_angle_gamma 90.000000
_cell_volume 2144.234941
_symmetry_space_group_name_H-M "C 2/M"
_symmetry_group_IT_number 12
_symmetry_cell_setting 'monoclinic'
loop_
_space_group_symop_operation_xyz
x,y,z
-x,y,-z
-x,-y,-z
x,-y,z
1/2+x,1/2+y,z
1/2-x,1/2+y,-z
1/2-x,1/2-y,-z
1/2+x,1/2-y,z
loop_
_atom_site_type_symbol
_atom_site_label
_atom_site_fract_x
_atom_site_fract_y
_atom_site_fract_z
Si Si1 0.222625 0.331539 0.442312
Si Si2 0.216348 0.735645 0.231664
Si Si3 0.221557 0.121580 0.221774
Si Si4 0.459215 0.070665 0.615478
Si Si5 0.427714 0.268583 0.229178
O O1 0.235949 0.305020 0.345502
O O2 0.134149 0.396837 0.377030
O O3 0.434280 0.322554 0.679647
O O4 0.073297 0.287443 0.359407
O O5 0.250814 0.807604 0.274070
O O6 0.349097 0.717261 0.263664
O O7 0.000000 0.729824 0.000000
O O8 0.309981 0.083262 0.391125
O O9 0.347954 0.103136 0.244100
O O10 0.000000 0.111430 0.000000
O O11 0.490747 0.000000 0.656640
O O12 0.250000 0.250000 0.000000
#
# Coordination Sequence:
#
# PCOD9207844 Si02
#       5
#     8   8   8   8   8
#     4  11  23  36  58  85 122 158 189 239 299 351
#     4  11  21  36  61  92 122 148 185 248 312 364
#     4  10  21  37  60  88 118 152 194 251 310 354
#     4  11  24  39  56  83 120 164 207 238 281 352
#     4  11  21  36  59  90 120 149 190 242 308 359
#
# _framework density 18.654672000000001
#
# number of rings (size 3 to 8) (size 9 to 14) (size 15 to 20)
#    0.000    1.200    4.000    4.200    5.600    1.600 
#    0.000    0.000    0.000    3.000    0.000    0.000 
#    0.000    0.000    0.000    0.000    0.000    0.000 
#
# Total GULP energy -111660.264600 kJ/mol
# GULP energy per Si atom -5583.013230 kJ/mol
# Density = 1.861221 g / cm^3
# Si number density = 18.654672 Si / 1000 Ang^3
#
#
#
# Elastic Constant Matrix: (Units=GPa)
#
#
# Indices 1 2 3 4 5 6 
#
# 1 144.7144 60.2327 51.2426 0.0000 21.0335 0.0000
# 2 60.2327 88.5488 29.7886 0.0000 10.7371 0.0000
# 3 51.2426 29.7886 123.9768 0.0000 26.2077 0.0000
# 4 0.0000 0.0000 0.0000 12.2714 0.0000 -0.2618
# 5 21.0335 10.7371 26.2077 0.0000 31.8966 0.0000
# 6 0.0000 0.0000 0.0000 -0.2618 0.0000 24.2314
#
#
#
# Elastic Compliance Matrix: (Units=1/GPa)
#
#
# Indices 1 2 3 4 5 6 
#
# 1 0.010739 -0.006153 -0.002301 0.000000 -0.003120 0.000000
# 2 -0.006153 0.015925 -0.001220 0.000000 -0.000301 0.000000
# 3 -0.002301 -0.001220 0.010774 0.000000 -0.006924 0.000000
# 4 0.000000 0.000000 0.000000 0.081509 0.000000 0.000881
# 5 -0.003120 -0.000301 -0.006924 0.000000 0.039200 0.000000
# 6 0.000000 0.000000 0.000000 0.000881 0.000000 0.041278
#
#
# Mechanical properties :
#
#
# Convention : Reuss Voigt Hill
#
# Bulk Modulus (GPa) = 55.27345 71.08531 63.17938
# Shear Modulus (GPa) = 22.24176 28.07828 25.16002
#
# Velocity S-wave (km/s) = 3.45670 3.88385 3.67648
# Velocity P-wave (km/s) = 6.75469 7.63551 7.20857
#
# Compressibility (1/GPa) = 0.01809187
#
# Stress axis : x y z
#
# Youngs Moduli (GPa) = 93.11655 62.79339 92.81709
#
# Poissons Ratio (x) = 0.38635 0.21356
# Poissons Ratio (y) = 0.57292 0.11321
# Poissons Ratio (z) = 0.21425 0.07659
#
# Static dielectric constant tensor:
#      x y z
#    x 1.687670 0.000000 -0.022730 
#    y 0.000000 1.642890 0.000000 
#    z -0.022730 0.000000 1.710940 
# 
# From -- ./inp_files/217496.got.cif
#   From: 2010.05.17/outbox.cif.g08.bks.cpg/sg12_109_cif.got.tgz:217496.got - 2010.06.03 13:09:07.
