data_PCOD9207695
_publ_section_title
;
Structure prediction by ZEFSAII (Michael W. Deem and Ramdas Pophale) SiO2 
 PCOD9207695
Probable space group: C 2/M
;
_chemical_formula_sum "Si O2"
_cell_formula_units_Z 64
_cell_length_a 7.757488
_cell_length_b 24.716276
_cell_length_c 16.188693
_cell_angle_alpha 90.000000
_cell_angle_beta 77.493672
_cell_angle_gamma 90.000000
_cell_volume 3030.308281
_symmetry_space_group_name_H-M "C 2/M"
_symmetry_group_IT_number 12
_symmetry_cell_setting 'monoclinic'
loop_
_space_group_symop_operation_xyz
x,y,z
-x,y,-z
-x,-y,-z
x,-y,z
1/2+x,1/2+y,z
1/2-x,1/2+y,-z
1/2-x,1/2-y,-z
1/2+x,1/2-y,z
loop_
_atom_site_type_symbol
_atom_site_label
_atom_site_fract_x
_atom_site_fract_y
_atom_site_fract_z
Si Si1 0.276998 0.200758 0.388585
Si Si2 0.269987 0.327021 0.176620
Si Si3 0.365032 0.165785 0.204715
Si Si4 0.319361 0.560520 0.760088
Si Si5 0.653467 0.774377 0.933150
Si Si6 0.317647 0.179402 0.620285
Si Si7 0.479653 0.609253 0.415891
Si Si8 0.558473 0.438390 0.897860
O O1 0.294881 0.200247 0.287470
O O2 0.468609 0.179709 0.399465
O O3 0.237882 0.262937 0.412900
O O4 0.115225 0.159721 0.417228
O O5 0.377508 0.277754 0.123318
O O6 0.258192 0.324633 0.277746
O O7 0.327873 0.385864 0.138633
O O8 0.066897 0.319219 0.170202
O O9 0.337712 0.103573 0.227257
O O10 0.257611 0.182080 0.134857
O O11 0.260158 0.500000 0.749774
O O12 0.453599 0.579021 0.673468
O O13 0.408113 0.562228 0.841685
O O14 0.500000 0.803673 0.000000
O O15 0.750000 0.750000 0.000000
O O16 0.215103 0.132712 0.581782
O O17 0.500000 0.577336 0.500000
O O18 0.636769 0.500000 0.883798
O O19 0.500000 0.432339 0.000000
#
# Coordination Sequence:
#
# PCOD9207695 Si02
#       8
#     8   8   8   8   8   8   8   8
#     4  10  21  37  59  88 126 167 203 246 300 371
#     4  11  22  37  59  85 122 168 200 251 302 360
#     4  10  23  37  56  86 117 158 209 246 304 368
#     4  10  23  44  66  87 116 154 205 264 312 365
#     4  12  24  34  53  89 128 161 203 249 298 364
#     4  11  20  37  61  88 126 170 206 246 303 370
#     4  11  24  41  64  92 124 162 205 255 314 379
#     4  10  22  39  61  88 116 156 206 252 302 358
#
# _framework density 21.119962999999998
#
# number of rings (size 3 to 8) (size 9 to 14) (size 15 to 20)
#    0.000    1.375    5.000    0.375    3.500    1.750 
#    0.000    0.000    0.000    2.625    0.000    3.500 
#    0.000    0.000    0.000    0.000    0.000    0.000 
#
# Total GULP energy -178388.899150 kJ/mol
# GULP energy per Si atom -5574.653098 kJ/mol
# Density = 2.107189 g / cm^3
# Si number density = 21.119963 Si / 1000 Ang^3
#
#
#
# Elastic Constant Matrix: (Units=GPa)
#
#
# Indices 1 2 3 4 5 6 
#
# 1 44.5173 1.1588 29.2974 0.0000 0.4684 0.0000
# 2 1.1588 106.4154 17.3312 0.0000 -8.3050 0.0000
# 3 29.2974 17.3312 119.7137 0.0000 18.9676 0.0000
# 4 0.0000 0.0000 0.0000 1.2943 0.0000 7.9029
# 5 0.4684 -8.3050 18.9676 0.0000 29.2462 0.0000
# 6 0.0000 0.0000 0.0000 7.9029 0.0000 16.8303
#
#
#
# Elastic Compliance Matrix: (Units=1/GPa)
#
#
# Indices 1 2 3 4 5 6 
#
# 1 0.027437 0.001338 -0.007689 0.000000 0.004927 0.000000
# 2 0.001338 0.010141 -0.002506 0.000000 0.004483 0.000000
# 3 -0.007689 -0.002506 0.011915 0.000000 -0.008316 0.000000
# 4 0.000000 0.000000 0.000000 -0.413808 0.000000 0.194309
# 5 0.004927 0.004483 -0.008316 0.000000 0.040780 0.000000
# 6 0.000000 0.000000 0.000000 0.194309 0.000000 -0.031823
#
#
# Mechanical properties :
#
#
# Convention : Reuss Voigt Hill
#
# Bulk Modulus (GPa) = 31.46726 40.69126 36.07926
# Shear Modulus (GPa) = -15.28810 24.33143 4.52167
#
# Velocity S-wave (km/s) = -2.69340 3.39788 1.46478
# Velocity P-wave (km/s) = 2.29327 5.89090 4.47000
#
# Compressibility (1/GPa) = 0.03177906
#
# Stress axis : x y z
#
# Youngs Moduli (GPa) = 36.44755 98.61375 83.92534
#
# Poissons Ratio (x) = -0.13195 0.64529
# Poissons Ratio (y) = -0.04877 0.21031
# Poissons Ratio (z) = 0.28024 0.24711
#
# Static dielectric constant tensor:
#      x y z
#    x 1.846280 0.000000 0.043540 
#    y 0.000000 1.741540 0.000000 
#    z 0.043540 0.000000 1.833090 
# 
# From -- ./inp_files/199748.got.cif
#   From: 2010.05.17/outbox.cif.g08.bks.cpg/sg12_100_cif.got.tgz:199748.got - 2010.06.03 13:09:07.
