data_PCOD9207093
_publ_section_title
;
Structure prediction by ZEFSAII (Michael W. Deem and Ramdas Pophale) SiO2 
 PCOD9207093
Probable space group: C 2/M
;
_chemical_formula_sum "Si O2"
_cell_formula_units_Z 56
_cell_length_a 16.466657
_cell_length_b 15.279986
_cell_length_c 11.501124
_cell_angle_alpha 90.000000
_cell_angle_beta 63.166268
_cell_angle_gamma 90.000000
_cell_volume 2582.197248
_symmetry_space_group_name_H-M "C 2/M"
_symmetry_group_IT_number 12
_symmetry_cell_setting 'monoclinic'
loop_
_space_group_symop_operation_xyz
x,y,z
-x,y,-z
-x,-y,-z
x,-y,z
1/2+x,1/2+y,z
1/2-x,1/2+y,-z
1/2-x,1/2-y,-z
1/2+x,1/2-y,z
loop_
_atom_site_type_symbol
_atom_site_label
_atom_site_fract_x
_atom_site_fract_y
_atom_site_fract_z
Si Si1 0.600504 0.658248 0.548320
Si Si2 0.634640 0.849320 0.243958
Si Si3 0.899974 0.858326 0.717264
Si Si4 0.244916 0.403094 0.384483
Si Si5 0.231851 0.653347 0.957649
Si Si6 0.563343 0.857549 0.616729
Si Si7 0.090703 0.396228 0.864183
O O1 0.623317 0.624891 0.403689
O O2 0.506116 0.616999 0.656613
O O3 0.682703 0.646355 0.583297
O O4 0.578294 0.761130 0.553370
O O5 0.609196 0.746511 0.255037
O O6 0.715593 0.859747 0.283002
O O7 0.538336 0.890997 0.343785
O O8 0.670159 0.887574 0.099269
O O9 0.825956 0.892003 0.857250
O O10 0.280877 0.500000 0.339303
O O11 0.150015 0.408450 0.514726
O O12 0.171083 0.652567 0.880871
O O13 0.250000 0.750000 0.000000
O O14 0.571583 0.855604 0.750852
O O15 0.112573 0.500000 0.837663
O O16 0.000000 0.389225 0.000000
#
# Coordination Sequence:
#
# PCOD9207093 Si02
#       7
#     8   8   8   8   8   8   8
#     4  10  21  39  63  88 120 153 208 257 294 351
#     4  10  21  37  56  90 122 155 196 245 298 368
#     4   9  19  39  63  87 110 155 208 257 291 337
#     4  12  25  37  57  92 126 159 196 247 313 365
#     4  10  21  38  61  88 120 159 209 241 295 362
#     4  11  21  38  63  87 119 162 206 243 301 363
#     4  11  23  38  58  90 128 158 195 250 305 357
#
# _framework density 21.686955000000001
#
# number of rings (size 3 to 8) (size 9 to 14) (size 15 to 20)
#    0.000    1.571    2.857    2.143    4.000    2.286 
#    0.000    2.857    0.000    0.857    0.000    0.000 
#    0.000    0.000    0.000    0.000    0.000    0.000 
#
# Total GULP energy -156279.232442 kJ/mol
# GULP energy per Si atom -5581.401159 kJ/mol
# Density = 2.163759 g / cm^3
# Si number density = 21.686955 Si / 1000 Ang^3
#
#
#
# Elastic Constant Matrix: (Units=GPa)
#
#
# Indices 1 2 3 4 5 6 
#
# 1 139.9741 6.5479 41.9558 0.0000 2.3825 0.0000
# 2 6.5479 46.6644 -9.8243 0.0000 -7.2548 0.0000
# 3 41.9558 -9.8243 117.3540 0.0000 -10.9623 0.0000
# 4 0.0000 0.0000 0.0000 -15.2868 0.0000 -24.6253
# 5 2.3825 -7.2548 -10.9623 0.0000 38.4466 0.0000
# 6 0.0000 0.0000 0.0000 -24.6253 0.0000 -64.3651
#
#
#
# Elastic Compliance Matrix: (Units=1/GPa)
#
#
# Indices 1 2 3 4 5 6 
#
# 1 0.008268 -0.002146 -0.003310 0.000000 -0.001861 0.000000
# 2 -0.002146 0.023255 0.003222 0.000000 0.005440 0.000000
# 3 -0.003310 0.003222 0.010325 0.000000 0.003757 0.000000
# 4 0.000000 0.000000 0.000000 -0.170490 0.000000 0.065228
# 5 -0.001861 0.005440 0.003757 0.000000 0.028223 0.000000
# 6 0.000000 0.000000 0.000000 0.065228 0.000000 -0.040492
#
#
# Mechanical properties :
#
#
# Convention : Reuss Voigt Hill
#
# Bulk Modulus (GPa) = 26.75142 42.37237 34.56189
# Shear Modulus (GPa) = -40.32821 9.44647 -15.44087
#
# Velocity S-wave (km/s) = -4.31694 2.08933 -2.67121
# Velocity P-wave (km/s) = 3.53354 5.03994 2.54117
#
# Compressibility (1/GPa) = 0.03738119
#
# Stress axis : x y z
#
# Youngs Moduli (GPa) = 120.94447 43.00170 96.85084
#
# Poissons Ratio (x) = 0.09229 0.32053
# Poissons Ratio (y) = 0.25958 -0.31208
# Poissons Ratio (z) = 0.40027 -0.13856
#
# Static dielectric constant tensor:
#      x y z
#    x 1.815280 0.000000 -0.045530 
#    y 0.000000 1.824370 0.000000 
#    z -0.045530 0.000000 1.833060 
# 
# From -- ./inp_files/145515.got.cif
#   From: 2010.05.17/outbox.cif.g08.bks.cpg/sg12_73_cif.got.tgz:145515.got - 2010.06.03 13:09:07.
