data_PCOD9207115
_publ_section_title
;
Structure prediction by ZEFSAII (Michael W. Deem and Ramdas Pophale) SiO2 
 PCOD9207115
Probable space group: C 2/M
;
_chemical_formula_sum "Si O2"
_cell_formula_units_Z 40
_cell_length_a 20.912614
_cell_length_b 8.842825
_cell_length_c 14.758445
_cell_angle_alpha 90.000000
_cell_angle_beta 121.034582
_cell_angle_gamma 90.000000
_cell_volume 2338.556886
_symmetry_space_group_name_H-M "C 2/M"
_symmetry_group_IT_number 12
_symmetry_cell_setting 'monoclinic'
loop_
_space_group_symop_operation_xyz
x,y,z
-x,y,-z
-x,-y,-z
x,-y,z
1/2+x,1/2+y,z
1/2-x,1/2+y,-z
1/2-x,1/2-y,-z
1/2+x,1/2-y,z
loop_
_atom_site_type_symbol
_atom_site_label
_atom_site_fract_x
_atom_site_fract_y
_atom_site_fract_z
Si Si1 0.981712 0.818087 0.273424
Si Si2 0.658267 0.179155 0.722083
Si Si3 0.783326 0.319842 0.931900
Si Si4 0.420863 0.325406 0.496225
Si Si5 0.946812 0.818593 0.044196
O O1 0.909833 0.736938 0.264085
O O2 0.984327 0.786574 0.169008
O O3 0.054648 0.775817 0.385378
O O4 0.971758 0.000000 0.278680
O O5 0.732025 0.259568 0.812876
O O6 0.635603 0.227062 0.603799
O O7 0.665410 0.000000 0.735076
O O8 0.779203 0.500000 0.934362
O O9 0.750000 0.250000 0.000000
O O10 0.867820 0.264428 0.983009
O O11 0.500000 0.321645 0.500000
O O12 0.395797 0.500000 0.479114
O O13 0.933636 0.000000 0.030484
O O14 0.000000 0.776509 0.000000
#
# Coordination Sequence:
#
# PCOD9207115 Si02
#       5
#     8   8   8   8   8
#     4   9  17  31  51  74 106 143 176 214 263 318
#     4  11  20  30  49  78 107 137 173 222 270 314
#     4  12  23  36  55  79 108 142 179 224 271 318
#     4   8  15  28  46  71 103 139 173 212 264 318
#     4  10  21  37  57  81 110 145 181 217 263 323
#
# _framework density 17.104565999999998
#
# number of rings (size 3 to 8) (size 9 to 14) (size 15 to 20)
#    0.000    2.000    2.000    4.800    0.000    4.000 
#    0.000    0.000    0.000    1.200    0.000    0.000 
#    0.000    0.000    0.000    0.000    0.000    0.000 
#
# Total GULP energy -111582.772234 kJ/mol
# GULP energy per Si atom -5579.138612 kJ/mol
# Density = 1.706564 g / cm^3
# Si number density = 17.104566 Si / 1000 Ang^3
#
#
#
# Elastic Constant Matrix: (Units=GPa)
#
#
# Indices 1 2 3 4 5 6 
#
# 1 78.0996 49.1335 66.5871 0.0000 -4.8192 0.0000
# 2 49.1335 86.9971 70.2020 0.0000 -0.8088 0.0000
# 3 66.5871 70.2020 175.8228 0.0000 -6.4262 0.0000
# 4 0.0000 0.0000 0.0000 27.8032 0.0000 5.6815
# 5 -4.8192 -0.8088 -6.4262 0.0000 16.4446 0.0000
# 6 0.0000 0.0000 0.0000 5.6815 0.0000 18.1204
#
#
#
# Elastic Compliance Matrix: (Units=1/GPa)
#
#
# Indices 1 2 3 4 5 6 
#
# 1 0.022893 -0.008882 -0.004965 0.000000 0.004332 0.000000
# 2 -0.008882 0.020460 -0.004934 0.000000 -0.003525 0.000000
# 3 -0.004965 -0.004934 0.009613 0.000000 0.002059 0.000000
# 4 0.000000 0.000000 0.000000 0.038429 0.000000 -0.012049
# 5 0.004332 -0.003525 0.002059 0.000000 0.062711 0.000000
# 6 0.000000 0.000000 0.000000 -0.012049 0.000000 0.058964
#
#
# Mechanical properties :
#
#
# Convention : Reuss Voigt Hill
#
# Bulk Modulus (GPa) = 64.92309 79.19608 72.05958
# Shear Modulus (GPa) = 19.54901 22.80676 21.17789
#
# Velocity S-wave (km/s) = 3.38437 3.65550 3.52254
# Velocity P-wave (km/s) = 7.30143 8.01365 7.66582
#
# Compressibility (1/GPa) = 0.01540284
#
# Stress axis : x y z
#
# Youngs Moduli (GPa) = 43.68235 48.87602 104.02363
#
# Poissons Ratio (x) = 0.43413 0.51647
# Poissons Ratio (y) = 0.38800 0.51327
# Poissons Ratio (z) = 0.21688 0.24116
#
# Static dielectric constant tensor:
#      x y z
#    x 1.541640 0.000000 -0.018700 
#    y 0.000000 1.572280 0.000000 
#    z -0.018700 0.000000 1.621950 
# 
# From -- ./inp_files/229102.got.cif
#   From: 2010.05.17/outbox.cif.g08.bks.cpg/sg12_115_cif.got.tgz:229102.got - 2010.06.03 13:09:07.
