data_PCOD9207797
_publ_section_title
;
Structure prediction by ZEFSAII (Michael W. Deem and Ramdas Pophale) SiO2 
 PCOD9207797
Probable space group: C 2/M
;
_chemical_formula_sum "Si O2"
_cell_formula_units_Z 56
_cell_length_a 22.423249
_cell_length_b 15.216811
_cell_length_c 7.699120
_cell_angle_alpha 90.000000
_cell_angle_beta 64.261369
_cell_angle_gamma 90.000000
_cell_volume 2366.378137
_symmetry_space_group_name_H-M "C 2/M"
_symmetry_group_IT_number 12
_symmetry_cell_setting 'monoclinic'
loop_
_space_group_symop_operation_xyz
x,y,z
-x,y,-z
-x,-y,-z
x,-y,z
1/2+x,1/2+y,z
1/2-x,1/2+y,-z
1/2-x,1/2-y,-z
1/2+x,1/2-y,z
loop_
_atom_site_type_symbol
_atom_site_label
_atom_site_fract_x
_atom_site_fract_y
_atom_site_fract_z
Si Si1 0.923116 0.596273 0.162299
Si Si2 0.702140 0.393489 0.734851
Si Si3 0.422685 0.706509 0.136060
Si Si4 0.713392 0.603928 0.327736
Si Si5 0.928388 0.165493 0.536846
Si Si6 0.704139 0.898864 0.084847
Si Si7 0.073818 0.369070 0.431374
O O1 0.893859 0.500000 0.150049
O O2 0.901804 0.692720 0.125966
O O3 0.912244 0.606679 0.385061
O O4 0.000000 0.592592 0.000000
O O5 0.700017 0.500000 0.733724
O O6 0.630639 0.357166 0.882935
O O7 0.716321 0.360585 0.520639
O O8 0.758703 0.361293 0.793634
O O9 0.423322 0.680343 0.337427
O O10 0.500000 0.697606 0.000000
O O11 0.723153 0.500000 0.338139
O O12 0.640561 0.617857 0.335524
O O13 0.768106 0.640887 0.127221
O O14 0.927083 0.264965 0.607150
O O15 0.000000 0.126472 0.500000
O O16 0.627386 0.901602 0.227466
O O17 0.726374 0.000000 0.049041
O O18 0.000000 0.402263 0.500000
#
# Coordination Sequence:
#
# PCOD9207797 Si02
#       7
#     8   8   8   8   8   8   8
#     4   9  18  35  56  80 113 149 191 241 293 350
#     4   9  19  37  57  84 122 155 193 244 291 349
#     4   9  18  32  54  83 115 154 198 240 291 345
#     4   9  19  37  57  83 120 156 195 237 287 352
#     4   9  19  34  55  82 116 150 191 242 290 343
#     4  10  21  37  60  85 114 156 196 238 295 355
#     4  10  21  39  59  85 113 145 193 247 298 354
#
# _framework density 23.664857000000001
#
# number of rings (size 3 to 8) (size 9 to 14) (size 15 to 20)
#    0.000    2.714    0.000    0.429    2.000    2.286 
#    2.571    6.429    0.000    0.000    0.000    0.000 
#    0.000    0.000    0.000    0.000    0.000    0.000 
#
# Total GULP energy -156199.300080 kJ/mol
# GULP energy per Si atom -5578.546431 kJ/mol
# Density = 2.361099 g / cm^3
# Si number density = 23.664857 Si / 1000 Ang^3
#
#
#
# Elastic Constant Matrix: (Units=GPa)
#
#
# Indices 1 2 3 4 5 6 
#
# 1 95.8563 17.3574 40.5707 0.0000 -22.0555 0.0000
# 2 17.3574 44.7163 24.5663 0.0000 -0.7608 0.0000
# 3 40.5707 24.5663 134.4830 0.0000 -25.3456 0.0000
# 4 0.0000 0.0000 0.0000 -27.7307 0.0000 25.8600
# 5 -22.0555 -0.7608 -25.3456 0.0000 25.0776 0.0000
# 6 0.0000 0.0000 0.0000 25.8600 0.0000 -0.0032
#
#
#
# Elastic Compliance Matrix: (Units=1/GPa)
#
#
# Indices 1 2 3 4 5 6 
#
# 1 0.014428 -0.004637 -0.001409 0.000000 0.011124 0.000000
# 2 -0.004637 0.026812 -0.005082 0.000000 -0.008401 0.000000
# 3 -0.001409 -0.005082 0.010533 0.000000 0.009252 0.000000
# 4 0.000000 0.000000 0.000000 0.000005 0.000000 0.038675
# 5 0.011124 -0.008401 0.009252 0.000000 0.058756 0.000000
# 6 0.000000 0.000000 0.000000 0.038675 0.000000 0.041472
#
#
# Mechanical properties :
#
#
# Convention : Reuss Voigt Hill
#
# Bulk Modulus (GPa) = 33.87926 48.89383 41.38655
# Shear Modulus (GPa) = 27.15876 12.30616 19.73246
#
# Velocity S-wave (km/s) = 3.39136 2.28286 2.89074
# Velocity P-wave (km/s) = 5.44816 5.25875 5.35429
#
# Compressibility (1/GPa) = 0.02951658
#
# Stress axis : x y z
#
# Youngs Moduli (GPa) = 69.31018 37.29617 94.93883
#
# Poissons Ratio (x) = 0.17295 0.13376
# Poissons Ratio (y) = 0.32140 0.48251
# Poissons Ratio (z) = 0.09765 0.18955
#
# Static dielectric constant tensor:
#      x y z
#    x 1.939460 0.000000 0.001630 
#    y 0.000000 1.904180 0.000000 
#    z 0.001630 0.000000 1.937340 
# 
# From -- ./inp_files/98065.got.cif
#   From: 2010.05.17/outbox.cif.g08.bks.cpg/sg12_50_cif.got.tgz:98065.got - 2010.06.03 13:09:07.
