data_PCOD9207941
_publ_section_title
;
Structure prediction by ZEFSAII (Michael W. Deem and Ramdas Pophale) SiO2 
 PCOD9207941
Probable space group: C 2/M
;
_chemical_formula_sum "Si O2"
_cell_formula_units_Z 56
_cell_length_a 22.206163
_cell_length_b 15.444224
_cell_length_c 15.247346
_cell_angle_alpha 90.000000
_cell_angle_beta 33.405982
_cell_angle_gamma 90.000000
_cell_volume 2879.020503
_symmetry_space_group_name_H-M "C 2/M"
_symmetry_group_IT_number 12
_symmetry_cell_setting 'monoclinic'
loop_
_space_group_symop_operation_xyz
x,y,z
-x,y,-z
-x,-y,-z
x,-y,z
1/2+x,1/2+y,z
1/2-x,1/2+y,-z
1/2-x,1/2-y,-z
1/2+x,1/2-y,z
loop_
_atom_site_type_symbol
_atom_site_label
_atom_site_fract_x
_atom_site_fract_y
_atom_site_fract_z
Si Si1 0.889756 0.404687 0.189788
Si Si2 0.993957 0.149484 0.714295
Si Si3 0.630849 0.594465 0.839395
Si Si4 0.404154 0.237467 0.678926
Si Si5 0.663071 0.597885 0.360266
Si Si6 0.779599 0.904595 0.072517
Si Si7 0.140810 0.770040 0.683758
O O1 0.873517 0.500000 0.251429
O O2 0.782402 0.389663 0.259524
O O3 0.905063 0.323103 0.233815
O O4 0.000000 0.408521 0.000000
O O5 0.959209 0.233890 0.702413
O O6 0.073907 0.102202 0.547705
O O7 0.060936 0.174645 0.719486
O O8 0.881120 0.106014 0.882393
O O9 0.662177 0.500000 0.763895
O O10 0.671447 0.598349 0.888972
O O11 0.669552 0.673877 0.734221
O O12 0.500000 0.599333 0.000000
O O13 0.500000 0.199943 0.500000
O O14 0.362771 0.324854 0.677274
O O15 0.308049 0.171984 0.819937
O O16 0.658511 0.500000 0.327639
O O17 0.730017 0.000000 0.118705
O O18 0.250000 0.750000 0.500000
#
# Coordination Sequence:
#
# PCOD9207941 Si02
#       7
#     8   8   8   8   8   8   8
#     4  10  22  39  60  89 121 159 200 238 293 362
#     4  11  23  39  61  92 121 155 204 250 295 352
#     4  10  21  37  60  92 120 150 195 246 298 355
#     4  10  24  42  61  88 123 155 206 249 297 357
#     4  10  21  40  65  90 121 158 200 253 300 345
#     4  11  23  41  65  88 119 161 201 248 300 352
#     4  12  23  37  63  89 124 158 188 243 309 348
#
# _framework density 19.451059999999998
#
# number of rings (size 3 to 8) (size 9 to 14) (size 15 to 20)
#    0.000    1.429    2.857    2.143    4.000    4.571 
#    0.000    0.714    0.000    0.000    0.000    0.000 
#    0.000    0.000    0.000    0.000    0.000    0.000 
#
# Total GULP energy -156246.283458 kJ/mol
# GULP energy per Si atom -5580.224409 kJ/mol
# Density = 1.940679 g / cm^3
# Si number density = 19.451060 Si / 1000 Ang^3
#
#
#
# Elastic Constant Matrix: (Units=GPa)
#
#
# Indices 1 2 3 4 5 6 
#
# 1 17.2079 -15.7385 8.3687 0.0000 -4.6427 0.0000
# 2 -15.7385 75.4940 41.6962 0.0000 1.9760 0.0000
# 3 8.3687 41.6962 104.5937 0.0000 -8.6111 0.0000
# 4 0.0000 0.0000 0.0000 10.5962 0.0000 -3.8973
# 5 -4.6427 1.9760 -8.6111 0.0000 31.4500 0.0000
# 6 0.0000 0.0000 0.0000 -3.8973 0.0000 -5.4937
#
#
#
# Elastic Compliance Matrix: (Units=1/GPa)
#
#
# Indices 1 2 3 4 5 6 
#
# 1 0.098060 0.031116 -0.019663 0.000000 0.007137 0.000000
# 2 0.031116 0.027139 -0.013372 0.000000 -0.000773 0.000000
# 3 -0.019663 -0.013372 0.016671 0.000000 0.002502 0.000000
# 4 0.000000 0.000000 0.000000 0.074845 0.000000 -0.053095
# 5 0.007137 -0.000773 0.002502 0.000000 0.033584 0.000000
# 6 0.000000 0.000000 0.000000 -0.053095 0.000000 -0.144361
#
#
# Mechanical properties :
#
#
# Convention : Reuss Voigt Hill
#
# Bulk Modulus (GPa) = 7.24468 29.54981 18.39724
# Shear Modulus (GPa) = 32.09523 18.17511 25.13517
#
# Velocity S-wave (km/s) = 4.06649 3.06012 3.59865
# Velocity P-wave (km/s) = 5.07751 5.26409 5.17164
#
# Compressibility (1/GPa) = 0.13803236
#
# Stress axis : x y z
#
# Youngs Moduli (GPa) = 10.19780 36.84765 59.98499
#
# Poissons Ratio (x) = -1.14656 1.17947
# Poissons Ratio (y) = -0.31732 0.80213
# Poissons Ratio (z) = 0.20052 0.49273
#
# Static dielectric constant tensor:
#      x y z
#    x 1.662670 0.000000 -0.008160 
#    y 0.000000 1.770430 0.000000 
#    z -0.008160 0.000000 1.652240 
# 
# From -- ./inp_files/225172.got.cif
#   From: 2010.05.17/outbox.cif.g08.bks.cpg/sg12_113_cif.got.tgz:225172.got - 2010.06.03 13:09:07.
