data_PCOD9207020
_publ_section_title
;
Structure prediction by ZEFSAII (Michael W. Deem and Ramdas Pophale) SiO2 
 PCOD9207020
Probable space group: C 2/M
;
_chemical_formula_sum "Si O2"
_cell_formula_units_Z 64
_cell_length_a 31.754089
_cell_length_b 14.323829
_cell_length_c 9.993838
_cell_angle_alpha 90.000000
_cell_angle_beta 134.098472
_cell_angle_gamma 90.000000
_cell_volume 3264.398315
_symmetry_space_group_name_H-M "C 2/M"
_symmetry_group_IT_number 12
_symmetry_cell_setting 'monoclinic'
loop_
_space_group_symop_operation_xyz
x,y,z
-x,y,-z
-x,-y,-z
x,-y,z
1/2+x,1/2+y,z
1/2-x,1/2+y,-z
1/2-x,1/2-y,-z
1/2+x,1/2-y,z
loop_
_atom_site_type_symbol
_atom_site_label
_atom_site_fract_x
_atom_site_fract_y
_atom_site_fract_z
Si Si1 0.653012 0.390491 0.039338
Si Si2 0.228661 0.612747 0.356321
Si Si3 0.328051 0.897638 0.045536
Si Si4 0.269733 0.176136 0.155826
Si Si5 0.892928 0.251934 0.532185
Si Si6 0.345250 0.722431 0.696722
Si Si7 0.564657 0.390356 0.595177
Si Si8 0.938718 0.388890 0.436060
O O1 0.654602 0.500000 0.081861
O O2 0.609697 0.381249 0.817819
O O3 0.717529 0.358207 0.133447
O O4 0.634452 0.324127 0.120034
O O5 0.227156 0.500000 0.373401
O O6 0.292269 0.654675 0.530264
O O7 0.182631 0.674905 0.338943
O O8 0.211127 0.636804 0.163508
O O9 0.292522 0.902902 0.104823
O O10 0.387665 0.848407 0.224845
O O11 0.346745 0.000000 0.039849
O O12 0.325417 0.217105 0.356443
O O13 0.250000 0.250000 0.000000
O O14 0.894167 0.228678 0.690727
O O15 0.910876 0.166580 0.476533
O O16 0.931673 0.336848 0.560865
O O17 0.500000 0.358864 0.500000
O O18 0.560372 0.500000 0.551462
O O19 0.929597 0.500000 0.433340
O O20 0.000000 0.374573 0.500000
#
# Coordination Sequence:
#
# PCOD9207020 Si02
#       8
#     8   8   8   8   8   8   8   8
#     4  11  23  39  61  88 123 161 197 248 301 354
#     4  10  21  37  56  80 123 167 195 234 295 363
#     4   9  18  31  53  83 111 146 190 237 288 343
#     4  11  18  31  54  86 118 142 184 243 293 354
#     4  11  22  36  59  87 120 153 190 243 299 352
#     4  11  23  37  55  88 121 160 197 238 291 363
#     4  10  23  43  65  86 111 153 207 255 298 346
#     4   9  19  36  60  89 117 149 197 250 297 346
#
# _framework density 19.605450999999999
#
# number of rings (size 3 to 8) (size 9 to 14) (size 15 to 20)
#    0.000    1.750    1.250    4.125    1.750    2.000 
#    0.000    0.625    0.000    2.250    0.000    3.500 
#    0.000    0.000    0.000    0.000    0.000    0.000 
#
# Total GULP energy -178522.387838 kJ/mol
# GULP energy per Si atom -5578.824620 kJ/mol
# Density = 1.956083 g / cm^3
# Si number density = 19.605451 Si / 1000 Ang^3
#
#
#
# Elastic Constant Matrix: (Units=GPa)
#
#
# Indices 1 2 3 4 5 6 
#
# 1 123.1402 41.6686 29.5940 0.0000 -16.8805 0.0000
# 2 41.6686 122.9265 10.7147 0.0000 -9.1925 0.0000
# 3 29.5940 10.7147 25.9001 0.0000 -12.3732 0.0000
# 4 0.0000 0.0000 0.0000 10.6363 0.0000 -2.9933
# 5 -16.8805 -9.1925 -12.3732 0.0000 29.9918 0.0000
# 6 0.0000 0.0000 0.0000 -2.9933 0.0000 20.7954
#
#
#
# Elastic Compliance Matrix: (Units=1/GPa)
#
#
# Indices 1 2 3 4 5 6 
#
# 1 0.012211 -0.003002 -0.012289 0.000000 0.000883 0.000000
# 2 -0.003002 0.009227 0.000196 0.000000 0.001219 0.000000
# 3 -0.012289 0.000196 0.061395 0.000000 0.018472 0.000000
# 4 0.000000 0.000000 0.000000 0.097987 0.000000 0.014104
# 5 0.000883 0.001219 0.018472 0.000000 0.041834 0.000000
# 6 0.000000 0.000000 0.000000 0.014104 0.000000 0.050118
#
#
# Mechanical properties :
#
#
# Convention : Reuss Voigt Hill
#
# Bulk Modulus (GPa) = 18.99616 48.43569 33.71592
# Shear Modulus (GPa) = 15.60014 24.95066 20.27540
#
# Velocity S-wave (km/s) = 2.82388 3.57128 3.21934
# Velocity P-wave (km/s) = 4.51029 6.46252 5.57256
#
# Compressibility (1/GPa) = 0.05264223
#
# Stress axis : x y z
#
# Youngs Moduli (GPa) = 81.89289 108.38154 16.28786
#
# Poissons Ratio (x) = 0.32537 0.20016
# Poissons Ratio (y) = 0.24585 -0.00319
# Poissons Ratio (z) = 1.00638 -0.02119
#
# Static dielectric constant tensor:
#      x y z
#    x 1.684060 0.000000 0.000960 
#    y 0.000000 1.772280 0.000000 
#    z 0.000960 0.000000 1.723720 
# 
# From -- ./inp_files/112027.got.cif
#   From: 2010.05.17/outbox.cif.g08.bks.cpg/sg12_57_cif.got.tgz:112027.got - 2010.06.03 13:09:07.
