data_PCOD9207364
_publ_section_title
;
Structure prediction by ZEFSAII (Michael W. Deem and Ramdas Pophale) SiO2 
 PCOD9207364
Probable space group: C 2/M
;
_chemical_formula_sum "Si O2"
_cell_formula_units_Z 48
_cell_length_a 28.041794
_cell_length_b 8.502426
_cell_length_c 15.915371
_cell_angle_alpha 90.000000
_cell_angle_beta 40.883072
_cell_angle_gamma 90.000000
_cell_volume 2483.628669
_symmetry_space_group_name_H-M "C 2/M"
_symmetry_group_IT_number 12
_symmetry_cell_setting 'monoclinic'
loop_
_space_group_symop_operation_xyz
x,y,z
-x,y,-z
-x,-y,-z
x,-y,z
1/2+x,1/2+y,z
1/2-x,1/2+y,-z
1/2-x,1/2-y,-z
1/2+x,1/2-y,z
loop_
_atom_site_type_symbol
_atom_site_label
_atom_site_fract_x
_atom_site_fract_y
_atom_site_fract_z
Si Si1 0.542987 0.188581 0.859026
Si Si2 0.541693 0.309874 0.528639
Si Si3 0.707773 0.688778 0.637885
Si Si4 0.793681 0.309914 0.690563
Si Si5 0.789871 0.809893 0.029954
Si Si6 0.041624 0.190423 0.191281
O O1 0.624956 0.252714 0.749299
O O2 0.500285 0.245961 0.833755
O O3 0.545647 0.000000 0.855354
O O4 0.500000 0.241110 0.000000
O O5 0.500000 0.257067 0.500000
O O6 0.542846 0.500000 0.526406
O O7 0.624019 0.250080 0.420468
O O8 0.498591 0.259425 0.669582
O O9 0.707749 0.500000 0.636338
O O10 0.750000 0.750000 0.500000
O O11 0.749871 0.741563 0.666036
O O12 0.794627 0.500000 0.689357
O O13 0.752479 0.257296 0.829938
O O14 0.789297 0.000000 0.029445
O O15 0.750000 0.750000 0.000000
O O16 0.874106 0.758999 0.920244
O O17 0.040188 0.000000 0.190114
#
# Coordination Sequence:
#
# PCOD9207364 Si02
#       6
#     8   8   8   8   8   8
#     4  11  24  40  59  86 118 152 194 242 290 342
#     4  10  21  37  58  84 113 147 187 230 277 332
#     4  11  23  40  62  87 117 153 193 238 289 345
#     4  10  22  38  57  83 114 148 185 228 280 337
#     4  10  21  38  59  84 113 147 189 233 281 337
#     4  10  21  38  60  84 112 150 193 235 283 340
#
# _framework density 19.326559
#
# number of rings (size 3 to 8) (size 9 to 14) (size 15 to 20)
#    0.000    1.667    0.000    4.000    0.000   10.333 
#    0.000    0.000    0.000    0.000    0.000    0.000 
#    0.000    0.000    0.000    0.000    0.000    0.000 
#
# Total GULP energy -134195.292225 kJ/mol
# GULP energy per Si atom -5591.470509 kJ/mol
# Density = 1.928257 g / cm^3
# Si number density = 19.326559 Si / 1000 Ang^3
#
#
#
# Elastic Constant Matrix: (Units=GPa)
#
#
# Indices 1 2 3 4 5 6 
#
# 1 215.1337 31.0050 123.1805 0.0003 0.7020 0.0002
# 2 31.0050 16.0546 34.0011 0.0037 1.7176 -0.0017
# 3 123.1805 34.0011 219.9977 0.0017 0.8118 -0.0006
# 4 0.0003 0.0037 0.0017 31.9022 -0.0004 -4.5275
# 5 0.7020 1.7176 0.8118 -0.0004 46.8636 0.0001
# 6 0.0002 -0.0017 -0.0006 -4.5275 0.0001 31.5587
#
#
#
# Elastic Compliance Matrix: (Units=1/GPa)
#
#
# Indices 1 2 3 4 5 6 
#
# 1 0.007527 -0.008377 -0.002921 0.000001 0.000245 0.000000
# 2 -0.008377 0.102385 -0.011121 -0.000011 -0.003434 0.000004
# 3 -0.002921 -0.011121 0.007898 0.000001 0.000315 0.000000
# 4 0.000001 -0.000011 0.000001 0.031997 0.000001 0.004590
# 5 0.000245 -0.003434 0.000315 0.000001 0.021455 0.000000
# 6 0.000000 0.000004 0.000000 0.004590 0.000000 0.032346
#
#
# Mechanical properties :
#
#
# Convention : Reuss Voigt Hill
#
# Bulk Modulus (GPa) = 13.70362 91.95100 52.82731
# Shear Modulus (GPa) = 18.33047 39.59819 28.96433
#
# Velocity S-wave (km/s) = 3.08305 4.53139 3.87548
# Velocity P-wave (km/s) = 4.44742 8.66365 6.88616
#
# Compressibility (1/GPa) = 0.07297343
#
# Stress axis : x y z
#
# Youngs Moduli (GPa) = 132.85252 9.76708 126.60684
#
# Poissons Ratio (x) = 0.08182 0.36979
# Poissons Ratio (y) = 1.11291 1.40795
# Poissons Ratio (z) = 0.38804 0.10862
#
# Static dielectric constant tensor:
#      x y z
#    x 1.629490 0.000000 0.012800 
#    y 0.000000 1.668310 0.000000 
#    z 0.012800 0.000000 1.647400 
# 
# From -- ./inp_files/244598.got.cif
#   From: 2010.05.17/outbox.cif.g08.bks.cpg/sg12_123_cif.got.tgz:244598.got - 2010.06.03 13:09:07.
