data_PCOD9207915
_publ_section_title
;
Structure prediction by ZEFSAII (Michael W. Deem and Ramdas Pophale) SiO2 
 PCOD9207915
Probable space group: C 2/M
;
_chemical_formula_sum "Si O2"
_cell_formula_units_Z 64
_cell_length_a 11.606151
_cell_length_b 20.245778
_cell_length_c 17.146465
_cell_angle_alpha 90.000000
_cell_angle_beta 53.973457
_cell_angle_gamma 90.000000
_cell_volume 3258.432155
_symmetry_space_group_name_H-M "C 2/M"
_symmetry_group_IT_number 12
_symmetry_cell_setting 'monoclinic'
loop_
_space_group_symop_operation_xyz
x,y,z
-x,y,-z
-x,-y,-z
x,-y,z
1/2+x,1/2+y,z
1/2-x,1/2+y,-z
1/2-x,1/2-y,-z
1/2+x,1/2-y,z
loop_
_atom_site_type_symbol
_atom_site_label
_atom_site_fract_x
_atom_site_fract_y
_atom_site_fract_z
Si Si1 0.325650 0.861287 0.787778
Si Si2 0.429718 0.340715 0.804651
Si Si3 0.591700 0.796516 0.741320
Si Si4 0.226270 0.116199 0.429141
Si Si5 0.463434 0.576803 0.634854
Si Si6 0.151064 0.729439 0.895352
Si Si7 0.945128 0.074281 0.104936
Si Si8 0.011689 0.576212 0.403644
O O1 0.468272 0.851390 0.779870
O O2 0.224989 0.800285 0.851072
O O3 0.224715 0.923536 0.836784
O O4 0.383652 0.869809 0.676732
O O5 0.521107 0.274432 0.751757
O O6 0.426705 0.386911 0.729800
O O7 0.270838 0.315493 0.889273
O O8 0.502225 0.379497 0.846557
O O9 0.715552 0.815482 0.631292
O O10 0.634728 0.797262 0.814013
O O11 0.164791 0.079298 0.377012
O O12 0.359723 0.084103 0.420864
O O13 0.095013 0.115039 0.541440
O O14 0.503142 0.500000 0.631402
O O15 0.000000 0.732305 0.000000
O O16 0.995937 0.000000 0.098778
O O17 0.000000 0.097878 0.000000
O O18 0.060016 0.500000 0.373489
O O19 0.000000 0.587654 0.500000
#
# Coordination Sequence:
#
# PCOD9207915 Si02
#       8
#     8   8   8   8   8   8   8   8
#     4  10  22  38  61  90 122 161 209 254 314 372
#     4  11  24  40  66  94 125 164 211 264 312 378
#     4  10  22  40  63  91 124 161 207 265 317 370
#     4  10  21  40  61  93 124 161 209 257 312 369
#     4  11  22  39  66  93 124 167 210 254 311 377
#     4  11  23  41  66  92 119 160 211 265 321 371
#     4  11  24  41  62  91 130 167 209 261 315 375
#     4  10  21  37  60  90 127 168 210 251 306 381
#
# _framework density 19.641349000000002
#
# number of rings (size 3 to 8) (size 9 to 14) (size 15 to 20)
#    0.000    1.500    2.500    2.625    3.500    1.500 
#    0.000    2.500    0.000    1.500    0.000    0.000 
#    0.000    0.000    0.000    0.000    0.000    0.000 
#
# Total GULP energy -178410.944502 kJ/mol
# GULP energy per Si atom -5575.342016 kJ/mol
# Density = 1.959664 g / cm^3
# Si number density = 19.641349 Si / 1000 Ang^3
#
#
#
# Elastic Constant Matrix: (Units=GPa)
#
#
# Indices 1 2 3 4 5 6 
#
# 1 58.2301 30.3177 20.4330 0.0000 -3.9056 0.0000
# 2 30.3177 68.6815 39.8230 0.0000 -4.8304 0.0000
# 3 20.4330 39.8230 88.1102 0.0000 -15.7706 0.0000
# 4 0.0000 0.0000 0.0000 22.9575 0.0000 0.7078
# 5 -3.9056 -4.8304 -15.7706 0.0000 25.9413 0.0000
# 6 0.0000 0.0000 0.0000 0.7078 0.0000 31.7227
#
#
#
# Elastic Compliance Matrix: (Units=1/GPa)
#
#
# Indices 1 2 3 4 5 6 
#
# 1 0.022392 -0.009368 -0.000749 0.000000 0.001171 0.000000
# 2 -0.009368 0.023739 -0.008997 0.000000 -0.002460 0.000000
# 3 -0.000749 -0.008997 0.017134 0.000000 0.008628 0.000000
# 4 0.000000 0.000000 0.000000 0.043589 0.000000 -0.000973
# 5 0.001171 -0.002460 0.008628 0.000000 0.043512 0.000000
# 6 0.000000 0.000000 0.000000 -0.000973 0.000000 0.031545
#
#
# Mechanical properties :
#
#
# Convention : Reuss Voigt Hill
#
# Bulk Modulus (GPa) = 39.94101 44.01879 41.97990
# Shear Modulus (GPa) = 21.88338 24.42083 23.15210
#
# Velocity S-wave (km/s) = 3.34151 3.52992 3.43701
# Velocity P-wave (km/s) = 5.93859 6.25090 6.09675
#
# Compressibility (1/GPa) = 0.02503692
#
# Stress axis : x y z
#
# Youngs Moduli (GPa) = 44.65889 42.12526 58.36380
#
# Poissons Ratio (x) = 0.39461 0.04373
# Poissons Ratio (y) = 0.41834 0.52510
# Poissons Ratio (z) = 0.03346 0.37900
#
# Static dielectric constant tensor:
#      x y z
#    x 1.605360 0.000000 0.130890 
#    y 0.000000 1.703710 0.000000 
#    z 0.130890 0.000000 1.405960 
# 
# From -- ./inp_files/265044.got.cif
#   From: 2010.05.17/outbox.cif.g08.bks.cpg/sg12_133_cif.got.tgz:265044.got - 2010.06.03 13:09:07.
