data_PCOD9207024
_publ_section_title
;
Structure prediction by ZEFSAII (Michael W. Deem and Ramdas Pophale) SiO2 
 PCOD9207024
Probable space group: C 2/M
;
_chemical_formula_sum "Si O2"
_cell_formula_units_Z 48
_cell_length_a 29.543414
_cell_length_b 13.459869
_cell_length_c 4.959468
_cell_angle_alpha 90.000000
_cell_angle_beta 107.862488
_cell_angle_gamma 90.000000
_cell_volume 1877.068927
_symmetry_space_group_name_H-M "C 2/M"
_symmetry_group_IT_number 12
_symmetry_cell_setting 'monoclinic'
loop_
_space_group_symop_operation_xyz
x,y,z
-x,y,-z
-x,-y,-z
x,-y,z
1/2+x,1/2+y,z
1/2-x,1/2+y,-z
1/2-x,1/2-y,-z
1/2+x,1/2-y,z
loop_
_atom_site_type_symbol
_atom_site_label
_atom_site_fract_x
_atom_site_fract_y
_atom_site_fract_z
Si Si1 0.782684 0.380781 0.634459
Si Si2 0.950381 0.326439 0.275422
Si Si3 0.272769 0.379466 0.967759
Si Si4 0.364729 0.611040 0.466937
Si Si5 0.546060 0.396521 0.768457
Si Si6 0.387425 0.187301 0.694932
O O1 0.781030 0.500000 0.633477
O O2 0.770571 0.349354 0.915697
O O3 0.834180 0.352578 0.621757
O O4 0.740167 0.348018 0.356505
O O5 0.960750 0.217757 0.159771
O O6 0.913066 0.321861 0.453431
O O7 0.000000 0.362584 0.500000
O O8 0.920708 0.369928 0.971497
O O9 0.275217 0.500000 0.965512
O O10 0.320853 0.350757 0.206998
O O11 0.353613 0.500000 0.554085
O O12 0.408632 0.602963 0.343501
O O13 0.379114 0.692727 0.713210
O O14 0.500000 0.406789 0.500000
O O15 0.549042 0.500000 0.944997
#
# Coordination Sequence:
#
# PCOD9207024 Si02
#       6
#     8   8   8   8   8   8
#     4  10  21  38  58  81 109 143 186 229 274 330
#     4  10  21  37  56  81 112 143 180 226 277 331
#     4   9  19  35  55  80 113 149 181 225 277 320
#     4   9  19  34  53  82 117 149 186 227 269 322
#     4   8  15  30  52  77 107 145 185 222 261 312
#     4  11  22  36  59  83 107 147 185 224 277 324
#
# _framework density 25.571783
#
# number of rings (size 3 to 8) (size 9 to 14) (size 15 to 20)
#    0.000    2.500    0.000    1.500    0.000    4.667 
#    0.000    5.000    0.000   13.000    0.000    0.000 
#    0.000    0.000    0.000    0.000    0.000    0.000 
#
# Total GULP energy -134030.965133 kJ/mol
# GULP energy per Si atom -5584.623547 kJ/mol
# Density = 2.551358 g / cm^3
# Si number density = 25.571783 Si / 1000 Ang^3
#
#
#
# Elastic Constant Matrix: (Units=GPa)
#
#
# Indices 1 2 3 4 5 6 
#
# 1 148.1138 2.1148 45.6880 0.0000 7.8205 0.0000
# 2 2.1148 50.8796 10.6411 0.0000 -4.9292 0.0000
# 3 45.6880 10.6411 152.4346 0.0000 12.8208 0.0000
# 4 0.0000 0.0000 0.0000 18.2252 0.0000 5.8947
# 5 7.8205 -4.9292 12.8208 0.0000 45.1388 0.0000
# 6 0.0000 0.0000 0.0000 5.8947 0.0000 22.9724
#
#
#
# Elastic Compliance Matrix: (Units=1/GPa)
#
#
# Indices 1 2 3 4 5 6 
#
# 1 0.007460 0.000083 -0.002186 0.000000 -0.000662 0.000000
# 2 0.000083 0.020257 -0.001664 0.000000 0.002670 0.000000
# 3 -0.002186 -0.001664 0.007494 0.000000 -0.001931 0.000000
# 4 0.000000 0.000000 0.000000 0.059835 0.000000 -0.015354
# 5 -0.000662 0.002670 -0.001931 0.000000 0.023109 0.000000
# 6 0.000000 0.000000 0.000000 -0.015354 0.000000 0.047470
#
#
# Mechanical properties :
#
#
# Convention : Reuss Voigt Hill
#
# Bulk Modulus (GPa) = 36.12986 52.03508 44.08247
# Shear Modulus (GPa) = 27.41467 36.79956 32.10712
#
# Velocity S-wave (km/s) = 3.27780 3.79762 3.54724
# Velocity P-wave (km/s) = 5.33711 6.29460 5.83553
#
# Compressibility (1/GPa) = 0.02767794
#
# Stress axis : x y z
#
# Youngs Moduli (GPa) = 134.05485 49.36464 133.44143
#
# Poissons Ratio (x) = -0.00409 0.29169
# Poissons Ratio (y) = -0.01112 0.22199
# Poissons Ratio (z) = 0.29303 0.08212
#
# Static dielectric constant tensor:
#      x y z
#    x 1.930440 0.000000 0.032690 
#    y 0.000000 2.186070 0.000000 
#    z 0.032690 0.000000 1.989780 
# 
# From -- ./inp_files/28631.got.cif
#   From: 2010.05.17/outbox.cif.g08.bks.cpg/sg12_15_cif.got.tgz:28631.got - 2010.06.03 13:09:07.
