data_PCOD9207900
_publ_section_title
;
Structure prediction by ZEFSAII (Michael W. Deem and Ramdas Pophale) SiO2 
 PCOD9207900
Probable space group: C 2/M
;
_chemical_formula_sum "Si O2"
_cell_formula_units_Z 58
_cell_length_a 28.345520
_cell_length_b 13.267164
_cell_length_c 15.851210
_cell_angle_alpha 90.000000
_cell_angle_beta 30.577121
_cell_angle_gamma 90.000000
_cell_volume 3032.387469
_symmetry_space_group_name_H-M "C 2/M"
_symmetry_group_IT_number 12
_symmetry_cell_setting 'monoclinic'
loop_
_space_group_symop_operation_xyz
x,y,z
-x,y,-z
-x,-y,-z
x,-y,z
1/2+x,1/2+y,z
1/2-x,1/2+y,-z
1/2-x,1/2-y,-z
1/2+x,1/2-y,z
loop_
_atom_site_type_symbol
_atom_site_label
_atom_site_fract_x
_atom_site_fract_y
_atom_site_fract_z
Si Si1 0.415796 0.113061 0.695968
Si Si2 0.366728 0.383780 0.464184
Si Si3 0.355211 0.720103 0.318634
Si Si4 0.683526 0.234132 0.805656
Si Si5 0.500000 0.500000 0.500000
Si Si6 0.722128 0.385738 0.895470
Si Si7 0.995973 0.387485 0.904046
Si Si8 0.949065 0.831230 0.721226
O O1 0.500000 0.111301 0.500000
O O2 0.318518 0.125941 0.796947
O O3 0.431056 0.214399 0.725686
O O4 0.414001 0.000000 0.739607
O O5 0.360934 0.500000 0.497256
O O6 0.377489 0.371109 0.346748
O O7 0.272437 0.329154 0.638139
O O8 0.455476 0.337703 0.373469
O O9 0.250000 0.750000 0.500000
O O10 0.359850 0.710762 0.210433
O O11 0.422173 0.811071 0.244224
O O12 0.714330 0.310150 0.829870
O O13 0.603290 0.160525 0.963574
O O14 0.461470 0.409579 0.624489
O O15 0.717632 0.500000 0.870648
O O16 0.636723 0.366852 0.089727
O O17 0.007794 0.500000 0.851541
O O18 0.000000 0.394466 0.000000
#
# Coordination Sequence:
#
# PCOD9207900 Si02
#       8
#     8   8   8   8   2   8   8   8
#     4  10  22  41  64  88 121 164 204 258 319 376
#     4  11  22  39  60  88 122 161 206 261 309 369
#     4   9  20  36  57  86 120 159 205 244 299 362
#     4  10  21  37  60  90 120 163 204 250 305 375
#     4  12  24  40  70  92 120 168 202 254 324 376
#     4  11  23  40  62  91 126 160 201 258 316 371
#     4   9  17  33  55  80 115 156 200 253 304 354
#     4  12  23  42  63  93 124 159 209 258 314 382
#
# _framework density 19.126843000000001
#
# number of rings (size 3 to 8) (size 9 to 14) (size 15 to 20)
#    0.000    1.655    2.069    2.483    0.000    3.862 
#    0.000    5.517    0.000    4.138    0.000    0.000 
#    0.000    0.000    0.000    0.000    0.000    0.000 
#
# Total GULP energy -161517.356023 kJ/mol
# GULP energy per Si atom -5569.564001 kJ/mol
# Density = 1.908331 g / cm^3
# Si number density = 19.126843 Si / 1000 Ang^3
#
#
#
# Elastic Constant Matrix: (Units=GPa)
#
#
# Indices 1 2 3 4 5 6 
#
# 1 69.1362 67.2041 34.5866 0.0000 -12.6973 0.0000
# 2 67.2041 147.5254 37.1319 0.0000 -12.1956 0.0000
# 3 34.5866 37.1319 100.6897 0.0000 -25.7069 0.0000
# 4 0.0000 0.0000 0.0000 28.5269 0.0000 5.2663
# 5 -12.6973 -12.1956 -25.7069 0.0000 32.8695 0.0000
# 6 0.0000 0.0000 0.0000 5.2663 0.0000 30.5849
#
#
#
# Elastic Compliance Matrix: (Units=1/GPa)
#
#
# Indices 1 2 3 4 5 6 
#
# 1 0.028725 -0.011626 -0.004808 0.000000 0.003023 0.000000
# 2 -0.011626 0.012193 -0.000618 0.000000 -0.000450 0.000000
# 3 -0.004808 -0.000618 0.014092 0.000000 0.008935 0.000000
# 4 0.000000 0.000000 0.000000 0.036206 0.000000 -0.006234
# 5 0.003023 -0.000450 0.008935 0.000000 0.038412 0.000000
# 6 0.000000 0.000000 0.000000 -0.006234 0.000000 0.033769
#
#
# Mechanical properties :
#
#
# Convention : Reuss Voigt Hill
#
# Bulk Modulus (GPa) = 47.83151 66.13293 56.98222
# Shear Modulus (GPa) = 24.45359 30.29149 27.37254
#
# Velocity S-wave (km/s) = 3.57948 3.98391 3.78710
# Velocity P-wave (km/s) = 6.49195 7.47082 6.99852
#
# Compressibility (1/GPa) = 0.02090672
#
# Stress axis : x y z
#
# Youngs Moduli (GPa) = 34.81242 82.01580 70.96188
#
# Poissons Ratio (x) = 0.95348 0.34120
# Poissons Ratio (y) = 0.40471 0.04386
# Poissons Ratio (z) = 0.16738 0.05069
#
# Static dielectric constant tensor:
#      x y z
#    x 1.707780 0.000000 -0.029020 
#    y 0.000000 1.667350 0.000000 
#    z -0.029020 0.000000 1.703340 
# 
# From -- ./inp_files/296266.got.cif
#   From: 2010.05.17/outbox.cif.g08.bks.cpg/sg12_149_cif.got.tgz:296266.got - 2010.06.03 13:09:07.
