data_PCOD9207136
_publ_section_title
;
Structure prediction by ZEFSAII (Michael W. Deem and Ramdas Pophale) SiO2 
 PCOD9207136
Probable space group: C 2/M
;
_chemical_formula_sum "Si O2"
_cell_formula_units_Z 58
_cell_length_a 14.974336
_cell_length_b 7.977164
_cell_length_c 22.144188
_cell_angle_alpha 90.000000
_cell_angle_beta 103.543458
_cell_angle_gamma 90.000000
_cell_volume 2571.628052
_symmetry_space_group_name_H-M "C 2/M"
_symmetry_group_IT_number 12
_symmetry_cell_setting 'monoclinic'
loop_
_space_group_symop_operation_xyz
x,y,z
-x,y,-z
-x,-y,-z
x,-y,z
1/2+x,1/2+y,z
1/2-x,1/2+y,-z
1/2-x,1/2-y,-z
1/2+x,1/2-y,z
loop_
_atom_site_type_symbol
_atom_site_label
_atom_site_fract_x
_atom_site_fract_y
_atom_site_fract_z
Si Si1 0.414812 0.697788 0.366103
Si Si2 0.045346 0.300709 0.827420
Si Si3 0.674226 0.684545 0.532942
Si Si4 0.500000 0.500000 0.500000
Si Si5 0.735543 0.187139 0.261007
Si Si6 0.569047 0.696154 0.306416
Si Si7 0.442110 0.295732 0.932306
Si Si8 0.750032 0.191796 0.865394
O O1 0.434089 0.500000 0.391186
O O2 0.359045 0.779916 0.412191
O O3 0.339433 0.691511 0.301233
O O4 0.507168 0.766789 0.351246
O O5 0.050311 0.500000 0.814566
O O6 0.991982 0.217228 0.763609
O O7 0.148696 0.231193 0.852040
O O8 0.990350 0.271546 0.879995
O O9 0.710657 0.500000 0.558991
O O10 0.750000 0.750000 0.500000
O O11 0.575046 0.643960 0.488864
O O12 0.666334 0.225788 0.304574
O O13 0.723200 0.304429 0.201389
O O14 0.714560 0.000000 0.235759
O O15 0.582205 0.500000 0.320827
O O16 0.441013 0.500000 0.928774
O O17 0.336255 0.235925 0.915188
O O18 0.500000 0.246584 0.000000
O O19 0.739472 0.000000 0.884111
#
# Coordination Sequence:
#
# PCOD9207136 Si02
#       8
#     8   8   8   2   8   8   8   8
#     4   9  20  37  57  84 125 153 191 244 292 350
#     4  11  22  36  57  83 114 149 189 242 290 342
#     4   9  19  40  63  90 123 165 209 259 306 363
#     4   8  20  36  70  86 124 168 214 252 316 362
#     4  11  21  35  56  85 114 154 189 233 293 348
#     4  11  21  36  56  83 116 156 190 232 295 356
#     4  10  22  40  60  81 109 150 195 237 290 356
#     4  10  21  37  57  81 114 150 189 234 289 351
#
# _framework density 22.553806000000002
#
# number of rings (size 3 to 8) (size 9 to 14) (size 15 to 20)
#    0.414    1.517    2.759    1.241    0.000    2.483 
#    0.000    2.414    0.000    0.000    0.000    0.000 
#    0.000    0.000    0.000    0.000    0.000    0.000 
#
# Total GULP energy -161518.804805 kJ/mol
# GULP energy per Si atom -5569.613959 kJ/mol
# Density = 2.250247 g / cm^3
# Si number density = 22.553806 Si / 1000 Ang^3
#
#
#
# Elastic Constant Matrix: (Units=GPa)
#
#
# Indices 1 2 3 4 5 6 
#
# 1 130.6105 -0.1002 -1.3123 0.0000 -5.7049 0.0000
# 2 -0.1002 28.8905 -13.4168 0.0000 4.4757 0.0000
# 3 -1.3123 -13.4168 45.5664 0.0000 3.4051 0.0000
# 4 0.0000 0.0000 0.0000 17.2316 0.0000 -7.2552
# 5 -5.7049 4.4757 3.4051 0.0000 28.5271 0.0000
# 6 0.0000 0.0000 0.0000 -7.2552 0.0000 21.8149
#
#
#
# Elastic Compliance Matrix: (Units=1/GPa)
#
#
# Indices 1 2 3 4 5 6 
#
# 1 0.007725 -0.000194 0.000048 0.000000 0.001570 0.000000
# 2 -0.000194 0.041884 0.012936 0.000000 -0.008154 0.000000
# 3 0.000048 0.012936 0.026140 0.000000 -0.005140 0.000000
# 4 0.000000 0.000000 0.000000 0.067482 0.000000 0.022443
# 5 0.001570 -0.008154 -0.005140 0.000000 0.037261 0.000000
# 6 0.000000 0.000000 0.000000 0.022443 0.000000 0.053304
#
#
# Mechanical properties :
#
#
# Convention : Reuss Voigt Hill
#
# Bulk Modulus (GPa) = 9.86875 19.48984 14.67930
# Shear Modulus (GPa) = 20.66171 28.17452 24.41812
#
# Velocity S-wave (km/s) = 3.03001 3.53826 3.29395
# Velocity P-wave (km/s) = 4.07755 5.03514 4.58143
#
# Compressibility (1/GPa) = 0.10132991
#
# Stress axis : x y z
#
# Youngs Moduli (GPa) = 129.44569 23.87564 38.25483
#
# Poissons Ratio (x) = 0.00463 -0.00184
# Poissons Ratio (y) = 0.02512 -0.49487
# Poissons Ratio (z) = -0.00622 -0.30886
#
# Static dielectric constant tensor:
#      x y z
#    x 1.845880 0.000000 -0.019750 
#    y 0.000000 1.847800 0.000000 
#    z -0.019750 0.000000 1.781220 
# 
# From -- ./inp_files/338035.got.cif
#   From: 2010.05.17/outbox.cif.g08.bks.cpg/sg12_170_cif.got.tgz:338035.got - 2010.06.03 13:09:07.
