data_PCOD9207637
_publ_section_title
;
Structure prediction by ZEFSAII (Michael W. Deem and Ramdas Pophale) SiO2 
 PCOD9207637
Probable space group: C 2/M
;
_chemical_formula_sum "Si O2"
_cell_formula_units_Z 56
_cell_length_a 20.222640
_cell_length_b 13.899625
_cell_length_c 9.442372
_cell_angle_alpha 90.000000
_cell_angle_beta 71.789314
_cell_angle_gamma 90.000000
_cell_volume 2521.193795
_symmetry_space_group_name_H-M "C 2/M"
_symmetry_group_IT_number 12
_symmetry_cell_setting 'monoclinic'
loop_
_space_group_symop_operation_xyz
x,y,z
-x,y,-z
-x,-y,-z
x,-y,z
1/2+x,1/2+y,z
1/2-x,1/2+y,-z
1/2-x,1/2-y,-z
1/2+x,1/2-y,z
loop_
_atom_site_type_symbol
_atom_site_label
_atom_site_fract_x
_atom_site_fract_y
_atom_site_fract_z
Si Si1 0.422882 0.680809 0.108999
Si Si2 0.784198 0.894406 0.077983
Si Si3 0.917714 0.604058 0.084109
Si Si4 0.292723 0.763726 0.671990
Si Si5 0.312605 0.109727 0.391652
Si Si6 0.019265 0.888738 0.653222
Si Si7 0.366823 0.394133 0.744343
O O1 0.357135 0.615739 0.114122
O O2 0.402470 0.785100 0.054353
O O3 0.433624 0.675404 0.273805
O O4 0.500000 0.655211 0.000000
O O5 0.732158 0.814835 0.169040
O O6 0.754601 0.000000 0.123362
O O7 0.806003 0.887356 0.900175
O O8 0.889467 0.500000 0.044743
O O9 0.887630 0.605159 0.264598
O O10 0.000000 0.599260 0.000000
O O11 0.309251 0.847469 0.550288
O O12 0.233210 0.688795 0.661613
O O13 0.357790 0.694016 0.646374
O O14 0.284920 0.000000 0.404803
O O15 0.940987 0.887003 0.769119
O O16 0.000000 0.868795 0.500000
O O17 0.043822 0.000000 0.644510
O O18 0.363209 0.500000 0.680139
#
# Coordination Sequence:
#
# PCOD9207637 Si02
#       7
#     8   8   8   8   8   8   8
#     4  11  20  36  63  87 114 153 196 246 300 355
#     4  11  22  37  58  88 119 154 201 249 295 355
#     4   9  19  36  58  85 115 145 192 250 291 340
#     4  11  22  37  58  85 122 158 195 238 303 357
#     4  10  21  37  59  87 116 154 201 243 293 358
#     4  10  22  36  55  86 119 150 189 240 298 355
#     4  10  22  39  58  83 119 157 198 246 295 358
#
# _framework density 22.211698999999999
#
# number of rings (size 3 to 8) (size 9 to 14) (size 15 to 20)
#    0.000    1.714    2.857    1.714    2.000    0.571 
#    0.000    2.857    0.000    3.000    0.000    0.000 
#    0.000    0.000    0.000    0.000    0.000    0.000 
#
# Total GULP energy -155896.445202 kJ/mol
# GULP energy per Si atom -5567.730186 kJ/mol
# Density = 2.216114 g / cm^3
# Si number density = 22.211699 Si / 1000 Ang^3
#
#
#
# Elastic Constant Matrix: (Units=GPa)
#
#
# Indices 1 2 3 4 5 6 
#
# 1 34.2310 13.7385 9.0728 0.0000 -8.8669 0.0000
# 2 13.7385 124.5251 11.6686 0.0000 -7.9073 0.0000
# 3 9.0728 11.6686 61.3142 0.0000 -14.0036 0.0000
# 4 0.0000 0.0000 0.0000 -15.3368 0.0000 16.1271
# 5 -8.8669 -7.9073 -14.0036 0.0000 26.4348 0.0000
# 6 0.0000 0.0000 0.0000 16.1271 0.0000 12.3590
#
#
#
# Elastic Compliance Matrix: (Units=1/GPa)
#
#
# Indices 1 2 3 4 5 6 
#
# 1 0.033339 -0.002884 -0.002306 0.000000 0.009098 0.000000
# 2 -0.002884 0.008506 -0.000946 0.000000 0.001075 0.000000
# 3 -0.002306 -0.000946 0.018873 0.000000 0.008941 0.000000
# 4 0.000000 0.000000 0.000000 -0.027487 0.000000 0.035868
# 5 0.009098 0.001075 0.008941 0.000000 0.045939 0.000000
# 6 0.000000 0.000000 0.000000 0.035868 0.000000 0.034110
#
#
# Mechanical properties :
#
#
# Convention : Reuss Voigt Hill
#
# Bulk Modulus (GPa) = 20.64261 32.11445 26.37853
# Shear Modulus (GPa) = 35.28555 17.06408 26.17482
#
# Velocity S-wave (km/s) = 3.99005 2.77473 3.43654
# Velocity P-wave (km/s) = 5.52640 4.97547 5.25815
#
# Compressibility (1/GPa) = 0.04844349
#
# Stress axis : x y z
#
# Youngs Moduli (GPa) = 29.99494 117.56827 52.98615
#
# Poissons Ratio (x) = 0.33911 0.12221
# Poissons Ratio (y) = 0.08652 0.05014
# Poissons Ratio (z) = 0.06918 0.11125
#
# Static dielectric constant tensor:
#      x y z
#    x 1.800620 0.000000 -0.009800 
#    y 0.000000 1.842000 0.000000 
#    z -0.009800 0.000000 1.883290 
# 
# From -- ./inp_files/96264.got.cif
#   From: 2010.05.17/outbox.cif.g08.bks.cpg/sg12_49_cif.got.tgz:96264.got - 2010.06.03 13:09:07.
