data_PCOD9207760
_publ_section_title
;
Structure prediction by ZEFSAII (Michael W. Deem and Ramdas Pophale) SiO2 
 PCOD9207760
Probable space group: C 2/M
;
_chemical_formula_sum "Si O2"
_cell_formula_units_Z 64
_cell_length_a 9.539976
_cell_length_b 24.572944
_cell_length_c 16.609938
_cell_angle_alpha 90.000000
_cell_angle_beta 53.580493
_cell_angle_gamma 90.000000
_cell_volume 3133.300255
_symmetry_space_group_name_H-M "C 2/M"
_symmetry_group_IT_number 12
_symmetry_cell_setting 'monoclinic'
loop_
_space_group_symop_operation_xyz
x,y,z
-x,y,-z
-x,-y,-z
x,-y,z
1/2+x,1/2+y,z
1/2-x,1/2+y,-z
1/2-x,1/2-y,-z
1/2+x,1/2-y,z
loop_
_atom_site_type_symbol
_atom_site_label
_atom_site_fract_x
_atom_site_fract_y
_atom_site_fract_z
Si Si1 0.482267 0.435546 0.595206
Si Si2 0.709693 0.063576 0.217851
Si Si3 0.385772 0.936745 0.215576
Si Si4 0.693319 0.902318 0.409096
Si Si5 0.188781 0.237222 0.266142
Si Si6 0.005569 0.664340 0.905133
Si Si7 0.185308 0.171604 0.898400
Si Si8 0.783826 0.776780 0.401610
O O1 0.500000 0.411095 0.500000
O O2 0.452788 0.500000 0.595953
O O3 0.306900 0.415850 0.697735
O O4 0.654573 0.427294 0.588182
O O5 0.512155 0.068316 0.250352
O O6 0.719173 0.080866 0.307605
O O7 0.814715 0.108667 0.130986
O O8 0.761414 0.000000 0.190624
O O9 0.467744 0.899748 0.118824
O O10 0.379637 0.000000 0.195271
O O11 0.500000 0.920301 0.500000
O O12 0.711429 0.837794 0.418594
O O13 0.329408 0.193589 0.190285
O O14 0.252515 0.292130 0.198691
O O15 0.196401 0.243519 0.359366
O O16 0.990536 0.223268 0.312564
O O17 0.831830 0.679985 0.916516
O O18 0.000000 0.678111 0.000000
O O19 0.000000 0.186375 0.000000
O O20 0.750000 0.750000 0.500000
#
# Coordination Sequence:
#
# PCOD9207760 Si02
#       8
#     8   8   8   8   8   8   8   8
#     4  10  21  37  59  91 128 170 216 267 325 388
#     4  10  22  42  67  95 131 175 221 275 333 395
#     4   9  20  41  64  91 132 173 217 275 336 394
#     4  12  24  39  64  93 132 171 225 270 327 393
#     4  12  24  46  68  96 137 170 222 276 333 396
#     4  11  25  41  67  98 127 173 226 275 335 393
#     4  11  25  43  68  96 134 175 224 282 340 395
#     4  12  27  44  68  98 132 175 215 269 332 400
#
# _framework density 20.425747999999999
#
# number of rings (size 3 to 8) (size 9 to 14) (size 15 to 20)
#    0.000    1.125    2.500    3.375    1.750    6.500 
#    0.000    0.000    0.000    0.000    0.000    0.000 
#    0.000    0.000    0.000    0.000    0.000    0.000 
#
# Total GULP energy -178853.782337 kJ/mol
# GULP energy per Si atom -5589.180698 kJ/mol
# Density = 2.037926 g / cm^3
# Si number density = 20.425748 Si / 1000 Ang^3
#
#
#
# Elastic Constant Matrix: (Units=GPa)
#
#
# Indices 1 2 3 4 5 6 
#
# 1 92.4608 14.3464 34.9320 0.0000 -3.9742 0.0000
# 2 14.3464 79.1288 21.8721 0.0000 4.9129 0.0000
# 3 34.9320 21.8721 78.3196 0.0000 2.1382 0.0000
# 4 0.0000 0.0000 0.0000 5.8866 0.0000 2.1165
# 5 -3.9742 4.9129 2.1382 0.0000 47.3048 0.0000
# 6 0.0000 0.0000 0.0000 2.1165 0.0000 29.5242
#
#
#
# Elastic Compliance Matrix: (Units=1/GPa)
#
#
# Indices 1 2 3 4 5 6 
#
# 1 0.013155 -0.000913 -0.005652 0.000000 0.001456 0.000000
# 2 -0.000913 0.013832 -0.003419 0.000000 -0.001359 0.000000
# 3 -0.005652 -0.003419 0.016267 0.000000 -0.000855 0.000000
# 4 0.000000 0.000000 0.000000 0.174373 0.000000 -0.012500
# 5 0.001456 -0.001359 -0.000855 0.000000 0.021442 0.000000
# 6 0.000000 0.000000 0.000000 -0.012500 0.000000 0.034767
#
#
# Mechanical properties :
#
#
# Convention : Reuss Voigt Hill
#
# Bulk Modulus (GPa) = 42.94235 43.57890 43.26062
# Shear Modulus (GPa) = 16.58013 28.46036 22.52025
#
# Velocity S-wave (km/s) = 2.85217 3.73682 3.32406
# Velocity P-wave (km/s) = 5.64941 6.32456 5.99649
#
# Compressibility (1/GPa) = 0.02328703
#
# Stress axis : x y z
#
# Youngs Moduli (GPa) = 76.01657 72.29367 61.47344
#
# Poissons Ratio (x) = 0.06601 0.34745
# Poissons Ratio (y) = 0.06941 0.21015
# Poissons Ratio (z) = 0.42965 0.24714
#
# Static dielectric constant tensor:
#      x y z
#    x 1.714170 0.000000 -0.035330 
#    y 0.000000 1.761110 0.000000 
#    z -0.035330 0.000000 1.773130 
# 
# From -- ./inp_files/201297.got.cif
#   From: 2010.05.17/outbox.cif.g08.bks.cpg/sg12_101_cif.got.tgz:201297.got - 2010.06.03 13:09:07.
