data_PCOD9207347
_publ_section_title
;
Structure prediction by ZEFSAII (Michael W. Deem and Ramdas Pophale) SiO2 
 PCOD9207347
Probable space group: C 2/M
;
_chemical_formula_sum "Si O2"
_cell_formula_units_Z 64
_cell_length_a 32.008613
_cell_length_b 8.697416
_cell_length_c 17.295018
_cell_angle_alpha 90.000000
_cell_angle_beta 132.536094
_cell_angle_gamma 90.000000
_cell_volume 3547.791964
_symmetry_space_group_name_H-M "C 2/M"
_symmetry_group_IT_number 12
_symmetry_cell_setting 'monoclinic'
loop_
_space_group_symop_operation_xyz
x,y,z
-x,y,-z
-x,-y,-z
x,-y,z
1/2+x,1/2+y,z
1/2-x,1/2+y,-z
1/2-x,1/2-y,-z
1/2+x,1/2-y,z
loop_
_atom_site_type_symbol
_atom_site_label
_atom_site_fract_x
_atom_site_fract_y
_atom_site_fract_z
Si Si1 0.835849 0.185413 0.574993
Si Si2 0.259620 0.178612 0.096175
Si Si3 0.579433 0.818550 0.911074
Si Si4 0.463817 0.313871 0.703167
Si Si5 0.504718 0.678839 0.590562
Si Si6 0.815630 0.315679 0.862681
Si Si7 0.612814 0.175142 0.779319
Si Si8 0.266875 0.684097 0.642655
O O1 0.901503 0.233921 0.653100
O O2 0.795404 0.252993 0.457586
O O3 0.807217 0.228914 0.620827
O O4 0.834273 0.000000 0.566802
O O5 0.227133 0.266341 0.122769
O O6 0.327504 0.184850 0.188197
O O7 0.241967 0.000000 0.074523
O O8 0.250000 0.250000 0.000000
O O9 0.518267 0.742278 0.820103
O O10 0.614553 0.802475 0.874303
O O11 0.569773 0.000000 0.910478
O O12 0.621389 0.762069 0.031176
O O13 0.465961 0.500000 0.705436
O O14 0.472213 0.257542 0.624903
O O15 0.500000 0.751374 0.500000
O O16 0.487999 0.500000 0.563566
O O17 0.569982 0.699098 0.694680
O O18 0.817203 0.500000 0.859937
O O19 0.792905 0.248256 0.754146
O O20 0.590509 0.000000 0.740430
O O21 0.264555 0.500000 0.643811
#
# Coordination Sequence:
#
# PCOD9207347 Si02
#       8
#     8   8   8   8   8   8   8   8
#     4   9  19  38  60  81 110 143 180 226 279 336
#     4  11  21  34  52  77 108 143 183 223 265 318
#     4   9  18  34  52  74 106 142 177 218 268 323
#     4   9  18  33  55  79 102 139 183 221 268 325
#     4   9  18  31  47  72 104 135 173 217 259 310
#     4  11  22  37  55  79 112 147 184 228 280 332
#     4   9  18  33  49  69 100 136 176 215 257 308
#     4  10  21  37  58  84 109 140 181 228 280 333
#
# _framework density 18.039389
#
# number of rings (size 3 to 8) (size 9 to 14) (size 15 to 20)
#    0.000    2.375    1.250    1.125    0.000    4.250 
#    0.000    1.875    0.000    3.750    0.000    0.000 
#    0.000    0.000    0.000    0.000    0.000    0.000 
#
# Total GULP energy -178286.764690 kJ/mol
# GULP energy per Si atom -5571.461397 kJ/mol
# Density = 1.799833 g / cm^3
# Si number density = 18.039389 Si / 1000 Ang^3
#
#
#
# Elastic Constant Matrix: (Units=GPa)
#
#
# Indices 1 2 3 4 5 6 
#
# 1 94.0671 22.6990 66.7636 0.0000 17.5391 0.0000
# 2 22.6990 17.3922 27.6315 0.0000 1.2162 0.0000
# 3 66.7636 27.6315 133.1605 0.0000 -3.7596 0.0000
# 4 0.0000 0.0000 0.0000 30.4496 0.0000 2.7676
# 5 17.5391 1.2162 -3.7596 0.0000 26.1671 0.0000
# 6 0.0000 0.0000 0.0000 2.7676 0.0000 19.8152
#
#
#
# Elastic Compliance Matrix: (Units=1/GPa)
#
#
# Indices 1 2 3 4 5 6 
#
# 1 0.024148 -0.015442 -0.009378 0.000000 -0.016815 0.000000
# 2 -0.015442 0.096789 -0.012227 0.000000 0.004095 0.000000
# 3 -0.009378 -0.012227 0.015003 0.000000 0.009010 0.000000
# 4 0.000000 0.000000 0.000000 0.033263 0.000000 -0.004646
# 5 -0.016815 0.004095 0.009010 0.000000 0.050591 0.000000
# 6 0.000000 0.000000 0.000000 -0.004646 0.000000 0.051115
#
#
# Mechanical properties :
#
#
# Convention : Reuss Voigt Hill
#
# Bulk Modulus (GPa) = 16.16869 53.20091 34.68480
# Shear Modulus (GPa) = 13.67552 23.78809 18.73180
#
# Velocity S-wave (km/s) = 2.75633 3.63530 3.22589
# Velocity P-wave (km/s) = 4.37176 6.86848 5.75710
#
# Compressibility (1/GPa) = 0.06184792
#
# Stress axis : x y z
#
# Youngs Moduli (GPa) = 41.41135 10.33179 66.65340
#
# Poissons Ratio (x) = 0.15954 0.62506
# Poissons Ratio (y) = 0.63945 0.81494
# Poissons Ratio (z) = 0.38835 0.12632
#
# Static dielectric constant tensor:
#      x y z
#    x 1.619130 0.000000 0.003230 
#    y 0.000000 1.628640 0.000000 
#    z 0.003230 0.000000 1.632750 
# 
# From -- ./inp_files/249999.got.cif
#   From: 2010.05.17/outbox.cif.g08.bks.cpg/sg12_125_cif.got.tgz:249999.got - 2010.06.03 13:09:07.
