data_PCOD9207854
_publ_section_title
;
Structure prediction by ZEFSAII (Michael W. Deem and Ramdas Pophale) SiO2 
 PCOD9207854
Probable space group: C 2/M
;
_chemical_formula_sum "Si O2"
_cell_formula_units_Z 40
_cell_length_a 16.160776
_cell_length_b 13.952757
_cell_length_c 27.474895
_cell_angle_alpha 90.000000
_cell_angle_beta 162.336776
_cell_angle_gamma 90.000000
_cell_volume 1879.769781
_symmetry_space_group_name_H-M "C 2/M"
_symmetry_group_IT_number 12
_symmetry_cell_setting 'monoclinic'
loop_
_space_group_symop_operation_xyz
x,y,z
-x,y,-z
-x,-y,-z
x,-y,z
1/2+x,1/2+y,z
1/2-x,1/2+y,-z
1/2-x,1/2-y,-z
1/2+x,1/2-y,z
loop_
_atom_site_type_symbol
_atom_site_label
_atom_site_fract_x
_atom_site_fract_y
_atom_site_fract_z
Si Si1 0.751035 0.743186 0.392320
Si Si2 0.367636 0.208851 0.305802
Si Si3 0.003207 0.110532 0.824968
Si Si4 0.677949 0.890122 0.816502
Si Si5 0.088957 0.609666 0.106139
O O1 0.654494 0.647084 0.311423
O O2 0.501081 0.816397 0.253134
O O3 0.000000 0.784431 0.500000
O O4 0.877516 0.722216 0.515728
O O5 0.113210 0.175278 0.196836
O O6 0.407464 0.129196 0.286976
O O7 0.293005 0.308008 0.237338
O O8 0.941518 0.000000 0.801065
O O9 0.320904 0.118298 0.989865
O O10 0.635018 0.000000 0.806941
O O11 0.000000 0.869061 0.000000
O O12 0.192229 0.500000 0.168042
O O13 0.000000 0.623872 0.000000
#
# Coordination Sequence:
#
# PCOD9207854 Si02
#       5
#     8   8   8   8   8
#     4  10  23  40  61  89 120 157 197 247 302 351
#     4  11  21  37  61  88 118 152 197 251 299 351
#     4  10  21  38  60  87 120 159 202 246 296 355
#     4  11  24  41  61  86 119 159 199 242 297 359
#     4  10  21  37  60  88 120 161 202 244 296 354
#
# _framework density 21.279202000000002
#
# number of rings (size 3 to 8) (size 9 to 14) (size 15 to 20)
#    0.000    1.600    0.000    4.800    0.000    7.200 
#    0.000    9.000    0.000    0.000    0.000    0.000 
#    0.000    0.000    0.000    0.000    0.000    0.000 
#
# Total GULP energy -111852.999006 kJ/mol
# GULP energy per Si atom -5592.649950 kJ/mol
# Density = 2.123077 g / cm^3
# Si number density = 21.279202 Si / 1000 Ang^3
#
#
#
# Elastic Constant Matrix: (Units=GPa)
#
#
# Indices 1 2 3 4 5 6 
#
# 1 49.0099 17.7328 8.7637 0.0104 3.5070 0.0047
# 2 17.7328 110.2599 32.4854 -0.0065 3.2375 -0.0115
# 3 8.7637 32.4854 53.6668 0.0304 11.5950 -0.0233
# 4 0.0104 -0.0065 0.0304 8.2858 -0.0234 -7.2583
# 5 3.5070 3.2375 11.5950 -0.0234 35.6466 0.0064
# 6 0.0047 -0.0115 -0.0233 -7.2583 0.0064 29.9174
#
#
#
# Elastic Compliance Matrix: (Units=1/GPa)
#
#
# Indices 1 2 3 4 5 6 
#
# 1 0.021865 -0.003058 -0.001414 -0.000042 -0.001413 -0.000016
# 2 -0.003058 0.011519 -0.006789 0.000053 0.001463 0.000012
# 3 -0.001414 -0.006789 0.024535 -0.000125 -0.007225 -0.000012
# 4 -0.000042 0.000053 -0.000125 0.153261 0.000134 0.037183
# 5 -0.001413 0.001463 -0.007225 0.000134 0.030410 0.000021
# 6 -0.000016 0.000012 -0.000012 0.037183 0.000021 0.042446
#
#
# Mechanical properties :
#
#
# Convention : Reuss Voigt Hill
#
# Bulk Modulus (GPa) = 28.25204 36.76670 32.50937
# Shear Modulus (GPa) = 15.70565 25.03360 20.36962
#
# Velocity S-wave (km/s) = 2.71970 3.43364 3.09731
# Velocity P-wave (km/s) = 4.81332 5.74766 5.30111
#
# Compressibility (1/GPa) = 0.03539568
#
# Stress axis : x y z
#
# Youngs Moduli (GPa) = 45.73602 86.81572 40.75807
#
# Poissons Ratio (x) = 0.26552 0.05762
# Poissons Ratio (y) = 0.13988 0.27671
# Poissons Ratio (z) = 0.06466 0.58940
#
# Static dielectric constant tensor:
#      x y z
#    x 1.792590 0.000010 0.022270 
#    y 0.000010 1.722530 -0.000020 
#    z 0.022270 -0.000020 1.779670 
# 
# From -- ./inp_files/361504.got.cif
#   From: 2010.05.17/outbox.cif.g08.bks.cpg/sg12_181_cif.got.tgz:361504.got - 2010.06.03 13:09:07.
