data_PCOD9207609
_publ_section_title
;
Structure prediction by ZEFSAII (Michael W. Deem and Ramdas Pophale) SiO2 
 PCOD9207609
Probable space group: C 2/M
;
_chemical_formula_sum "Si O2"
_cell_formula_units_Z 64
_cell_length_a 20.701024
_cell_length_b 8.429975
_cell_length_c 21.528543
_cell_angle_alpha 90.000000
_cell_angle_beta 115.955660
_cell_angle_gamma 90.000000
_cell_volume 3377.977116
_symmetry_space_group_name_H-M "C 2/M"
_symmetry_group_IT_number 12
_symmetry_cell_setting 'monoclinic'
loop_
_space_group_symop_operation_xyz
x,y,z
-x,y,-z
-x,-y,-z
x,-y,z
1/2+x,1/2+y,z
1/2-x,1/2+y,-z
1/2-x,1/2-y,-z
1/2+x,1/2-y,z
loop_
_atom_site_type_symbol
_atom_site_label
_atom_site_fract_x
_atom_site_fract_y
_atom_site_fract_z
Si Si1 0.002825 0.308445 0.731022
Si Si2 0.077774 0.306361 0.056565
Si Si3 0.168386 0.309926 0.792033
Si Si4 0.392296 0.806389 0.789626
Si Si5 0.231887 0.189042 0.689959
Si Si6 0.889377 0.684950 0.444343
Si Si7 0.725136 0.190674 0.056485
Si Si8 0.485087 0.314783 0.588008
O O1 0.999080 0.500000 0.726158
O O2 0.954380 0.256096 0.768417
O O3 0.975675 0.239916 0.654376
O O4 0.086442 0.264695 0.773039
O O5 0.076528 0.500000 0.056534
O O6 0.093842 0.254296 0.133874
O O7 0.144041 0.259273 0.040478
O O8 0.000000 0.252763 0.000000
O O9 0.171388 0.500000 0.786152
O O10 0.192523 0.231518 0.737822
O O11 0.221744 0.256275 0.868569
O O12 0.314094 0.756346 0.732299
O O13 0.391813 0.000000 0.790732
O O14 0.186975 0.265981 0.615503
O O15 0.231216 0.000000 0.681500
O O16 0.891331 0.500000 0.459751
O O17 0.916605 0.779882 0.515843
O O18 0.948721 0.721380 0.415937
O O19 0.727399 0.000000 0.058801
O O20 0.750000 0.250000 0.000000
O O21 0.502887 0.500000 0.592873
#
# Coordination Sequence:
#
# PCOD9207609 Si02
#       8
#     8   8   8   8   8   8   8   8
#     4  10  21  37  59  86 117 153 197 241 288 343
#     4   9  18  34  59  85 110 147 195 238 280 338
#     4  11  22  36  59  87 117 153 194 239 289 343
#     4   9  19  36  58  84 114 153 195 240 286 341
#     4  11  20  36  60  87 116 150 196 242 290 341
#     4  11  21  35  57  85 117 153 195 239 292 348
#     4  11  23  39  60  87 118 149 190 242 295 345
#     4  11  21  35  56  85 119 153 193 241 294 343
#
# _framework density 18.946249000000002
#
# number of rings (size 3 to 8) (size 9 to 14) (size 15 to 20)
#    0.000    1.625    2.500    4.125    1.750    0.500 
#    0.000    1.875    0.000    1.500    0.000    0.000 
#    0.000    0.000    0.000    0.000    0.000    0.000 
#
# Total GULP energy -178782.254896 kJ/mol
# GULP energy per Si atom -5586.945466 kJ/mol
# Density = 1.890313 g / cm^3
# Si number density = 18.946249 Si / 1000 Ang^3
#
#
#
# Elastic Constant Matrix: (Units=GPa)
#
#
# Indices 1 2 3 4 5 6 
#
# 1 128.9385 3.4868 47.5426 0.0000 7.4685 0.0000
# 2 3.4868 20.1064 -7.8323 0.0000 -0.4709 0.0000
# 3 47.5426 -7.8323 97.3580 0.0000 13.9130 0.0000
# 4 0.0000 0.0000 0.0000 27.5576 0.0000 -2.0625
# 5 7.4685 -0.4709 13.9130 0.0000 31.7521 0.0000
# 6 0.0000 0.0000 0.0000 -2.0625 0.0000 15.1163
#
#
#
# Elastic Compliance Matrix: (Units=1/GPa)
#
#
# Indices 1 2 3 4 5 6 
#
# 1 0.009711 -0.003641 -0.005015 0.000000 -0.000141 0.000000
# 2 -0.003641 0.052747 0.006174 0.000000 -0.001067 0.000000
# 3 -0.005015 0.006174 0.013906 0.000000 -0.004822 0.000000
# 4 0.000000 0.000000 0.000000 0.036662 0.000000 0.005002
# 5 -0.000141 -0.001067 -0.004822 0.000000 0.033624 0.000000
# 6 0.000000 0.000000 0.000000 0.005002 0.000000 0.066836
#
#
# Mechanical properties :
#
#
# Convention : Reuss Voigt Hill
#
# Bulk Modulus (GPa) = 14.00564 36.97746 25.49155
# Shear Modulus (GPa) = 20.63967 28.43225 24.53596
#
# Velocity S-wave (km/s) = 3.30416 3.87806 3.60256
# Velocity P-wave (km/s) = 4.68668 6.29380 5.54873
#
# Compressibility (1/GPa) = 0.07139981
#
# Stress axis : x y z
#
# Youngs Moduli (GPa) = 102.97112 18.95845 71.91035
#
# Poissons Ratio (x) = 0.06903 0.36064
# Poissons Ratio (y) = 0.37492 -0.44396
# Poissons Ratio (z) = 0.51642 -0.11705
#
# Static dielectric constant tensor:
#      x y z
#    x 1.646670 0.000000 0.015420 
#    y 0.000000 1.652130 0.000000 
#    z 0.015420 0.000000 1.637960 
# 
# From -- ./inp_files/320139.got.cif
#   From: 2010.05.17/outbox.cif.g08.bks.cpg/sg12_161_cif.got.tgz:320139.got - 2010.06.03 13:09:07.
