data_PCOD9207466
_publ_section_title
;
Structure prediction by ZEFSAII (Michael W. Deem and Ramdas Pophale) SiO2 
 PCOD9207466
Probable space group: C 2/M
;
_chemical_formula_sum "Si O2"
_cell_formula_units_Z 56
_cell_length_a 14.190940
_cell_length_b 8.919482
_cell_length_c 22.048589
_cell_angle_alpha 90.000000
_cell_angle_beta 80.012028
_cell_angle_gamma 90.000000
_cell_volume 2748.521409
_symmetry_space_group_name_H-M "C 2/M"
_symmetry_group_IT_number 12
_symmetry_cell_setting 'monoclinic'
loop_
_space_group_symop_operation_xyz
x,y,z
-x,y,-z
-x,-y,-z
x,-y,z
1/2+x,1/2+y,z
1/2-x,1/2+y,-z
1/2-x,1/2-y,-z
1/2+x,1/2-y,z
loop_
_atom_site_type_symbol
_atom_site_label
_atom_site_fract_x
_atom_site_fract_y
_atom_site_fract_z
Si Si1 0.218900 0.327116 0.908951
Si Si2 0.448877 0.325469 0.132282
Si Si3 0.996909 0.821155 0.428824
Si Si4 0.640133 0.826671 0.647019
Si Si5 0.035046 0.327101 0.237961
Si Si6 0.109823 0.671313 0.049924
Si Si7 0.834491 0.680293 0.669717
O O1 0.247990 0.500000 0.896594
O O2 0.148082 0.268538 0.865312
O O3 0.308955 0.220864 0.911228
O O4 0.158369 0.320108 0.978637
O O5 0.427071 0.500000 0.133771
O O6 0.504927 0.276955 0.186226
O O7 0.521091 0.279927 0.070351
O O8 0.087905 0.746999 0.385640
O O9 0.000000 0.790807 0.500000
O O10 0.902634 0.753654 0.407513
O O11 0.999236 0.000000 0.418987
O O12 0.553357 0.824235 0.704955
O O13 0.731451 0.744324 0.664653
O O14 0.663557 0.000000 0.631462
O O15 0.047067 0.500000 0.216259
O O16 0.127254 0.280139 0.267039
O O17 0.078165 0.500000 0.062786
O O18 0.835831 0.500000 0.665844
#
# Coordination Sequence:
#
# PCOD9207466 Si02
#       7
#     8   8   8   8   8   8   8
#     4  10  21  38  59  82 110 144 182 227 278 332
#     4  12  24  36  56  84 113 147 184 226 277 332
#     4  10  21  37  58  86 119 152 188 231 275 323
#     4  10  21  38  61  85 112 149 188 230 279 329
#     4   9  21  40  57  78 110 146 188 235 278 324
#     4  10  21  38  59  82 110 144 182 227 278 332
#     4  10  21  38  61  85 112 149 188 230 279 329
#
# _framework density 20.374590000000001
#
# number of rings (size 3 to 8) (size 9 to 14) (size 15 to 20)
#    0.000    1.857    0.000    4.714    0.000    9.714 
#    0.000    2.857    0.000    0.000    0.000    0.000 
#    0.000    0.000    0.000    0.000    0.000    0.000 
#
# Total GULP energy -156520.394871 kJ/mol
# GULP energy per Si atom -5590.014103 kJ/mol
# Density = 2.032822 g / cm^3
# Si number density = 20.374590 Si / 1000 Ang^3
#
#
#
# Elastic Constant Matrix: (Units=GPa)
#
#
# Indices 1 2 3 4 5 6 
#
# 1 93.0141 16.7778 18.5873 0.0000 36.9228 0.0000
# 2 16.7778 86.4766 30.5336 0.0000 19.5065 0.0000
# 3 18.5873 30.5336 61.1053 0.0000 25.5474 0.0000
# 4 0.0000 0.0000 0.0000 28.6973 0.0000 2.3089
# 5 36.9228 19.5065 25.5474 0.0000 28.9184 0.0000
# 6 0.0000 0.0000 0.0000 2.3089 0.0000 35.7723
#
#
#
# Elastic Compliance Matrix: (Units=1/GPa)
#
#
# Indices 1 2 3 4 5 6 
#
# 1 0.024627 0.001177 0.008561 0.000000 -0.039801 0.000000
# 2 0.001177 0.014606 -0.004613 0.000000 -0.007280 0.000000
# 3 0.008561 -0.004613 0.030659 0.000000 -0.034904 0.000000
# 4 0.000000 0.000000 0.000000 0.035028 0.000000 -0.002261
# 5 -0.039801 -0.007280 -0.034904 0.000000 0.121143 0.000000
# 6 0.000000 0.000000 0.000000 -0.002261 0.000000 0.028101
#
#
# Mechanical properties :
#
#
# Convention : Reuss Voigt Hill
#
# Bulk Modulus (GPa) = 12.47777 41.37704 26.92740
# Shear Modulus (GPa) = 18.47549 30.32411 24.39980
#
# Velocity S-wave (km/s) = 3.01456 3.86207 3.46433
# Velocity P-wave (km/s) = 4.27250 6.34348 5.40805
#
# Compressibility (1/GPa) = 0.08014252
#
# Stress axis : x y z
#
# Youngs Moduli (GPa) = 40.60542 68.46321 32.61685
#
# Poissons Ratio (x) = -0.08059 -0.27923
# Poissons Ratio (y) = -0.04780 0.15046
# Poissons Ratio (z) = -0.34761 0.31581
#
# Static dielectric constant tensor:
#      x y z
#    x 1.717690 0.000000 -0.000470 
#    y 0.000000 1.681960 0.000000 
#    z -0.000470 0.000000 1.735310 
# 
# From -- ./inp_files/309071.got.cif
#   From: 2010.05.17/outbox.cif.g08.bks.cpg/sg12_155_cif.got.tgz:309071.got - 2010.06.03 13:09:07.
