data_PCOD9207070
_publ_section_title
;
Structure prediction by ZEFSAII (Michael W. Deem and Ramdas Pophale) SiO2 
 PCOD9207070
Probable space group: C 2/M
;
_chemical_formula_sum "Si O2"
_cell_formula_units_Z 40
_cell_length_a 27.775434
_cell_length_b 11.519804
_cell_length_c 12.230224
_cell_angle_alpha 90.000000
_cell_angle_beta 27.424890
_cell_angle_gamma 90.000000
_cell_volume 1802.397351
_symmetry_space_group_name_H-M "C 2/M"
_symmetry_group_IT_number 12
_symmetry_cell_setting 'monoclinic'
loop_
_space_group_symop_operation_xyz
x,y,z
-x,y,-z
-x,-y,-z
x,-y,z
1/2+x,1/2+y,z
1/2-x,1/2+y,-z
1/2-x,1/2-y,-z
1/2+x,1/2-y,z
loop_
_atom_site_type_symbol
_atom_site_label
_atom_site_fract_x
_atom_site_fract_y
_atom_site_fract_z
Si Si1 0.986378 0.372581 0.709649
Si Si2 0.596818 0.842399 0.883423
Si Si3 0.779544 0.628751 0.997864
Si Si4 0.397573 0.634728 0.469235
Si Si5 0.663920 0.373512 0.653184
O O1 0.042308 0.500000 0.587106
O O2 0.044677 0.248214 0.597653
O O3 0.927414 0.378955 0.945786
O O4 0.900280 0.367430 0.788479
O O5 0.613942 0.704941 0.845991
O O6 0.709625 0.876814 0.606400
O O7 0.500000 0.872487 0.000000
O O8 0.758779 0.500000 0.987130
O O9 0.710598 0.627905 0.246805
O O10 0.750000 0.750000 0.000000
O O11 0.441124 0.500000 0.387626
O O12 0.372593 0.664480 0.393643
O O13 0.624392 0.500000 0.751311
#
# Coordination Sequence:
#
# PCOD9207070 Si02
#       5
#     8   8   8   8   8
#     4  11  23  40  62  92 125 160 200 251 300 354
#     4  11  21  36  57  89 121 161 202 238 292 351
#     4  10  23  44  68  88 120 158 199 253 311 361
#     4  10  21  41  63  87 121 162 201 248 301 360
#     4  10  21  37  56  83 122 163 205 245 291 348
#
# _framework density 22.192664000000001
#
# number of rings (size 3 to 8) (size 9 to 14) (size 15 to 20)
#    0.000    1.600    4.000    0.600    0.000    5.200 
#    0.000    4.000    0.000    0.000    0.000    0.000 
#    0.000    0.000    0.000    0.000    0.000    0.000 
#
# Total GULP energy -111464.372775 kJ/mol
# GULP energy per Si atom -5573.218639 kJ/mol
# Density = 2.214215 g / cm^3
# Si number density = 22.192664 Si / 1000 Ang^3
#
#
#
# Elastic Constant Matrix: (Units=GPa)
#
#
# Indices 1 2 3 4 5 6 
#
# 1 52.9157 46.8403 6.5994 0.0000 -18.8771 0.0000
# 2 46.8403 161.5842 30.0425 0.0000 -21.6336 0.0000
# 3 6.5994 30.0425 82.5714 0.0000 -11.7245 0.0000
# 4 0.0000 0.0000 0.0000 0.0603 0.0000 1.8817
# 5 -18.8771 -21.6336 -11.7245 0.0000 34.4695 0.0000
# 6 0.0000 0.0000 0.0000 1.8817 0.0000 25.9675
#
#
#
# Elastic Compliance Matrix: (Units=1/GPa)
#
#
# Indices 1 2 3 4 5 6 
#
# 1 0.029458 -0.007276 0.002033 0.000000 0.012258 0.000000
# 2 -0.007276 0.008867 -0.002543 0.000000 0.000715 0.000000
# 3 0.002033 -0.002543 0.013455 0.000000 0.004094 0.000000
# 4 0.000000 0.000000 0.000000-13.145473 0.000000 0.952559
# 5 0.012258 0.000715 0.004094 0.000000 0.037565 0.000000
# 6 0.000000 0.000000 0.000000 0.952559 0.000000 -0.030516
#
#
# Mechanical properties :
#
#
# Convention : Reuss Voigt Hill
#
# Bulk Modulus (GPa) = 27.61834 51.55954 39.58894
# Shear Modulus (GPa) = -0.38288 26.33873 12.97793
#
# Velocity S-wave (km/s) = -0.41581 3.44877 2.42086
# Velocity P-wave (km/s) = 3.49876 6.25634 5.06868
#
# Compressibility (1/GPa) = 0.03620782
#
# Stress axis : x y z
#
# Youngs Moduli (GPa) = 33.94660 112.78403 74.32317
#
# Poissons Ratio (x) = 0.82065 -0.15113
# Poissons Ratio (y) = 0.24701 0.18900
# Poissons Ratio (z) = -0.06903 0.28680
#
# Static dielectric constant tensor:
#      x y z
#    x 1.786470 0.000000 -0.020170 
#    y 0.000000 1.938460 0.000000 
#    z -0.020170 0.000000 1.813110 
# 
# From -- ./inp_files/140249.got.cif
#   From: 2010.05.17/outbox.cif.g08.bks.cpg/sg12_71_cif.got.tgz:140249.got - 2010.06.03 13:09:07.
