data_PCOD9207824
_publ_section_title
;
Structure prediction by ZEFSAII (Michael W. Deem and Ramdas Pophale) SiO2 
 PCOD9207824
Probable space group: C 2/M
;
_chemical_formula_sum "Si O2"
_cell_formula_units_Z 56
_cell_length_a 26.190403
_cell_length_b 8.711041
_cell_length_c 16.130887
_cell_angle_alpha 90.000000
_cell_angle_beta 51.709529
_cell_angle_gamma 90.000000
_cell_volume 2888.507096
_symmetry_space_group_name_H-M "C 2/M"
_symmetry_group_IT_number 12
_symmetry_cell_setting 'monoclinic'
loop_
_space_group_symop_operation_xyz
x,y,z
-x,y,-z
-x,-y,-z
x,-y,z
1/2+x,1/2+y,z
1/2-x,1/2+y,-z
1/2-x,1/2-y,-z
1/2+x,1/2-y,z
loop_
_atom_site_type_symbol
_atom_site_label
_atom_site_fract_x
_atom_site_fract_y
_atom_site_fract_z
Si Si1 0.688962 0.179984 0.607170
Si Si2 0.300246 0.315163 0.054498
Si Si3 0.027927 0.684355 0.381378
Si Si4 0.448689 0.685471 0.308831
Si Si5 0.517754 0.326822 0.897748
Si Si6 0.832114 0.171431 0.207057
Si Si7 0.842823 0.815830 0.832087
O O1 0.750000 0.250000 0.500000
O O2 0.624201 0.258607 0.635478
O O3 0.698453 0.216207 0.695207
O O4 0.683362 0.000000 0.599999
O O5 0.292217 0.500000 0.057526
O O6 0.331451 0.279514 0.112176
O O7 0.229032 0.238489 0.123510
O O8 0.342066 0.270896 0.931104
O O9 0.030038 0.500000 0.377931
O O10 0.099062 0.745552 0.281236
O O11 0.000000 0.731671 0.500000
O O12 0.978706 0.746661 0.361286
O O13 0.450630 0.500000 0.308202
O O14 0.490582 0.736808 0.185571
O O15 0.487366 0.500000 0.929521
O O16 0.594653 0.343153 0.833734
O O17 0.500000 0.240785 0.000000
O O18 0.802172 0.000000 0.241875
O O19 0.848119 0.000000 0.821953
#
# Coordination Sequence:
#
# PCOD9207824 Si02
#       7
#     8   8   8   8   8   8   8
#     4  11  22  38  59  83 116 153 193 237 288 343
#     4   9  19  36  59  86 119 155 193 241 302 362
#     4  11  25  43  61  83 117 161 204 247 301 358
#     4  10  21  38  61  87 116 149 191 239 287 342
#     4   8  15  28  52  83 113 144 178 217 269 339
#     4   9  18  33  54  82 114 148 189 230 280 346
#     4  10  21  37  60  87 115 151 198 250 301 352
#
# _framework density 19.387177999999999
#
# number of rings (size 3 to 8) (size 9 to 14) (size 15 to 20)
#    0.000    2.286    0.000    3.429    2.000    3.429 
#    0.000    1.429    0.000    2.143    0.000    0.000 
#    0.000    0.000    0.000    0.000    0.000    0.000 
#
# Total GULP energy -156021.177605 kJ/mol
# GULP energy per Si atom -5572.184914 kJ/mol
# Density = 1.934305 g / cm^3
# Si number density = 19.387178 Si / 1000 Ang^3
#
#
#
# Elastic Constant Matrix: (Units=GPa)
#
#
# Indices 1 2 3 4 5 6 
#
# 1 71.8667 21.4974 59.7864 0.0000 20.8751 0.0000
# 2 21.4974 51.6697 49.3837 0.0001 3.5658 0.0000
# 3 59.7864 49.3837 173.0680 0.0000 16.9377 0.0000
# 4 0.0000 0.0001 0.0000 25.6034 0.0000 1.1376
# 5 20.8751 3.5658 16.9377 0.0000 38.7249 0.0000
# 6 0.0000 0.0000 0.0000 1.1376 0.0000 26.8827
#
#
#
# Elastic Compliance Matrix: (Units=1/GPa)
#
#
# Indices 1 2 3 4 5 6 
#
# 1 0.022487 -0.002966 -0.006020 0.000000 -0.009216 0.000000
# 2 -0.002966 0.027033 -0.006897 0.000000 0.002126 0.000000
# 3 -0.006020 -0.006897 0.009868 0.000000 -0.000436 0.000000
# 4 0.000000 0.000000 0.000000 0.039131 0.000000 -0.001656
# 5 -0.009216 0.002126 -0.000436 0.000000 0.030786 0.000000
# 6 0.000000 0.000000 0.000000 -0.001656 0.000000 0.037269
#
#
# Mechanical properties :
#
#
# Convention : Reuss Voigt Hill
#
# Bulk Modulus (GPa) = 36.20329 61.99328 49.09828
# Shear Modulus (GPa) = 24.09093 29.30465 26.69779
#
# Velocity S-wave (km/s) = 3.52891 3.89208 3.71494
# Velocity P-wave (km/s) = 5.94295 7.22797 6.61673
#
# Compressibility (1/GPa) = 0.02762180
#
# Stress axis : x y z
#
# Youngs Moduli (GPa) = 44.47087 36.99172 101.33453
#
# Poissons Ratio (x) = 0.10973 0.61000
# Poissons Ratio (y) = 0.13191 0.69891
# Poissons Ratio (z) = 0.26770 0.25514
#
# Static dielectric constant tensor:
#      x y z
#    x 1.668760 0.000000 0.015580 
#    y 0.000000 1.665270 0.000000 
#    z 0.015580 0.000000 1.732530 
# 
# From -- ./inp_files/243693.got.cif
#   From: 2010.05.17/outbox.cif.g08.bks.cpg/sg12_122_cif.got.tgz:243693.got - 2010.06.03 13:09:07.
