data_PCOD9207325
_publ_section_title
;
Structure prediction by ZEFSAII (Michael W. Deem and Ramdas Pophale) SiO2 
 PCOD9207325
Probable space group: C 2/M
;
_chemical_formula_sum "Si O2"
_cell_formula_units_Z 56
_cell_length_a 20.043847
_cell_length_b 8.091812
_cell_length_c 16.996032
_cell_angle_alpha 90.000000
_cell_angle_beta 109.034658
_cell_angle_gamma 90.000000
_cell_volume 2605.877066
_symmetry_space_group_name_H-M "C 2/M"
_symmetry_group_IT_number 12
_symmetry_cell_setting 'monoclinic'
loop_
_space_group_symop_operation_xyz
x,y,z
-x,y,-z
-x,-y,-z
x,-y,z
1/2+x,1/2+y,z
1/2-x,1/2+y,-z
1/2-x,1/2-y,-z
1/2+x,1/2-y,z
loop_
_atom_site_type_symbol
_atom_site_label
_atom_site_fract_x
_atom_site_fract_y
_atom_site_fract_z
Si Si1 0.347720 0.304387 0.869813
Si Si2 0.820321 0.197187 0.481226
Si Si3 0.809144 0.297454 0.159357
Si Si4 0.096574 0.303184 0.946610
Si Si5 0.460833 0.299220 0.795608
Si Si6 0.118056 0.303358 0.652997
Si Si7 0.964586 0.198804 0.617062
O O1 0.338758 0.500000 0.854592
O O2 0.270083 0.236551 0.857047
O O3 0.388750 0.241014 0.809304
O O4 0.394991 0.276499 0.965112
O O5 0.750000 0.250000 0.500000
O O6 0.827174 0.251630 0.393349
O O7 0.892646 0.261558 0.549732
O O8 0.822408 0.000000 0.484182
O O9 0.809736 0.500000 0.158714
O O10 0.841720 0.244504 0.088930
O O11 0.856988 0.242974 0.251461
O O12 0.101496 0.500000 0.958514
O O13 0.024756 0.261181 0.874102
O O14 0.461876 0.500000 0.795892
O O15 0.467952 0.241880 0.708775
O O16 0.116327 0.500000 0.655064
O O17 0.038800 0.242820 0.605505
O O18 0.960342 0.000000 0.616247
#
# Coordination Sequence:
#
# PCOD9207325 Si02
#       7
#     8   8   8   8   8   8   8
#     4  10  21  37  58  82 113 156 203 245 292 353
#     4  11  25  43  65  95 127 159 197 247 301 358
#     4   9  20  37  59  85 116 155 198 245 295 350
#     4  11  21  37  57  84 119 153 193 247 303 351
#     4  10  21  37  60  85 112 154 202 243 290 353
#     4  11  22  40  66  92 123 162 202 246 300 360
#     4  10  22  41  64  89 121 160 204 250 296 355
#
# _framework density 21.489885000000001
#
# number of rings (size 3 to 8) (size 9 to 14) (size 15 to 20)
#    0.000    1.714    1.429    2.571    2.000    5.143 
#    0.000    2.143    0.000    0.000    0.000    0.000 
#    0.000    0.000    0.000    0.000    0.000    0.000 
#
# Total GULP energy -156498.352309 kJ/mol
# GULP energy per Si atom -5589.226868 kJ/mol
# Density = 2.144097 g / cm^3
# Si number density = 21.489885 Si / 1000 Ang^3
#
#
#
# Elastic Constant Matrix: (Units=GPa)
#
#
# Indices 1 2 3 4 5 6 
#
# 1 93.3670 2.6248 -0.2713 0.0000 -24.5639 0.0000
# 2 2.6248 9.7884 -9.9348 0.0000 0.0162 0.0000
# 3 -0.2713 -9.9348 45.6042 0.0000 -11.8251 0.0000
# 4 0.0000 0.0000 0.0000 15.0712 0.0000 -2.0266
# 5 -24.5639 0.0162 -11.8251 0.0000 35.0291 0.0000
# 6 0.0000 0.0000 0.0000 -2.0266 0.0000 28.3761
#
#
#
# Elastic Compliance Matrix: (Units=1/GPa)
#
#
# Indices 1 2 3 4 5 6 
#
# 1 0.013453 -0.001075 0.002512 0.000000 0.010282 0.000000
# 2 -0.001075 0.134872 0.031961 0.000000 0.009974 0.000000
# 3 0.002512 0.031961 0.032175 0.000000 0.012608 0.000000
# 4 0.000000 0.000000 0.000000 0.066995 0.000000 0.004785
# 5 0.010282 0.009974 0.012608 0.000000 0.040010 0.000000
# 6 0.000000 0.000000 0.000000 0.004785 0.000000 0.035583
#
#
# Mechanical properties :
#
#
# Convention : Reuss Voigt Hill
#
# Bulk Modulus (GPa) = 4.04372 14.84412 9.44392
# Shear Modulus (GPa) = 14.76133 26.11802 20.43967
#
# Velocity S-wave (km/s) = 2.62371 3.48999 3.08739
# Velocity P-wave (km/s) = 3.32630 4.81274 4.13683
#
# Compressibility (1/GPa) = 0.24729709
#
# Stress axis : x y z
#
# Youngs Moduli (GPa) = 74.33205 7.41444 31.08025
#
# Poissons Ratio (x) = 0.00797 -0.07808
# Poissons Ratio (y) = 0.07989 -0.99336
# Poissons Ratio (z) = -0.18673 -0.23697
#
# Static dielectric constant tensor:
#      x y z
#    x 1.798790 0.000000 -0.002650 
#    y 0.000000 1.759470 0.000000 
#    z -0.002650 0.000000 1.764960 
# 
# From -- ./inp_files/275587.got.cif
#   From: 2010.05.17/outbox.cif.g08.bks.cpg/sg12_138_cif.got.tgz:275587.got - 2010.06.03 13:09:07.
