data_PCOD9207997
_publ_section_title
;
Structure prediction by ZEFSAII (Michael W. Deem and Ramdas Pophale) SiO2 
 PCOD9207997
Probable space group: C 2/M
;
_chemical_formula_sum "Si O2"
_cell_formula_units_Z 64
_cell_length_a 13.460738
_cell_length_b 14.180670
_cell_length_c 17.720889
_cell_angle_alpha 90.000000
_cell_angle_beta 62.584748
_cell_angle_gamma 90.000000
_cell_volume 3002.713170
_symmetry_space_group_name_H-M "C 2/M"
_symmetry_group_IT_number 12
_symmetry_cell_setting 'monoclinic'
loop_
_space_group_symop_operation_xyz
x,y,z
-x,y,-z
-x,-y,-z
x,-y,z
1/2+x,1/2+y,z
1/2-x,1/2+y,-z
1/2-x,1/2-y,-z
1/2+x,1/2-y,z
loop_
_atom_site_type_symbol
_atom_site_label
_atom_site_fract_x
_atom_site_fract_y
_atom_site_fract_z
Si Si1 0.619757 0.213668 0.498287
Si Si2 0.714598 0.692914 0.325509
Si Si3 0.799032 0.892428 0.071366
Si Si4 0.370781 0.778701 0.134422
Si Si5 0.521424 0.395471 0.582473
Si Si6 0.807903 0.107521 0.887258
Si Si7 0.063810 0.294070 0.182778
Si Si8 0.402841 0.895102 0.348526
O O1 0.500000 0.198977 0.500000
O O2 0.698147 0.233260 0.399562
O O3 0.611439 0.311148 0.550203
O O4 0.633782 0.133248 0.554766
O O5 0.779284 0.736998 0.232977
O O6 0.596100 0.646009 0.346780
O O7 0.795359 0.613578 0.332160
O O8 0.878670 0.816882 0.084038
O O9 0.673781 0.857730 0.135316
O O10 0.819263 0.000000 0.087922
O O11 0.808080 0.887079 0.977851
O O12 0.312209 0.857692 0.102824
O O13 0.483237 0.806714 0.138240
O O14 0.500000 0.405485 0.500000
O O15 0.549265 0.500000 0.602225
O O16 0.896710 0.185719 0.829569
O O17 0.830325 0.000000 0.856055
O O18 0.994014 0.324953 0.280582
O O19 0.448822 0.000000 0.330890
#
# Coordination Sequence:
#
# PCOD9207997 Si02
#       8
#     8   8   8   8   8   8   8   8
#     4   9  20  34  53  80 110 146 192 233 281 335
#     4   9  19  35  54  79 111 145 191 238 283 335
#     4  10  22  40  61  88 120 158 196 238 293 363
#     4  10  21  37  61  87 120 159 195 242 298 347
#     4   8  15  29  50  75 100 133 177 224 275 324
#     4  10  23  40  62  90 119 152 197 245 297 353
#     4  10  22  39  59  89 121 156 196 244 295 355
#     4  11  22  36  55  79 112 154 191 233 288 347
#
# _framework density 21.314056999999998
#
# number of rings (size 3 to 8) (size 9 to 14) (size 15 to 20)
#    0.000    2.625    0.000    2.625    7.000    6.250 
#    0.000    3.125    0.000    3.000    0.000    0.000 
#    0.000    0.000    0.000    0.000    0.000    0.000 
#
# Total GULP energy -178616.839329 kJ/mol
# GULP energy per Si atom -5581.776229 kJ/mol
# Density = 2.126555 g / cm^3
# Si number density = 21.314057 Si / 1000 Ang^3
#
#
#
# Elastic Constant Matrix: (Units=GPa)
#
#
# Indices 1 2 3 4 5 6 
#
# 1 29.5080 -9.8317 5.2980 0.0000 14.2766 0.0000
# 2 -9.8317 109.2022 31.1973 0.0000 15.0814 0.0000
# 3 5.2980 31.1973 78.5004 0.0000 2.2841 0.0000
# 4 0.0000 0.0000 0.0000 -10.7091 0.0000 0.7644
# 5 14.2766 15.0814 2.2841 0.0000 26.8003 0.0000
# 6 0.0000 0.0000 0.0000 0.7644 0.0000 1.3592
#
#
#
# Elastic Compliance Matrix: (Units=1/GPa)
#
#
# Indices 1 2 3 4 5 6 
#
# 1 0.057260 0.012457 -0.007743 0.000000 -0.036852 0.000000
# 2 0.012457 0.013909 -0.005963 0.000000 -0.013955 0.000000
# 3 -0.007743 -0.005963 0.015452 0.000000 0.006163 0.000000
# 4 0.000000 0.000000 0.000000 -0.089775 0.000000 0.050485
# 5 -0.036852 -0.013955 0.006163 0.000000 0.064272 0.000000
# 6 0.000000 0.000000 0.000000 0.050485 0.000000 0.707319
#
#
# Mechanical properties :
#
#
# Convention : Reuss Voigt Hill
#
# Bulk Modulus (GPa) = 11.88726 30.05976 20.97351
# Shear Modulus (GPa) = 6.25802 16.19322 11.22562
#
# Velocity S-wave (km/s) = 1.71536 2.75934 2.29743
# Velocity P-wave (km/s) = 3.08425 4.92806 4.11086
#
# Compressibility (1/GPa) = 0.08412367
#
# Stress axis : x y z
#
# Youngs Moduli (GPa) = 17.46430 71.89347 64.71813
#
# Poissons Ratio (x) = -0.89555 0.50109
# Poissons Ratio (y) = -0.21755 0.38588
# Poissons Ratio (z) = 0.13522 0.42867
#
# Static dielectric constant tensor:
#      x y z
#    x 1.815740 0.000000 -0.010850 
#    y 0.000000 1.780610 0.000000 
#    z -0.010850 0.000000 1.778350 
# 
# From -- ./inp_files/270295.got.cif
#   From: 2010.05.17/outbox.cif.g08.bks.cpg/sg12_136_cif.got.tgz:270295.got - 2010.06.03 13:09:07.
