data_PCOD9207439
_publ_section_title
;
Structure prediction by ZEFSAII (Michael W. Deem and Ramdas Pophale) SiO2 
 PCOD9207439
Probable space group: C 2/M
;
_chemical_formula_sum "Si O2"
_cell_formula_units_Z 56
_cell_length_a 8.269626
_cell_length_b 12.702094
_cell_length_c 24.485447
_cell_angle_alpha 90.000000
_cell_angle_beta 83.783226
_cell_angle_gamma 90.000000
_cell_volume 2556.864625
_symmetry_space_group_name_H-M "C 2/M"
_symmetry_group_IT_number 12
_symmetry_cell_setting 'monoclinic'
loop_
_space_group_symop_operation_xyz
x,y,z
-x,y,-z
-x,-y,-z
x,-y,z
1/2+x,1/2+y,z
1/2-x,1/2+y,-z
1/2-x,1/2-y,-z
1/2+x,1/2-y,z
loop_
_atom_site_type_symbol
_atom_site_label
_atom_site_fract_x
_atom_site_fract_y
_atom_site_fract_z
Si Si1 0.574335 0.872860 0.270941
Si Si2 0.051431 0.622946 0.605059
Si Si3 0.851381 0.186996 0.116920
Si Si4 0.611301 0.194239 0.040358
Si Si5 0.931946 0.881500 0.232548
Si Si6 0.135368 0.799903 0.458395
Si Si7 0.790514 0.626098 0.197143
O O1 0.490023 0.847279 0.331252
O O2 0.762465 0.837534 0.262217
O O3 0.452125 0.844652 0.225825
O O4 0.579976 0.000000 0.267268
O O5 0.006140 0.500000 0.597510
O O6 0.950885 0.704819 0.571399
O O7 0.242758 0.636332 0.584745
O O8 0.704467 0.138905 0.086949
O O9 0.902514 0.122568 0.168152
O O10 0.795925 0.300382 0.143748
O O11 0.999994 0.215925 0.072251
O O12 0.500000 0.134962 0.000000
O O13 0.750000 0.250000 0.000000
O O14 0.119323 0.848835 0.233601
O O15 0.933995 0.000000 0.253458
O O16 0.250000 0.750000 0.500000
O O17 0.000000 0.859017 0.500000
O O18 0.791970 0.500000 0.186418
#
# Coordination Sequence:
#
# PCOD9207439 Si02
#       7
#     8   8   8   8   8   8   8
#     4   9  20  38  57  86 125 157 190 237 297 354
#     4  10  21  41  63  86 127 168 198 254 320 367
#     4  11  18  35  57  79 104 146 195 221 288 358
#     4   9  19  32  53  77 105 140 181 239 292 334
#     4  10  21  37  58  85 118 151 189 240 284 348
#     4   9  20  39  61  91 120 154 214 262 298 361
#     4  10  21  37  58  85 118 149 189 241 280 346
#
# _framework density 21.901826
#
# number of rings (size 3 to 8) (size 9 to 14) (size 15 to 20)
#    0.000    2.286    1.429    0.857    0.000    4.000 
#    5.143    2.143    0.000   17.143    0.000    0.000 
#    0.000    0.000    0.000    0.000    0.000    0.000 
#
# Total GULP energy -156030.909288 kJ/mol
# GULP energy per Si atom -5572.532475 kJ/mol
# Density = 2.185198 g / cm^3
# Si number density = 21.901826 Si / 1000 Ang^3
#
#
#
# Elastic Constant Matrix: (Units=GPa)
#
#
# Indices 1 2 3 4 5 6 
#
# 1 104.0418 28.9945 34.7779 0.0000 -20.0538 0.0000
# 2 28.9945 78.8633 11.8368 0.0000 -3.6182 0.0000
# 3 34.7779 11.8368 110.5554 0.0000 -31.0420 0.0000
# 4 0.0000 0.0000 0.0000 33.6363 0.0000 11.7943
# 5 -20.0538 -3.6182 -31.0420 0.0000 49.2163 0.0000
# 6 0.0000 0.0000 0.0000 11.7943 0.0000 39.4105
#
#
#
# Elastic Compliance Matrix: (Units=1/GPa)
#
#
# Indices 1 2 3 4 5 6 
#
# 1 0.012150 -0.003945 -0.002541 0.000000 0.003058 0.000000
# 2 -0.003945 0.014169 -0.000528 0.000000 -0.000899 0.000000
# 3 -0.002541 -0.000528 0.011665 0.000000 0.006283 0.000000
# 4 0.000000 0.000000 0.000000 0.033215 0.000000 -0.009940
# 5 0.003058 -0.000899 0.006283 0.000000 0.025461 0.000000
# 6 0.000000 0.000000 0.000000 -0.009940 0.000000 0.028349
#
#
# Mechanical properties :
#
#
# Convention : Reuss Voigt Hill
#
# Bulk Modulus (GPa) = 41.74559 49.40875 45.57717
# Shear Modulus (GPa) = 34.00818 38.97605 36.49211
#
# Velocity S-wave (km/s) = 3.94478 4.22308 4.08630
# Velocity P-wave (km/s) = 6.31269 6.81083 6.56649
#
# Compressibility (1/GPa) = 0.02395463
#
# Stress axis : x y z
#
# Youngs Moduli (GPa) = 82.30621 70.57806 85.72327
#
# Poissons Ratio (x) = 0.27845 0.21782
# Poissons Ratio (y) = 0.32472 0.04530
# Poissons Ratio (z) = 0.20914 0.03729
#
# Static dielectric constant tensor:
#      x y z
#    x 1.851420 0.000000 -0.012200 
#    y 0.000000 1.857890 0.000000 
#    z -0.012200 0.000000 1.806410 
# 
# From -- ./inp_files/356433.got.cif
#   From: 2010.05.17/outbox.cif.g08.bks.cpg/sg12_179_cif.got.tgz:356433.got - 2010.06.03 13:09:07.
