data_PCOD9207745
_publ_section_title
;
Structure prediction by ZEFSAII (Michael W. Deem and Ramdas Pophale) SiO2 
 PCOD9207745
Probable space group: C 2/M
;
_chemical_formula_sum "Si O2"
_cell_formula_units_Z 64
_cell_length_a 20.215006
_cell_length_b 17.430720
_cell_length_c 23.377884
_cell_angle_alpha 90.000000
_cell_angle_beta 23.342373
_cell_angle_gamma 90.000000
_cell_volume 3263.892670
_symmetry_space_group_name_H-M "C 2/M"
_symmetry_group_IT_number 12
_symmetry_cell_setting 'monoclinic'
loop_
_space_group_symop_operation_xyz
x,y,z
-x,y,-z
-x,-y,-z
x,-y,z
1/2+x,1/2+y,z
1/2-x,1/2+y,-z
1/2-x,1/2-y,-z
1/2+x,1/2-y,z
loop_
_atom_site_type_symbol
_atom_site_label
_atom_site_fract_x
_atom_site_fract_y
_atom_site_fract_z
Si Si1 0.545267 0.683652 0.176354
Si Si2 0.986351 0.684573 0.701692
Si Si3 0.657132 0.086299 0.734318
Si Si4 0.653659 0.087080 0.099336
Si Si5 0.009454 0.912035 0.396070
Si Si6 0.682781 0.587980 0.571016
Si Si7 0.022997 0.262192 0.891185
Si Si8 0.222522 0.236643 0.219871
O O1 0.525965 0.747433 0.241347
O O2 0.420642 0.615471 0.292122
O O3 0.505422 0.720339 0.146462
O O4 0.728450 0.645626 0.028507
O O5 0.862050 0.619224 0.824311
O O6 0.930092 0.715534 0.685104
O O7 0.167975 0.647709 0.555376
O O8 0.533915 0.087631 0.777056
O O9 0.846729 0.102454 0.564859
O O10 0.579020 0.150766 0.835393
O O11 0.648685 0.000000 0.764211
O O12 0.715463 0.000000 0.046612
O O13 0.939118 0.907701 0.387134
O O14 0.148856 0.847515 0.291979
O O15 0.064359 0.000000 0.362794
O O16 0.741927 0.500000 0.527818
O O17 0.176925 0.229476 0.806321
O O18 0.857905 0.264538 0.061014
#
# Coordination Sequence:
#
# PCOD9207745 Si02
#       8
#     8   8   8   8   8   8   8   8
#     4  12  22  38  64  91 121 158 204 251 297 349
#     4  12  21  38  64  91 121 158 201 246 301 354
#     4  10  21  37  59  90 125 159 196 240 297 366
#     4  11  21  36  62  92 123 155 196 250 303 351
#     4  10  21  38  59  90 126 159 196 239 298 367
#     4  11  23  38  61  95 127 153 194 251 307 358
#     4  11  24  42  58  86 122 158 202 251 298 352
#     4  11  25  40  60  86 120 161 201 248 301 355
#
# _framework density 19.608487
#
# number of rings (size 3 to 8) (size 9 to 14) (size 15 to 20)
#    0.000    1.000    5.000    2.250    1.750    1.500 
#    0.000    2.500    0.000    4.500    0.000    0.000 
#    0.000    0.000    0.000    0.000    0.000    0.000 
#
# Total GULP energy -178790.605809 kJ/mol
# GULP energy per Si atom -5587.206432 kJ/mol
# Density = 1.956386 g / cm^3
# Si number density = 19.608487 Si / 1000 Ang^3
#
#
#
# Elastic Constant Matrix: (Units=GPa)
#
#
# Indices 1 2 3 4 5 6 
#
# 1 71.4824 23.5319 10.1349 -0.0014 -19.1699 -0.0013
# 2 23.5319 62.9072 15.6499 0.0037 -16.2790 -0.0017
# 3 10.1349 15.6499 57.7166 -0.0005 -11.1462 0.0008
# 4 -0.0014 0.0037 -0.0005 39.1512 0.0008 0.3741
# 5 -19.1699 -16.2790 -11.1462 0.0008 21.8720 -0.0019
# 6 -0.0013 -0.0017 0.0008 0.3741 -0.0019 14.8204
#
#
#
# Elastic Compliance Matrix: (Units=1/GPa)
#
#
# Indices 1 2 3 4 5 6 
#
# 1 0.018878 -0.003496 0.000361 0.000001 0.014128 0.000003
# 2 -0.003496 0.020747 -0.002907 -0.000002 0.010896 0.000004
# 3 0.000361 -0.002907 0.019626 0.000000 0.008154 0.000000
# 4 0.000001 -0.000002 0.000000 0.025548 -0.000002 -0.000645
# 5 0.014128 0.010896 0.008154 -0.000002 0.070368 0.000011
# 6 0.000003 0.000004 0.000000 -0.000645 0.000011 0.067491
#
#
# Mechanical properties :
#
#
# Convention : Reuss Voigt Hill
#
# Bulk Modulus (GPa) = 21.20122 32.30440 26.75281
# Shear Modulus (GPa) = 19.96296 24.68801 22.32549
#
# Velocity S-wave (km/s) = 3.19419 3.55216 3.37792
# Velocity P-wave (km/s) = 4.94364 5.77358 5.37465
#
# Compressibility (1/GPa) = 0.04716710
#
# Stress axis : x y z
#
# Youngs Moduli (GPa) = 52.97243 48.19952 50.95366
#
# Poissons Ratio (x) = 0.16848 -0.01841
# Poissons Ratio (y) = 0.18517 0.14815
# Poissons Ratio (z) = -0.01914 0.14014
#
# Static dielectric constant tensor:
#      x y z
#    x 1.726720 0.000000 -0.005140 
#    y 0.000000 1.701230 0.000010 
#    z -0.005140 0.000010 1.695760 
# 
# From -- ./inp_files/347849.got.cif
#   From: 2010.05.17/outbox.cif.g08.bks.cpg/sg12_174_cif.got.tgz:347849.got - 2010.06.03 13:09:07.
