data_PCOD9207097
_publ_section_title
;
Structure prediction by ZEFSAII (Michael W. Deem and Ramdas Pophale) SiO2 
 PCOD9207097
Probable space group: C 2/M
;
_chemical_formula_sum "Si O2"
_cell_formula_units_Z 64
_cell_length_a 26.138848
_cell_length_b 22.883292
_cell_length_c 11.705231
_cell_angle_alpha 90.000000
_cell_angle_beta 154.854763
_cell_angle_gamma 90.000000
_cell_volume 2974.995062
_symmetry_space_group_name_H-M "C 2/M"
_symmetry_group_IT_number 12
_symmetry_cell_setting 'monoclinic'
loop_
_space_group_symop_operation_xyz
x,y,z
-x,y,-z
-x,-y,-z
x,-y,z
1/2+x,1/2+y,z
1/2-x,1/2+y,-z
1/2-x,1/2-y,-z
1/2+x,1/2-y,z
loop_
_atom_site_type_symbol
_atom_site_label
_atom_site_fract_x
_atom_site_fract_y
_atom_site_fract_z
Si Si1 0.710690 0.650415 0.633896
Si Si2 0.410959 0.568808 0.468838
Si Si3 0.245427 0.241021 0.124828
Si Si4 0.442178 0.298655 0.086955
Si Si5 0.762076 0.681019 0.493744
Si Si6 0.547004 0.176937 0.314836
Si Si7 0.331078 0.570707 0.059648
Si Si8 0.450904 0.070156 0.530892
O O1 0.688025 0.588018 0.641924
O O2 0.763398 0.696082 0.831411
O O3 0.574171 0.675242 0.346771
O O4 0.766687 0.648841 0.622956
O O5 0.411790 0.500000 0.459293
O O6 0.367208 0.593355 0.258416
O O7 0.550334 0.585640 0.775189
O O8 0.365307 0.209450 0.415256
O O9 0.250000 0.250000 0.000000
O O10 0.132039 0.204285 0.943678
O O11 0.460961 0.229365 0.099428
O O12 0.357684 0.328879 0.823019
O O13 0.750000 0.750000 0.500000
O O14 0.870244 0.665104 0.628062
O O15 0.496939 0.118350 0.274515
O O16 0.329693 0.500000 0.060980
O O17 0.193054 0.584585 0.753642
O O18 0.500000 0.079223 0.500000
O O19 0.467785 0.000000 0.589652
#
# Coordination Sequence:
#
# PCOD9207097 Si02
#       8
#     8   8   8   8   8   8   8   8
#     4  11  22  34  58  84 112 156 189 236 290 343
#     4   9  19  34  56  87 115 150 193 232 290 350
#     4  10  23  35  52  86 122 146 185 240 298 351
#     4  10  21  37  57  79 113 150 192 240 288 348
#     4  11  20  41  57  82 110 149 205 233 289 350
#     4  10  23  36  58  85 113 155 191 242 289 344
#     4   8  17  35  56  79 116 155 187 229 278 349
#     4  10  22  39  60  86 118 159 201 236 289 358
#
# _framework density 21.512640000000001
#
# number of rings (size 3 to 8) (size 9 to 14) (size 15 to 20)
#    0.000    2.125    3.750    1.125    7.000    2.500 
#    0.000    0.625    0.000    1.500    0.000    0.875 
#    0.000    0.000    0.000    0.000    0.000    0.000 
#
# Total GULP energy -178462.534508 kJ/mol
# GULP energy per Si atom -5576.954203 kJ/mol
# Density = 2.146368 g / cm^3
# Si number density = 21.512640 Si / 1000 Ang^3
#
#
#
# Elastic Constant Matrix: (Units=GPa)
#
#
# Indices 1 2 3 4 5 6 
#
# 1 127.7883 12.9727 10.6088 0.0000 -23.0581 0.0000
# 2 12.9727 59.2694 -2.9577 0.0000 -1.2833 0.0000
# 3 10.6088 -2.9577 35.9513 0.0000 -0.3385 0.0000
# 4 0.0000 0.0000 0.0000 17.9713 0.0000 2.6648
# 5 -23.0581 -1.2833 -0.3385 0.0000 24.6255 0.0000
# 6 0.0000 0.0000 0.0000 2.6648 0.0000 35.3589
#
#
#
# Elastic Compliance Matrix: (Units=1/GPa)
#
#
# Indices 1 2 3 4 5 6 
#
# 1 0.009945 -0.002129 -0.003024 0.000000 0.009160 0.000000
# 2 -0.002129 0.017418 0.002051 0.000000 -0.001058 0.000000
# 3 -0.003024 0.002051 0.028855 0.000000 -0.002328 0.000000
# 4 0.000000 0.000000 0.000000 0.056273 0.000000 -0.004241
# 5 0.009160 -0.001058 -0.002328 0.000000 0.049098 0.000000
# 6 0.000000 0.000000 0.000000 -0.004241 0.000000 0.028601
#
#
# Mechanical properties :
#
#
# Convention : Reuss Voigt Hill
#
# Bulk Modulus (GPa) = 19.99437 29.36184 24.67811
# Shear Modulus (GPa) = 23.46703 29.08348 26.27526
#
# Velocity S-wave (km/s) = 3.30638 3.68084 3.49863
# Velocity P-wave (km/s) = 4.88781 5.63410 5.27417
#
# Compressibility (1/GPa) = 0.05001407
#
# Stress axis : x y z
#
# Youngs Moduli (GPa) = 100.54848 57.41304 34.65656
#
# Poissons Ratio (x) = 0.12225 0.10479
# Poissons Ratio (y) = 0.21411 -0.07109
# Poissons Ratio (z) = 0.30403 -0.11777
#
# Static dielectric constant tensor:
#      x y z
#    x 1.795240 0.000000 0.035580 
#    y 0.000000 1.847370 0.000000 
#    z 0.035580 0.000000 1.899430 
# 
# From -- ./inp_files/184964.got.cif
#   From: 2010.05.17/outbox.cif.g08.bks.cpg/sg12_93_cif.got.tgz:184964.got - 2010.06.03 13:09:07.
