data_PCOD9207471
_publ_section_title
;
Structure prediction by ZEFSAII (Michael W. Deem and Ramdas Pophale) SiO2 
 PCOD9207471
Probable space group: C 2/M
;
_chemical_formula_sum "Si O2"
_cell_formula_units_Z 64
_cell_length_a 9.216600
_cell_length_b 29.041653
_cell_length_c 13.989742
_cell_angle_alpha 90.000000
_cell_angle_beta 58.117805
_cell_angle_gamma 90.000000
_cell_volume 3179.647380
_symmetry_space_group_name_H-M "C 2/M"
_symmetry_group_IT_number 12
_symmetry_cell_setting 'monoclinic'
loop_
_space_group_symop_operation_xyz
x,y,z
-x,y,-z
-x,-y,-z
x,-y,z
1/2+x,1/2+y,z
1/2-x,1/2+y,-z
1/2-x,1/2-y,-z
1/2+x,1/2-y,z
loop_
_atom_site_type_symbol
_atom_site_label
_atom_site_fract_x
_atom_site_fract_y
_atom_site_fract_z
Si Si1 0.939448 0.551579 0.912706
Si Si2 0.149703 0.383134 0.523023
Si Si3 0.252937 0.052385 0.343813
Si Si4 0.583415 0.782953 0.574341
Si Si5 0.237473 0.780153 0.810045
Si Si6 0.517556 0.361973 0.383744
Si Si7 0.688735 0.365666 0.964658
Si Si8 0.617017 0.696370 0.170183
O O1 0.863114 0.500000 0.933849
O O2 0.813660 0.591611 0.925258
O O3 0.101955 0.552447 0.786840
O O4 0.000000 0.559049 0.000000
O O5 0.170918 0.426067 0.585522
O O6 0.126604 0.335339 0.589813
O O7 0.329270 0.372849 0.409482
O O8 0.000000 0.389540 0.500000
O O9 0.111833 0.089403 0.361963
O O10 0.192087 0.000000 0.377622
O O11 0.500000 0.787312 0.500000
O O12 0.750000 0.750000 0.500000
O O13 0.419427 0.770378 0.695202
O O14 0.244509 0.826475 0.869592
O O15 0.237435 0.735643 0.878045
O O16 0.070652 0.784797 0.800229
O O17 0.500000 0.343710 0.500000
O O18 0.603306 0.327990 0.278694
O O19 0.500000 0.381013 0.000000
O O20 0.670860 0.341376 0.073547
#
# Coordination Sequence:
#
# PCOD9207471 Si02
#       8
#     8   8   8   8   8   8   8   8
#     4  10  21  39  63  89 115 148 195 248 301 358
#     4  10  21  37  58  86 120 155 194 243 298 353
#     4  10  22  40  62  87 115 152 197 244 300 363
#     4  11  22  36  55  82 117 157 198 240 288 342
#     4  11  23  39  60  86 122 160 201 245 294 353
#     4  10  22  39  60  85 120 159 201 247 297 355
#     4  10  23  41  62  88 121 157 197 247 303 360
#     4  11  23  40  59  87 120 159 203 246 295 356
#
# _framework density 20.128018999999998
#
# number of rings (size 3 to 8) (size 9 to 14) (size 15 to 20)
#    0.000    1.625    0.000    4.875    0.000   11.750 
#    0.000    0.625    0.000    3.750    0.000    0.000 
#    0.000    0.000    0.000    0.000    0.000    0.000 
#
# Total GULP energy -178612.736254 kJ/mol
# GULP energy per Si atom -5581.648008 kJ/mol
# Density = 2.008221 g / cm^3
# Si number density = 20.128019 Si / 1000 Ang^3
#
#
#
# Elastic Constant Matrix: (Units=GPa)
#
#
# Indices 1 2 3 4 5 6 
#
# 1 76.8910 44.4317 2.5466 0.0000 -2.2086 0.0000
# 2 44.4317 110.4677 5.5118 0.0000 5.8863 0.0000
# 3 2.5466 5.5118 47.0517 0.0000 1.6228 0.0000
# 4 0.0000 0.0000 0.0000 25.0556 0.0000 -6.2928
# 5 -2.2086 5.8863 1.6228 0.0000 24.9228 0.0000
# 6 0.0000 0.0000 0.0000 -6.2928 0.0000 39.7365
#
#
#
# Elastic Compliance Matrix: (Units=1/GPa)
#
#
# Indices 1 2 3 4 5 6 
#
# 1 0.017193 -0.007076 -0.000212 0.000000 0.003209 0.000000
# 2 -0.007076 0.012127 -0.000919 0.000000 -0.003431 0.000000
# 3 -0.000212 -0.000919 0.021414 0.000000 -0.001196 0.000000
# 4 0.000000 0.000000 0.000000 0.041564 0.000000 0.006582
# 5 0.003209 -0.003431 -0.001196 0.000000 0.041297 0.000000
# 6 0.000000 0.000000 0.000000 0.006582 0.000000 0.026208
#
#
# Mechanical properties :
#
#
# Convention : Reuss Voigt Hill
#
# Bulk Modulus (GPa) = 29.13817 37.71009 33.42413
# Shear Modulus (GPa) = 26.64422 30.07100 28.35761
#
# Velocity S-wave (km/s) = 3.64227 3.86941 3.75755
# Velocity P-wave (km/s) = 5.67415 6.22406 5.95545
#
# Compressibility (1/GPa) = 0.03431924
#
# Stress axis : x y z
#
# Youngs Moduli (GPa) = 58.16186 82.45978 46.69919
#
# Poissons Ratio (x) = 0.58347 0.00992
# Poissons Ratio (y) = 0.41154 0.04293
# Poissons Ratio (z) = 0.01235 0.07581
#
# Static dielectric constant tensor:
#      x y z
#    x 1.701380 0.000000 -0.004930 
#    y 0.000000 1.739120 0.000000 
#    z -0.004930 0.000000 1.763830 
# 
# From -- ./inp_files/201243.got.cif
#   From: 2010.05.17/outbox.cif.g08.bks.cpg/sg12_101_cif.got.tgz:201243.got - 2010.06.03 13:09:07.
