data_PCOD9207741
_publ_section_title
;
Structure prediction by ZEFSAII (Michael W. Deem and Ramdas Pophale) SiO2 
 PCOD9207741
Probable space group: C 2/M
;
_chemical_formula_sum "Si O2"
_cell_formula_units_Z 36
_cell_length_a 12.743391
_cell_length_b 20.248509
_cell_length_c 10.877252
_cell_angle_alpha 90.000000
_cell_angle_beta 142.789389
_cell_angle_gamma 90.000000
_cell_volume 1697.347236
_symmetry_space_group_name_H-M "C 2/M"
_symmetry_group_IT_number 12
_symmetry_cell_setting 'monoclinic'
loop_
_space_group_symop_operation_xyz
x,y,z
-x,y,-z
-x,-y,-z
x,-y,z
1/2+x,1/2+y,z
1/2-x,1/2+y,-z
1/2-x,1/2-y,-z
1/2+x,1/2-y,z
loop_
_atom_site_type_symbol
_atom_site_label
_atom_site_fract_x
_atom_site_fract_y
_atom_site_fract_z
Si Si1 0.500000 0.790730 0.500000
Si Si2 0.658945 0.076285 0.989380
Si Si3 0.675177 0.864358 0.436704
Si Si4 0.484897 0.420923 0.125338
Si Si5 0.690542 0.799785 0.197419
O O1 0.586720 0.833412 0.474093
O O2 0.651291 0.744946 0.697548
O O3 0.467385 0.086263 0.754694
O O4 0.682456 0.000000 0.050692
O O5 0.687463 0.130142 0.122919
O O6 0.800727 0.092741 0.017013
O O7 0.856945 0.894863 0.646053
O O8 0.709940 0.812456 0.360392
O O9 0.500993 0.500000 0.135577
O O10 0.500000 0.395682 0.000000
O O11 0.500000 0.769527 0.000000
#
# Coordination Sequence:
#
# PCOD9207741 Si02
#       5
#     4   8   8   8   8
#     4  12  24  40  60  86 124 166 204 240 294 356
#     4  10  22  41  65  92 121 155 198 250 306 357
#     4  11  23  39  63  89 120 161 201 248 297 355
#     4  10  21  37  59  90 124 157 198 247 301 359
#     4  10  24  41  61  90 121 157 202 249 297 355
#
# _framework density 21.209565999999999
#
# number of rings (size 3 to 8) (size 9 to 14) (size 15 to 20)
#    0.000    1.556    0.000    4.000    0.000   11.111 
#    0.000    7.222    0.000    0.000    0.000    0.000 
#    0.000    0.000    0.000    0.000    0.000    0.000 
#
# Total GULP energy -100666.313854 kJ/mol
# GULP energy per Si atom -5592.572992 kJ/mol
# Density = 2.116129 g / cm^3
# Si number density = 21.209566 Si / 1000 Ang^3
#
#
#
# Elastic Constant Matrix: (Units=GPa)
#
#
# Indices 1 2 3 4 5 6 
#
# 1 40.1814 -2.9267 5.3610 0.0000 3.9366 0.0000
# 2 -2.9267 43.0993 -4.1728 0.0000 2.8637 0.0000
# 3 5.3610 -4.1728 92.5231 0.0000 12.3402 0.0000
# 4 0.0000 0.0000 0.0000 -7.4114 0.0000 -21.7695
# 5 3.9366 2.8637 12.3402 0.0000 45.1794 0.0000
# 6 0.0000 0.0000 0.0000 -21.7695 0.0000 -8.4754
#
#
#
# Elastic Compliance Matrix: (Units=1/GPa)
#
#
# Indices 1 2 3 4 5 6 
#
# 1 0.025361 0.001747 -0.001122 0.000000 -0.002014 0.000000
# 2 0.001747 0.023571 0.001226 0.000000 -0.001981 0.000000
# 3 -0.001122 0.001226 0.011339 0.000000 -0.003077 0.000000
# 4 0.000000 0.000000 0.000000 0.020616 0.000000 -0.052955
# 5 -0.002014 -0.001981 -0.003077 0.000000 0.023275 0.000000
# 6 0.000000 0.000000 0.000000 -0.052955 0.000000 0.018028
#
#
# Mechanical properties :
#
#
# Convention : Reuss Voigt Hill
#
# Bulk Modulus (GPa) = 15.63128 19.14741 17.38935
# Shear Modulus (GPa) = 35.76183 17.69469 26.72826
#
# Velocity S-wave (km/s) = 4.11069 2.89152 3.55378
# Velocity P-wave (km/s) = 5.46958 4.49391 5.00557
#
# Compressibility (1/GPa) = 0.06397428
#
# Stress axis : x y z
#
# Youngs Moduli (GPa) = 39.42992 42.42457 88.19261
#
# Poissons Ratio (x) = -0.07413 0.09896
# Poissons Ratio (y) = -0.06890 -0.10813
# Poissons Ratio (z) = 0.04424 -0.05202
#
# Static dielectric constant tensor:
#      x y z
#    x 1.754260 0.000000 -0.002350 
#    y 0.000000 1.770760 0.000000 
#    z -0.002350 0.000000 1.745010 
# 
# From -- ./inp_files/147858.got.cif
#   From: 2010.05.17/outbox.cif.g08.bks.cpg/sg12_74_cif.got.tgz:147858.got - 2010.06.03 13:09:07.
