data_PCOD9207424
_publ_section_title
;
Structure prediction by ZEFSAII (Michael W. Deem and Ramdas Pophale) SiO2 
 PCOD9207424
Probable space group: C 2/M
;
_chemical_formula_sum "Si O2"
_cell_formula_units_Z 56
_cell_length_a 19.197644
_cell_length_b 8.905957
_cell_length_c 18.495238
_cell_angle_alpha 90.000000
_cell_angle_beta 74.542846
_cell_angle_gamma 90.000000
_cell_volume 3047.817115
_symmetry_space_group_name_H-M "C 2/M"
_symmetry_group_IT_number 12
_symmetry_cell_setting 'monoclinic'
loop_
_space_group_symop_operation_xyz
x,y,z
-x,y,-z
-x,-y,-z
x,-y,z
1/2+x,1/2+y,z
1/2-x,1/2+y,-z
1/2-x,1/2-y,-z
1/2+x,1/2-y,z
loop_
_atom_site_type_symbol
_atom_site_label
_atom_site_fract_x
_atom_site_fract_y
_atom_site_fract_z
Si Si1 0.345613 0.178571 0.306201
Si Si2 0.569514 0.679939 0.430780
Si Si3 0.612161 0.177830 0.870818
Si Si4 0.037035 0.820377 0.127174
Si Si5 0.496568 0.320183 0.301324
Si Si6 0.221259 0.679173 0.433397
Si Si7 0.824380 0.179379 0.004968
O O1 0.355362 0.206802 0.217903
O O2 0.419297 0.237934 0.322962
O O3 0.276901 0.263179 0.357179
O O4 0.338588 0.000000 0.319635
O O5 0.500000 0.711734 0.500000
O O6 0.582744 0.500000 0.430102
O O7 0.546273 0.720348 0.355506
O O8 0.640918 0.763118 0.437802
O O9 0.530176 0.236894 0.890586
O O10 0.654352 0.261441 0.922086
O O11 0.613541 0.000000 0.883126
O O12 0.033648 0.787520 0.213801
O O13 0.026682 0.000000 0.121504
O O14 0.111295 0.778388 0.068123
O O15 0.483396 0.500000 0.308797
O O16 0.222362 0.500000 0.437998
O O17 0.250000 0.750000 0.500000
O O18 0.819137 0.000000 0.007070
O O19 0.750000 0.250000 0.000000
#
# Coordination Sequence:
#
# PCOD9207424 Si02
#       7
#     8   8   8   8   8   8   8
#     4  10  21  38  60  86 116 147 184 231 280 334
#     4  10  21  37  58  85 116 150 187 229 280 335
#     4  10  21  37  59  85 112 146 187 232 282 336
#     4   9  19  36  57  81 110 148 190 230 279 338
#     4   9  18  35  59  84 113 148 185 229 282 339
#     4  12  25  40  60  85 115 151 190 232 278 330
#     4  11  23  37  54  79 113 151 191 237 286 337
#
# _framework density 18.373805000000001
#
# number of rings (size 3 to 8) (size 9 to 14) (size 15 to 20)
#    0.000    1.857    0.000    3.857    0.000    7.714 
#    0.000    2.857    0.000    0.000    0.000    0.000 
#    0.000    0.000    0.000    0.000    0.000    0.000 
#
# Total GULP energy -156474.652885 kJ/mol
# GULP energy per Si atom -5588.380460 kJ/mol
# Density = 1.833199 g / cm^3
# Si number density = 18.373805 Si / 1000 Ang^3
#
#
#
# Elastic Constant Matrix: (Units=GPa)
#
#
# Indices 1 2 3 4 5 6 
#
# 1 183.0096 92.5448 100.3035 0.0000 4.7712 0.0000
# 2 92.5448 84.2402 69.0137 0.0000 -4.0500 0.0000
# 3 100.3035 69.0137 89.4161 0.0000 1.6328 0.0000
# 4 0.0000 0.0000 0.0000 26.1645 0.0000 -0.3920
# 5 4.7712 -4.0500 1.6328 0.0000 35.1971 0.0000
# 6 0.0000 0.0000 0.0000 -0.3920 0.0000 40.2698
#
#
#
# Elastic Compliance Matrix: (Units=1/GPa)
#
#
# Indices 1 2 3 4 5 6 
#
# 1 0.016074 -0.008296 -0.011581 0.000000 -0.002596 0.000000
# 2 -0.008296 0.037425 -0.019695 0.000000 0.006345 0.000000
# 3 -0.011581 -0.019695 0.039422 0.000000 -0.002525 0.000000
# 4 0.000000 0.000000 0.000000 0.038225 0.000000 0.000372
# 5 -0.002596 0.006345 -0.002525 0.000000 0.029611 0.000000
# 6 0.000000 0.000000 0.000000 0.000372 0.000000 0.024836
#
#
# Mechanical properties :
#
#
# Convention : Reuss Voigt Hill
#
# Bulk Modulus (GPa) = 72.58527 97.82110 85.20319
# Shear Modulus (GPa) = 18.56450 26.64655 22.60553
#
# Velocity S-wave (km/s) = 3.18209 3.81234 3.51139
# Velocity P-wave (km/s) = 7.28639 8.52840 7.93174
#
# Compressibility (1/GPa) = 0.01377690
#
# Stress axis : x y z
#
# Youngs Moduli (GPa) = 62.21059 26.71999 25.36636
#
# Poissons Ratio (x) = 0.22167 0.29377
# Poissons Ratio (y) = 0.51611 0.49960
# Poissons Ratio (z) = 0.72047 0.52626
#
# Static dielectric constant tensor:
#      x y z
#    x 1.585630 0.000000 0.000790 
#    y 0.000000 1.602120 0.000000 
#    z 0.000790 0.000000 1.640310 
# 
# From -- ./inp_files/275171.got.cif
#   From: 2010.05.17/outbox.cif.g08.bks.cpg/sg12_138_cif.got.tgz:275171.got - 2010.06.03 13:09:07.
