data_PCOD9207898
_publ_section_title
;
Structure prediction by ZEFSAII (Michael W. Deem and Ramdas Pophale) SiO2 
 PCOD9207898
Probable space group: C 2/M
;
_chemical_formula_sum "Si O2"
_cell_formula_units_Z 64
_cell_length_a 19.282983
_cell_length_b 9.140816
_cell_length_c 30.590860
_cell_angle_alpha 90.000000
_cell_angle_beta 37.686346
_cell_angle_gamma 90.000000
_cell_volume 3296.344523
_symmetry_space_group_name_H-M "C 2/M"
_symmetry_group_IT_number 12
_symmetry_cell_setting 'monoclinic'
loop_
_space_group_symop_operation_xyz
x,y,z
-x,y,-z
-x,-y,-z
x,-y,z
1/2+x,1/2+y,z
1/2-x,1/2+y,-z
1/2-x,1/2-y,-z
1/2+x,1/2-y,z
loop_
_atom_site_type_symbol
_atom_site_label
_atom_site_fract_x
_atom_site_fract_y
_atom_site_fract_z
Si Si1 0.738174 0.325944 0.908557
Si Si2 0.697901 0.825211 0.590009
Si Si3 0.581469 0.329898 0.126319
Si Si4 0.417003 0.174387 0.444287
Si Si5 0.997276 0.170107 0.934127
Si Si6 0.654197 0.674774 0.326312
Si Si7 0.371693 0.175074 0.277641
Si Si8 0.736018 0.825729 0.821498
O O1 0.750904 0.500000 0.901229
O O2 0.809529 0.259397 0.912528
O O3 0.780598 0.254681 0.842446
O O4 0.604907 0.292941 0.982069
O O5 0.617130 0.790389 0.589119
O O6 0.816083 0.742702 0.523286
O O7 0.644156 0.789207 0.663502
O O8 0.719005 0.000000 0.578674
O O9 0.596493 0.500000 0.130121
O O10 0.556246 0.320467 0.087510
O O11 0.474042 0.262443 0.205035
O O12 0.538336 0.242713 0.394308
O O13 0.419149 0.000000 0.447983
O O14 0.106538 0.271882 0.880990
O O15 0.031659 0.000000 0.924556
O O16 0.634785 0.500000 0.337305
O O17 0.755773 0.707753 0.309260
O O18 0.697314 0.713235 0.256018
O O19 0.392631 0.000000 0.263028
O O20 0.740305 0.000000 0.824858
#
# Coordination Sequence:
#
# PCOD9207898 Si02
#       8
#     8   8   8   8   8   8   8   8
#     4  11  24  40  60  85 117 158 201 244 298 360
#     4   9  20  39  62  87 116 153 195 235 283 346
#     4  11  23  39  60  89 120 152 197 250 300 348
#     4  10  21  37  60  90 120 152 191 237 290 342
#     4  10  22  41  62  85 117 157 197 244 301 358
#     4  10  22  39  59  84 118 156 194 239 291 348
#     4  10  21  40  62  85 115 158 202 238 290 351
#     4  11  23  39  60  89 120 154 199 249 298 349
#
# _framework density 19.415447
#
# number of rings (size 3 to 8) (size 9 to 14) (size 15 to 20)
#    0.000    1.750    1.250    2.250    1.750    6.000 
#    0.000    2.500    0.000    0.000    0.000    0.000 
#    0.000    0.000    0.000    0.000    0.000    0.000 
#
# Total GULP energy -178884.736145 kJ/mol
# GULP energy per Si atom -5590.148005 kJ/mol
# Density = 1.937126 g / cm^3
# Si number density = 19.415447 Si / 1000 Ang^3
#
#
#
# Elastic Constant Matrix: (Units=GPa)
#
#
# Indices 1 2 3 4 5 6 
#
# 1 29.3514 12.6998 3.6928 0.0000 -1.5733 0.0002
# 2 12.6998 32.0435 17.5333 -0.0001 -6.3336 0.0005
# 3 3.6928 17.5333 51.4300 0.0001 -1.3371 -0.0001
# 4 0.0000 -0.0001 0.0001 30.4826 0.0000 -4.2175
# 5 -1.5733 -6.3336 -1.3371 0.0000 34.5209 0.0000
# 6 0.0002 0.0005 -0.0001 -4.2175 0.0000 29.2376
#
#
#
# Elastic Compliance Matrix: (Units=1/GPa)
#
#
# Indices 1 2 3 4 5 6 
#
# 1 0.041618 -0.018579 0.003310 0.000000 -0.001384 0.000000
# 2 -0.018579 0.048191 -0.014902 0.000000 0.007418 -0.000001
# 3 0.003310 -0.014902 0.024244 0.000000 -0.001644 0.000000
# 4 0.000000 0.000000 0.000000 0.033474 0.000000 0.004829
# 5 -0.001384 0.007418 -0.001644 0.000000 0.030202 0.000000
# 6 0.000000 -0.000001 0.000000 0.004829 0.000000 0.034899
#
#
# Mechanical properties :
#
#
# Convention : Reuss Voigt Hill
#
# Bulk Modulus (GPa) = 18.61851 20.07520 19.34685
# Shear Modulus (GPa) = 17.18951 24.10814 20.64883
#
# Velocity S-wave (km/s) = 2.97872 3.52760 3.26471
# Velocity P-wave (km/s) = 4.63041 5.19174 4.91909
#
# Compressibility (1/GPa) = 0.05370999
#
# Stress axis : x y z
#
# Youngs Moduli (GPa) = 24.02799 20.75063 41.24742
#
# Poissons Ratio (x) = 0.38553 -0.13651
# Poissons Ratio (y) = 0.44642 0.61468
# Poissons Ratio (z) = -0.07952 0.30923
#
# Static dielectric constant tensor:
#      x y z
#    x 1.689850 0.000000 0.012330 
#    y 0.000000 1.641800 0.000000 
#    z 0.012330 0.000000 1.641930 
# 
# From -- ./inp_files/378160.got.cif
#   From: 2010.05.17/outbox.cif.g08.bks.cpg/sg12_190_cif.got.tgz:378160.got - 2010.06.03 13:09:07.
