data_PCOD9207084
_publ_section_title
;
Structure prediction by ZEFSAII (Michael W. Deem and Ramdas Pophale) SiO2 
 PCOD9207084
Probable space group: C 2/M
;
_chemical_formula_sum "Si O2"
_cell_formula_units_Z 56
_cell_length_a 22.203723
_cell_length_b 8.461864
_cell_length_c 14.996035
_cell_angle_alpha 90.000000
_cell_angle_beta 78.882368
_cell_angle_gamma 90.000000
_cell_volume 2764.652794
_symmetry_space_group_name_H-M "C 2/M"
_symmetry_group_IT_number 12
_symmetry_cell_setting 'monoclinic'
loop_
_space_group_symop_operation_xyz
x,y,z
-x,y,-z
-x,-y,-z
x,-y,z
1/2+x,1/2+y,z
1/2-x,1/2+y,-z
1/2-x,1/2-y,-z
1/2+x,1/2-y,z
loop_
_atom_site_type_symbol
_atom_site_label
_atom_site_fract_x
_atom_site_fract_y
_atom_site_fract_z
Si Si1 0.134758 0.810397 0.896730
Si Si2 0.532719 0.186891 0.285334
Si Si3 0.818128 0.310800 0.459598
Si Si4 0.399696 0.189987 0.279262
Si Si5 0.895565 0.812287 0.893352
Si Si6 0.767607 0.689968 0.896607
Si Si7 0.569014 0.313096 0.454193
O O1 0.099136 0.750956 0.821511
O O2 0.206362 0.766372 0.860608
O O3 0.132553 0.000000 0.901165
O O4 0.112035 0.756658 0.001385
O O5 0.461937 0.238715 0.311391
O O6 0.553912 0.225238 0.179213
O O7 0.572107 0.276855 0.347930
O O8 0.537406 0.000000 0.300372
O O9 0.815881 0.500000 0.460240
O O10 0.750000 0.250000 0.500000
O O11 0.842336 0.255902 0.355219
O O12 0.872675 0.260636 0.511794
O O13 0.399237 0.000000 0.276334
O O14 0.831688 0.773616 0.861007
O O15 0.906280 0.000000 0.891125
O O16 0.775330 0.500000 0.893080
O O17 0.750000 0.750000 0.000000
O O18 0.500000 0.252364 0.500000
O O19 0.570028 0.500000 0.470807
#
# Coordination Sequence:
#
# PCOD9207084 Si02
#       7
#     8   8   8   8   8   8   8
#     4   9  20  36  57  83 118 160 201 246 304 362
#     4  11  23  40  62  89 120 160 206 254 309 374
#     4  11  24  44  67  96 132 167 209 265 321 380
#     4  10  23  40  60  86 119 159 204 251 308 372
#     4  10  21  37  56  86 121 157 203 256 304 362
#     4   9  17  32  53  79 110 151 198 246 301 361
#     4  11  23  41  68  97 123 161 209 258 318 384
#
# _framework density 20.255707999999998
#
# number of rings (size 3 to 8) (size 9 to 14) (size 15 to 20)
#    0.000    1.857    1.429    3.000    0.000    8.000 
#    0.000    5.714    0.000    0.000    0.000    0.000 
#    0.000    0.000    0.000    0.000    0.000    0.000 
#
# Total GULP energy -156182.244222 kJ/mol
# GULP energy per Si atom -5577.937294 kJ/mol
# Density = 2.020961 g / cm^3
# Si number density = 20.255708 Si / 1000 Ang^3
#
#
#
# Elastic Constant Matrix: (Units=GPa)
#
#
# Indices 1 2 3 4 5 6 
#
# 1 102.8889 15.2776 41.9411 0.0000 -6.3662 0.0000
# 2 15.2776 22.1493 4.5592 0.0000 -0.3029 0.0000
# 3 41.9411 4.5592 99.0473 0.0000 2.2866 0.0000
# 4 0.0000 0.0000 0.0000 27.9090 0.0000 1.6395
# 5 -6.3662 -0.3029 2.2866 0.0000 37.6944 0.0000
# 6 0.0000 0.0000 0.0000 1.6395 0.0000 30.0327
#
#
#
# Elastic Compliance Matrix: (Units=1/GPa)
#
#
# Indices 1 2 3 4 5 6 
#
# 1 0.013214 -0.007993 -0.005285 0.000000 0.002488 0.000000
# 2 -0.007993 0.050424 0.001087 0.000000 -0.001011 0.000000
# 3 -0.005285 0.001087 0.012322 0.000000 -0.001631 0.000000
# 4 0.000000 0.000000 0.000000 0.035946 0.000000 -0.001962
# 5 0.002488 -0.001011 -0.001631 0.000000 0.027040 0.000000
# 6 0.000000 0.000000 0.000000 -0.001962 0.000000 0.033404
#
#
# Mechanical properties :
#
#
# Convention : Reuss Voigt Hill
#
# Bulk Modulus (GPa) = 19.38826 38.62682 29.00754
# Shear Modulus (GPa) = 23.37271 29.94775 26.66023
#
# Velocity S-wave (km/s) = 3.40057 3.84928 3.63186
# Velocity P-wave (km/s) = 5.00110 6.23433 5.65146
#
# Compressibility (1/GPa) = 0.05157760
#
# Stress axis : x y z
#
# Youngs Moduli (GPa) = 75.67511 19.83199 81.15721
#
# Poissons Ratio (x) = 0.15851 0.42892
# Poissons Ratio (y) = 0.60485 -0.08820
# Poissons Ratio (z) = 0.39995 -0.02155
#
# Static dielectric constant tensor:
#      x y z
#    x 1.762460 0.000000 -0.008810 
#    y 0.000000 1.690250 0.000000 
#    z -0.008810 0.000000 1.707280 
# 
# From -- ./inp_files/230952.got.cif
#   From: 2010.05.17/outbox.cif.g08.bks.cpg/sg12_116_cif.got.tgz:230952.got - 2010.06.03 13:09:07.
