data_PCOD9207029
_publ_section_title
;
Structure prediction by ZEFSAII (Michael W. Deem and Ramdas Pophale) SiO2 
 PCOD9207029
Probable space group: C 2/M
;
_chemical_formula_sum "Si O2"
_cell_formula_units_Z 56
_cell_length_a 18.810074
_cell_length_b 8.612155
_cell_length_c 29.959916
_cell_angle_alpha 90.000000
_cell_angle_beta 38.408170
_cell_angle_gamma 90.000000
_cell_volume 3015.199082
_symmetry_space_group_name_H-M "C 2/M"
_symmetry_group_IT_number 12
_symmetry_cell_setting 'monoclinic'
loop_
_space_group_symop_operation_xyz
x,y,z
-x,y,-z
-x,-y,-z
x,-y,z
1/2+x,1/2+y,z
1/2-x,1/2+y,-z
1/2-x,1/2-y,-z
1/2+x,1/2-y,z
loop_
_atom_site_type_symbol
_atom_site_label
_atom_site_fract_x
_atom_site_fract_y
_atom_site_fract_z
Si Si1 0.908077 0.188099 0.636491
Si Si2 0.485507 0.687519 0.779032
Si Si3 0.868888 0.311991 0.066940
Si Si4 0.327863 0.688378 0.773123
Si Si5 0.325559 0.313695 0.503441
Si Si6 0.747628 0.686411 0.637289
Si Si7 0.209870 0.684539 0.066895
O O1 0.858214 0.242420 0.708731
O O2 0.835204 0.253814 0.631481
O O3 0.041396 0.231945 0.567602
O O4 0.902035 0.000000 0.637894
O O5 0.479278 0.500000 0.784122
O O6 0.420737 0.735857 0.765011
O O7 0.617615 0.734333 0.713013
O O8 0.413164 0.754764 0.855640
O O9 0.866115 0.500000 0.065599
O O10 0.796704 0.266850 0.146526
O O11 0.798729 0.244779 0.060186
O O12 0.000000 0.261585 0.000000
O O13 0.331439 0.500000 0.770124
O O14 0.320076 0.500000 0.505838
O O15 0.250000 0.250000 0.500000
O O16 0.280433 0.251293 0.572755
O O17 0.750869 0.500000 0.634059
O O18 0.208422 0.500000 0.066279
O O19 0.250000 0.750000 0.000000
#
# Coordination Sequence:
#
# PCOD9207029 Si02
#       7
#     8   8   8   8   8   8   8
#     4  10  21  37  56  81 114 151 188 227 277 335
#     4   9  19  38  59  79 107 145 189 234 282 336
#     4   9  18  34  56  82 112 147 186 229 281 338
#     4   8  15  32  56  76 101 141 185 226 271 328
#     4  11  23  39  60  84 112 149 191 233 278 334
#     4  11  23  38  58  85 116 148 184 232 284 330
#     4  11  22  36  56  82 113 149 189 233 280 331
#
# _framework density 18.572569999999999
#
# number of rings (size 3 to 8) (size 9 to 14) (size 15 to 20)
#    0.000    2.143    0.000    4.286    0.000    7.714 
#    0.000    4.286    0.000    0.000    0.000    0.000 
#    0.000    0.000    0.000    0.000    0.000    0.000 
#
# Total GULP energy -156339.560750 kJ/mol
# GULP energy per Si atom -5583.555741 kJ/mol
# Density = 1.853030 g / cm^3
# Si number density = 18.572570 Si / 1000 Ang^3
#
#
#
# Elastic Constant Matrix: (Units=GPa)
#
#
# Indices 1 2 3 4 5 6 
#
# 1 139.2394 33.8705 123.1680 -0.0001 -5.7652 -0.0002
# 2 33.8705 25.8919 51.0230 -0.0003 -6.8007 -0.0001
# 3 123.1680 51.0230 220.2706 0.0000 -1.9884 -0.0001
# 4 -0.0001 -0.0003 0.0000 24.4561 0.0000 2.1537
# 5 -5.7652 -6.8007 -1.9884 0.0000 40.1369 -0.0001
# 6 -0.0002 -0.0001 -0.0001 2.1537 -0.0001 29.6588
#
#
#
# Elastic Compliance Matrix: (Units=1/GPa)
#
#
# Indices 1 2 3 4 5 6 
#
# 1 0.014661 -0.005165 -0.006994 0.000000 0.000884 0.000000
# 2 -0.005165 0.078324 -0.015148 0.000001 0.011779 0.000000
# 3 -0.006994 -0.015148 0.011933 0.000000 -0.002980 0.000000
# 4 0.000000 0.000001 0.000000 0.041153 0.000000 -0.002988
# 5 0.000884 0.011779 -0.002980 0.000000 0.026890 0.000000
# 6 0.000000 0.000000 0.000000 -0.002988 0.000000 0.033934
#
#
# Mechanical properties :
#
#
# Convention : Reuss Voigt Hill
#
# Bulk Modulus (GPa) = 19.87925 89.05834 54.46879
# Shear Modulus (GPa) = 17.96771 30.67305 24.32038
#
# Velocity S-wave (km/s) = 3.11373 4.06830 3.62260
# Velocity P-wave (km/s) = 4.86353 8.37399 6.84754
#
# Compressibility (1/GPa) = 0.05030372
#
# Stress axis : x y z
#
# Youngs Moduli (GPa) = 68.20600 12.76747 83.80389
#
# Poissons Ratio (x) = 0.06594 0.58611
# Poissons Ratio (y) = 0.35228 1.26949
# Poissons Ratio (z) = 0.47702 0.19341
#
# Static dielectric constant tensor:
#      x y z
#    x 1.606200 0.000000 -0.010360 
#    y 0.000000 1.634930 0.000000 
#    z -0.010360 0.000000 1.644140 
# 
# From -- ./inp_files/362989.got.cif
#   From: 2010.05.17/outbox.cif.g08.bks.cpg/sg12_182_cif.got.tgz:362989.got - 2010.06.03 13:09:07.
