data_PCOD9207052
_publ_section_title
;
Structure prediction by ZEFSAII (Michael W. Deem and Ramdas Pophale) SiO2 
 PCOD9207052
Probable space group: C 2/M
;
_chemical_formula_sum "Si O2"
_cell_formula_units_Z 56
_cell_length_a 12.984131
_cell_length_b 14.054970
_cell_length_c 19.808869
_cell_angle_alpha 90.000000
_cell_angle_beta 120.182850
_cell_angle_gamma 90.000000
_cell_volume 3124.855759
_symmetry_space_group_name_H-M "C 2/M"
_symmetry_group_IT_number 12
_symmetry_cell_setting 'monoclinic'
loop_
_space_group_symop_operation_xyz
x,y,z
-x,y,-z
-x,-y,-z
x,-y,z
1/2+x,1/2+y,z
1/2-x,1/2+y,-z
1/2-x,1/2-y,-z
1/2+x,1/2-y,z
loop_
_atom_site_type_symbol
_atom_site_label
_atom_site_fract_x
_atom_site_fract_y
_atom_site_fract_z
Si Si1 0.382878 0.386871 0.278056
Si Si2 0.184931 0.609873 0.447565
Si Si3 0.863490 0.609627 0.727305
Si Si4 0.939822 0.799403 0.552978
Si Si5 0.055682 0.197340 0.954105
Si Si6 0.681906 0.391135 0.114659
Si Si7 0.095992 0.735589 0.825730
O O1 0.402982 0.500000 0.281853
O O2 0.248570 0.371187 0.261199
O O3 0.472243 0.338393 0.360851
O O4 0.401537 0.334619 0.213216
O O5 0.160283 0.500000 0.457944
O O6 0.179445 0.616908 0.364345
O O7 0.094349 0.688932 0.446104
O O8 0.316571 0.641556 0.513981
O O9 0.902252 0.500000 0.751211
O O10 0.972561 0.680397 0.774542
O O11 0.000000 0.811524 0.500000
O O12 0.886510 0.250236 0.088530
O O13 0.061484 0.143033 0.112160
O O14 0.858458 0.125945 0.976968
O O15 0.000000 0.256252 0.000000
O O16 0.707611 0.500000 0.136088
O O17 0.795052 0.326770 0.166438
#
# Coordination Sequence:
#
# PCOD9207052 Si02
#       7
#     8   8   8   8   8   8   8
#     4  11  24  37  54  85 113 147 190 232 278 326
#     4  10  21  37  59  85 111 146 190 235 276 324
#     4  10  21  37  56  82 117 147 184 230 281 334
#     4  11  21  38  61  81 111 152 193 229 273 329
#     4   8  20  36  58  80 111 144 184 224 274 327
#     4   9  19  36  59  83 108 143 188 220 270 339
#     4  12  20  37  59  83 114 146 182 232 281 329
#
# _framework density 17.920826999999999
#
# number of rings (size 3 to 8) (size 9 to 14) (size 15 to 20)
#    0.857    0.857    2.857    3.000    0.000    2.000 
#    0.000    0.000    0.000    1.714    0.000    0.000 
#    0.000    0.000    0.000    0.000    0.000    0.000 
#
# Total GULP energy -156005.343472 kJ/mol
# GULP energy per Si atom -5571.619410 kJ/mol
# Density = 1.788004 g / cm^3
# Si number density = 17.920827 Si / 1000 Ang^3
#
#
#
# Elastic Constant Matrix: (Units=GPa)
#
#
# Indices 1 2 3 4 5 6 
#
# 1 57.3905 38.5809 18.3897 0.0000 10.7254 0.0000
# 2 38.5809 97.0758 13.3909 0.0000 20.2072 0.0000
# 3 18.3897 13.3909 32.7660 0.0000 3.4526 0.0000
# 4 0.0000 0.0000 0.0000 13.1648 0.0000 0.7481
# 5 10.7254 20.2072 3.4526 0.0000 24.2185 0.0000
# 6 0.0000 0.0000 0.0000 0.7481 0.0000 24.6774
#
#
#
# Elastic Compliance Matrix: (Units=1/GPa)
#
#
# Indices 1 2 3 4 5 6 
#
# 1 0.027592 -0.008674 -0.011590 0.000000 -0.003330 0.000000
# 2 -0.008674 0.015749 -0.000597 0.000000 -0.009214 0.000000
# 3 -0.011590 -0.000597 0.037234 0.000000 0.000323 0.000000
# 4 0.000000 0.000000 0.000000 0.076091 0.000000 -0.002307
# 5 -0.003330 -0.009214 0.000323 0.000000 0.050407 0.000000
# 6 0.000000 0.000000 0.000000 -0.002307 0.000000 0.040593
#
#
# Mechanical properties :
#
#
# Convention : Reuss Voigt Hill
#
# Bulk Modulus (GPa) = 25.73827 36.43948 31.08887
# Shear Modulus (GPa) = 16.53775 20.20353 18.37064
#
# Velocity S-wave (km/s) = 3.04110 3.36129 3.20519
# Velocity P-wave (km/s) = 5.16957 5.95332 5.57523
#
# Compressibility (1/GPa) = 0.03885266
#
# Stress axis : x y z
#
# Youngs Moduli (GPa) = 36.24298 63.49668 26.85700
#
# Poissons Ratio (x) = 0.55076 0.31127
# Poissons Ratio (y) = 0.31437 0.01604
# Poissons Ratio (z) = 0.42005 0.03792
#
# Static dielectric constant tensor:
#      x y z
#    x 1.621330 0.000000 0.008940 
#    y 0.000000 1.593460 0.000000 
#    z 0.008940 0.000000 1.605260 
# 
# From -- ./inp_files/263389.got.cif
#   From: 2010.05.17/outbox.cif.g08.bks.cpg/sg12_132_cif.got.tgz:263389.got - 2010.06.03 13:09:07.
