data_PCOD9207164
_publ_section_title
;
Structure prediction by ZEFSAII (Michael W. Deem and Ramdas Pophale) SiO2 
 PCOD9207164
Probable space group: C 2/M
;
_chemical_formula_sum "Si O2"
_cell_formula_units_Z 56
_cell_length_a 29.243008
_cell_length_b 8.776866
_cell_length_c 14.525302
_cell_angle_alpha 90.000000
_cell_angle_beta 60.542461
_cell_angle_gamma 90.000000
_cell_volume 3246.126151
_symmetry_space_group_name_H-M "C 2/M"
_symmetry_group_IT_number 12
_symmetry_cell_setting 'monoclinic'
loop_
_space_group_symop_operation_xyz
x,y,z
-x,y,-z
-x,-y,-z
x,-y,z
1/2+x,1/2+y,z
1/2-x,1/2+y,-z
1/2-x,1/2-y,-z
1/2+x,1/2-y,z
loop_
_atom_site_type_symbol
_atom_site_label
_atom_site_fract_x
_atom_site_fract_y
_atom_site_fract_z
Si Si1 0.779130 0.182684 0.698335
Si Si2 0.382404 0.818864 0.934975
Si Si3 0.503534 0.184106 0.104519
Si Si4 0.669610 0.675885 0.838863
Si Si5 0.804784 0.681943 0.485959
Si Si6 0.397907 0.675967 0.274354
Si Si7 0.798224 0.818123 0.892220
O O1 0.720840 0.249481 0.744630
O O2 0.811302 0.257509 0.583772
O O3 0.794312 0.222934 0.788213
O O4 0.779409 0.000000 0.688902
O O5 0.441277 0.769611 0.903821
O O6 0.353142 0.739164 0.879585
O O7 0.382124 0.000000 0.921931
O O8 0.347268 0.774366 0.057620
O O9 0.454821 0.248682 0.210212
O O10 0.501313 0.000000 0.106680
O O11 0.500000 0.232282 0.000000
O O12 0.679701 0.500000 0.855529
O O13 0.624585 0.678093 0.807238
O O14 0.800623 0.500000 0.488174
O O15 0.750000 0.750000 0.500000
O O16 0.854755 0.737532 0.377959
O O17 0.401048 0.500000 0.301133
O O18 0.794588 0.000000 0.903008
O O19 0.750000 0.750000 0.000000
#
# Coordination Sequence:
#
# PCOD9207164 Si02
#       7
#     8   8   8   8   8   8   8
#     4  11  23  38  57  82 115 153 191 234 286 339
#     4  11  22  36  56  82 116 155 193 235 283 337
#     4  10  21  37  57  82 115 153 191 232 284 339
#     4  11  21  32  53  83 117 153 190 232 279 336
#     4  12  24  38  59  84 115 152 190 234 284 340
#     4  11  23  37  56  84 117 152 191 233 282 339
#     4  11  23  37  57  83 115 152 190 235 286 342
#
# _framework density 17.251331
#
# number of rings (size 3 to 8) (size 9 to 14) (size 15 to 20)
#    0.000    1.000    4.286    3.429    0.000    4.286 
#    0.000    0.000    0.000    0.857    0.000    6.000 
#    0.000    0.000    0.000    0.000    0.000    0.000 
#
# Total GULP energy -156392.871502 kJ/mol
# GULP energy per Si atom -5585.459697 kJ/mol
# Density = 1.721207 g / cm^3
# Si number density = 17.251331 Si / 1000 Ang^3
#
#
#
# Elastic Constant Matrix: (Units=GPa)
#
#
# Indices 1 2 3 4 5 6 
#
# 1 97.4768 39.5012 44.3576 0.0000 -1.2848 0.0000
# 2 39.5012 54.6586 21.4375 0.0000 3.9442 0.0000
# 3 44.3576 21.4375 81.5109 0.0000 -0.8318 0.0000
# 4 0.0000 0.0000 0.0000 29.3499 0.0000 -2.3275
# 5 -1.2848 3.9442 -0.8318 0.0000 28.5945 0.0000
# 6 0.0000 0.0000 0.0000 -2.3275 0.0000 25.9138
#
#
#
# Elastic Compliance Matrix: (Units=1/GPa)
#
#
# Indices 1 2 3 4 5 6 
#
# 1 0.017492 -0.010100 -0.006842 0.000000 0.001980 0.000000
# 2 -0.010100 0.026487 -0.001512 0.000000 -0.004151 0.000000
# 3 -0.006842 -0.001512 0.016393 0.000000 0.000378 0.000000
# 4 0.000000 0.000000 0.000000 0.034316 0.000000 0.003082
# 5 0.001980 -0.004151 0.000378 0.000000 0.035644 0.000000
# 6 0.000000 0.000000 0.000000 0.003082 0.000000 0.038866
#
#
# Mechanical properties :
#
#
# Convention : Reuss Voigt Hill
#
# Bulk Modulus (GPa) = 42.62004 49.35987 45.98995
# Shear Modulus (GPa) = 23.37222 25.32831 24.35027
#
# Velocity S-wave (km/s) = 3.68476 3.83586 3.76107
# Velocity P-wave (km/s) = 6.54693 6.94930 6.75111
#
# Compressibility (1/GPa) = 0.02346314
#
# Stress axis : x y z
#
# Youngs Moduli (GPa) = 57.17044 37.75381 61.00058
#
# Poissons Ratio (x) = 0.38133 0.41738
# Poissons Ratio (y) = 0.57744 0.09224
# Poissons Ratio (z) = 0.39117 0.05709
#
# Static dielectric constant tensor:
#      x y z
#    x 1.569160 0.000000 0.076310 
#    y 0.000000 1.575450 0.000000 
#    z 0.076310 0.000000 1.383940 
# 
# From -- ./inp_files/243656.got.cif
#   From: 2010.05.17/outbox.cif.g08.bks.cpg/sg12_122_cif.got.tgz:243656.got - 2010.06.03 13:09:07.
