data_PCOD9207964
_publ_section_title
;
Structure prediction by ZEFSAII (Michael W. Deem and Ramdas Pophale) SiO2 
 PCOD9207964
Probable space group: C 2/M
;
_chemical_formula_sum "Si O2"
_cell_formula_units_Z 60
_cell_length_a 14.094185
_cell_length_b 9.569218
_cell_length_c 25.179937
_cell_angle_alpha 90.000000
_cell_angle_beta 115.239615
_cell_angle_gamma 90.000000
_cell_volume 3071.816054
_symmetry_space_group_name_H-M "C 2/M"
_symmetry_group_IT_number 12
_symmetry_cell_setting 'monoclinic'
loop_
_space_group_symop_operation_xyz
x,y,z
-x,y,-z
-x,-y,-z
x,-y,z
1/2+x,1/2+y,z
1/2-x,1/2+y,-z
1/2-x,1/2-y,-z
1/2+x,1/2-y,z
loop_
_atom_site_type_symbol
_atom_site_label
_atom_site_fract_x
_atom_site_fract_y
_atom_site_fract_z
Si Si1 0.847970 0.844177 0.506053
Si Si2 0.696737 0.238219 0.691849
Si Si3 0.095934 0.837311 0.984178
Si Si4 0.830089 0.000000 0.392402
Si Si5 0.636659 0.334588 0.791677
Si Si6 0.175817 0.663666 0.907510
Si Si7 0.908634 0.157003 0.689130
Si Si8 0.030386 0.657397 0.393143
O O1 0.750000 0.750000 0.500000
O O2 0.843781 0.879863 0.443121
O O3 0.946093 0.756695 0.551309
O O4 0.847406 0.000000 0.531287
O O5 0.684142 0.380112 0.656198
O O6 0.694439 0.272769 0.753705
O O7 0.803814 0.168859 0.698169
O O8 0.591104 0.155075 0.651659
O O9 0.204861 0.826577 0.042512
O O10 0.084634 0.000000 0.964540
O O11 0.105225 0.737012 0.935821
O O12 0.000000 0.802696 0.000000
O O13 0.658887 0.500000 0.802938
O O14 0.664440 0.248287 0.850466
O O15 0.512676 0.319554 0.748851
O O16 0.150175 0.500000 0.894748
O O17 0.910346 0.269596 0.642160
O O18 0.918776 0.000000 0.669168
O O19 0.070337 0.500000 0.411173
#
# Coordination Sequence:
#
# PCOD9207964 Si02
#       8
#     8   8   8   4   8   8   8   8
#     4  10  22  38  63  92 123 155 198 248 314 385
#     4  11  23  42  65  90 122 161 213 260 318 375
#     4   9  19  38  63  91 128 177 214 251 312 372
#     4  10  24  39  64  88 120 161 200 255 317 386
#     4  10  22  41  63  89 123 170 216 259 314 376
#     4  10  21  37  60  93 131 166 214 267 309 363
#     4  10  23  41  65  89 119 163 210 259 323 384
#     4  11  24  40  64  91 122 157 199 257 319 385
#
# _framework density 19.532419999999998
#
# number of rings (size 3 to 8) (size 9 to 14) (size 15 to 20)
#    0.400    1.467    0.667    2.400    4.667    5.600 
#    0.000    6.667    0.000    0.000    0.000    0.000 
#    0.000    0.000    0.000    0.000    0.000    0.000 
#
# Total GULP energy -167020.343077 kJ/mol
# GULP energy per Si atom -5567.344769 kJ/mol
# Density = 1.948796 g / cm^3
# Si number density = 19.532420 Si / 1000 Ang^3
#
#
#
# Elastic Constant Matrix: (Units=GPa)
#
#
# Indices 1 2 3 4 5 6 
#
# 1 86.1595 17.1250 6.7764 0.0000 -14.9852 0.0000
# 2 17.1250 132.0167 45.3741 0.0000 -10.9138 0.0000
# 3 6.7764 45.3741 93.7422 0.0000 -27.0284 0.0000
# 4 0.0000 0.0000 0.0000 36.5361 0.0000 -1.5149
# 5 -14.9852 -10.9138 -27.0284 0.0000 18.6249 0.0000
# 6 0.0000 0.0000 0.0000 -1.5149 0.0000 12.8142
#
#
#
# Elastic Compliance Matrix: (Units=1/GPa)
#
#
# Indices 1 2 3 4 5 6 
#
# 1 0.014810 -0.002223 0.005271 0.000000 0.018262 0.000000
# 2 -0.002223 0.009456 -0.005733 0.000000 -0.004568 0.000000
# 3 0.005271 -0.005733 0.022896 0.000000 0.034107 0.000000
# 4 0.000000 0.000000 0.000000 0.027505 0.000000 0.003252
# 5 0.018262 -0.004568 0.034107 0.000000 0.115205 0.000000
# 6 0.000000 0.000000 0.000000 0.003252 0.000000 0.078423
#
#
# Mechanical properties :
#
#
# Convention : Reuss Voigt Hill
#
# Bulk Modulus (GPa) = 23.92862 50.05213 36.99038
# Shear Modulus (GPa) = 17.38553 29.77125 23.57839
#
# Velocity S-wave (km/s) = 2.98667 3.90833 3.47816
# Velocity P-wave (km/s) = 4.91639 6.78583 5.92530
#
# Compressibility (1/GPa) = 0.04179095
#
# Stress axis : x y z
#
# Youngs Moduli (GPa) = 67.52243 105.75195 43.67624
#
# Poissons Ratio (x) = 0.23508 -0.23021
# Poissons Ratio (y) = 0.15010 0.25041
# Poissons Ratio (z) = -0.35591 0.60631
#
# Static dielectric constant tensor:
#      x y z
#    x 1.720530 0.000000 0.022430 
#    y 0.000000 1.674570 0.000000 
#    z 0.022430 0.000000 1.657070 
# 
# From -- ./inp_files/338972.got.cif
#   From: 2010.05.17/outbox.cif.g08.bks.cpg/sg12_170_cif.got.tgz:338972.got - 2010.06.03 13:09:07.
