data_PCOD9207802
_publ_section_title
;
Structure prediction by ZEFSAII (Michael W. Deem and Ramdas Pophale) SiO2 
 PCOD9207802
Probable space group: C 2/M
;
_chemical_formula_sum "Si O2"
_cell_formula_units_Z 48
_cell_length_a 24.690536
_cell_length_b 7.562434
_cell_length_c 11.943901
_cell_angle_alpha 90.000000
_cell_angle_beta 110.864792
_cell_angle_gamma 90.000000
_cell_volume 2083.924920
_symmetry_space_group_name_H-M "C 2/M"
_symmetry_group_IT_number 12
_symmetry_cell_setting 'monoclinic'
loop_
_space_group_symop_operation_xyz
x,y,z
-x,y,-z
-x,-y,-z
x,-y,z
1/2+x,1/2+y,z
1/2-x,1/2+y,-z
1/2-x,1/2-y,-z
1/2+x,1/2-y,z
loop_
_atom_site_type_symbol
_atom_site_label
_atom_site_fract_x
_atom_site_fract_y
_atom_site_fract_z
Si Si1 0.861893 0.208388 0.382865
Si Si2 0.373559 0.785843 0.639837
Si Si3 0.730307 0.784156 0.294088
Si Si4 0.309695 0.789593 0.979311
Si Si5 0.975309 0.298345 0.868289
Si Si6 0.920316 0.203446 0.204526
O O1 0.887758 0.228866 0.524934
O O2 0.796291 0.281058 0.339983
O O3 0.899822 0.280186 0.308678
O O4 0.856027 0.000000 0.352937
O O5 0.309670 0.726935 0.632074
O O6 0.419918 0.720423 0.764855
O O7 0.374866 0.000000 0.641512
O O8 0.732049 0.000000 0.297661
O O9 0.699145 0.732673 0.155283
O O10 0.363835 0.707746 0.083440
O O11 0.318959 0.000000 0.986205
O O12 0.250000 0.750000 0.000000
O O13 0.958126 0.500000 0.886368
O O14 0.027452 0.299947 0.818226
O O15 0.000000 0.214011 0.000000
O O16 0.939160 0.000000 0.232973
#
# Coordination Sequence:
#
# PCOD9207802 Si02
#       6
#     8   8   8   8   8   8
#     4  10  21  38  57  82 120 156 190 237 297 348
#     4  10  21  37  60  86 111 149 201 242 284 347
#     4   9  18  36  59  83 117 155 190 237 290 346
#     4  11  20  35  59  87 120 154 192 239 292 346
#     4  10  22  42  64  86 114 152 195 242 298 352
#     4  11  23  39  59  87 120 156 197 240 291 350
#
# _framework density 23.033459000000001
#
# number of rings (size 3 to 8) (size 9 to 14) (size 15 to 20)
#    0.000    1.833    1.667    2.500    0.000    5.667 
#    0.000    6.667    0.000    0.000    0.000    0.000 
#    0.000    0.000    0.000    0.000    0.000    0.000 
#
# Total GULP energy -134194.078023 kJ/mol
# GULP energy per Si atom -5591.419918 kJ/mol
# Density = 2.298103 g / cm^3
# Si number density = 23.033459 Si / 1000 Ang^3
#
#
#
# Elastic Constant Matrix: (Units=GPa)
#
#
# Indices 1 2 3 4 5 6 
#
# 1 99.8840 -4.0246 31.6327 0.0000 -11.6522 0.0000
# 2 -4.0246 61.1164 -4.9198 0.0000 -2.3093 0.0000
# 3 31.6327 -4.9198 127.0061 0.0000 -15.0799 0.0000
# 4 0.0000 0.0000 0.0000 15.9349 0.0000 3.6328
# 5 -11.6522 -2.3093 -15.0799 0.0000 32.5671 0.0000
# 6 0.0000 0.0000 0.0000 3.6328 0.0000 13.7265
#
#
#
# Elastic Compliance Matrix: (Units=1/GPa)
#
#
# Indices 1 2 3 4 5 6 
#
# 1 0.011139 0.000650 -0.002403 0.000000 0.002919 0.000000
# 2 0.000650 0.016525 0.000682 0.000000 0.001720 0.000000
# 3 -0.002403 0.000682 0.008891 0.000000 0.003306 0.000000
# 4 0.000000 0.000000 0.000000 0.066785 0.000000 -0.017675
# 5 0.002919 0.001720 0.003306 0.000000 0.033403 0.000000
# 6 0.000000 0.000000 0.000000 -0.017675 0.000000 0.077530
#
#
# Mechanical properties :
#
#
# Convention : Reuss Voigt Hill
#
# Bulk Modulus (GPa) = 29.05653 37.04256 33.04955
# Shear Modulus (GPa) = 21.94100 30.13359 26.03729
#
# Velocity S-wave (km/s) = 3.08972 3.62090 3.36581
# Velocity P-wave (km/s) = 5.03695 5.79640 5.42997
#
# Compressibility (1/GPa) = 0.03441567
#
# Stress axis : x y z
#
# Youngs Moduli (GPa) = 89.77269 60.51443 112.47371
#
# Poissons Ratio (x) = -0.03936 0.27023
# Poissons Ratio (y) = -0.05839 -0.07675
# Poissons Ratio (z) = 0.21569 -0.04130
#
# Static dielectric constant tensor:
#      x y z
#    x 1.844500 0.000000 0.002560 
#    y 0.000000 2.200310 0.000000 
#    z 0.002560 0.000000 1.847560 
# 
# From -- ./inp_files/172902.got.cif
#   From: 2010.05.17/outbox.cif.g08.bks.cpg/sg12_87_cif.got.tgz:172902.got - 2010.06.03 13:09:07.
