data_PCOD9207657
_publ_section_title
;
Structure prediction by ZEFSAII (Michael W. Deem and Ramdas Pophale) SiO2 
 PCOD9207657
Probable space group: C 2/M
;
_chemical_formula_sum "Si O2"
_cell_formula_units_Z 44
_cell_length_a 9.245068
_cell_length_b 26.406466
_cell_length_c 8.968673
_cell_angle_alpha 90.000000
_cell_angle_beta 67.525006
_cell_angle_gamma 90.000000
_cell_volume 2023.216654
_symmetry_space_group_name_H-M "C 2/M"
_symmetry_group_IT_number 12
_symmetry_cell_setting 'monoclinic'
loop_
_space_group_symop_operation_xyz
x,y,z
-x,y,-z
-x,-y,-z
x,-y,z
1/2+x,1/2+y,z
1/2-x,1/2+y,-z
1/2-x,1/2-y,-z
1/2+x,1/2-y,z
loop_
_atom_site_type_symbol
_atom_site_label
_atom_site_fract_x
_atom_site_fract_y
_atom_site_fract_z
Si Si1 0.370679 0.944604 0.160853
Si Si2 0.678308 0.686165 0.158928
Si Si3 0.174306 0.081521 0.986977
Si Si4 0.500000 0.246768 0.000000
Si Si5 0.668270 0.617563 0.445356
Si Si6 0.679676 0.941214 0.376493
O O1 0.316383 0.909337 0.312032
O O2 0.421605 0.000000 0.190311
O O3 0.500000 0.922283 0.000000
O O4 0.218148 0.948582 0.117488
O O5 0.844910 0.714340 0.095738
O O6 0.644274 0.665520 0.341055
O O7 0.689556 0.638819 0.040913
O O8 0.548144 0.720982 0.128846
O O9 0.293728 0.066235 0.809942
O O10 0.000000 0.072093 0.000000
O O11 0.500000 0.590952 0.500000
O O12 0.718275 0.605998 0.595723
O O13 0.500000 0.937285 0.500000
O O14 0.730116 0.000000 0.394075
#
# Coordination Sequence:
#
# PCOD9207657 Si02
#       6
#     8   8   8   4   8   8
#     4  10  21  37  59  87 120 169 228 263 292 360
#     4  10  23  42  70  95 120 160 207 262 321 381
#     4  11  22  37  62  91 125 162 211 256 304 368
#     4  10  22  44  74  94 118 150 214 268 322 384
#     4  11  24  39  61  93 133 167 204 256 322 379
#     4  11  24  39  59  92 134 175 210 250 301 363
#
# _framework density 21.747547999999998
#
# number of rings (size 3 to 8) (size 9 to 14) (size 15 to 20)
#    0.000    1.455    0.909    4.364    7.636    7.273 
#    0.000    0.909    0.000    0.000    0.000    0.000 
#    0.000    0.000    0.000    0.000    0.000    0.000 
#
# Total GULP energy -122496.558965 kJ/mol
# GULP energy per Si atom -5568.025408 kJ/mol
# Density = 2.169805 g / cm^3
# Si number density = 21.747548 Si / 1000 Ang^3
#
#
#
# Elastic Constant Matrix: (Units=GPa)
#
#
# Indices 1 2 3 4 5 6 
#
# 1 109.1657 30.0177 6.4848 0.0000 10.8336 0.0000
# 2 30.0177 46.5536 9.9975 0.0000 2.6030 0.0000
# 3 6.4848 9.9975 77.5805 0.0000 3.7666 0.0000
# 4 0.0000 0.0000 0.0000 1339.1881 0.0000 317.9093
# 5 10.8336 2.6030 3.7666 0.0000 45.5844 0.0000
# 6 0.0000 0.0000 0.0000 317.9093 0.0000 105.7399
#
#
#
# Elastic Compliance Matrix: (Units=1/GPa)
#
#
# Indices 1 2 3 4 5 6 
#
# 1 0.011369 -0.007222 0.000092 0.000000 -0.002297 0.000000
# 2 -0.007222 0.026728 -0.002861 0.000000 0.000427 0.000000
# 3 0.000092 -0.002861 0.013297 0.000000 -0.000957 0.000000
# 4 0.000000 0.000000 0.000000 0.002608 0.000000 -0.007842
# 5 -0.002297 0.000427 -0.000957 0.000000 0.022538 0.000000
# 6 0.000000 0.000000 0.000000 -0.007842 0.000000 0.033034
#
#
# Mechanical properties :
#
#
# Convention : Reuss Voigt Hill
#
# Bulk Modulus (GPa) = 31.83565 36.25553 34.04559
# Shear Modulus (GPa) = 35.70725 310.55580 173.13153
#
# Velocity S-wave (km/s) = 4.05643 11.96288 8.93211
# Velocity P-wave (km/s) = 6.05062 14.40559 11.04833
#
# Compressibility (1/GPa) = 0.03141132
#
# Stress axis : x y z
#
# Youngs Moduli (GPa) = 87.96084 37.41413 75.20288
#
# Poissons Ratio (x) = 0.27020 -0.00691
# Poissons Ratio (y) = 0.63524 0.21518
# Poissons Ratio (z) = -0.00808 0.10706
#
# Static dielectric constant tensor:
#      x y z
#    x 1.902900 0.000000 0.066310 
#    y 0.000000 1.868670 0.000000 
#    z 0.066310 0.000000 1.856630 
# 
# From -- ./inp_files/41535.got.cif
#   From: 2010.05.17/outbox.cif.g08.bks.cpg/sg12_21_cif.got.tgz:41535.got - 2010.06.03 13:09:07.
