data_PCOD9207570
_publ_section_title
;
Structure prediction by ZEFSAII (Michael W. Deem and Ramdas Pophale) SiO2 
 PCOD9207570
Probable space group: C 2/M
;
_chemical_formula_sum "Si O2"
_cell_formula_units_Z 48
_cell_length_a 21.234561
_cell_length_b 8.437662
_cell_length_c 27.564798
_cell_angle_alpha 90.000000
_cell_angle_beta 150.055058
_cell_angle_gamma 90.000000
_cell_volume 2465.281892
_symmetry_space_group_name_H-M "C 2/M"
_symmetry_group_IT_number 12
_symmetry_cell_setting 'monoclinic'
loop_
_space_group_symop_operation_xyz
x,y,z
-x,y,-z
-x,-y,-z
x,-y,z
1/2+x,1/2+y,z
1/2-x,1/2+y,-z
1/2-x,1/2-y,-z
1/2+x,1/2-y,z
loop_
_atom_site_type_symbol
_atom_site_label
_atom_site_fract_x
_atom_site_fract_y
_atom_site_fract_z
Si Si1 0.375388 0.309874 0.557199
Si Si2 0.377395 0.693471 0.887999
Si Si3 0.369427 0.309776 0.110005
Si Si4 0.376853 0.691633 0.775782
Si Si5 0.625346 0.691577 0.555321
Si Si6 0.126577 0.309829 0.777429
O O1 0.375186 0.500000 0.557566
O O2 0.250000 0.250000 0.500000
O O3 0.377040 0.255718 0.502256
O O4 0.499192 0.250323 0.667465
O O5 0.378370 0.500000 0.888592
O O6 0.381821 0.745119 0.835064
O O7 0.248940 0.744155 0.828651
O O8 0.500000 0.745219 0.000000
O O9 0.368699 0.500000 0.109756
O O10 0.498814 0.256107 0.170360
O O11 0.364713 0.248876 0.161711
O O12 0.250000 0.250000 0.000000
O O13 0.375938 0.500000 0.775218
O O14 0.250636 0.749962 0.665576
O O15 0.500000 0.745351 0.500000
O O16 0.625984 0.500000 0.556085
O O17 0.125747 0.500000 0.776970
#
# Coordination Sequence:
#
# PCOD9207570 Si02
#       6
#     8   8   8   8   8   8
#     4  11  23  39  59  83 114 151 192 236 284 341
#     4   9  18  35  58  83 112 147 188 232 279 335
#     4  11  23  39  60  86 117 152 192 236 282 336
#     4  10  21  37  59  85 111 146 192 237 280 333
#     4  10  22  39  58  82 114 150 186 231 287 340
#     4  11  22  37  60  87 116 150 188 234 287 339
#
# _framework density 19.470389999999998
#
# number of rings (size 3 to 8) (size 9 to 14) (size 15 to 20)
#    0.000    1.667    0.000    4.500    0.000    8.333 
#    0.000    0.833    0.000    3.500    0.000    0.000 
#    0.000    0.000    0.000    0.000    0.000    0.000 
#
# Total GULP energy -134194.498269 kJ/mol
# GULP energy per Si atom -5591.437428 kJ/mol
# Density = 1.942607 g / cm^3
# Si number density = 19.470390 Si / 1000 Ang^3
#
#
#
# Elastic Constant Matrix: (Units=GPa)
#
#
# Indices 1 2 3 4 5 6 
#
# 1 135.7161 22.1770 38.6138 0.0000 -1.0528 0.0000
# 2 22.1770 26.4161 15.5599 0.0001 0.5253 0.0001
# 3 38.6138 15.5599 128.9051 0.0001 -1.3511 0.0000
# 4 0.0000 0.0001 0.0001 38.3111 0.0000 -2.0431
# 5 -1.0528 0.5253 -1.3511 0.0000 47.6141 0.0000
# 6 0.0000 0.0001 0.0000 -2.0431 0.0000 26.1297
#
#
#
# Elastic Compliance Matrix: (Units=1/GPa)
#
#
# Indices 1 2 3 4 5 6 
#
# 1 0.008959 -0.006401 -0.001909 0.000000 0.000215 0.000000
# 2 -0.006401 0.045344 -0.003564 0.000000 -0.000743 0.000000
# 3 -0.001909 -0.003564 0.008762 0.000000 0.000246 0.000000
# 4 0.000000 0.000000 0.000000 0.026211 0.000000 0.002050
# 5 0.000215 -0.000743 0.000246 0.000000 0.021022 0.000000
# 6 0.000000 0.000000 0.000000 0.002050 0.000000 0.038431
#
#
# Mechanical properties :
#
#
# Convention : Reuss Voigt Hill
#
# Bulk Modulus (GPa) = 25.43400 49.30430 37.36915
# Shear Modulus (GPa) = 26.94221 36.72342 31.83281
#
# Velocity S-wave (km/s) = 3.72392 4.34766 4.04782
# Velocity P-wave (km/s) = 5.61973 7.11200 6.40944
#
# Compressibility (1/GPa) = 0.03931745
#
# Stress axis : x y z
#
# Youngs Moduli (GPa) = 111.61838 22.05382 114.12715
#
# Poissons Ratio (x) = 0.14117 0.21784
# Poissons Ratio (y) = 0.71451 0.40670
# Poissons Ratio (z) = 0.21305 0.07859
#
# Static dielectric constant tensor:
#      x y z
#    x 1.666300 0.000000 0.003340 
#    y 0.000000 1.678140 0.000000 
#    z 0.003340 0.000000 1.625510 
# 
# From -- ./inp_files/365390.got.cif
#   From: 2010.05.17/outbox.cif.g08.bks.cpg/sg12_183_cif.got.tgz:365390.got - 2010.06.03 13:09:07.
