data_PCOD9207893
_publ_section_title
;
Structure prediction by ZEFSAII (Michael W. Deem and Ramdas Pophale) SiO2 
 PCOD9207893
Probable space group: C 2/M
;
_chemical_formula_sum "Si O2"
_cell_formula_units_Z 48
_cell_length_a 9.186632
_cell_length_b 10.363653
_cell_length_c 26.971056
_cell_angle_alpha 90.000000
_cell_angle_beta 112.555847
_cell_angle_gamma 90.000000
_cell_volume 2371.411360
_symmetry_space_group_name_H-M "C 2/M"
_symmetry_group_IT_number 12
_symmetry_cell_setting 'monoclinic'
loop_
_space_group_symop_operation_xyz
x,y,z
-x,y,-z
-x,-y,-z
x,-y,z
1/2+x,1/2+y,z
1/2-x,1/2+y,-z
1/2-x,1/2-y,-z
1/2+x,1/2-y,z
loop_
_atom_site_type_symbol
_atom_site_label
_atom_site_fract_x
_atom_site_fract_y
_atom_site_fract_z
Si Si1 0.901101 0.852239 0.437697
Si Si2 0.926010 0.356801 0.258584
Si Si3 0.718069 0.294198 0.884903
Si Si4 0.182374 0.000000 0.961174
Si Si5 0.301841 0.500000 0.921670
Si Si6 0.034408 0.648128 0.381121
Si Si7 0.607840 0.217871 0.187404
O O1 0.714867 0.846428 0.422082
O O2 0.000000 0.822790 0.500000
O O3 0.940025 0.750772 0.400430
O O4 0.939850 0.000000 0.427895
O O5 0.864451 0.500000 0.258460
O O6 0.772863 0.273287 0.227928
O O7 0.018414 0.320562 0.320590
O O8 0.036682 0.356674 0.224835
O O9 0.738262 0.373931 0.937955
O O10 0.536623 0.314472 0.844328
O O11 0.840463 0.340972 0.858823
O O12 0.739665 0.137821 0.892488
O O13 0.991080 0.000000 0.938842
O O14 0.236907 0.000000 0.024934
O O15 0.979889 0.500000 0.381367
#
# Coordination Sequence:
#
# PCOD9207893 Si02
#       7
#     8   8   8   4   4   8   8
#     4  10  21  37  60  89 125 163 202 252 306 360
#     4  10  22  40  60  84 119 160 200 256 304 352
#     4  11  23  41  67  92 120 162 200 248 304 365
#     4  11  24  43  67  93 123 163 201 241 306 367
#     4  11  24  45  63  93 133 155 193 259 302 353
#     4  10  21  38  60  87 121 159 208 251 303 361
#     4  10  23  37  61  86 118 153 202 246 299 357
#
# _framework density 20.241109000000002
#
# number of rings (size 3 to 8) (size 9 to 14) (size 15 to 20)
#    0.000    1.667    1.667    2.000    7.000    1.000 
#    0.000    1.667    0.000    0.000    0.000    0.000 
#    0.000    0.000    0.000    0.000    0.000    0.000 
#
# Total GULP energy -133852.261113 kJ/mol
# GULP energy per Si atom -5577.177546 kJ/mol
# Density = 2.019504 g / cm^3
# Si number density = 20.241109 Si / 1000 Ang^3
#
#
#
# Elastic Constant Matrix: (Units=GPa)
#
#
# Indices 1 2 3 4 5 6 
#
# 1 69.2220 16.3051 -3.3007 0.0000 -6.8061 0.0000
# 2 16.3051 76.8685 12.1871 0.0000 -13.0889 0.0000
# 3 -3.3007 12.1871 26.6531 0.0000 -0.8416 0.0000
# 4 0.0000 0.0000 0.0000 58.2297 0.0000 -34.8441
# 5 -6.8061 -13.0889 -0.8416 0.0000 33.4854 0.0000
# 6 0.0000 0.0000 0.0000 -34.8441 0.0000 37.1784
#
#
#
# Elastic Compliance Matrix: (Units=1/GPa)
#
#
# Indices 1 2 3 4 5 6 
#
# 1 0.015646 -0.003575 0.003632 0.000000 0.001874 0.000000
# 2 -0.003575 0.015861 -0.007528 0.000000 0.005284 0.000000
# 3 0.003632 -0.007528 0.041374 0.000000 -0.001165 0.000000
# 4 0.000000 0.000000 0.000000 0.039103 0.000000 0.036648
# 5 0.001874 0.005284 -0.001165 0.000000 0.032281 0.000000
# 6 0.000000 0.000000 0.000000 0.036648 0.000000 0.061244
#
#
# Mechanical properties :
#
#
# Convention : Reuss Voigt Hill
#
# Bulk Modulus (GPa) = 17.26018 24.79185 21.02602
# Shear Modulus (GPa) = 20.85365 35.61552 28.23459
#
# Velocity S-wave (km/s) = 3.21325 4.19927 3.73891
# Velocity P-wave (km/s) = 4.72361 5.98219 5.38976
#
# Compressibility (1/GPa) = 0.05793682
#
# Stress axis : x y z
#
# Youngs Moduli (GPa) = 63.91460 63.04797 24.16954
#
# Poissons Ratio (x) = 0.22543 -0.08777
# Poissons Ratio (y) = 0.22852 0.18196
# Poissons Ratio (z) = -0.23211 0.47465
#
# Static dielectric constant tensor:
#      x y z
#    x 1.695490 0.000000 -0.001860 
#    y 0.000000 1.728070 0.000000 
#    z -0.001860 0.000000 1.728840 
# 
# From -- ./inp_files/332239.got.cif
#   From: 2010.05.17/outbox.cif.g08.bks.cpg/sg12_167_cif.got.tgz:332239.got - 2010.06.03 13:09:07.
