data_PCOD9207210
_publ_section_title
;
Structure prediction by ZEFSAII (Michael W. Deem and Ramdas Pophale) SiO2 
 PCOD9207210
Probable space group: C 2/M
;
_chemical_formula_sum "Si O2"
_cell_formula_units_Z 40
_cell_length_a 13.854651
_cell_length_b 22.560474
_cell_length_c 8.601531
_cell_angle_alpha 90.000000
_cell_angle_beta 49.729075
_cell_angle_gamma 90.000000
_cell_volume 2051.360956
_symmetry_space_group_name_H-M "C 2/M"
_symmetry_group_IT_number 12
_symmetry_cell_setting 'monoclinic'
loop_
_space_group_symop_operation_xyz
x,y,z
-x,y,-z
-x,-y,-z
x,-y,z
1/2+x,1/2+y,z
1/2-x,1/2+y,-z
1/2-x,1/2-y,-z
1/2+x,1/2-y,z
loop_
_atom_site_type_symbol
_atom_site_label
_atom_site_fract_x
_atom_site_fract_y
_atom_site_fract_z
Si Si1 0.255278 0.340056 0.582188
Si Si2 0.378747 0.433211 0.237328
Si Si3 0.140386 0.564816 0.924570
Si Si4 0.857800 0.598896 0.719773
Si Si5 0.137236 0.283311 0.418393
O O1 0.358843 0.378384 0.377067
O O2 0.210404 0.383528 0.762026
O O3 0.147963 0.321511 0.567332
O O4 0.295051 0.277919 0.615793
O O5 0.392093 0.500000 0.291684
O O6 0.249149 0.432922 0.271209
O O7 0.500000 0.423497 0.000000
O O8 0.197513 0.500000 0.833825
O O9 0.137968 0.575648 0.110517
O O10 0.000000 0.564386 0.000000
O O11 0.815889 0.668317 0.755554
O O12 0.000000 0.594005 0.500000
O O13 0.000000 0.267828 0.500000
#
# Coordination Sequence:
#
# PCOD9207210 Si02
#       5
#     8   8   8   8   8
#     4  10  21  37  57  84 113 145 189 234 281 336
#     4  10  21  38  59  84 117 155 190 228 282 345
#     4  11  22  35  57  88 116 145 187 241 290 330
#     4  10  21  39  61  85 113 150 194 234 281 343
#     4   9  19  38  59  79 109 149 189 231 281 335
#
# _framework density 19.499251000000001
#
# number of rings (size 3 to 8) (size 9 to 14) (size 15 to 20)
#    0.000    2.000    0.000    4.800    0.000    5.600 
#    0.000   19.000    0.000    5.400    0.000    0.000 
#    0.000    0.000    0.000    0.000    0.000    0.000 
#
# Total GULP energy -111427.026412 kJ/mol
# GULP energy per Si atom -5571.351321 kJ/mol
# Density = 1.945487 g / cm^3
# Si number density = 19.499251 Si / 1000 Ang^3
#
#
#
# Elastic Constant Matrix: (Units=GPa)
#
#
# Indices 1 2 3 4 5 6 
#
# 1 55.5485 24.9529 8.6401 0.0000 -3.9734 0.0000
# 2 24.9529 135.1662 40.3541 0.0000 4.8780 0.0000
# 3 8.6401 40.3541 76.8120 0.0000 -4.1945 0.0000
# 4 0.0000 0.0000 0.0000 25.8670 0.0000 3.6415
# 5 -3.9734 4.8780 -4.1945 0.0000 23.3372 0.0000
# 6 0.0000 0.0000 0.0000 3.6415 0.0000 3.3478
#
#
#
# Elastic Compliance Matrix: (Units=1/GPa)
#
#
# Indices 1 2 3 4 5 6 
#
# 1 0.020034 -0.003850 0.000000 0.000000 0.004216 0.000000
# 2 -0.003850 0.009685 -0.004849 0.000000 -0.003551 0.000000
# 3 0.000000 -0.004849 0.015776 0.000000 0.003849 0.000000
# 4 0.000000 0.000000 0.000000 0.045649 0.000000 -0.049653
# 5 0.004216 -0.003551 0.003849 0.000000 0.045002 0.000000
# 6 0.000000 0.000000 0.000000 -0.049653 0.000000 0.352708
#
#
# Mechanical properties :
#
#
# Convention : Reuss Voigt Hill
#
# Bulk Modulus (GPa) = 35.59284 46.15785 40.87535
# Shear Modulus (GPa) = 9.69708 23.41572 16.55640
#
# Velocity S-wave (km/s) = 2.23245 3.46909 2.91706
# Velocity P-wave (km/s) = 4.99382 6.30628 5.68803
#
# Compressibility (1/GPa) = 0.02809554
#
# Stress axis : x y z
#
# Youngs Moduli (GPa) = 49.91633 103.25308 63.38553
#
# Poissons Ratio (x) = 0.39756 0.00002
# Poissons Ratio (y) = 0.19220 0.30735
# Poissons Ratio (z) = 0.00002 0.50067
#
# Static dielectric constant tensor:
#      x y z
#    x 1.678690 0.000000 -0.001160 
#    y 0.000000 1.712090 0.000000 
#    z -0.001160 0.000000 1.668480 
# 
# From -- ./inp_files/63156.got.cif
#   From: 2010.05.17/outbox.cif.g08.bks.cpg/sg12_32_cif.got.tgz:63156.got - 2010.06.03 13:09:07.
