data_PCOD9207247
_publ_section_title
;
Structure prediction by ZEFSAII (Michael W. Deem and Ramdas Pophale) SiO2 
 PCOD9207247
Probable space group: C 2/M
;
_chemical_formula_sum "Si O2"
_cell_formula_units_Z 48
_cell_length_a 20.230259
_cell_length_b 10.980475
_cell_length_c 11.142364
_cell_angle_alpha 90.000000
_cell_angle_beta 113.592917
_cell_angle_gamma 90.000000
_cell_volume 2268.249278
_symmetry_space_group_name_H-M "C 2/M"
_symmetry_group_IT_number 12
_symmetry_cell_setting 'monoclinic'
loop_
_space_group_symop_operation_xyz
x,y,z
-x,y,-z
-x,-y,-z
x,-y,z
1/2+x,1/2+y,z
1/2-x,1/2+y,-z
1/2-x,1/2-y,-z
1/2+x,1/2-y,z
loop_
_atom_site_type_symbol
_atom_site_label
_atom_site_fract_x
_atom_site_fract_y
_atom_site_fract_z
Si Si1 0.148215 0.861492 0.407804
Si Si2 0.021472 0.861722 0.677221
Si Si3 0.749409 0.715800 0.693516
Si Si4 0.375410 0.862941 0.271595
Si Si5 0.312871 0.187341 0.972301
Si Si6 0.932871 0.135593 0.013992
O O1 0.064291 0.836933 0.378655
O O2 0.185476 0.771432 0.338953
O O3 0.196953 0.851669 0.562298
O O4 0.150700 0.000000 0.363737
O O5 0.066818 0.745844 0.661672
O O6 0.048802 0.871043 0.833420
O O7 0.034928 0.000000 0.637044
O O8 0.698187 0.820925 0.715171
O O9 0.776588 0.634355 0.825855
O O10 0.396536 0.000000 0.324566
O O11 0.359566 0.869100 0.115039
O O12 0.250000 0.250000 0.000000
O O13 0.361219 0.291282 0.948866
O O14 0.925645 0.000000 0.958118
O O15 0.000000 0.198958 0.000000
#
# Coordination Sequence:
#
# PCOD9207247 Si02
#       6
#     8   8   8   8   8   8
#     4  10  21  38  60  83 112 152 197 242 285 338
#     4   9  19  36  57  83 113 148 192 239 287 339
#     4  10  21  37  57  85 116 150 193 238 289 344
#     4  10  21  38  60  86 117 153 192 238 292 347
#     4   9  19  33  52  81 114 147 182 229 284 341
#     4   9  16  28  52  81 105 135 181 234 281 328
#
# _framework density 21.161695999999999
#
# number of rings (size 3 to 8) (size 9 to 14) (size 15 to 20)
#    0.000    2.500    0.000    1.500    0.000    6.667 
#    0.000   11.667    0.000   17.000    0.000    0.000 
#    0.000    0.000    0.000    0.000    0.000    0.000 
#
# Total GULP energy -133634.468926 kJ/mol
# GULP energy per Si atom -5568.102872 kJ/mol
# Density = 2.111353 g / cm^3
# Si number density = 21.161696 Si / 1000 Ang^3
#
#
#
# Elastic Constant Matrix: (Units=GPa)
#
#
# Indices 1 2 3 4 5 6 
#
# 1 112.8657 68.9429 8.3403 0.0000 19.7018 0.0000
# 2 68.9429 127.0203 15.3321 0.0000 12.0079 0.0000
# 3 8.3403 15.3321 122.9492 0.0000 -2.7279 0.0000
# 4 0.0000 0.0000 0.0000 -3.2345 0.0000 28.7079
# 5 19.7018 12.0079 -2.7279 0.0000 31.6378 0.0000
# 6 0.0000 0.0000 0.0000 28.7079 0.0000 95.9119
#
#
#
# Elastic Compliance Matrix: (Units=1/GPa)
#
#
# Indices 1 2 3 4 5 6 
#
# 1 0.014343 -0.007170 -0.000217 0.000000 -0.006229 0.000000
# 2 -0.007170 0.011898 -0.001000 0.000000 -0.000137 0.000000
# 3 -0.000217 -0.001000 0.008300 0.000000 0.001231 0.000000
# 4 0.000000 0.000000 0.000000 -0.084551 0.000000 0.025307
# 5 -0.006229 -0.000137 0.001231 0.000000 0.035645 0.000000
# 6 0.000000 0.000000 0.000000 0.025307 0.000000 0.002851
#
#
# Mechanical properties :
#
#
# Convention : Reuss Voigt Hill
#
# Bulk Modulus (GPa) = 56.28513 60.89621 58.59067
# Shear Modulus (GPa) = 447.05012 42.87772 244.96392
#
# Velocity S-wave (km/s) = 14.55036 4.50621 10.77077
# Velocity P-wave (km/s) = 17.57667 7.47754 13.50654
#
# Compressibility (1/GPa) = 0.01776668
#
# Stress axis : x y z
#
# Youngs Moduli (GPa) = 69.71922 84.04677 120.47877
#
# Poissons Ratio (x) = 0.60261 0.02615
# Poissons Ratio (y) = 0.49989 0.12053
# Poissons Ratio (z) = 0.01513 0.08408
#
# Static dielectric constant tensor:
#      x y z
#    x 1.733690 0.000000 0.005320 
#    y 0.000000 1.749380 0.000000 
#    z 0.005320 0.000000 1.820640 
# 
# From -- ./inp_files/165194.got.cif
#   From: 2010.05.17/outbox.cif.g08.bks.cpg/sg12_83_cif.got.tgz:165194.got - 2010.06.03 13:09:07.
