data_PCOD9207431
_publ_section_title
;
Structure prediction by ZEFSAII (Michael W. Deem and Ramdas Pophale) SiO2 
 PCOD9207431
Probable space group: C 2/M
;
_chemical_formula_sum "Si O2"
_cell_formula_units_Z 48
_cell_length_a 10.444988
_cell_length_b 8.829656
_cell_length_c 27.203568
_cell_angle_alpha 90.000000
_cell_angle_beta 90.159550
_cell_angle_gamma 90.000000
_cell_volume 2508.857040
_symmetry_space_group_name_H-M "C 2/M"
_symmetry_group_IT_number 12
_symmetry_cell_setting 'monoclinic'
loop_
_space_group_symop_operation_xyz
x,y,z
-x,y,-z
-x,-y,-z
x,-y,z
1/2+x,1/2+y,z
1/2-x,1/2+y,-z
1/2-x,1/2-y,-z
1/2+x,1/2-y,z
loop_
_atom_site_type_symbol
_atom_site_label
_atom_site_fract_x
_atom_site_fract_y
_atom_site_fract_z
Si Si1 0.369500 0.818540 0.970927
Si Si2 0.399836 0.818776 0.195084
Si Si3 0.145405 0.181416 0.697652
Si Si4 0.629070 0.817600 0.472053
Si Si5 0.094124 0.682606 0.358602
Si Si6 0.138139 0.181235 0.137671
O O1 0.373414 0.752603 0.916187
O O2 0.357874 0.000000 0.968795
O O3 0.500000 0.781415 0.000000
O O4 0.250000 0.750000 0.000000
O O5 0.374213 0.755932 0.249329
O O6 0.276509 0.783332 0.161253
O O7 0.526198 0.745879 0.171923
O O8 0.415012 0.000000 0.196958
O O9 0.283222 0.221268 0.674716
O O10 0.032595 0.239465 0.662232
O O11 0.138893 0.000000 0.702012
O O12 0.500000 0.771277 0.500000
O O13 0.750000 0.750000 0.500000
O O14 0.621563 0.772804 0.414914
O O15 0.637478 0.000000 0.473660
O O16 0.077375 0.500000 0.357078
O O17 0.126620 0.000000 0.134450
#
# Coordination Sequence:
#
# PCOD9207431 Si02
#       6
#     8   8   8   8   8   8
#     4  11  24  41  62  90 123 159 200 245 294 348
#     4  11  24  41  61  87 119 153 192 240 292 347
#     4  11  23  38  59  86 114 150 195 238 287 347
#     4  10  21  37  58  85 116 152 194 239 290 347
#     4  10  22  39  58  84 118 153 192 240 292 346
#     4  11  24  41  63  91 120 155 199 242 291 350
#
# _framework density 19.132218000000002
#
# number of rings (size 3 to 8) (size 9 to 14) (size 15 to 20)
#    0.000    1.333    0.000    5.000    0.000   13.000 
#    0.000    0.000    0.000    0.000    0.000    0.000 
#    0.000    0.000    0.000    0.000    0.000    0.000 
#
# Total GULP energy -134280.839956 kJ/mol
# GULP energy per Si atom -5595.034998 kJ/mol
# Density = 1.908867 g / cm^3
# Si number density = 19.132218 Si / 1000 Ang^3
#
#
#
# Elastic Constant Matrix: (Units=GPa)
#
#
# Indices 1 2 3 4 5 6 
#
# 1 69.6366 20.5599 -22.6473 0.0000 -0.1609 0.0000
# 2 20.5599 23.6534 3.0492 0.0000 7.6121 0.0000
# 3 -22.6473 3.0492 62.6688 0.0000 0.2145 0.0000
# 4 0.0000 0.0000 0.0000 35.1500 0.0000 7.9493
# 5 -0.1609 7.6121 0.2145 0.0000 41.6870 0.0000
# 6 0.0000 0.0000 0.0000 7.9493 0.0000 27.5004
#
#
#
# Elastic Compliance Matrix: (Units=1/GPa)
#
#
# Indices 1 2 3 4 5 6 
#
# 1 0.024871 -0.024374 0.010158 0.000000 0.004494 0.000000
# 2 -0.024374 0.069097 -0.012127 0.000000 -0.012649 0.000000
# 3 0.010158 -0.012127 0.020211 0.000000 0.002150 0.000000
# 4 0.000000 0.000000 0.000000 0.030439 0.000000 -0.008799
# 5 0.004494 -0.012649 0.002150 0.000000 0.026304 0.000000
# 6 0.000000 0.000000 0.000000 -0.008799 0.000000 0.038907
#
#
# Mechanical properties :
#
#
# Convention : Reuss Voigt Hill
#
# Bulk Modulus (GPa) = 16.26186 17.54250 16.90218
# Shear Modulus (GPa) = 17.66712 31.20060 24.43386
#
# Velocity S-wave (km/s) = 3.04208 4.04268 3.57754
# Velocity P-wave (km/s) = 4.56697 5.56597 5.09103
#
# Compressibility (1/GPa) = 0.06149357
#
# Stress axis : x y z
#
# Youngs Moduli (GPa) = 40.20810 14.47235 49.47901
#
# Poissons Ratio (x) = 0.35275 -0.50262
# Poissons Ratio (y) = 0.98003 0.60003
# Poissons Ratio (z) = -0.40845 0.17551
#
# Static dielectric constant tensor:
#      x y z
#    x 1.624320 0.000000 -0.000960 
#    y 0.000000 1.643870 0.000000 
#    z -0.000960 0.000000 1.632680 
# 
# From -- ./inp_files/334630.got.cif
#   From: 2010.05.17/outbox.cif.g08.bks.cpg/sg12_168_cif.got.tgz:334630.got - 2010.06.03 13:09:07.
