data_PCOD9207073
_publ_section_title
;
Structure prediction by ZEFSAII (Michael W. Deem and Ramdas Pophale) SiO2 
 PCOD9207073
Probable space group: C 2/M
;
_chemical_formula_sum "Si O2"
_cell_formula_units_Z 32
_cell_length_a 8.039723
_cell_length_b 23.462936
_cell_length_c 7.896666
_cell_angle_alpha 90.000000
_cell_angle_beta 61.332776
_cell_angle_gamma 90.000000
_cell_volume 1306.998541
_symmetry_space_group_name_H-M "C 2/M"
_symmetry_group_IT_number 12
_symmetry_cell_setting 'monoclinic'
loop_
_space_group_symop_operation_xyz
x,y,z
-x,y,-z
-x,-y,-z
x,-y,z
1/2+x,1/2+y,z
1/2-x,1/2+y,-z
1/2-x,1/2-y,-z
1/2+x,1/2-y,z
loop_
_atom_site_type_symbol
_atom_site_label
_atom_site_fract_x
_atom_site_fract_y
_atom_site_fract_z
Si Si1 0.271743 0.315824 0.449977
Si Si2 0.594135 0.618917 0.143004
Si Si3 0.065893 0.372413 0.240990
Si Si4 0.457330 0.000000 0.755827
Si Si5 0.180722 0.000000 0.216934
O O1 0.250000 0.250000 0.500000
O O2 0.486103 0.334539 0.307112
O O3 0.152863 0.353681 0.642722
O O4 0.168807 0.330789 0.322480
O O5 0.814023 0.630176 0.990277
O O6 0.500000 0.614985 0.000000
O O7 0.568422 0.558196 0.247353
O O8 0.086941 0.437803 0.295006
O O9 0.680174 0.000000 0.691419
O O10 0.327686 0.000000 0.987351
#
# Coordination Sequence:
#
# PCOD9207073 Si02
#       5
#     8   8   8   4   4
#     4  10  21  37  56  84 115 154 206 240 273 343
#     4   9  18  35  61  86 117 153 193 236 302 346
#     4   9  20  39  60  84 117 152 189 245 299 348
#     4   9  18  36  61  89 121 150 187 241 311 356
#     4   9  17  33  59  94 119 145 190 248 294 363
#
# _framework density 24.483575999999999
#
# number of rings (size 3 to 8) (size 9 to 14) (size 15 to 20)
#    0.000    2.750    0.000    0.375    0.000    7.000 
#    9.000    1.250   11.000    0.000    0.000    0.000 
#    0.000    0.000    0.000    0.000    0.000    0.000 
#
# Total GULP energy -89379.434310 kJ/mol
# GULP energy per Si atom -5586.214644 kJ/mol
# Density = 2.442785 g / cm^3
# Si number density = 24.483576 Si / 1000 Ang^3
#
#
#
# Elastic Constant Matrix: (Units=GPa)
#
#
# Indices 1 2 3 4 5 6 
#
# 1 70.5433 30.3529 27.1056 0.0000 -11.0478 0.0000
# 2 30.3529 231.7645 73.3972 0.0000 -15.2953 0.0000
# 3 27.1056 73.3972 162.6590 0.0000 -37.2365 0.0000
# 4 0.0000 0.0000 0.0000 45.7255 0.0000 -7.6899
# 5 -11.0478 -15.2953 -37.2365 0.0000 44.4249 0.0000
# 6 0.0000 0.0000 0.0000 -7.6899 0.0000 21.7411
#
#
#
# Elastic Compliance Matrix: (Units=1/GPa)
#
#
# Indices 1 2 3 4 5 6 
#
# 1 0.015703 -0.001449 -0.001464 0.000000 0.002179 0.000000
# 2 -0.001449 0.005169 -0.002186 0.000000 -0.000412 0.000000
# 3 -0.001464 -0.002186 0.008814 0.000000 0.006271 0.000000
# 4 0.000000 0.000000 0.000000 0.023253 0.000000 0.008225
# 5 0.002179 -0.000412 0.006271 0.000000 0.028166 0.000000
# 6 0.000000 0.000000 0.000000 0.008225 0.000000 0.048905
#
#
# Mechanical properties :
#
#
# Convention : Reuss Voigt Hill
#
# Bulk Modulus (GPa) = 51.31208 80.74200 66.02704
# Shear Modulus (GPa) = 34.08243 44.65239 39.36741
#
# Velocity S-wave (km/s) = 3.73507 4.27519 4.01423
# Velocity P-wave (km/s) = 6.29319 7.57755 6.96504
#
# Compressibility (1/GPa) = 0.01948859
#
# Stress axis : x y z
#
# Youngs Moduli (GPa) = 63.68208 193.44502 113.46172
#
# Poissons Ratio (x) = 0.28032 0.16611
# Poissons Ratio (y) = 0.09228 0.24798
# Poissons Ratio (z) = 0.09323 0.42279
#
# Static dielectric constant tensor:
#      x y z
#    x 2.086430 0.000000 -0.008100 
#    y 0.000000 1.860020 0.000000 
#    z -0.008100 0.000000 1.999440 
# 
# From -- ./inp_files/119572.got.cif
#   From: 2010.05.17/outbox.cif.g08.bks.cpg/sg12_60_cif.got.tgz:119572.got - 2010.06.03 13:09:07.
