data_PCOD9207478
_publ_section_title
;
Structure prediction by ZEFSAII (Michael W. Deem and Ramdas Pophale) SiO2 
 PCOD9207478
Probable space group: C 2/M
;
_chemical_formula_sum "Si O2"
_cell_formula_units_Z 36
_cell_length_a 9.910217
_cell_length_b 29.790187
_cell_length_c 4.886059
_cell_angle_alpha 90.000000
_cell_angle_beta 88.902037
_cell_angle_gamma 90.000000
_cell_volume 1442.232753
_symmetry_space_group_name_H-M "C 2/M"
_symmetry_group_IT_number 12
_symmetry_cell_setting 'monoclinic'
loop_
_space_group_symop_operation_xyz
x,y,z
-x,y,-z
-x,-y,-z
x,-y,z
1/2+x,1/2+y,z
1/2-x,1/2+y,-z
1/2-x,1/2-y,-z
1/2+x,1/2-y,z
loop_
_atom_site_type_symbol
_atom_site_label
_atom_site_fract_x
_atom_site_fract_y
_atom_site_fract_z
Si Si1 0.905283 0.380884 0.272877
Si Si2 0.103137 0.000000 0.743671
Si Si3 0.136227 0.189746 0.820381
Si Si4 0.374715 0.216592 0.214569
Si Si5 0.341595 0.593190 0.088582
O O1 0.881564 0.329624 0.379585
O O2 0.000000 0.403691 0.500000
O O3 0.764764 0.400839 0.157452
O O4 0.000000 0.378082 0.000000
O O5 0.185848 0.046273 0.758533
O O6 0.000000 0.000000 0.500000
O O7 0.000000 0.000000 0.000000
O O8 0.248601 0.204904 0.029478
O O9 0.129127 0.234788 0.637349
O O10 0.166974 0.138859 0.731188
O O11 0.000000 0.185777 0.000000
O O12 0.500000 0.219512 0.000000
O O13 0.500000 0.591132 0.000000
#
# Coordination Sequence:
#
# PCOD9207478 Si02
#       5
#     8   4   8   8   8
#     4  10  21  37  58  86 121 156 190 234 290 346
#     4  10  22  40  62  88 116 148 189 242 297 342
#     4   8  13  25  49  77 106 142 188 231 271 327
#     4   8  14  26  47  74 109 148 183 223 275 331
#     4   9  19  37  62  87 115 152 197 242 289 345
#
# _framework density 24.961293000000001
#
# number of rings (size 3 to 8) (size 9 to 14) (size 15 to 20)
#    0.000    3.111    0.000    0.000    0.000    3.556 
#    0.000    2.222    0.000  120.000    0.000    0.000 
#    0.000    0.000    0.000    0.000    0.000    0.000 
#
# Total GULP energy -100343.989897 kJ/mol
# GULP energy per Si atom -5574.666105 kJ/mol
# Density = 2.490448 g / cm^3
# Si number density = 24.961293 Si / 1000 Ang^3
#
#
#
# Elastic Constant Matrix: (Units=GPa)
#
#
# Indices 1 2 3 4 5 6 
#
# 1 131.1435 57.7012 50.1421 0.0000 40.2880 0.0000
# 2 57.7012 237.0058 47.0757 0.0000 15.6315 0.0000
# 3 50.1421 47.0757 104.5833 0.0000 27.8907 0.0000
# 4 0.0000 0.0000 0.0000 -16.4551 0.0000 17.2589
# 5 40.2880 15.6315 27.8907 0.0000 65.9892 0.0000
# 6 0.0000 0.0000 0.0000 17.2589 0.0000 18.7454
#
#
#
# Elastic Compliance Matrix: (Units=1/GPa)
#
#
# Indices 1 2 3 4 5 6 
#
# 1 0.011178 -0.001748 -0.003227 0.000000 -0.005047 0.000000
# 2 -0.001748 0.004910 -0.001518 0.000000 0.000545 0.000000
# 3 -0.003227 -0.001518 0.012590 0.000000 -0.002992 0.000000
# 4 0.000000 0.000000 0.000000 -0.030916 0.000000 0.028465
# 5 -0.005047 0.000545 -0.002992 0.000000 0.019370 0.000000
# 6 0.000000 0.000000 0.000000 0.028465 0.000000 0.027139
#
#
# Mechanical properties :
#
#
# Convention : Reuss Voigt Hill
#
# Bulk Modulus (GPa) = 63.71888 86.95228 75.33558
# Shear Modulus (GPa) = 80.01606 34.84348 57.42977
#
# Velocity S-wave (km/s) = 5.66795 3.74023 4.80182
# Velocity P-wave (km/s) = 8.27144 7.31867 7.80960
#
# Compressibility (1/GPa) = 0.01569394
#
# Stress axis : x y z
#
# Youngs Moduli (GPa) = 89.45843 203.65373 79.42903
#
# Poissons Ratio (x) = 0.35592 0.25631
# Poissons Ratio (y) = 0.15634 0.12055
# Poissons Ratio (z) = 0.28867 0.30910
#
# Static dielectric constant tensor:
#      x y z
#    x 2.034990 0.000000 0.020320 
#    y 0.000000 2.116760 0.000000 
#    z 0.020320 0.000000 1.964640 
# 
# From -- ./inp_files/8210.got.cif
#   From: 2010.05.17/outbox.cif.g08.bks.cpg/sg12_5_cif.got.tgz:8210.got - 2010.06.03 13:09:07.
