data_PCOD9207053
_publ_section_title
;
Structure prediction by ZEFSAII (Michael W. Deem and Ramdas Pophale) SiO2 
 PCOD9207053
Probable space group: C 2/M
;
_chemical_formula_sum "Si O2"
_cell_formula_units_Z 64
_cell_length_a 28.572468
_cell_length_b 8.641641
_cell_length_c 13.469441
_cell_angle_alpha 90.000000
_cell_angle_beta 89.823086
_cell_angle_gamma 90.000000
_cell_volume 3325.764379
_symmetry_space_group_name_H-M "C 2/M"
_symmetry_group_IT_number 12
_symmetry_cell_setting 'monoclinic'
loop_
_space_group_symop_operation_xyz
x,y,z
-x,y,-z
-x,-y,-z
x,-y,z
1/2+x,1/2+y,z
1/2-x,1/2+y,-z
1/2-x,1/2-y,-z
1/2+x,1/2-y,z
loop_
_atom_site_type_symbol
_atom_site_label
_atom_site_fract_x
_atom_site_fract_y
_atom_site_fract_z
Si Si1 0.054924 0.313334 0.608478
Si Si2 0.305137 0.685293 0.286384
Si Si3 0.556326 0.185861 0.389335
Si Si4 0.392735 0.185868 0.193700
Si Si5 0.303610 0.814058 0.716953
Si Si6 0.802876 0.314185 0.496087
Si Si7 0.892244 0.815625 0.803401
Si Si8 0.054392 0.187346 0.998369
O O1 0.060614 0.500000 0.606444
O O2 0.071527 0.258967 0.499443
O O3 0.080590 0.256762 0.706757
O O4 0.999404 0.284229 0.616590
O O5 0.306318 0.500000 0.286452
O O6 0.339914 0.753212 0.204705
O O7 0.250761 0.734051 0.273375
O O8 0.322337 0.745766 0.394176
O O9 0.581248 0.259018 0.295260
O O10 0.563492 0.000000 0.385350
O O11 0.392950 0.000000 0.193277
O O12 0.419193 0.247511 0.097395
O O13 0.321474 0.772174 0.605222
O O14 0.339259 0.744539 0.795143
O O15 0.304696 0.000000 0.722841
O O16 0.803398 0.500000 0.488774
O O17 0.750000 0.250000 0.500000
O O18 0.919461 0.761267 0.901346
O O19 0.891883 0.000000 0.804596
O O20 0.055627 0.000000 0.994424
O O21 0.000000 0.235078 0.000000
#
# Coordination Sequence:
#
# PCOD9207053 Si02
#       8
#     8   8   8   8   8   8   8   8
#     4   8  17  33  54  82 113 147 184 226 279 343
#     4  10  21  37  56  82 117 157 196 234 286 345
#     4   9  17  34  57  79 112 152 184 221 282 350
#     4  11  22  36  59  89 116 147 196 244 287 343
#     4   9  20  37  56  79 113 156 196 234 281 340
#     4   9  17  31  52  79 112 152 194 235 280 332
#     4  11  23  36  56  86 114 144 192 242 288 342
#     4  10  23  44  64  83 114 153 191 239 297 349
#
# _framework density 19.243696
#
# number of rings (size 3 to 8) (size 9 to 14) (size 15 to 20)
#    0.000    2.375    0.000    3.750    1.750    4.250 
#    0.000    3.125    0.000    0.000    0.000    0.000 
#    0.000    0.000    0.000    0.000    0.000    0.000 
#
# Total GULP energy -178596.472737 kJ/mol
# GULP energy per Si atom -5581.139773 kJ/mol
# Density = 1.919990 g / cm^3
# Si number density = 19.243696 Si / 1000 Ang^3
#
#
#
# Elastic Constant Matrix: (Units=GPa)
#
#
# Indices 1 2 3 4 5 6 
#
# 1 124.8454 32.7564 100.4584 0.0000 0.3243 0.0000
# 2 32.7564 24.3722 34.5434 0.0000 1.0341 0.0000
# 3 100.4584 34.5434 156.6407 0.0000 0.6892 0.0000
# 4 0.0000 0.0000 0.0000 26.3001 0.0000 -6.8139
# 5 0.3243 1.0341 0.6892 0.0000 40.0119 0.0000
# 6 0.0000 0.0000 0.0000 -6.8139 0.0000 23.9862
#
#
#
# Elastic Compliance Matrix: (Units=1/GPa)
#
#
# Indices 1 2 3 4 5 6 
#
# 1 0.018623 -0.011802 -0.009342 0.000000 0.000315 0.000000
# 2 -0.011802 0.067234 -0.007251 0.000000 -0.001517 0.000000
# 3 -0.009342 -0.007251 0.013975 0.000000 0.000022 0.000000
# 4 0.000000 0.000000 0.000000 0.041043 0.000000 0.011659
# 5 0.000315 -0.001517 0.000022 0.000000 0.025029 0.000000
# 6 0.000000 0.000000 0.000000 0.011659 0.000000 0.045003
#
#
# Mechanical properties :
#
#
# Convention : Reuss Voigt Hill
#
# Bulk Modulus (GPa) = 23.23379 71.26385 47.24882
# Shear Modulus (GPa) = 17.72773 27.26631 22.49702
#
# Velocity S-wave (km/s) = 3.03846 3.76825 3.42286
# Velocity P-wave (km/s) = 4.94058 7.48636 6.34251
#
# Compressibility (1/GPa) = 0.04304077
#
# Stress axis : x y z
#
# Youngs Moduli (GPa) = 53.69733 14.87343 71.55866
#
# Poissons Ratio (x) = 0.17553 0.66852
# Poissons Ratio (y) = 0.63372 0.51891
# Poissons Ratio (z) = 0.50165 0.10785
#
# Static dielectric constant tensor:
#      x y z
#    x 1.691330 0.000000 0.017220 
#    y 0.000000 1.650070 0.000000 
#    z 0.017220 0.000000 1.666840 
# 
# From -- ./inp_files/187632.got.cif
#   From: 2010.05.17/outbox.cif.g08.bks.cpg/sg12_94_cif.got.tgz:187632.got - 2010.06.03 13:09:07.
