data_PCOD9207718
_publ_section_title
;
Structure prediction by ZEFSAII (Michael W. Deem and Ramdas Pophale) SiO2 
 PCOD9207718
Probable space group: C 2/M
;
_chemical_formula_sum "Si O2"
_cell_formula_units_Z 48
_cell_length_a 27.015543
_cell_length_b 13.847155
_cell_length_c 8.561758
_cell_angle_alpha 90.000000
_cell_angle_beta 36.410792
_cell_angle_gamma 90.000000
_cell_volume 1901.119861
_symmetry_space_group_name_H-M "C 2/M"
_symmetry_group_IT_number 12
_symmetry_cell_setting 'monoclinic'
loop_
_space_group_symop_operation_xyz
x,y,z
-x,y,-z
-x,-y,-z
x,-y,z
1/2+x,1/2+y,z
1/2-x,1/2+y,-z
1/2-x,1/2-y,-z
1/2+x,1/2-y,z
loop_
_atom_site_type_symbol
_atom_site_label
_atom_site_fract_x
_atom_site_fract_y
_atom_site_fract_z
Si Si1 0.223810 0.182734 0.864332
Si Si2 0.087205 0.265163 0.662014
Si Si3 0.518027 0.108945 0.278719
Si Si4 0.355352 0.387838 0.258593
Si Si5 0.796396 0.604052 0.112118
Si Si6 0.422325 0.394727 0.576984
O O1 0.322652 0.182135 0.585495
O O2 0.182092 0.156770 0.803815
O O3 0.205636 0.293086 0.967639
O O4 0.168749 0.114625 0.113855
O O5 0.020897 0.343396 0.774134
O O6 0.087343 0.196978 0.814987
O O7 0.075710 0.186667 0.555122
O O8 0.500000 0.151676 0.500000
O O9 0.484998 0.000000 0.371927
O O10 0.617325 0.107221 0.013032
O O11 0.385542 0.500000 0.159440
O O12 0.281042 0.394216 0.573999
O O13 0.796069 0.500000 0.028204
O O14 0.500000 0.385171 0.500000
O O15 0.429865 0.500000 0.483803
#
# Coordination Sequence:
#
# PCOD9207718 Si02
#       6
#     8   8   8   8   8   8
#     4  11  22  40  63  88 118 156 200 247 296 351
#     4  11  21  38  63  92 120 152 197 247 299 351
#     4  10  21  37  59  89 124 160 196 241 298 355
#     4  10  22  41  63  87 119 158 199 244 295 352
#     4   9  18  35  58  83 115 154 192 235 290 347
#     4  11  24  41  61  86 120 160 200 245 297 353
#
# _framework density 25.248277000000002
#
# number of rings (size 3 to 8) (size 9 to 14) (size 15 to 20)
#    0.000    1.667    0.000    6.000    0.000    3.333 
#    0.000   11.667    0.000   15.000    0.000    0.000 
#    0.000    0.000    0.000    0.000    0.000    0.000 
#
# Total GULP energy -134175.202548 kJ/mol
# GULP energy per Si atom -5590.633439 kJ/mol
# Density = 2.519081 g / cm^3
# Si number density = 25.248277 Si / 1000 Ang^3
#
#
#
# Elastic Constant Matrix: (Units=GPa)
#
#
# Indices 1 2 3 4 5 6 
#
# 1 138.3116 46.7358 24.6824 0.0000 -18.4098 0.0000
# 2 46.7358 133.8871 26.1102 0.0000 -6.3520 0.0000
# 3 24.6824 26.1102 77.5693 0.0000 -20.0995 0.0000
# 4 0.0000 0.0000 0.0000 14.0932 0.0000 -12.9715
# 5 -18.4098 -6.3520 -20.0995 0.0000 38.5066 0.0000
# 6 0.0000 0.0000 0.0000 -12.9715 0.0000 27.5821
#
#
#
# Elastic Compliance Matrix: (Units=1/GPa)
#
#
# Indices 1 2 3 4 5 6 
#
# 1 0.008755 -0.002700 -0.001050 0.000000 0.003192 0.000000
# 2 -0.002700 0.008827 -0.002393 0.000000 -0.001084 0.000000
# 3 -0.001050 -0.002393 0.015957 0.000000 0.007433 0.000000
# 4 0.000000 0.000000 0.000000 0.125111 0.000000 0.058838
# 5 0.003192 -0.001084 0.007433 0.000000 0.031197 0.000000
# 6 0.000000 0.000000 0.000000 0.058838 0.000000 0.063926
#
#
# Mechanical properties :
#
#
# Convention : Reuss Voigt Hill
#
# Bulk Modulus (GPa) = 47.05109 60.53608 53.79359
# Shear Modulus (GPa) = 18.30559 32.85236 25.57898
#
# Velocity S-wave (km/s) = 2.69555 3.61109 3.18637
# Velocity P-wave (km/s) = 5.32577 6.43545 5.90672
#
# Compressibility (1/GPa) = 0.02125349
#
# Stress axis : x y z
#
# Youngs Moduli (GPa) = 114.22646 113.29383 62.66814
#
# Poissons Ratio (x) = 0.30587 0.06579
# Poissons Ratio (y) = 0.30838 0.14995
# Poissons Ratio (z) = 0.11991 0.27109
#
# Static dielectric constant tensor:
#      x y z
#    x 1.997790 0.000000 0.003670 
#    y 0.000000 1.991280 0.000000 
#    z 0.003670 0.000000 2.089120 
# 
# From -- ./inp_files/73656.got.cif
#   From: 2010.05.17/outbox.cif.g08.bks.cpg/sg12_37_cif.got.tgz:73656.got - 2010.06.03 13:09:07.
