data_PCOD9207011
_publ_section_title
;
Structure prediction by ZEFSAII (Michael W. Deem and Ramdas Pophale) SiO2 
 PCOD9207011
Probable space group: C 2/M
;
_chemical_formula_sum "Si O2"
_cell_formula_units_Z 56
_cell_length_a 19.845903
_cell_length_b 8.894376
_cell_length_c 28.458348
_cell_angle_alpha 90.000000
_cell_angle_beta 38.443653
_cell_angle_gamma 90.000000
_cell_volume 3123.259846
_symmetry_space_group_name_H-M "C 2/M"
_symmetry_group_IT_number 12
_symmetry_cell_setting 'monoclinic'
loop_
_space_group_symop_operation_xyz
x,y,z
-x,y,-z
-x,-y,-z
x,-y,z
1/2+x,1/2+y,z
1/2-x,1/2+y,-z
1/2-x,1/2-y,-z
1/2+x,1/2-y,z
loop_
_atom_site_type_symbol
_atom_site_label
_atom_site_fract_x
_atom_site_fract_y
_atom_site_fract_z
Si Si1 0.507878 0.821317 0.200165
Si Si2 0.135199 0.176799 0.049292
Si Si3 0.075219 0.681407 0.502560
Si Si4 0.673105 0.681373 0.637451
Si Si5 0.844559 0.821743 0.801701
Si Si6 0.114156 0.673409 0.962998
Si Si7 0.523905 0.320106 0.630717
O O1 0.542014 0.750347 0.132107
O O2 0.398678 0.755312 0.282561
O O3 0.601670 0.770388 0.185377
O O4 0.502697 0.000000 0.199789
O O5 0.139238 0.000000 0.055922
O O6 0.250000 0.250000 0.000000
O O7 0.117627 0.215589 0.004725
O O8 0.071797 0.500000 0.505583
O O9 0.201435 0.725598 0.428111
O O10 0.036308 0.742324 0.574018
O O11 0.000000 0.731463 0.500000
O O12 0.665033 0.500000 0.645676
O O13 0.617123 0.722624 0.617948
O O14 0.716294 0.798388 0.873075
O O15 0.910333 0.783723 0.718682
O O16 0.865571 0.000000 0.798920
O O17 0.126793 0.500000 0.973341
O O18 0.000000 0.684835 0.000000
O O19 0.530142 0.500000 0.620975
#
# Coordination Sequence:
#
# PCOD9207011 Si02
#       7
#     8   8   8   8   8   8   8
#     4  11  21  34  57  88 113 142 189 240 284 332
#     4  12  23  37  59  85 116 152 193 239 285 334
#     4  10  21  37  56  80 113 148 180 221 277 335
#     4   9  19  37  58  80 111 145 182 229 279 333
#     4   9  18  35  57  81 114 150 184 230 285 335
#     4  10  21  38  59  83 116 156 193 234 285 341
#     4   9  18  33  56  82 106 142 185 226 274 326
#
# _framework density 17.929983
#
# number of rings (size 3 to 8) (size 9 to 14) (size 15 to 20)
#    0.000    2.000    1.429    3.857    0.000    3.429 
#    2.571    0.000    0.000    0.000    0.000    0.000 
#    0.000    0.000    0.000    0.000    0.000    0.000 
#
# Total GULP energy -156280.113381 kJ/mol
# GULP energy per Si atom -5581.432621 kJ/mol
# Density = 1.788917 g / cm^3
# Si number density = 17.929983 Si / 1000 Ang^3
#
#
#
# Elastic Constant Matrix: (Units=GPa)
#
#
# Indices 1 2 3 4 5 6 
#
# 1 82.8456 34.6661 80.1857 0.0001 -4.5606 -0.0002
# 2 34.6661 60.9496 50.8981 0.0001 2.0339 -0.0006
# 3 80.1857 50.8981 161.5183 0.0000 -4.5703 0.0000
# 4 0.0001 0.0001 0.0000 29.2461 0.0000 9.5382
# 5 -4.5606 2.0339 -4.5703 0.0000 24.1278 0.0001
# 6 -0.0002 -0.0006 0.0000 9.5382 0.0001 21.8255
#
#
#
# Elastic Compliance Matrix: (Units=1/GPa)
#
#
# Indices 1 2 3 4 5 6 
#
# 1 0.024578 -0.005385 -0.010416 0.000000 0.003127 0.000000
# 2 -0.005385 0.023699 -0.004906 0.000000 -0.003945 0.000001
# 3 -0.010416 -0.004906 0.012934 0.000000 0.000895 0.000000
# 4 0.000000 0.000000 0.000000 0.039876 0.000000 -0.017427
# 5 0.003127 -0.003945 0.000895 0.000000 0.042539 0.000000
# 6 0.000000 0.000001 0.000000 -0.017427 0.000000 0.053434
#
#
# Mechanical properties :
#
#
# Convention : Reuss Voigt Hill
#
# Bulk Modulus (GPa) = 50.51700 70.75703 60.63701
# Shear Modulus (GPa) = 20.40214 24.34412 22.37313
#
# Velocity S-wave (km/s) = 3.37690 3.68874 3.53626
# Velocity P-wave (km/s) = 6.59093 7.59546 7.11096
#
# Compressibility (1/GPa) = 0.01979532
#
# Stress axis : x y z
#
# Youngs Moduli (GPa) = 40.68696 42.19669 77.31683
#
# Poissons Ratio (x) = 0.22723 0.80536
# Poissons Ratio (y) = 0.21910 0.37933
# Poissons Ratio (z) = 0.42381 0.20703
#
# Static dielectric constant tensor:
#      x y z
#    x 1.591760 0.000000 -0.011920 
#    y 0.000000 1.608410 0.000000 
#    z -0.011920 0.000000 1.620560 
# 
# From -- ./inp_files/363032.got.cif
#   From: 2010.05.17/outbox.cif.g08.bks.cpg/sg12_182_cif.got.tgz:363032.got - 2010.06.03 13:09:07.
