data_PCOD9207662
_publ_section_title
;
Structure prediction by ZEFSAII (Michael W. Deem and Ramdas Pophale) SiO2 
 PCOD9207662
Probable space group: C 2/M
;
_chemical_formula_sum "Si O2"
_cell_formula_units_Z 44
_cell_length_a 18.191725
_cell_length_b 13.526119
_cell_length_c 17.893470
_cell_angle_alpha 90.000000
_cell_angle_beta 148.136563
_cell_angle_gamma 90.000000
_cell_volume 2324.290492
_symmetry_space_group_name_H-M "C 2/M"
_symmetry_group_IT_number 12
_symmetry_cell_setting 'monoclinic'
loop_
_space_group_symop_operation_xyz
x,y,z
-x,y,-z
-x,-y,-z
x,-y,z
1/2+x,1/2+y,z
1/2-x,1/2+y,-z
1/2-x,1/2-y,-z
1/2+x,1/2-y,z
loop_
_atom_site_type_symbol
_atom_site_label
_atom_site_fract_x
_atom_site_fract_y
_atom_site_fract_z
Si Si1 0.972088 0.118413 0.121264
Si Si2 0.543763 0.385724 0.452076
Si Si3 0.988077 0.384897 0.875032
Si Si4 0.000000 0.765720 0.000000
Si Si5 0.197896 0.264534 0.371870
Si Si6 0.810867 0.118850 0.130359
O O1 0.936725 0.163243 0.009147
O O2 0.865554 0.149267 0.095526
O O3 0.119886 0.167097 0.273534
O O4 0.979146 0.000000 0.124239
O O5 0.500000 0.389664 0.500000
O O6 0.583921 0.500000 0.465332
O O7 0.668859 0.308871 0.554423
O O8 0.420377 0.352745 0.289342
O O9 0.969528 0.500000 0.874829
O O10 0.917664 0.350668 0.737676
O O11 0.918802 0.314778 0.878376
O O12 0.151177 0.358210 0.011513
O O13 0.250000 0.250000 0.500000
O O14 0.814017 0.000000 0.131711
#
# Coordination Sequence:
#
# PCOD9207662 Si02
#       6
#     8   8   8   4   8   8
#     4  10  21  39  59  82 117 158 204 241 285 349
#     4  10  21  37  59  87 122 157 193 243 305 363
#     4  10  22  38  60  92 123 147 189 251 306 351
#     4  10  22  34  58  88 114 154 192 242 294 346
#     4  11  22  37  58  89 116 159 198 238 296 353
#     4   9  19  37  59  84 118 159 193 240 300 354
#
# _framework density 18.930508
#
# number of rings (size 3 to 8) (size 9 to 14) (size 15 to 20)
#    0.000    2.000    1.818    1.091    5.091    3.636 
#    0.000    0.000    0.000    0.545    0.000    0.000 
#    0.000    0.000    0.000    0.000    0.000    0.000 
#
# Total GULP energy -122472.985049 kJ/mol
# GULP energy per Si atom -5566.953866 kJ/mol
# Density = 1.888742 g / cm^3
# Si number density = 18.930508 Si / 1000 Ang^3
#
#
#
# Elastic Constant Matrix: (Units=GPa)
#
#
# Indices 1 2 3 4 5 6 
#
# 1 111.4442 42.4169 53.0780 0.0000 -15.7388 0.0000
# 2 42.4169 109.4333 28.7566 0.0000 -6.6195 0.0000
# 3 53.0780 28.7566 109.5708 0.0000 -2.4317 0.0000
# 4 0.0000 0.0000 0.0000 35.0613 0.0000 -1.9228
# 5 -15.7388 -6.6195 -2.4317 0.0000 28.4290 0.0000
# 6 0.0000 0.0000 0.0000 -1.9228 0.0000 24.5188
#
#
#
# Elastic Compliance Matrix: (Units=1/GPa)
#
#
# Indices 1 2 3 4 5 6 
#
# 1 0.013920 -0.003516 -0.005678 0.000000 0.006402 0.000000
# 2 -0.003516 0.010826 -0.001127 0.000000 0.000478 0.000000
# 3 -0.005678 -0.001127 0.012120 0.000000 -0.002369 0.000000
# 4 0.000000 0.000000 0.000000 0.028645 0.000000 0.002246
# 5 0.006402 0.000478 -0.002369 0.000000 0.038628 0.000000
# 6 0.000000 0.000000 0.000000 0.002246 0.000000 0.040961
#
#
# Mechanical properties :
#
#
# Convention : Reuss Voigt Hill
#
# Bulk Modulus (GPa) = 61.64092 64.32792 62.98442
# Shear Modulus (GPa) = 29.21397 31.34829 30.28113
#
# Velocity S-wave (km/s) = 3.93265 4.07377 4.00383
# Velocity P-wave (km/s) = 7.29749 7.49549 7.39715
#
# Compressibility (1/GPa) = 0.01622299
#
# Stress axis : x y z
#
# Youngs Moduli (GPa) = 71.84006 92.37035 82.50542
#
# Poissons Ratio (x) = 0.32478 0.46848
# Poissons Ratio (y) = 0.25259 0.09302
# Poissons Ratio (z) = 0.40792 0.10414
#
# Static dielectric constant tensor:
#      x y z
#    x 1.732000 0.000000 -0.016070 
#    y 0.000000 1.686580 0.000000 
#    z -0.016070 0.000000 1.709370 
# 
# From -- ./inp_files/277947.got.cif
#   From: 2010.05.17/outbox.cif.g08.bks.cpg/sg12_139_cif.got.tgz:277947.got - 2010.06.03 13:09:07.
