data_PCOD9207923
_publ_section_title
;
Structure prediction by ZEFSAII (Michael W. Deem and Ramdas Pophale) SiO2 
 PCOD9207923
Probable space group: C 2/M
;
_chemical_formula_sum "Si O2"
_cell_formula_units_Z 58
_cell_length_a 22.277355
_cell_length_b 12.220008
_cell_length_c 11.766400
_cell_angle_alpha 90.000000
_cell_angle_beta 111.631216
_cell_angle_gamma 90.000000
_cell_volume 2977.580601
_symmetry_space_group_name_H-M "C 2/M"
_symmetry_group_IT_number 12
_symmetry_cell_setting 'monoclinic'
loop_
_space_group_symop_operation_xyz
x,y,z
-x,y,-z
-x,-y,-z
x,-y,z
1/2+x,1/2+y,z
1/2-x,1/2+y,-z
1/2-x,1/2-y,-z
1/2+x,1/2-y,z
loop_
_atom_site_type_symbol
_atom_site_label
_atom_site_fract_x
_atom_site_fract_y
_atom_site_fract_z
Si Si1 0.568468 0.269151 0.516714
Si Si2 0.405240 0.299288 0.867020
Si Si3 0.640026 0.120490 0.735484
Si Si4 0.000000 0.000000 0.000000
Si Si5 0.449752 0.874324 0.713756
Si Si6 0.201223 0.120921 0.548008
Si Si7 0.088992 0.377718 0.931230
Si Si8 0.266971 0.670485 0.688290
O O1 0.500000 0.323471 0.500000
O O2 0.597029 0.213874 0.649363
O O3 0.554996 0.172327 0.416739
O O4 0.626455 0.342045 0.507246
O O5 0.415704 0.217559 0.767588
O O6 0.332326 0.340724 0.803472
O O7 0.453498 0.401587 0.911652
O O8 0.412339 0.218872 0.979805
O O9 0.643684 0.136469 0.873321
O O10 0.707402 0.122490 0.716493
O O11 0.610214 0.000000 0.697683
O O12 0.522262 0.876004 0.813893
O O13 0.424964 0.000000 0.702965
O O14 0.245849 0.204628 0.647993
O O15 0.222317 0.124039 0.430873
O O16 0.208487 0.000000 0.598912
O O17 0.094188 0.500000 0.987248
#
# Coordination Sequence:
#
# PCOD9207923 Si02
#       8
#     8   8   8   2   8   8   8   8
#     4  11  21  36  61  94 128 162 204 254 320 383
#     4  12  24  43  63  93 122 167 212 258 313 381
#     4  10  21  37  60  91 123 159 203 259 315 374
#     4  12  28  40  66  92 130 168 218 258 302 384
#     4  11  21  37  63  94 123 158 203 268 320 368
#     4  10  22  41  61  92 127 167 209 255 310 385
#     4  10  21  39  62  88 124 157 203 267 316 366
#     4  10  23  40  63  87 122 164 208 262 306 371
#
# _framework density 19.478902999999999
#
# number of rings (size 3 to 8) (size 9 to 14) (size 15 to 20)
#    0.000    1.379    4.138    1.241    1.931    3.586 
#    0.000    0.000   12.138    0.000    0.000    0.000 
#    0.000    0.000    0.000    0.000    0.000    0.000 
#
# Total GULP energy -161543.857573 kJ/mol
# GULP energy per Si atom -5570.477847 kJ/mol
# Density = 1.943457 g / cm^3
# Si number density = 19.478903 Si / 1000 Ang^3
#
#
#
# Elastic Constant Matrix: (Units=GPa)
#
#
# Indices 1 2 3 4 5 6 
#
# 1 72.8569 6.0281 -13.4528 0.0000 1.4343 0.0000
# 2 6.0281 110.0315 18.4375 0.0000 -7.5899 0.0000
# 3 -13.4528 18.4375 36.8027 0.0000 0.5484 0.0000
# 4 0.0000 0.0000 0.0000 -8.2852 0.0000 -8.5426
# 5 1.4343 -7.5899 0.5484 0.0000 36.0501 0.0000
# 6 0.0000 0.0000 0.0000 -8.5426 0.0000 0.6369
#
#
#
# Elastic Compliance Matrix: (Units=1/GPa)
#
#
# Indices 1 2 3 4 5 6 
#
# 1 0.015122 -0.002003 0.006548 0.000000 -0.001123 0.000000
# 2 -0.002003 0.010358 -0.005957 0.000000 0.002351 0.000000
# 3 0.006548 -0.005957 0.032580 0.000000 -0.002010 0.000000
# 4 0.000000 0.000000 0.000000 -0.008139 0.000000 -0.109166
# 5 -0.001123 0.002351 -0.002010 0.000000 0.028309 0.000000
# 6 0.000000 0.000000 0.000000 -0.109166 0.000000 0.105876
#
#
# Mechanical properties :
#
#
# Convention : Reuss Voigt Hill
#
# Bulk Modulus (GPa) = 18.10378 26.85742 22.48060
# Shear Modulus (GPa) = 24.34960 19.59225 21.97093
#
# Velocity S-wave (km/s) = 3.53944 3.17491 3.36212
# Velocity P-wave (km/s) = 5.10076 5.22091 5.16118
#
# Compressibility (1/GPa) = 0.05523710
#
# Stress axis : x y z
#
# Youngs Moduli (GPa) = 66.12670 96.54033 30.69402
#
# Poissons Ratio (x) = 0.19339 -0.20099
# Poissons Ratio (y) = 0.13247 0.18283
# Poissons Ratio (z) = -0.43301 0.57506
#
# Static dielectric constant tensor:
#      x y z
#    x 1.743070 0.000000 -0.022370 
#    y 0.000000 1.685250 0.000000 
#    z -0.022370 0.000000 1.662440 
# 
# From -- ./inp_files/174762.got.cif
#   From: 2010.05.17/outbox.cif.g08.bks.cpg/sg12_88_cif.got.tgz:174762.got - 2010.06.03 13:09:07.
