data_PCOD9207005
_publ_section_title
;
Structure prediction by ZEFSAII (Michael W. Deem and Ramdas Pophale) SiO2 
 PCOD9207005
Probable space group: C 2/M
;
_chemical_formula_sum "Si O2"
_cell_formula_units_Z 48
_cell_length_a 14.343107
_cell_length_b 7.535329
_cell_length_c 19.235635
_cell_angle_alpha 90.000000
_cell_angle_beta 97.069843
_cell_angle_gamma 90.000000
_cell_volume 2063.181167
_symmetry_space_group_name_H-M "C 2/M"
_symmetry_group_IT_number 12
_symmetry_cell_setting 'monoclinic'
loop_
_space_group_symop_operation_xyz
x,y,z
-x,y,-z
-x,-y,-z
x,-y,z
1/2+x,1/2+y,z
1/2-x,1/2+y,-z
1/2-x,1/2-y,-z
1/2+x,1/2-y,z
loop_
_atom_site_type_symbol
_atom_site_label
_atom_site_fract_x
_atom_site_fract_y
_atom_site_fract_z
Si Si1 0.592111 0.298862 0.975946
Si Si2 0.038708 0.782288 0.335169
Si Si3 0.391117 0.291658 0.515983
Si Si4 0.752893 0.706054 0.901900
Si Si5 0.175998 0.797714 0.239454
Si Si6 0.330304 0.715974 0.365406
O O1 0.564080 0.500000 0.953179
O O2 0.667867 0.299455 0.045047
O O3 0.500000 0.210453 0.000000
O O4 0.650594 0.223687 0.916013
O O5 0.102800 0.716721 0.405886
O O6 0.081771 0.722074 0.266132
O O7 0.931633 0.735332 0.341804
O O8 0.042661 0.000000 0.336314
O O9 0.500000 0.282020 0.500000
O O10 0.368532 0.500000 0.519543
O O11 0.330664 0.220834 0.445910
O O12 0.754417 0.500000 0.923695
O O13 0.778508 0.712595 0.823832
O O14 0.250334 0.790414 0.309042
O O15 0.156789 0.000000 0.217465
O O16 0.325059 0.500000 0.365079
#
# Coordination Sequence:
#
# PCOD9207005 Si02
#       6
#     8   8   8   8   8   8
#     4   9  19  38  63  85 104 131 165 201 247 299
#     4   8  16  31  50  71  97 134 175 212 256 309
#     4   7  11  24  48  72  91 120 170 223 259 295
#     4  10  21  37  56  80 109 135 166 207 244 290
#     4  11  22  34  49  73 108 142 169 203 252 306
#     4   9  17  32  53  73  95 129 176 222 259 300
#
# _framework density 23.265044
#
# number of rings (size 3 to 8) (size 9 to 14) (size 15 to 20)
#    0.000    3.000    0.000    3.000    0.000    3.000 
#    0.000    8.333    0.000    5.500    0.000    0.000 
#    0.000    0.000    0.000    0.000    0.000    0.000 
#
# Total GULP energy -133900.663642 kJ/mol
# GULP energy per Si atom -5579.194318 kJ/mol
# Density = 2.321209 g / cm^3
# Si number density = 23.265044 Si / 1000 Ang^3
#
#
#
# Elastic Constant Matrix: (Units=GPa)
#
#
# Indices 1 2 3 4 5 6 
#
# 1 85.1358 -0.5983 25.2863 0.0000 -40.4813 0.0000
# 2 -0.5983 66.1762 2.9871 0.0000 -7.6584 0.0000
# 3 25.2863 2.9871 93.4770 0.0000 -45.0862 0.0000
# 4 0.0000 0.0000 0.0000 -21.1380 0.0000 16.7050
# 5 -40.4813 -7.6584 -45.0862 0.0000 40.7304 0.0000
# 6 0.0000 0.0000 0.0000 16.7050 0.0000 5.8165
#
#
#
# Elastic Compliance Matrix: (Units=1/GPa)
#
#
# Indices 1 2 3 4 5 6 
#
# 1 0.029091 0.004847 0.013647 0.000000 0.044931 0.000000
# 2 0.004847 0.016422 0.004241 0.000000 0.012600 0.000000
# 3 0.013647 0.004241 0.029602 0.000000 0.047129 0.000000
# 4 0.000000 0.000000 0.000000 -0.014469 0.000000 0.041554
# 5 0.044931 0.012600 0.047129 0.000000 0.123746 0.000000
# 6 0.000000 0.000000 0.000000 0.041554 0.000000 0.052582
#
#
# Mechanical properties :
#
#
# Convention : Reuss Voigt Hill
#
# Bulk Modulus (GPa) = 8.29293 33.34878 20.82085
# Shear Modulus (GPa) = 21.57981 19.55604 20.56792
#
# Velocity S-wave (km/s) = 3.04890 2.90241 2.97656
# Velocity P-wave (km/s) = 3.99583 5.05939 4.55873
#
# Compressibility (1/GPa) = 0.12058471
#
# Stress axis : x y z
#
# Youngs Moduli (GPa) = 34.37506 60.89516 33.78141
#
# Poissons Ratio (x) = -0.29514 -0.46102
# Poissons Ratio (y) = -0.16661 -0.14328
# Poissons Ratio (z) = -0.46912 -0.25827
#
# Static dielectric constant tensor:
#      x y z
#    x 1.914230 0.000000 -0.052930 
#    y 0.000000 1.901100 0.000000 
#    z -0.052930 0.000000 1.864830 
# 
# From -- ./inp_files/267685.got.cif
#   From: 2010.05.17/outbox.cif.g08.bks.cpg/sg12_134_cif.got.tgz:267685.got - 2010.06.03 13:09:07.
