data_PCOD9207761
_publ_section_title
;
Structure prediction by ZEFSAII (Michael W. Deem and Ramdas Pophale) SiO2 
 PCOD9207761
Probable space group: C 2/M
;
_chemical_formula_sum "Si O2"
_cell_formula_units_Z 60
_cell_length_a 22.333261
_cell_length_b 14.307006
_cell_length_c 10.104740
_cell_angle_alpha 90.000000
_cell_angle_beta 118.351097
_cell_angle_gamma 90.000000
_cell_volume 2841.420223
_symmetry_space_group_name_H-M "C 2/M"
_symmetry_group_IT_number 12
_symmetry_cell_setting 'monoclinic'
loop_
_space_group_symop_operation_xyz
x,y,z
-x,y,-z
-x,-y,-z
x,-y,z
1/2+x,1/2+y,z
1/2-x,1/2+y,-z
1/2-x,1/2-y,-z
1/2+x,1/2-y,z
loop_
_atom_site_type_symbol
_atom_site_label
_atom_site_fract_x
_atom_site_fract_y
_atom_site_fract_z
Si Si1 0.500000 0.346765 0.000000
Si Si2 0.212910 0.886956 0.329040
Si Si3 0.340335 0.214537 0.383579
Si Si4 0.099723 0.246344 0.304467
Si Si5 0.864733 0.894065 0.004144
Si Si6 0.800378 0.110014 0.191538
Si Si7 0.155837 0.388895 0.891188
Si Si8 0.918163 0.392378 0.927190
O O1 0.465606 0.293191 0.841189
O O2 0.563619 0.395125 0.995423
O O3 0.288066 0.846737 0.416989
O O4 0.157762 0.833479 0.359132
O O5 0.209460 0.000000 0.336625
O O6 0.188717 0.854062 0.156045
O O7 0.405195 0.226560 0.547606
O O8 0.307454 0.315095 0.314557
O O9 0.350835 0.161673 0.255952
O O10 0.116005 0.333291 0.225095
O O11 0.858953 0.859616 0.146865
O O12 0.841048 0.000000 0.996082
O O13 0.805970 0.000000 0.236916
O O14 0.730116 0.122479 0.036702
O O15 0.145790 0.500000 0.858877
O O16 0.104075 0.355705 0.951887
O O17 0.895776 0.500000 0.896000
O O18 0.000000 0.390431 0.000000
#
# Coordination Sequence:
#
# PCOD9207761 Si02
#       8
#     4   8   8   8   8   8   8   8
#     4  10  21  38  61  80 122 172 222 254 300 384
#     4  10  21  38  61  92 130 163 208 262 319 386
#     4  12  23  36  62  97 130 160 207 272 326 374
#     4  11  24  40  62  92 124 172 216 262 320 373
#     4   9  18  35  60  88 116 162 213 257 308 374
#     4  10  21  37  59  91 129 165 204 255 323 394
#     4  10  21  38  64  92 121 162 209 261 328 386
#     4  10  22  42  65  87 120 171 222 264 310 377
#
# _framework density 21.116199999999999
#
# number of rings (size 3 to 8) (size 9 to 14) (size 15 to 20)
#    0.000    1.733    2.000    2.200    3.733    2.133 
#    0.000    4.000    0.000    4.000    0.000    0.000 
#    0.000    0.000    0.000    0.000    0.000    0.000 
#
# Total GULP energy -167248.335463 kJ/mol
# GULP energy per Si atom -5574.944515 kJ/mol
# Density = 2.106814 g / cm^3
# Si number density = 21.116200 Si / 1000 Ang^3
#
#
#
# Elastic Constant Matrix: (Units=GPa)
#
#
# Indices 1 2 3 4 5 6 
#
# 1 71.7891 16.2995 22.6061 0.0000 -5.3139 0.0000
# 2 16.2995 101.5818 57.5934 0.0000 -8.5868 0.0000
# 3 22.6061 57.5934 147.6215 0.0000 -0.6900 0.0000
# 4 0.0000 0.0000 0.0000 20.9569 0.0000 18.4649
# 5 -5.3139 -8.5868 -0.6900 0.0000 13.6010 0.0000
# 6 0.0000 0.0000 0.0000 18.4649 0.0000 61.2371
#
#
#
# Elastic Compliance Matrix: (Units=1/GPa)
#
#
# Indices 1 2 3 4 5 6 
#
# 1 0.015132 -0.000878 -0.001950 0.000000 0.005259 0.000000
# 2 -0.000878 0.013560 -0.005119 0.000000 0.007958 0.000000
# 3 -0.001950 -0.005119 0.009053 0.000000 -0.003534 0.000000
# 4 0.000000 0.000000 0.000000 0.064981 0.000000 -0.019594
# 5 0.005259 0.007958 -0.003534 0.000000 0.080424 0.000000
# 6 0.000000 0.000000 0.000000 -0.019594 0.000000 0.022238
#
#
# Mechanical properties :
#
#
# Convention : Reuss Voigt Hill
#
# Bulk Modulus (GPa) = 45.76222 57.11003 51.43613
# Shear Modulus (GPa) = 21.87555 34.12523 28.00039
#
# Velocity S-wave (km/s) = 3.22213 4.02440 3.64540
# Velocity P-wave (km/s) = 5.96334 6.97844 6.49077
#
# Compressibility (1/GPa) = 0.02185208
#
# Stress axis : x y z
#
# Youngs Moduli (GPa) = 66.08335 73.74640 110.45770
#
# Poissons Ratio (x) = 0.06474 0.21542
# Poissons Ratio (y) = 0.05801 0.56540
# Poissons Ratio (z) = 0.12888 0.37749
#
# Static dielectric constant tensor:
#      x y z
#    x 1.812750 0.000000 -0.049690 
#    y 0.000000 1.817980 0.000000 
#    z -0.049690 0.000000 1.757880 
# 
# From -- ./inp_files/96935.got.cif
#   From: 2010.05.17/outbox.cif.g08.bks.cpg/sg12_49_cif.got.tgz:96935.got - 2010.06.03 13:09:07.
