data_PCOD9207519
_publ_section_title
;
Structure prediction by ZEFSAII (Michael W. Deem and Ramdas Pophale) SiO2 
 PCOD9207519
Probable space group: C 2/M
;
_chemical_formula_sum "Si O2"
_cell_formula_units_Z 64
_cell_length_a 12.692496
_cell_length_b 26.156257
_cell_length_c 10.834669
_cell_angle_alpha 90.000000
_cell_angle_beta 132.500444
_cell_angle_gamma 90.000000
_cell_volume 2651.954568
_symmetry_space_group_name_H-M "C 2/M"
_symmetry_group_IT_number 12
_symmetry_cell_setting 'monoclinic'
loop_
_space_group_symop_operation_xyz
x,y,z
-x,y,-z
-x,-y,-z
x,-y,z
1/2+x,1/2+y,z
1/2-x,1/2+y,-z
1/2-x,1/2-y,-z
1/2+x,1/2-y,z
loop_
_atom_site_type_symbol
_atom_site_label
_atom_site_fract_x
_atom_site_fract_y
_atom_site_fract_z
Si Si1 0.993640 0.846072 0.244242
Si Si2 0.439480 0.176958 0.080775
Si Si3 0.801997 0.763366 0.220539
Si Si4 0.229578 0.150509 0.115563
Si Si5 0.376015 0.558743 0.303115
Si Si6 0.092672 0.557283 0.198983
Si Si7 0.412326 0.940956 0.303056
Si Si8 0.261018 0.194738 0.567432
O O1 0.927420 0.792988 0.247975
O O2 0.933270 0.898512 0.254884
O O3 0.161822 0.842213 0.407725
O O4 0.932803 0.845793 0.058034
O O5 0.313525 0.148349 0.049944
O O6 0.573210 0.182613 0.276831
O O7 0.500000 0.155645 0.000000
O O8 0.350893 0.226700 0.967425
O O9 0.797722 0.701956 0.230376
O O10 0.800438 0.794952 0.345211
O O11 0.281345 0.098215 0.216271
O O12 0.500000 0.553104 0.500000
O O13 0.343936 0.500000 0.229496
O O14 0.239602 0.581988 0.268717
O O15 0.139471 0.500000 0.269926
O O16 0.007875 0.573134 0.255896
O O17 0.000000 0.553719 0.000000
O O18 0.500000 0.938435 0.500000
O O19 0.367549 0.000000 0.247861
O O20 0.250000 0.250000 0.500000
#
# Coordination Sequence:
#
# PCOD9207519 Si02
#       8
#     8   8   8   8   8   8   8   8
#     4  11  22  37  58  87 123 157 199 262 327 386
#     4   9  20  36  56  84 119 155 198 254 313 376
#     4  10  21  38  56  82 118 157 200 252 320 387
#     4  11  22  38  60  84 118 159 204 254 316 386
#     4  10  21  37  58  88 126 165 205 259 329 395
#     4   9  18  36  64  95 124 160 213 271 325 384
#     4  10  23  41  62  94 134 176 226 282 336 395
#     4  11  21  35  58  85 117 158 205 255 314 387
#
# _framework density 24.133144000000001
#
# number of rings (size 3 to 8) (size 9 to 14) (size 15 to 20)
#    0.000    1.875    0.000    4.875    0.000    8.000 
#    0.000    0.000    0.000    0.000    0.000    2.625 
#    0.000   30.500    0.000    0.000    0.000    0.000 
#
# Total GULP energy -178494.789533 kJ/mol
# GULP energy per Si atom -5577.962173 kJ/mol
# Density = 2.407822 g / cm^3
# Si number density = 24.133144 Si / 1000 Ang^3
#
#
#
# Elastic Constant Matrix: (Units=GPa)
#
#
# Indices 1 2 3 4 5 6 
#
# 1 77.0266 12.3057 44.1768 0.0000 -8.3753 0.0000
# 2 12.3057 149.1709 33.9141 0.0000 5.2716 0.0000
# 3 44.1768 33.9141 135.2976 0.0000 27.8835 0.0000
# 4 0.0000 0.0000 0.0000 79.6822 0.0000 24.2946
# 5 -8.3753 5.2716 27.8835 0.0000 33.8651 0.0000
# 6 0.0000 0.0000 0.0000 24.2946 0.0000 -0.1672
#
#
#
# Elastic Compliance Matrix: (Units=1/GPa)
#
#
# Indices 1 2 3 4 5 6 
#
# 1 0.019329 -0.000023 -0.008782 0.000000 0.012014 0.000000
# 2 -0.000023 0.007114 -0.001863 0.000000 0.000421 0.000000
# 3 -0.008782 -0.001863 0.013384 0.000000 -0.012902 0.000000
# 4 0.000000 0.000000 0.000000 0.000277 0.000000 0.040253
# 5 0.012014 0.000421 -0.012902 0.000000 0.043058 0.000000
# 6 0.000000 0.000000 0.000000 0.040253 0.000000 -0.132023
#
#
# Mechanical properties :
#
#
# Convention : Reuss Voigt Hill
#
# Bulk Modulus (GPa) = 54.07167 60.25427 57.16297
# Shear Modulus (GPa) = -234.05899 40.74924 -96.65487
#
# Velocity S-wave (km/s) = -9.85886 4.11362 -6.33543
# Velocity P-wave (km/s) = 10.35094 6.89812 5.45701
#
# Compressibility (1/GPa) = 0.01849397
#
# Stress axis : x y z
#
# Youngs Moduli (GPa) = 51.73593 140.56438 74.71447
#
# Poissons Ratio (x) = 0.00318 0.65611
# Poissons Ratio (y) = 0.00117 0.13916
# Poissons Ratio (z) = 0.45432 0.26181
#
# Static dielectric constant tensor:
#      x y z
#    x 1.953900 0.000000 0.029410 
#    y 0.000000 2.006120 0.000000 
#    z 0.029410 0.000000 1.901500 
# 
# From -- ./inp_files/149808.got.cif
#   From: 2010.05.17/outbox.cif.g08.bks.cpg/sg12_75_cif.got.tgz:149808.got - 2010.06.03 13:09:07.
