data_PCOD9207463
_publ_section_title
;
Structure prediction by ZEFSAII (Michael W. Deem and Ramdas Pophale) SiO2 
 PCOD9207463
Probable space group: C 2/M
;
_chemical_formula_sum "Si O2"
_cell_formula_units_Z 48
_cell_length_a 31.603624
_cell_length_b 8.758079
_cell_length_c 18.230591
_cell_angle_alpha 90.000000
_cell_angle_beta 30.010699
_cell_angle_gamma 90.000000
_cell_volume 2523.811591
_symmetry_space_group_name_H-M "C 2/M"
_symmetry_group_IT_number 12
_symmetry_cell_setting 'monoclinic'
loop_
_space_group_symop_operation_xyz
x,y,z
-x,y,-z
-x,-y,-z
x,-y,z
1/2+x,1/2+y,z
1/2-x,1/2+y,-z
1/2-x,1/2-y,-z
1/2+x,1/2-y,z
loop_
_atom_site_type_symbol
_atom_site_label
_atom_site_fract_x
_atom_site_fract_y
_atom_site_fract_z
Si Si1 0.331865 0.315820 0.336910
Si Si2 0.001484 0.682117 0.333580
Si Si3 0.163628 0.182632 0.340775
Si Si4 0.500299 0.684432 0.172307
Si Si5 0.828527 0.184367 0.171406
Si Si6 0.333035 0.682980 0.836954
O O1 0.327833 0.500000 0.344925
O O2 0.250000 0.250000 0.500000
O O3 0.417359 0.270153 0.250759
O O4 0.333816 0.269914 0.248716
O O5 0.004493 0.500000 0.330900
O O6 0.917709 0.741187 0.500072
O O7 0.999986 0.740029 0.252264
O O8 0.083687 0.749715 0.250230
O O9 0.248166 0.240562 0.253402
O O10 0.167234 0.220308 0.249058
O O11 0.156773 0.000000 0.358408
O O12 0.498735 0.500000 0.183184
O O13 0.585281 0.724145 0.000422
O O14 0.819497 0.000000 0.182180
O O15 0.333390 0.500000 0.844038
O O16 0.250000 0.750000 0.000000
#
# Coordination Sequence:
#
# PCOD9207463 Si02
#       6
#     8   8   8   8   8   8
#     4  10  21  37  58  86 118 155 198 242 291 348
#     4  12  25  40  61  89 120 155 198 245 293 349
#     4  11  24  41  61  87 119 155 196 242 293 350
#     4  10  21  39  62  86 118 158 197 242 296 350
#     4  10  21  38  61  88 118 154 197 243 292 350
#     4  11  24  42  64  90 121 156 196 242 292 349
#
# _framework density 19.018851999999999
#
# number of rings (size 3 to 8) (size 9 to 14) (size 15 to 20)
#    0.000    1.333    0.000    5.500    0.000   14.000 
#    0.000    0.000    0.000    3.000    0.000    0.000 
#    0.000    0.000    0.000    0.000    0.000    0.000 
#
# Total GULP energy -134273.400925 kJ/mol
# GULP energy per Si atom -5594.725039 kJ/mol
# Density = 1.897556 g / cm^3
# Si number density = 19.018852 Si / 1000 Ang^3
#
#
#
# Elastic Constant Matrix: (Units=GPa)
#
#
# Indices 1 2 3 4 5 6 
#
# 1 240.0030 85.5851 145.9353 -0.0005 -2.0146 0.0000
# 2 85.5851 57.1473 80.3307 -0.0021 6.8320 0.0018
# 3 145.9353 80.3307 230.2071 -0.0024 0.2791 0.0009
# 4 -0.0005 -0.0021 -0.0024 35.5722 0.0015 -2.7780
# 5 -2.0146 6.8320 0.2791 0.0015 44.9263 -0.0006
# 6 0.0000 0.0018 0.0009 -2.7780 -0.0006 33.3349
#
#
#
# Elastic Compliance Matrix: (Units=1/GPa)
#
#
# Indices 1 2 3 4 5 6 
#
# 1 0.009632 -0.011990 -0.001924 -0.000001 0.002267 0.000001
# 2 -0.011990 0.050506 -0.010013 0.000002 -0.008156 -0.000002
# 3 -0.001924 -0.010013 0.009056 0.000000 0.001380 0.000000
# 4 -0.000001 0.000002 0.000000 0.028296 -0.000001 0.002358
# 5 0.002267 -0.008156 0.001380 -0.000001 0.023592 0.000001
# 6 0.000001 -0.000002 0.000000 0.002358 0.000001 0.030195
#
#
# Mechanical properties :
#
#
# Convention : Reuss Voigt Hill
#
# Bulk Modulus (GPa) = 46.86479 127.89552 87.38015
# Shear Modulus (GPa) = 24.24294 37.13375 30.68834
#
# Velocity S-wave (km/s) = 3.57414 4.42347 4.02129
# Velocity P-wave (km/s) = 6.45967 9.66862 8.22221
#
# Compressibility (1/GPa) = 0.02133798
#
# Stress axis : x y z
#
# Youngs Moduli (GPa) = 103.82485 19.79963 110.42032
#
# Poissons Ratio (x) = 0.23740 0.21250
# Poissons Ratio (y) = 1.24490 1.10565
# Poissons Ratio (z) = 0.19981 0.19826
#
# Static dielectric constant tensor:
#      x y z
#    x 1.628760 0.000000 0.005900 
#    y 0.000000 1.642770 0.000000 
#    z 0.005900 0.000000 1.616770 
# 
# From -- ./inp_files/274099.got.cif
#   From: 2010.05.17/outbox.cif.g08.bks.cpg/sg12_138_cif.got.tgz:274099.got - 2010.06.03 13:09:07.
