data_PCOD9207474
_publ_section_title
;
Structure prediction by ZEFSAII (Michael W. Deem and Ramdas Pophale) SiO2 
 PCOD9207474
Probable space group: C 2/M
;
_chemical_formula_sum "Si O2"
_cell_formula_units_Z 56
_cell_length_a 16.593429
_cell_length_b 9.378066
_cell_length_c 23.232907
_cell_angle_alpha 90.000000
_cell_angle_beta 136.774366
_cell_angle_gamma 90.000000
_cell_volume 2476.071248
_symmetry_space_group_name_H-M "C 2/M"
_symmetry_group_IT_number 12
_symmetry_cell_setting 'monoclinic'
loop_
_space_group_symop_operation_xyz
x,y,z
-x,y,-z
-x,-y,-z
x,-y,z
1/2+x,1/2+y,z
1/2-x,1/2+y,-z
1/2-x,1/2-y,-z
1/2+x,1/2-y,z
loop_
_atom_site_type_symbol
_atom_site_label
_atom_site_fract_x
_atom_site_fract_y
_atom_site_fract_z
Si Si1 0.391805 0.330483 0.191553
Si Si2 0.111500 0.341842 0.265306
Si Si3 0.872546 0.231209 0.421390
Si Si4 0.603837 0.159452 0.695044
Si Si5 0.842234 0.355108 0.525041
Si Si6 0.664461 0.673761 0.049394
Si Si7 0.443430 0.829081 0.894732
O O1 0.378259 0.500000 0.176810
O O2 0.522279 0.275831 0.243375
O O3 0.367555 0.282421 0.244899
O O4 0.294247 0.237574 0.106717
O O5 0.059993 0.500000 0.249242
O O6 0.244380 0.341056 0.358431
O O7 0.115731 0.319997 0.198461
O O8 0.869859 0.300089 0.356911
O O9 0.872030 0.340273 0.473817
O O10 0.000000 0.156520 0.500000
O O11 0.462637 0.150578 0.622082
O O12 0.650786 0.000000 0.733917
O O13 0.777605 0.500000 0.501304
O O14 0.750000 0.250000 0.500000
O O15 0.659405 0.500000 0.045373
O O16 0.622727 0.739301 0.089822
O O17 0.570374 0.750781 0.958574
O O18 0.451486 0.000000 0.912789
#
# Coordination Sequence:
#
# PCOD9207474 Si02
#       7
#     8   8   8   8   8   8   8
#     4  12  26  42  63  92 128 169 213 263 319 379
#     4  11  25  43  63  91 127 167 212 263 320 379
#     4  10  22  40  65  95 125 163 211 263 318 379
#     4  10  21  39  62  87 119 159 205 256 310 371
#     4  10  21  37  58  86 120 158 201 251 310 371
#     4  11  22  40  67  97 131 170 213 257 311 378
#     4  10  21  40  67  98 133 169 211 263 313 369
#
# _framework density 22.616475000000001
#
# number of rings (size 3 to 8) (size 9 to 14) (size 15 to 20)
#    0.000    1.429    0.000    6.000    0.000   10.000 
#    0.000    2.857    0.000    0.000    0.000    0.000 
#    0.000    0.000    0.000    0.000    0.000    0.000 
#
# Total GULP energy -156179.770042 kJ/mol
# GULP energy per Si atom -5577.848930 kJ/mol
# Density = 2.256500 g / cm^3
# Si number density = 22.616475 Si / 1000 Ang^3
#
#
#
# Elastic Constant Matrix: (Units=GPa)
#
#
# Indices 1 2 3 4 5 6 
#
# 1 57.4369 29.3696 23.4273 0.0000 19.7781 0.0000
# 2 29.3696 191.1627 43.1398 0.0000 22.1817 0.0000
# 3 23.4273 43.1398 126.1746 0.0000 13.6019 0.0000
# 4 0.0000 0.0000 0.0000 -9.0783 0.0000 9.8759
# 5 19.7781 22.1817 13.6019 0.0000 37.3362 0.0000
# 6 0.0000 0.0000 0.0000 9.8759 0.0000 2.2491
#
#
#
# Elastic Compliance Matrix: (Units=1/GPa)
#
#
# Indices 1 2 3 4 5 6 
#
# 1 0.022835 -0.001759 -0.002547 0.000000 -0.010123 0.000000
# 2 -0.001759 0.006093 -0.001527 0.000000 -0.002132 0.000000
# 3 -0.002547 -0.001527 0.009032 0.000000 -0.001034 0.000000
# 4 0.000000 0.000000 0.000000 -0.019068 0.000000 0.083728
# 5 -0.010123 -0.002132 -0.001034 0.000000 0.033790 0.000000
# 6 0.000000 0.000000 0.000000 0.083728 0.000000 0.076966
#
#
# Mechanical properties :
#
#
# Convention : Reuss Voigt Hill
#
# Bulk Modulus (GPa) = 38.03114 62.96086 50.49600
# Shear Modulus (GPa) = 33.31588 24.69055 29.00321
#
# Velocity S-wave (km/s) = 3.84224 3.30768 3.58494
# Velocity P-wave (km/s) = 6.04449 6.51818 6.28580
#
# Compressibility (1/GPa) = 0.02629424
#
# Stress axis : x y z
#
# Youngs Moduli (GPa) = 43.79325 164.11338 110.71745
#
# Poissons Ratio (x) = 0.28863 0.28201
# Poissons Ratio (y) = 0.07702 0.16906
# Poissons Ratio (z) = 0.11155 0.25059
#
# Static dielectric constant tensor:
#      x y z
#    x 1.861630 0.000000 0.002000 
#    y 0.000000 1.824160 0.000000 
#    z 0.002000 0.000000 1.901260 
# 
# From -- ./inp_files/363141.got.cif
#   From: 2010.05.17/outbox.cif.g08.bks.cpg/sg12_182_cif.got.tgz:363141.got - 2010.06.03 13:09:07.
