data_PCOD9207590
_publ_section_title
;
Structure prediction by ZEFSAII (Michael W. Deem and Ramdas Pophale) SiO2 
 PCOD9207590
Probable space group: C 2/M
;
_chemical_formula_sum "Si O2"
_cell_formula_units_Z 56
_cell_length_a 18.842881
_cell_length_b 8.323534
_cell_length_c 18.407236
_cell_angle_alpha 90.000000
_cell_angle_beta 69.468225
_cell_angle_gamma 90.000000
_cell_volume 2703.591941
_symmetry_space_group_name_H-M "C 2/M"
_symmetry_group_IT_number 12
_symmetry_cell_setting 'monoclinic'
loop_
_space_group_symop_operation_xyz
x,y,z
-x,y,-z
-x,-y,-z
x,-y,z
1/2+x,1/2+y,z
1/2-x,1/2+y,-z
1/2-x,1/2-y,-z
1/2+x,1/2-y,z
loop_
_atom_site_type_symbol
_atom_site_label
_atom_site_fract_x
_atom_site_fract_y
_atom_site_fract_z
Si Si1 0.226413 0.687775 0.929735
Si Si2 0.427074 0.315524 0.976106
Si Si3 0.570247 0.190393 0.525780
Si Si4 0.479399 0.696128 0.798891
Si Si5 0.666124 0.303989 0.236328
Si Si6 0.209769 0.808164 0.382716
Si Si7 0.620135 0.690456 0.661030
O O1 0.241037 0.500000 0.923708
O O2 0.274716 0.756154 0.845721
O O3 0.250000 0.750000 0.000000
O O4 0.137902 0.722267 0.958545
O O5 0.400238 0.500000 0.975484
O O6 0.449230 0.250985 0.888529
O O7 0.500000 0.317919 0.000000
O O8 0.500000 0.245111 0.500000
O O9 0.649713 0.224622 0.457129
O O10 0.576936 0.276143 0.600942
O O11 0.561237 0.000000 0.540961
O O12 0.481343 0.500000 0.800626
O O13 0.417249 0.743451 0.761060
O O14 0.563130 0.748671 0.745011
O O15 0.667558 0.500000 0.236745
O O16 0.689450 0.253135 0.308236
O O17 0.297318 0.770234 0.367999
O O18 0.198527 0.000000 0.392344
O O19 0.631406 0.500000 0.664944
#
# Coordination Sequence:
#
# PCOD9207590 Si02
#       7
#     8   8   8   8   8   8   8
#     4  11  21  37  60  86 118 157 201 251 301 353
#     4  10  21  37  59  85 119 159 200 248 301 353
#     4  11  24  43  66  92 123 154 192 244 295 347
#     4   9  18  36  58  83 116 155 199 245 292 349
#     4   9  19  36  59  84 115 154 198 248 298 349
#     4  11  23  40  63  90 121 158 198 242 295 352
#     4  11  23  39  63  91 122 159 199 241 291 352
#
# _framework density 20.713186
#
# number of rings (size 3 to 8) (size 9 to 14) (size 15 to 20)
#    0.000    1.714    1.429    3.000    2.000    2.571 
#    0.000    3.571    0.000    0.000    0.000    0.000 
#    0.000    0.000    0.000    0.000    0.000    0.000 
#
# Total GULP energy -156414.824397 kJ/mol
# GULP energy per Si atom -5586.243728 kJ/mol
# Density = 2.066604 g / cm^3
# Si number density = 20.713186 Si / 1000 Ang^3
#
#
#
# Elastic Constant Matrix: (Units=GPa)
#
#
# Indices 1 2 3 4 5 6 
#
# 1 87.3143 -7.0700 3.6922 0.0000 -9.8871 0.0000
# 2 -7.0700 14.2527 -8.2914 0.0000 2.2288 0.0000
# 3 3.6922 -8.2914 72.1076 0.0000 -12.3554 0.0000
# 4 0.0000 0.0000 0.0000 18.2641 0.0000 0.1572
# 5 -9.8871 2.2288 -12.3554 0.0000 37.4419 0.0000
# 6 0.0000 0.0000 0.0000 0.1572 0.0000 7.4202
#
#
#
# Elastic Compliance Matrix: (Units=1/GPa)
#
#
# Indices 1 2 3 4 5 6 
#
# 1 0.012257 0.005938 0.000582 0.000000 0.003075 0.000000
# 2 0.005938 0.078173 0.008645 0.000000 -0.000233 0.000000
# 3 0.000582 0.008645 0.015656 0.000000 0.004805 0.000000
# 4 0.000000 0.000000 0.000000 0.054762 0.000000 -0.001160
# 5 0.003075 -0.000233 0.004805 0.000000 0.029120 0.000000
# 6 0.000000 0.000000 0.000000 -0.001160 0.000000 0.134792
#
#
# Mechanical properties :
#
#
# Convention : Reuss Voigt Hill
#
# Bulk Modulus (GPa) = 7.33049 16.70404 12.01727
# Shear Modulus (GPa) = 14.71010 24.98149 19.84580
#
# Velocity S-wave (km/s) = 2.66781 3.47661 3.09872
# Velocity P-wave (km/s) = 3.61059 4.91912 4.31475
#
# Compressibility (1/GPa) = 0.13641644
#
# Stress axis : x y z
#
# Youngs Moduli (GPa) = 81.58404 12.79208 63.87407
#
# Poissons Ratio (x) = -0.07596 -0.03718
# Poissons Ratio (y) = -0.48444 -0.55219
# Poissons Ratio (z) = -0.04749 -0.11059
#
# Static dielectric constant tensor:
#      x y z
#    x 1.655020 0.000000 0.004580 
#    y 0.000000 1.748460 0.000000 
#    z 0.004580 0.000000 1.739290 
# 
# From -- ./inp_files/275333.got.cif
#   From: 2010.05.17/outbox.cif.g08.bks.cpg/sg12_138_cif.got.tgz:275333.got - 2010.06.03 13:09:07.
