data_PCOD9207412
_publ_section_title
;
Structure prediction by ZEFSAII (Michael W. Deem and Ramdas Pophale) SiO2 
 PCOD9207412
Probable space group: C 2/M
;
_chemical_formula_sum "Si O2"
_cell_formula_units_Z 54
_cell_length_a 9.970273
_cell_length_b 24.959022
_cell_length_c 11.025904
_cell_angle_alpha 90.000000
_cell_angle_beta 110.389688
_cell_angle_gamma 90.000000
_cell_volume 2571.864912
_symmetry_space_group_name_H-M "C 2/M"
_symmetry_group_IT_number 12
_symmetry_cell_setting 'monoclinic'
loop_
_space_group_symop_operation_xyz
x,y,z
-x,y,-z
-x,-y,-z
x,-y,z
1/2+x,1/2+y,z
1/2-x,1/2+y,-z
1/2-x,1/2-y,-z
1/2+x,1/2-y,z
loop_
_atom_site_type_symbol
_atom_site_label
_atom_site_fract_x
_atom_site_fract_y
_atom_site_fract_z
Si Si1 0.059352 0.287450 0.786020
Si Si2 0.999782 0.605467 0.357584
Si Si3 0.878736 0.788026 0.861268
Si Si4 0.519903 0.563049 0.372877
Si Si5 0.811793 0.089106 0.799546
Si Si6 0.194432 0.562681 0.211770
Si Si7 0.500000 0.500000 0.000000
Si Si8 0.000000 0.638513 0.000000
O O1 0.020742 0.330428 0.669634
O O2 0.220064 0.264541 0.830824
O O3 0.946931 0.239479 0.764527
O O4 0.046834 0.324507 0.902866
O O5 0.857945 0.580246 0.250971
O O6 0.000000 0.592989 0.500000
O O7 0.133321 0.583450 0.321978
O O8 0.848893 0.850962 0.850764
O O9 0.000000 0.778544 0.000000
O O10 0.500000 0.586523 0.500000
O O11 0.554846 0.500000 0.397270
O O12 0.639276 0.586952 0.325132
O O13 0.365497 0.566806 0.260603
O O14 0.900904 0.046415 0.902841
O O15 0.157626 0.500000 0.185003
O O16 0.124617 0.600002 0.088144
#
# Coordination Sequence:
#
# PCOD9207412 Si02
#       8
#     8   8   8   8   8   8   2   4
#     4  10  23  39  62  91 121 161 203 261 313 371
#     4  10  23  44  64  89 127 169 214 254 306 374
#     4  11  22  38  62  93 124 161 209 251 321 384
#     4  10  21  38  58  84 118 161 205 247 300 360
#     4  11  24  40  65  94 125 167 207 259 312 377
#     4  10  22  36  57  89 119 162 202 254 302 362
#     4  12  24  42  60  98 130 160 204 268 314 356
#     4  10  21  37  58  84 127 155 198 252 314 360
#
# _framework density 20.996435999999999
#
# number of rings (size 3 to 8) (size 9 to 14) (size 15 to 20)
#    0.000    1.630    2.222    1.556    3.111    2.667 
#    0.000    3.704    0.000    0.000    0.000    0.000 
#    0.000    0.000    0.000    0.000    0.000    0.000 
#
# Total GULP energy -150546.659851 kJ/mol
# GULP energy per Si atom -5575.802217 kJ/mol
# Density = 2.094865 g / cm^3
# Si number density = 20.996436 Si / 1000 Ang^3
#
#
#
# Elastic Constant Matrix: (Units=GPa)
#
#
# Indices 1 2 3 4 5 6 
#
# 1 86.1234 10.6663 -22.5903 0.0000 5.2204 0.0000
# 2 10.6663 62.5386 8.5254 0.0000 14.9174 0.0000
# 3 -22.5903 8.5254 36.7480 0.0000 3.2629 0.0000
# 4 0.0000 0.0000 0.0000 8.4546 0.0000 -4.6216
# 5 5.2204 14.9174 3.2629 0.0000 16.1768 0.0000
# 6 0.0000 0.0000 0.0000 -4.6216 0.0000 68.5951
#
#
#
# Elastic Compliance Matrix: (Units=1/GPa)
#
#
# Indices 1 2 3 4 5 6 
#
# 1 0.014908 -0.002944 0.010216 0.000000 -0.004157 0.000000
# 2 -0.002944 0.021441 -0.005206 0.000000 -0.017772 0.000000
# 3 0.010216 -0.005206 0.035197 0.000000 -0.005596 0.000000
# 4 0.000000 0.000000 0.000000 0.122801 0.000000 0.008274
# 5 -0.004157 -0.017772 -0.005596 0.000000 0.080675 0.000000
# 6 0.000000 0.000000 0.000000 0.008274 0.000000 0.015136
#
#
# Mechanical properties :
#
#
# Convention : Reuss Voigt Hill
#
# Bulk Modulus (GPa) = 13.21372 19.84586 16.52979
# Shear Modulus (GPa) = 16.06422 31.23257 23.64840
#
# Velocity S-wave (km/s) = 2.76903 3.86102 3.35969
# Velocity P-wave (km/s) = 4.06575 5.41749 4.78955
#
# Compressibility (1/GPa) = 0.07567892
#
# Stress axis : x y z
#
# Youngs Moduli (GPa) = 67.08028 46.63967 28.41138
#
# Poissons Ratio (x) = 0.13729 -0.29026
# Poissons Ratio (y) = 0.19746 0.14791
# Poissons Ratio (z) = -0.68530 0.24280
#
# Static dielectric constant tensor:
#      x y z
#    x 1.756190 0.000000 -0.029980 
#    y 0.000000 1.731340 0.000000 
#    z -0.029980 0.000000 1.780960 
# 
# From -- ./inp_files/124383.got.cif
#   From: 2010.05.17/outbox.cif.g08.bks.cpg/sg12_63_cif.got.tgz:124383.got - 2010.06.03 13:09:07.
