data_PCOD9207580
_publ_section_title
;
Structure prediction by ZEFSAII (Michael W. Deem and Ramdas Pophale) SiO2 
 PCOD9207580
Probable space group: C 2/M
;
_chemical_formula_sum "Si O2"
_cell_formula_units_Z 64
_cell_length_a 19.009036
_cell_length_b 8.935024
_cell_length_c 30.909563
_cell_angle_alpha 90.000000
_cell_angle_beta 141.656391
_cell_angle_gamma 90.000000
_cell_volume 3256.895192
_symmetry_space_group_name_H-M "C 2/M"
_symmetry_group_IT_number 12
_symmetry_cell_setting 'monoclinic'
loop_
_space_group_symop_operation_xyz
x,y,z
-x,y,-z
-x,-y,-z
x,-y,z
1/2+x,1/2+y,z
1/2-x,1/2+y,-z
1/2-x,1/2-y,-z
1/2+x,1/2-y,z
loop_
_atom_site_type_symbol
_atom_site_label
_atom_site_fract_x
_atom_site_fract_y
_atom_site_fract_z
Si Si1 0.374726 0.681046 0.566009
Si Si2 0.446369 0.822248 0.928521
Si Si3 0.038525 0.319608 0.302558
Si Si4 0.041514 0.182215 0.567454
Si Si5 0.700126 0.319996 0.838820
Si Si6 0.457440 0.329930 0.845793
Si Si7 0.698354 0.180017 0.298236
Si Si8 0.207928 0.169927 0.937156
O O1 0.368792 0.500000 0.564234
O O2 0.250000 0.750000 0.500000
O O3 0.424143 0.743725 0.634707
O O4 0.456600 0.724941 0.565272
O O5 0.310745 0.797996 0.863111
O O6 0.490777 0.740593 0.907708
O O7 0.467421 0.000000 0.935416
O O8 0.500000 0.772822 0.000000
O O9 0.040548 0.500000 0.307465
O O10 0.125407 0.277003 0.305621
O O11 0.912644 0.263012 0.230222
O O12 0.171330 0.231443 0.636864
O O13 0.000000 0.231512 0.500000
O O14 0.042237 0.000000 0.567374
O O15 0.678393 0.500000 0.830797
O O16 0.737839 0.266720 0.904852
O O17 0.419927 0.500000 0.834190
O O18 0.363700 0.239935 0.774260
O O19 0.571659 0.330379 0.872672
O O20 0.698275 0.000000 0.296810
O O21 0.250466 0.000000 0.959385
O O22 0.250000 0.250000 0.000000
#
# Coordination Sequence:
#
# PCOD9207580 Si02
#       8
#     8   8   8   8   8   8   8   8
#     4  11  23  40  65  94 126 161 199 247 298 355
#     4  10  22  40  62  84 113 158 207 251 299 368
#     4  11  23  39  62  91 123 159 202 252 301 357
#     4   9  19  38  64  91 119 155 201 244 282 339
#     4  10  21  39  60  84 118 159 203 249 301 361
#     4  11  23  38  58  87 122 156 193 253 315 357
#     4  10  21  39  63  88 117 161 208 245 290 357
#     4  10  21  37  59  85 115 153 199 250 305 360
#
# _framework density 19.650617
#
# number of rings (size 3 to 8) (size 9 to 14) (size 15 to 20)
#    0.000    1.750    1.250    2.625    1.750    5.750 
#    0.000    0.625    0.000    2.625    0.000    0.000 
#    0.000    0.000    0.000    0.000    0.000    0.000 
#
# Total GULP energy -178719.053659 kJ/mol
# GULP energy per Si atom -5584.970427 kJ/mol
# Density = 1.960589 g / cm^3
# Si number density = 19.650617 Si / 1000 Ang^3
#
#
#
# Elastic Constant Matrix: (Units=GPa)
#
#
# Indices 1 2 3 4 5 6 
#
# 1 111.6785 28.3373 38.8682 0.0000 0.2549 0.0000
# 2 28.3373 32.8849 25.1133 0.0001 -0.6084 -0.0001
# 3 38.8682 25.1133 119.8144 0.0000 -1.0071 0.0000
# 4 0.0000 0.0001 0.0000 28.6838 0.0000 -4.4451
# 5 0.2549 -0.6084 -1.0071 0.0000 40.2030 0.0000
# 6 0.0000 -0.0001 0.0000 -4.4451 0.0000 26.1178
#
#
#
# Elastic Compliance Matrix: (Units=1/GPa)
#
#
# Indices 1 2 3 4 5 6 
#
# 1 0.011864 -0.008676 -0.002032 0.000000 -0.000257 0.000000
# 2 -0.008676 0.042554 -0.006100 0.000000 0.000546 0.000000
# 3 -0.002032 -0.006100 0.010286 0.000000 0.000178 0.000000
# 4 0.000000 0.000000 0.000000 0.035807 0.000000 0.006094
# 5 -0.000257 0.000546 0.000178 0.000000 0.024888 0.000000
# 6 0.000000 0.000000 0.000000 0.006094 0.000000 0.039325
#
#
# Mechanical properties :
#
#
# Convention : Reuss Voigt Hill
#
# Bulk Modulus (GPa) = 32.16846 49.89062 41.02954
# Shear Modulus (GPa) = 23.95755 30.47152 27.21454
#
# Velocity S-wave (km/s) = 3.49546 3.94212 3.72549
# Velocity P-wave (km/s) = 5.71810 6.79444 6.27937
#
# Compressibility (1/GPa) = 0.03108635
#
# Stress axis : x y z
#
# Youngs Moduli (GPa) = 84.29183 23.49965 97.22270
#
# Poissons Ratio (x) = 0.20388 0.19758
# Poissons Ratio (y) = 0.73129 0.59309
# Poissons Ratio (z) = 0.17131 0.14336
#
# Static dielectric constant tensor:
#      x y z
#    x 1.685630 0.000000 0.014120 
#    y 0.000000 1.610880 0.000000 
#    z 0.014120 0.000000 1.673700 
# 
# From -- ./inp_files/378336.got.cif
#   From: 2010.05.17/outbox.cif.g08.bks.cpg/sg12_190_cif.got.tgz:378336.got - 2010.06.03 13:09:07.
