data_PCOD9207261
_publ_section_title
;
Structure prediction by ZEFSAII (Michael W. Deem and Ramdas Pophale) SiO2 
 PCOD9207261
Probable space group: C 2/M
;
_chemical_formula_sum "Si O2"
_cell_formula_units_Z 48
_cell_length_a 14.328290
_cell_length_b 16.094036
_cell_length_c 26.858328
_cell_angle_alpha 90.000000
_cell_angle_beta 160.420107
_cell_angle_gamma 90.000000
_cell_volume 2075.581938
_symmetry_space_group_name_H-M "C 2/M"
_symmetry_group_IT_number 12
_symmetry_cell_setting 'monoclinic'
loop_
_space_group_symop_operation_xyz
x,y,z
-x,y,-z
-x,-y,-z
x,-y,z
1/2+x,1/2+y,z
1/2-x,1/2+y,-z
1/2-x,1/2-y,-z
1/2+x,1/2-y,z
loop_
_atom_site_type_symbol
_atom_site_label
_atom_site_fract_x
_atom_site_fract_y
_atom_site_fract_z
Si Si1 0.208962 0.404793 0.538736
Si Si2 0.435662 0.588925 0.909228
Si Si3 0.578829 0.681723 0.650649
Si Si4 0.560304 0.812831 0.332480
Si Si5 0.904498 0.100659 0.748479
Si Si6 0.128759 0.272064 0.874853
O O1 0.143308 0.500000 0.511406
O O2 0.426451 0.392566 0.603766
O O3 0.350131 0.382996 0.662406
O O4 0.892208 0.370725 0.376064
O O5 0.518748 0.500000 0.927592
O O6 0.596550 0.673580 0.975966
O O7 0.500000 0.582200 0.000000
O O8 0.106735 0.603277 0.738820
O O9 0.527738 0.750141 0.667838
O O10 0.892345 0.687083 0.790617
O O11 0.389758 0.687527 0.505936
O O12 0.457864 0.789288 0.226167
O O13 0.125137 0.171134 0.876821
O O14 0.961818 0.000000 0.783391
#
# Coordination Sequence:
#
# PCOD9207261 Si02
#       6
#     8   8   8   8   8   8
#     4   9  18  32  52  84 124 158 192 242 305 371
#     4   9  21  42  62  81 116 171 214 244 298 372
#     4  11  21  33  59  94 121 151 203 258 317 350
#     4  10  21  37  57  85 121 159 201 253 302 371
#     4   9  17  32  56  84 119 160 199 239 297 368
#     4  11  21  36  63  90 122 161 207 257 306 355
#
# _framework density 23.126044
#
# number of rings (size 3 to 8) (size 9 to 14) (size 15 to 20)
#    0.000    2.167    1.667    3.500    2.333    2.000 
#    0.000    0.833    0.000   10.500    0.000    0.000 
#    0.000    0.000    0.000    0.000    0.000    0.000 
#
# Total GULP energy -133657.731642 kJ/mol
# GULP energy per Si atom -5569.072152 kJ/mol
# Density = 2.307341 g / cm^3
# Si number density = 23.126044 Si / 1000 Ang^3
#
#
#
# Elastic Constant Matrix: (Units=GPa)
#
#
# Indices 1 2 3 4 5 6 
#
# 1 110.8219 3.0687 5.4962 0.0026 -16.0877 0.0003
# 2 3.0687 129.9642 46.0783 0.0042 11.4881 0.0000
# 3 5.4962 46.0783 60.2304 0.0102 7.8936 0.0097
# 4 0.0026 0.0042 0.0102 19.6664 -0.0007 16.7968
# 5 -16.0877 11.4881 7.8936 -0.0007 37.3479 -0.0015
# 6 0.0003 0.0000 0.0097 16.7968 -0.0015 13.6664
#
#
#
# Elastic Compliance Matrix: (Units=1/GPa)
#
#
# Indices 1 2 3 4 5 6 
#
# 1 0.009754 -0.000144 -0.001374 0.000029 0.004536 -0.000035
# 2 -0.000144 0.010652 -0.007918 0.000057 -0.001665 -0.000064
# 3 -0.001374 -0.007918 0.023187 -0.000081 -0.003057 0.000083
# 4 0.000029 0.000057 -0.000081 -1.022715 0.000044 1.256973
# 5 0.004536 -0.001665 -0.003057 0.000044 0.029888 -0.000049
# 6 -0.000035 -0.000064 0.000083 1.256973 -0.000049 -1.471716
#
#
# Mechanical properties :
#
#
# Convention : Reuss Voigt Hill
#
# Bulk Modulus (GPa) = 40.45295 45.58922 43.02108
# Shear Modulus (GPa) = -2.08870 30.56104 14.23617
#
# Velocity S-wave (km/s) = -0.95139 3.63919 2.48380
# Velocity P-wave (km/s) = 4.04023 6.11673 5.18353
#
# Compressibility (1/GPa) = 0.02472008
#
# Stress axis : x y z
#
# Youngs Moduli (GPa) = 102.52014 93.87630 43.12848
#
# Poissons Ratio (x) = 0.01352 0.05928
# Poissons Ratio (y) = 0.01476 0.34149
# Poissons Ratio (z) = 0.14091 0.74331
#
# Static dielectric constant tensor:
#      x y z
#    x 1.905410 0.000000 0.005440 
#    y 0.000000 1.937610 -0.000010 
#    z 0.005440 -0.000010 1.876190 
# 
# From -- ./inp_files/376632.got.cif
#   From: 2010.05.17/outbox.cif.g08.bks.cpg/sg12_189_cif.got.tgz:376632.got - 2010.06.03 13:09:07.
