data_PCOD9207032
_publ_section_title
;
Structure prediction by ZEFSAII (Michael W. Deem and Ramdas Pophale) SiO2 
 PCOD9207032
Probable space group: C 2/M
;
_chemical_formula_sum "Si O2"
_cell_formula_units_Z 64
_cell_length_a 5.347776
_cell_length_b 26.659775
_cell_length_c 23.361213
_cell_angle_alpha 90.000000
_cell_angle_beta 103.103199
_cell_angle_gamma 90.000000
_cell_volume 3243.901618
_symmetry_space_group_name_H-M "C 2/M"
_symmetry_group_IT_number 12
_symmetry_cell_setting 'monoclinic'
loop_
_space_group_symop_operation_xyz
x,y,z
-x,y,-z
-x,-y,-z
x,-y,z
1/2+x,1/2+y,z
1/2-x,1/2+y,-z
1/2-x,1/2-y,-z
1/2+x,1/2-y,z
loop_
_atom_site_type_symbol
_atom_site_label
_atom_site_fract_x
_atom_site_fract_y
_atom_site_fract_z
Si Si1 0.907979 0.781992 0.206742
Si Si2 0.070383 0.779516 0.345810
Si Si3 0.287316 0.559774 0.037341
Si Si4 0.096353 0.105336 0.834043
Si Si5 0.037670 0.439633 0.775116
Si Si6 0.925557 0.440536 0.637833
Si Si7 0.746583 0.948367 0.551411
Si Si8 0.945548 0.144295 0.438903
O O1 0.637784 0.752511 0.194114
O O2 0.980100 0.792748 0.277030
O O3 0.894450 0.834955 0.174385
O O4 0.869007 0.736352 0.356299
O O5 0.020483 0.822961 0.388332
O O6 0.302387 0.500000 0.050594
O O7 0.345490 0.589434 0.098102
O O8 0.500000 0.570745 0.000000
O O9 0.000000 0.570136 0.000000
O O10 0.314928 0.080754 0.805031
O O11 0.813493 0.084745 0.803181
O O12 0.057238 0.500000 0.781642
O O13 0.962552 0.427344 0.705667
O O14 0.840305 0.500000 0.632218
O O15 0.770593 0.395978 0.596602
O O16 0.188089 0.443269 0.615343
O O17 0.500000 0.954481 0.500000
O O18 0.840965 0.896128 0.535835
O O19 0.896805 0.000000 0.550634
O O20 0.000000 0.177293 0.500000
#
# Coordination Sequence:
#
# PCOD9207032 Si02
#       8
#     8   8   8   8   8   8   8   8
#     4  10  22  42  65  91 120 160 214 270 325 376
#     4  10  25  44  64  87 115 150 200 264 322 379
#     4  10  21  38  63  96 137 181 216 245 286 353
#     4  12  23  41  68  96 131 173 217 262 309 366
#     4  11  24  38  59  95 133 167 206 260 320 379
#     4  10  23  38  55  84 121 158 197 248 313 384
#     4  10  21  37  56  81 115 154 200 247 300 376
#     4  12  24  37  61  82 111 153 205 254 316 383
#
# _framework density 19.729330000000001
#
# number of rings (size 3 to 8) (size 9 to 14) (size 15 to 20)
#    0.000    1.375    1.250    3.750    5.250    3.000 
#    0.000    0.000    0.000    2.250    0.000    0.000 
#    0.000    0.000    0.000    0.000    0.000    0.000 
#
# Total GULP energy -178229.846890 kJ/mol
# GULP energy per Si atom -5569.682715 kJ/mol
# Density = 1.968442 g / cm^3
# Si number density = 19.729330 Si / 1000 Ang^3
#
#
#
# Elastic Constant Matrix: (Units=GPa)
#
#
# Indices 1 2 3 4 5 6 
#
# 1 122.3383 39.1354 66.4761 0.0000 -7.8392 0.0000
# 2 39.1354 88.7802 67.6986 0.0000 -7.3336 0.0000
# 3 66.4761 67.6986 138.1617 0.0000 -14.4851 0.0000
# 4 0.0000 0.0000 0.0000 34.8581 0.0000 -8.9580
# 5 -7.8392 -7.3336 -14.4851 0.0000 27.6331 0.0000
# 6 0.0000 0.0000 0.0000 -8.9580 0.0000 16.5837
#
#
#
# Elastic Compliance Matrix: (Units=1/GPa)
#
#
# Indices 1 2 3 4 5 6 
#
# 1 0.011167 -0.001316 -0.004690 0.000000 0.000360 0.000000
# 2 -0.001316 0.018139 -0.008242 0.000000 0.000120 0.000000
# 3 -0.004690 -0.008242 0.013930 0.000000 0.003784 0.000000
# 4 0.000000 0.000000 0.000000 0.033312 0.000000 0.017994
# 5 0.000360 0.000120 0.003784 0.000000 0.038306 0.000000
# 6 0.000000 0.000000 0.000000 0.017994 0.000000 0.070020
#
#
# Mechanical properties :
#
#
# Convention : Reuss Voigt Hill
#
# Bulk Modulus (GPa) = 67.84954 77.32227 72.58591
# Shear Modulus (GPa) = 22.90606 27.54632 25.22619
#
# Velocity S-wave (km/s) = 3.41106 3.74065 3.57965
# Velocity P-wave (km/s) = 7.06956 7.61139 7.34547
#
# Compressibility (1/GPa) = 0.01473849
#
# Stress axis : x y z
#
# Youngs Moduli (GPa) = 89.55191 55.13043 71.78843
#
# Poissons Ratio (x) = 0.07257 0.33670
# Poissons Ratio (y) = 0.11787 0.59168
# Poissons Ratio (z) = 0.42001 0.45439
#
# Static dielectric constant tensor:
#      x y z
#    x 1.743500 0.000000 -0.074440 
#    y 0.000000 1.692080 0.000000 
#    z -0.074440 0.000000 1.805780 
# 
# From -- ./inp_files/331448.got.cif
#   From: 2010.05.17/outbox.cif.g08.bks.cpg/sg12_166_cif.got.tgz:331448.got - 2010.06.03 13:09:07.
