data_PCOD9207975
_publ_section_title
;
Structure prediction by ZEFSAII (Michael W. Deem and Ramdas Pophale) SiO2 
 PCOD9207975
Probable space group: C 2/M
;
_chemical_formula_sum "Si O2"
_cell_formula_units_Z 48
_cell_length_a 17.933720
_cell_length_b 14.067110
_cell_length_c 13.715379
_cell_angle_alpha 90.000000
_cell_angle_beta 139.107672
_cell_angle_gamma 90.000000
_cell_volume 2265.089426
_symmetry_space_group_name_H-M "C 2/M"
_symmetry_group_IT_number 12
_symmetry_cell_setting 'monoclinic'
loop_
_space_group_symop_operation_xyz
x,y,z
-x,y,-z
-x,-y,-z
x,-y,z
1/2+x,1/2+y,z
1/2-x,1/2+y,-z
1/2-x,1/2-y,-z
1/2+x,1/2-y,z
loop_
_atom_site_type_symbol
_atom_site_label
_atom_site_fract_x
_atom_site_fract_y
_atom_site_fract_z
Si Si1 0.827163 0.394104 0.356575
Si Si2 0.616390 0.303267 0.064146
Si Si3 0.974480 0.193969 0.227342
Si Si4 0.920735 0.610307 0.669025
Si Si5 0.686001 0.612036 0.534275
Si Si6 0.661898 0.298639 0.718587
O O1 0.856348 0.500000 0.352253
O O2 0.692477 0.373376 0.206504
O O3 0.864578 0.383668 0.505353
O O4 0.879921 0.309397 0.345027
O O5 0.582021 0.345579 0.925904
O O6 0.500000 0.274678 0.000000
O O7 0.703661 0.216851 0.131610
O O8 0.902432 0.165210 0.250932
O O9 0.984300 0.308695 0.228198
O O10 0.102862 0.160861 0.374631
O O11 0.956153 0.500000 0.718106
O O12 0.817745 0.633901 0.641842
O O13 0.672708 0.500000 0.511692
O O14 0.649863 0.645142 0.606256
#
# Coordination Sequence:
#
# PCOD9207975 Si02
#       6
#     8   8   8   8   8   8
#     4   9  20  37  58  85 115 148 192 238 293 342
#     4  10  21  37  61  83 114 154 192 239 290 343
#     4  12  21  37  62  87 121 150 195 240 296 345
#     4  10  21  38  63  89 115 152 198 243 286 342
#     4  11  23  39  61  88 117 155 200 239 284 344
#     4  10  23  38  56  86 119 158 187 239 294 346
#
# _framework density 21.191216000000001
#
# number of rings (size 3 to 8) (size 9 to 14) (size 15 to 20)
#    1.000    0.667    1.667    3.500    0.000    3.000 
#    0.000    2.500    0.000    3.000    0.000    0.000 
#    0.000    0.000    0.000    0.000    0.000    0.000 
#
# Total GULP energy -133929.077263 kJ/mol
# GULP energy per Si atom -5580.378219 kJ/mol
# Density = 2.114298 g / cm^3
# Si number density = 21.191216 Si / 1000 Ang^3
#
#
#
# Elastic Constant Matrix: (Units=GPa)
#
#
# Indices 1 2 3 4 5 6 
#
# 1 67.5896 0.7110 8.2415 0.0000 -6.9514 0.0000
# 2 0.7110 47.9226 0.1360 0.0000 -0.0001 0.0000
# 3 8.2415 0.1360 78.6563 0.0000 -3.0940 0.0000
# 4 0.0000 0.0000 0.0000 3.7633 0.0000 -1.4797
# 5 -6.9514 -0.0001 -3.0940 0.0000 24.8428 0.0000
# 6 0.0000 0.0000 0.0000 -1.4797 0.0000 -6.5732
#
#
#
# Elastic Compliance Matrix: (Units=1/GPa)
#
#
# Indices 1 2 3 4 5 6 
#
# 1 0.015399 -0.000224 -0.001451 0.000000 0.004128 0.000000
# 2 -0.000224 0.020870 -0.000015 0.000000 -0.000065 0.000000
# 3 -0.001451 -0.000015 0.012913 0.000000 0.001202 0.000000
# 4 0.000000 0.000000 0.000000 0.244119 0.000000 -0.054954
# 5 0.004128 -0.000065 0.001202 0.000000 0.041558 0.000000
# 6 0.000000 0.000000 0.000000 -0.054954 0.000000 -0.139763
#
#
# Mechanical properties :
#
#
# Convention : Reuss Voigt Hill
#
# Bulk Modulus (GPa) = 21.83317 23.59396 22.71356
# Shear Modulus (GPa) = 23.39246 16.74525 20.06886
#
# Velocity S-wave (km/s) = 3.32607 2.81410 3.08073
# Velocity P-wave (km/s) = 5.00755 4.66013 4.83696
#
# Compressibility (1/GPa) = 0.04580186
#
# Stress axis : x y z
#
# Youngs Moduli (GPa) = 64.93929 47.91489 77.44218
#
# Poissons Ratio (x) = 0.01075 0.11235
# Poissons Ratio (y) = 0.01457 0.00117
# Poissons Ratio (z) = 0.09421 0.00072
#
# Static dielectric constant tensor:
#      x y z
#    x 1.773850 0.000000 0.012210 
#    y 0.000000 1.770510 0.000000 
#    z 0.012210 0.000000 1.772890 
# 
# From -- ./inp_files/225438.got.cif
#   From: 2010.05.17/outbox.cif.g08.bks.cpg/sg12_113_cif.got.tgz:225438.got - 2010.06.03 13:09:07.
