data_PCOD9207117
_publ_section_title
;
Structure prediction by ZEFSAII (Michael W. Deem and Ramdas Pophale) SiO2 
 PCOD9207117
Probable space group: C 2/M
;
_chemical_formula_sum "Si O2"
_cell_formula_units_Z 40
_cell_length_a 30.005256
_cell_length_b 13.678166
_cell_length_c 5.041839
_cell_angle_alpha 90.000000
_cell_angle_beta 101.263073
_cell_angle_gamma 90.000000
_cell_volume 2029.403462
_symmetry_space_group_name_H-M "C 2/M"
_symmetry_group_IT_number 12
_symmetry_cell_setting 'monoclinic'
loop_
_space_group_symop_operation_xyz
x,y,z
-x,y,-z
-x,-y,-z
x,-y,z
1/2+x,1/2+y,z
1/2-x,1/2+y,-z
1/2-x,1/2-y,-z
1/2+x,1/2-y,z
loop_
_atom_site_type_symbol
_atom_site_label
_atom_site_fract_x
_atom_site_fract_y
_atom_site_fract_z
Si Si1 0.449387 0.113503 0.327059
Si Si2 0.908389 0.711325 0.772798
Si Si3 0.468148 0.388457 0.705441
Si Si4 0.740158 0.115696 0.717541
Si Si5 0.305424 0.206477 0.845374
O O1 0.500000 0.127915 0.500000
O O2 0.415917 0.142538 0.527141
O O3 0.444053 0.000000 0.250580
O O4 0.439502 0.175203 0.053098
O O5 0.926406 0.816712 0.701848
O O6 0.857254 0.711090 0.816604
O O7 0.500000 0.356091 0.500000
O O8 0.453554 0.500000 0.635716
O O9 0.500000 0.387858 0.000000
O O10 0.722727 0.145143 0.406003
O O11 0.783528 0.184941 0.829065
O O12 0.748113 0.000000 0.748962
O O13 0.702641 0.152937 0.884950
#
# Coordination Sequence:
#
# PCOD9207117 Si02
#       5
#     8   8   8   8   8
#     4  11  24  39  56  82 117 157 194 229 279 335
#     4  12  22  37  60  85 116 147 189 243 281 324
#     4  10  21  37  57  81 110 148 189 227 277 332
#     4  10  21  41  61  80 117 152 179 231 291 340
#     4  10  23  37  58  91 111 143 196 229 278 352
#
# _framework density 19.710225999999999
#
# number of rings (size 3 to 8) (size 9 to 14) (size 15 to 20)
#    0.000    1.400    0.000    6.000    0.000    7.200 
#    0.000    0.000    0.000    9.600    0.000    0.000 
#    0.000    0.000    0.000    0.000    0.000    0.000 
#
# Total GULP energy -111845.694651 kJ/mol
# GULP energy per Si atom -5592.284733 kJ/mol
# Density = 1.966536 g / cm^3
# Si number density = 19.710226 Si / 1000 Ang^3
#
#
#
# Elastic Constant Matrix: (Units=GPa)
#
#
# Indices 1 2 3 4 5 6 
#
# 1 85.2517 40.9654 -2.6273 0.0000 -20.3024 0.0000
# 2 40.9654 152.3172 11.1834 0.0000 -7.7366 0.0000
# 3 -2.6273 11.1834 73.4291 0.0000 -22.4575 0.0000
# 4 0.0000 0.0000 0.0000 11.5141 0.0000 -15.3039
# 5 -20.3024 -7.7366 -22.4575 0.0000 29.3354 0.0000
# 6 0.0000 0.0000 0.0000 -15.3039 0.0000 4.2504
#
#
#
# Elastic Compliance Matrix: (Units=1/GPa)
#
#
# Indices 1 2 3 4 5 6 
#
# 1 0.017846 -0.004445 0.006182 0.000000 0.015910 0.000000
# 2 -0.004445 0.007784 -0.002164 0.000000 -0.002681 0.000000
# 3 0.006182 -0.002164 0.019982 0.000000 0.019004 0.000000
# 4 0.000000 0.000000 0.000000 -0.022942 0.000000 -0.082603
# 5 0.015910 -0.002681 0.019004 0.000000 0.058941 0.000000
# 6 0.000000 0.000000 0.000000 -0.082603 0.000000 -0.062148
#
#
# Mechanical properties :
#
#
# Convention : Reuss Voigt Hill
#
# Bulk Modulus (GPa) = 22.34407 45.56013 33.95210
# Shear Modulus (GPa) = 141.89814 26.45175 84.17495
#
# Velocity S-wave (km/s) = 8.49402 3.66735 6.54209
# Velocity P-wave (km/s) = 10.37106 6.41075 8.62138
#
# Compressibility (1/GPa) = 0.04475460
#
# Stress axis : x y z
#
# Youngs Moduli (GPa) = 56.03645 128.47616 50.04608
#
# Poissons Ratio (x) = 0.57111 -0.30936
# Poissons Ratio (y) = 0.24910 0.10832
# Poissons Ratio (z) = -0.34639 0.27807
#
# Static dielectric constant tensor:
#      x y z
#    x 1.653950 0.000000 -0.011470 
#    y 0.000000 1.693890 0.000000 
#    z -0.011470 0.000000 1.669040 
# 
# From -- ./inp_files/30652.got.cif
#   From: 2010.05.17/outbox.cif.g08.bks.cpg/sg12_16_cif.got.tgz:30652.got - 2010.06.03 13:09:07.
