data_PCOD9207565
_publ_section_title
;
Structure prediction by ZEFSAII (Michael W. Deem and Ramdas Pophale) SiO2 
 PCOD9207565
Probable space group: C 2/M
;
_chemical_formula_sum "Si O2"
_cell_formula_units_Z 32
_cell_length_a 14.490541
_cell_length_b 20.152316
_cell_length_c 7.658338
_cell_angle_alpha 90.000000
_cell_angle_beta 36.494370
_cell_angle_gamma 90.000000
_cell_volume 1330.068519
_symmetry_space_group_name_H-M "C 2/M"
_symmetry_group_IT_number 12
_symmetry_cell_setting 'monoclinic'
loop_
_space_group_symop_operation_xyz
x,y,z
-x,y,-z
-x,-y,-z
x,-y,z
1/2+x,1/2+y,z
1/2-x,1/2+y,-z
1/2-x,1/2-y,-z
1/2+x,1/2-y,z
loop_
_atom_site_type_symbol
_atom_site_label
_atom_site_fract_x
_atom_site_fract_y
_atom_site_fract_z
Si Si1 0.518570 0.577005 0.260702
Si Si2 0.033880 0.691820 0.148857
Si Si3 0.357364 0.072842 0.580992
Si Si4 0.831605 0.200778 0.520769
O O1 0.500000 0.583589 0.500000
O O2 0.480635 0.500000 0.276212
O O3 0.402389 0.630600 0.351530
O O4 0.695081 0.588283 0.924686
O O5 0.925018 0.629705 0.356069
O O6 0.978605 0.753815 0.344169
O O7 0.218251 0.684957 0.855049
O O8 0.000000 0.706454 0.000000
O O9 0.500000 0.068663 0.500000
O O10 0.341203 0.000000 0.522010
O O11 0.750000 0.250000 0.500000
#
# Coordination Sequence:
#
# PCOD9207565 Si02
#       4
#     8   8   8   8
#     4  10  21  39  65  96 129 166 212 267 325 385
#     4  10  21  37  59  84 121 166 210 261 311 377
#     4  10  21  38  61  92 128 164 209 265 324 386
#     4  10  21  38  60  88 124 165 210 261 315 379
#
# _framework density 24.058910999999998
#
# number of rings (size 3 to 8) (size 9 to 14) (size 15 to 20)
#    0.000    2.000    0.000    3.000    0.000    6.500 
#    0.000    8.750    0.000   18.750    0.000    0.000 
#    0.000    0.000    0.000    0.000    0.000    0.000 
#
# Total GULP energy -89161.504399 kJ/mol
# GULP energy per Si atom -5572.594025 kJ/mol
# Density = 2.400415 g / cm^3
# Si number density = 24.058911 Si / 1000 Ang^3
#
#
#
# Elastic Constant Matrix: (Units=GPa)
#
#
# Indices 1 2 3 4 5 6 
#
# 1 62.4088 28.5184 21.5671 0.0000 -0.3122 0.0000
# 2 28.5184 169.4691 139.0603 0.0000 -19.6355 0.0000
# 3 21.5671 139.0603 264.1804 0.0000 -15.3136 0.0000
# 4 0.0000 0.0000 0.0000 58.8943 0.0000 -5.1309
# 5 -0.3122 -19.6355 -15.3136 0.0000 27.2702 0.0000
# 6 0.0000 0.0000 0.0000 -5.1309 0.0000 26.4213
#
#
#
# Elastic Compliance Matrix: (Units=1/GPa)
#
#
# Indices 1 2 3 4 5 6 
#
# 1 0.017474 -0.003368 0.000225 0.000000 -0.002099 0.000000
# 2 -0.003368 0.011615 -0.005537 0.000000 0.005216 0.000000
# 3 0.000225 -0.005537 0.006667 0.000000 -0.000240 0.000000
# 4 0.000000 0.000000 0.000000 0.017272 0.000000 0.003354
# 5 -0.002099 0.005216 -0.000240 0.000000 0.040267 0.000000
# 6 0.000000 0.000000 0.000000 0.003354 0.000000 0.038500
#
#
# Mechanical properties :
#
#
# Convention : Reuss Voigt Hill
#
# Bulk Modulus (GPa) = 54.35794 97.14999 75.75396
# Shear Modulus (GPa) = 32.19833 42.97800 37.58817
#
# Velocity S-wave (km/s) = 3.66226 4.23113 3.95693
# Velocity P-wave (km/s) = 6.36597 8.02107 7.24097
#
# Compressibility (1/GPa) = 0.01839658
#
# Stress axis : x y z
#
# Youngs Moduli (GPa) = 57.22675 86.09477 149.98186
#
# Poissons Ratio (x) = 0.28998 -0.03370
# Poissons Ratio (y) = 0.19275 0.83041
# Poissons Ratio (z) = -0.01286 0.47668
#
# Static dielectric constant tensor:
#      x y z
#    x 2.146760 0.000000 -0.198140 
#    y 0.000000 1.912280 0.000000 
#    z -0.198140 0.000000 2.141190 
# 
# From -- ./inp_files/177272.got.cif
#   From: 2010.05.17/outbox.cif.g08.bks.cpg/sg12_89_cif.got.tgz:177272.got - 2010.06.03 13:09:07.
