data_PCOD9207518
_publ_section_title
;
Structure prediction by ZEFSAII (Michael W. Deem and Ramdas Pophale) SiO2 
 PCOD9207518
Probable space group: C 2/M
;
_chemical_formula_sum "Si O2"
_cell_formula_units_Z 38
_cell_length_a 8.507524
_cell_length_b 31.453933
_cell_length_c 10.285691
_cell_angle_alpha 90.000000
_cell_angle_beta 136.531707
_cell_angle_gamma 90.000000
_cell_volume 1893.522267
_symmetry_space_group_name_H-M "C 2/M"
_symmetry_group_IT_number 12
_symmetry_cell_setting 'monoclinic'
loop_
_space_group_symop_operation_xyz
x,y,z
-x,y,-z
-x,-y,-z
x,-y,z
1/2+x,1/2+y,z
1/2-x,1/2+y,-z
1/2-x,1/2-y,-z
1/2+x,1/2-y,z
loop_
_atom_site_type_symbol
_atom_site_label
_atom_site_fract_x
_atom_site_fract_y
_atom_site_fract_z
Si Si1 0.500000 0.348452 0.000000
Si Si2 0.235365 0.901492 0.720835
Si Si3 0.750859 0.304235 0.713797
Si Si4 0.120103 0.717879 0.713346
Si Si5 0.000000 0.000000 0.000000
Si Si6 0.270489 0.077024 0.030097
O O1 0.314997 0.317594 0.824536
O O2 0.363400 0.380054 0.011789
O O3 0.284473 0.851869 0.784269
O O4 0.460856 0.916734 0.780525
O O5 0.000000 0.905041 0.500000
O O6 0.230272 0.927355 0.851688
O O7 0.500000 0.306521 0.500000
O O8 0.729469 0.264739 0.799584
O O9 0.937450 0.292812 0.715829
O O10 0.000000 0.718298 0.500000
O O11 0.169618 0.962579 0.044919
#
# Coordination Sequence:
#
# PCOD9207518 Si02
#       6
#     4   8   8   8   2   8
#     4  11  24  35  60  92 118 162 220 255 308 367
#     4  10  22  41  68  94 127 165 210 251 306 367
#     4  10  21  37  58  88 125 174 214 256 308 345
#     4  11  23  37  56  85 129 174 217 262 302 347
#     4  10  24  50  70  92 136 156 184 264 326 376
#     4  10  23  44  66  94 123 160 201 254 321 383
#
# _framework density 20.068421000000001
#
# number of rings (size 3 to 8) (size 9 to 14) (size 15 to 20)
#    0.000    1.684    2.105    2.526    8.842    4.211 
#    0.000    6.316    0.000    0.000    0.000    0.000 
#    0.000    0.000    0.000    0.000    0.000    0.000 
#
# Total GULP energy -105832.193084 kJ/mol
# GULP energy per Si atom -5570.115425 kJ/mol
# Density = 2.002274 g / cm^3
# Si number density = 20.068421 Si / 1000 Ang^3
#
#
#
# Elastic Constant Matrix: (Units=GPa)
#
#
# Indices 1 2 3 4 5 6 
#
# 1 104.8756 38.7894 50.5536 0.0000 42.4967 0.0000
# 2 38.7894 137.1005 39.7239 0.0000 30.8567 0.0000
# 3 50.5536 39.7239 109.0058 0.0000 33.1117 0.0000
# 4 0.0000 0.0000 0.0000 2.8150 0.0000 3.2926
# 5 42.4967 30.8567 33.1117 0.0000 28.5781 0.0000
# 6 0.0000 0.0000 0.0000 3.2926 0.0000 -2.7744
#
#
#
# Elastic Compliance Matrix: (Units=1/GPa)
#
#
# Indices 1 2 3 4 5 6 
#
# 1 0.024295 0.001682 -0.000547 0.000000 -0.037310 0.000000
# 2 0.001682 0.009773 -0.000581 0.000000 -0.012380 0.000000
# 3 -0.000547 -0.000581 0.014199 0.000000 -0.015011 0.000000
# 4 0.000000 0.000000 0.000000 0.148753 0.000000 0.176534
# 5 -0.037310 -0.012380 -0.015011 0.000000 0.121233 0.000000
# 6 0.000000 0.000000 0.000000 0.176534 0.000000 -0.150929
#
#
# Mechanical properties :
#
#
# Convention : Reuss Voigt Hill
#
# Bulk Modulus (GPa) = 20.25305 67.67951 43.96628
# Shear Modulus (GPa) = 27.37120 20.51808 23.94464
#
# Velocity S-wave (km/s) = 3.69710 3.20098 3.45795
# Velocity P-wave (km/s) = 5.32341 6.88907 6.15621
#
# Compressibility (1/GPa) = 0.04937529
#
# Stress axis : x y z
#
# Youngs Moduli (GPa) = 41.16057 102.32613 70.42808
#
# Poissons Ratio (x) = -0.17211 0.03852
# Poissons Ratio (y) = -0.06923 0.04091
# Poissons Ratio (z) = 0.02251 0.05943
#
# Static dielectric constant tensor:
#      x y z
#    x 1.720630 0.000000 0.002420 
#    y 0.000000 1.689990 0.000000 
#    z 0.002420 0.000000 1.754490 
# 
# From -- ./inp_files/125521.got.cif
#   From: 2010.05.17/outbox.cif.g08.bks.cpg/sg12_63_cif.got.tgz:125521.got - 2010.06.03 13:09:07.
