data_PCOD9207286
_publ_section_title
;
Structure prediction by ZEFSAII (Michael W. Deem and Ramdas Pophale) SiO2 
 PCOD9207286
Probable space group: C 2/M
;
_chemical_formula_sum "Si O2"
_cell_formula_units_Z 56
_cell_length_a 11.205767
_cell_length_b 28.760775
_cell_length_c 14.496824
_cell_angle_alpha 90.000000
_cell_angle_beta 32.658522
_cell_angle_gamma 90.000000
_cell_volume 2521.226819
_symmetry_space_group_name_H-M "C 2/M"
_symmetry_group_IT_number 12
_symmetry_cell_setting 'monoclinic'
loop_
_space_group_symop_operation_xyz
x,y,z
-x,y,-z
-x,-y,-z
x,-y,z
1/2+x,1/2+y,z
1/2-x,1/2+y,-z
1/2-x,1/2-y,-z
1/2+x,1/2-y,z
loop_
_atom_site_type_symbol
_atom_site_label
_atom_site_fract_x
_atom_site_fract_y
_atom_site_fract_z
Si Si1 0.857124 0.321041 0.391953
Si Si2 0.805823 0.850421 0.198043
Si Si3 0.776027 0.443899 0.090770
Si Si4 0.257333 0.948443 0.702948
Si Si5 0.912642 0.552442 0.805164
Si Si6 0.103323 0.910676 0.529620
Si Si7 0.254509 0.263048 0.356223
O O1 0.672297 0.357063 0.480384
O O2 0.759672 0.293159 0.541623
O O3 0.895888 0.282840 0.286711
O O4 0.074967 0.346777 0.290287
O O5 0.807231 0.893981 0.268768
O O6 0.828965 0.800306 0.231879
O O7 0.000000 0.857006 0.000000
O O8 0.753012 0.500000 0.112511
O O9 0.564898 0.422919 0.279983
O O10 0.807972 0.425405 0.965006
O O11 0.000000 0.431537 0.000000
O O12 0.500000 0.951193 0.500000
O O13 0.268576 0.947750 0.807023
O O14 0.151921 0.000000 0.747574
O O15 0.937790 0.500000 0.820948
O O16 0.157863 0.566178 0.615807
O O17 0.000000 0.926161 0.500000
O O18 0.000000 0.249165 0.500000
#
# Coordination Sequence:
#
# PCOD9207286 Si02
#       7
#     8   8   8   8   8   8   8
#     4  10  21  40  62  91 121 160 216 269 322 399
#     4  11  23  39  66  96 129 169 210 270 340 396
#     4  10  21  37  57  87 130 176 222 270 326 398
#     4  10  21  41  65  92 127 171 225 275 321 393
#     4  10  21  38  59  89 129 171 217 273 331 392
#     4  12  22  35  63  92 126 173 222 268 335 396
#     4   9  20  41  67  86 118 161 211 263 329 398
#
# _framework density 22.211409
#
# number of rings (size 3 to 8) (size 9 to 14) (size 15 to 20)
#    0.000    1.714    2.857    2.143    0.000    2.571 
#    0.000    0.000    3.143    0.000    0.000    0.000 
#    0.000    0.000    0.000    0.000    0.000    0.000 
#
# Total GULP energy -156221.251640 kJ/mol
# GULP energy per Si atom -5579.330416 kJ/mol
# Density = 2.216086 g / cm^3
# Si number density = 22.211409 Si / 1000 Ang^3
#
#
#
# Elastic Constant Matrix: (Units=GPa)
#
#
# Indices 1 2 3 4 5 6 
#
# 1 66.7026 13.4352 22.9255 0.0000 4.6636 0.0000
# 2 13.4352 99.8732 33.2363 0.0000 -8.9153 0.0000
# 3 22.9255 33.2363 135.2958 0.0000 8.9280 -0.0001
# 4 0.0000 0.0000 0.0000 5.5883 0.0000 -1.5869
# 5 4.6636 -8.9153 8.9280 0.0000 28.4449 0.0000
# 6 0.0000 0.0000 -0.0001 -1.5869 0.0000 29.5690
#
#
#
# Elastic Compliance Matrix: (Units=1/GPa)
#
#
# Indices 1 2 3 4 5 6 
#
# 1 0.016255 -0.001687 -0.002174 0.000000 -0.002511 0.000000
# 2 -0.001687 0.011633 -0.002890 0.000000 0.004830 0.000000
# 3 -0.002174 -0.002890 0.008686 0.000000 -0.003276 0.000000
# 4 0.000000 0.000000 0.000000 0.181714 0.000000 0.009752
# 5 -0.002511 0.004830 -0.003276 0.000000 0.038109 0.000000
# 6 0.000000 0.000000 0.000000 0.009752 0.000000 0.034343
#
#
# Mechanical properties :
#
#
# Convention : Reuss Voigt Hill
#
# Bulk Modulus (GPa) = 43.34733 49.00729 46.17731
# Shear Modulus (GPa) = 16.02910 28.20540 22.11725
#
# Velocity S-wave (km/s) = 2.68929 3.56738 3.15899
# Velocity P-wave (km/s) = 5.40381 6.25141 5.84300
#
# Compressibility (1/GPa) = 0.02306947
#
# Stress axis : x y z
#
# Youngs Moduli (GPa) = 61.52106 85.96441 115.13015
#
# Poissons Ratio (x) = 0.14505 0.25030
# Poissons Ratio (y) = 0.10380 0.33278
# Poissons Ratio (z) = 0.13375 0.24848
#
# Static dielectric constant tensor:
#      x y z
#    x 1.922640 0.000000 -0.016120 
#    y 0.000000 1.902940 0.000000 
#    z -0.016120 0.000000 1.769730 
# 
# From -- ./inp_files/209972.got.cif
#   From: 2010.05.17/outbox.cif.g08.bks.cpg/sg12_105_cif.got.tgz:209972.got - 2010.06.03 13:09:07.
