data_PCOD9207158
_publ_section_title
;
Structure prediction by ZEFSAII (Michael W. Deem and Ramdas Pophale) SiO2 
 PCOD9207158
Probable space group: C 2/M
;
_chemical_formula_sum "Si O2"
_cell_formula_units_Z 40
_cell_length_a 5.147765
_cell_length_b 32.005078
_cell_length_c 11.107740
_cell_angle_alpha 90.000000
_cell_angle_beta 73.887595
_cell_angle_gamma 90.000000
_cell_volume 1758.165400
_symmetry_space_group_name_H-M "C 2/M"
_symmetry_group_IT_number 12
_symmetry_cell_setting 'monoclinic'
loop_
_space_group_symop_operation_xyz
x,y,z
-x,y,-z
-x,-y,-z
x,-y,z
1/2+x,1/2+y,z
1/2-x,1/2+y,-z
1/2-x,1/2-y,-z
1/2+x,1/2-y,z
loop_
_atom_site_type_symbol
_atom_site_label
_atom_site_fract_x
_atom_site_fract_y
_atom_site_fract_z
Si Si1 0.023228 0.222791 0.864103
Si Si2 0.050955 0.546430 0.635363
Si Si3 0.199048 0.046228 0.084416
Si Si4 0.022404 0.906558 0.691694
Si Si5 0.187881 0.184117 0.585269
O O1 0.225871 0.261118 0.867294
O O2 0.145196 0.203136 0.725016
O O3 0.000000 0.200476 0.000000
O O4 0.016859 0.500000 0.688626
O O5 0.805540 0.575747 0.705458
O O6 0.000000 0.544923 0.500000
O O7 0.344242 0.564155 0.627167
O O8 0.167888 0.087649 0.168581
O O9 0.135617 0.000000 0.150269
O O10 0.500000 0.044143 0.000000
O O11 0.000000 0.049530 0.000000
O O12 0.084790 0.863196 0.621142
O O13 0.500000 0.185032 0.500000
O O14 0.000000 0.202048 0.500000
#
# Coordination Sequence:
#
# PCOD9207158 Si02
#       5
#     8   8   8   8   8
#     4  10  23  46  75 105 137 174 218 267 322 394
#     4  11  22  36  57  82 112 159 215 265 316 377
#     4  10  21  37  57  82 113 157 219 281 330 382
#     4  12  23  39  59  85 126 167 211 269 335 391
#     4  12  26  43  67 101 140 179 218 269 330 397
#
# _framework density 22.750989000000001
#
# number of rings (size 3 to 8) (size 9 to 14) (size 15 to 20)
#    0.000    1.000    0.000    7.800    0.000    6.400 
#    0.000    3.000    0.000    0.000    0.000    0.000 
#    0.000    0.000    0.000    0.000    0.000    0.000 
#
# Total GULP energy -111503.006968 kJ/mol
# GULP energy per Si atom -5575.150348 kJ/mol
# Density = 2.269921 g / cm^3
# Si number density = 22.750989 Si / 1000 Ang^3
#
#
#
# Elastic Constant Matrix: (Units=GPa)
#
#
# Indices 1 2 3 4 5 6 
#
# 1 135.4483 12.0133 52.1733 0.0000 5.1768 0.0000
# 2 12.0133 38.4577 35.0134 0.0000 2.3204 0.0000
# 3 52.1733 35.0134 171.4395 0.0000 9.1166 0.0000
# 4 0.0000 0.0000 0.0000 379.4376 0.0000 136.0668
# 5 5.1768 2.3204 9.1166 0.0000 50.9191 0.0000
# 6 0.0000 0.0000 0.0000 136.0668 0.0000 73.3605
#
#
#
# Elastic Compliance Matrix: (Units=1/GPa)
#
#
# Indices 1 2 3 4 5 6 
#
# 1 0.008375 -0.000357 -0.002455 0.000000 -0.000396 0.000000
# 2 -0.000357 0.031961 -0.006404 0.000000 -0.000274 0.000000
# 3 -0.002455 -0.006404 0.007935 0.000000 -0.000879 0.000000
# 4 0.000000 0.000000 0.000000 0.007870 0.000000 -0.014597
# 5 -0.000396 -0.000274 -0.000879 0.000000 0.019849 0.000000
# 6 0.000000 0.000000 0.000000 -0.014597 0.000000 0.040705
#
#
# Mechanical properties :
#
#
# Convention : Reuss Voigt Hill
#
# Bulk Modulus (GPa) = 33.51370 60.41617 46.96493
# Shear Modulus (GPa) = 34.46496 117.15315 75.80905
#
# Velocity S-wave (km/s) = 3.89636 7.18369 5.77872
# Velocity P-wave (km/s) = 5.91649 9.76833 8.07543
#
# Compressibility (1/GPa) = 0.02983854
#
# Stress axis : x y z
#
# Youngs Moduli (GPa) = 119.39922 31.28772 126.02862
#
# Poissons Ratio (x) = 0.01118 0.30937
# Poissons Ratio (y) = 0.04268 0.80711
# Poissons Ratio (z) = 0.29310 0.20037
#
# Static dielectric constant tensor:
#      x y z
#    x 1.815930 0.000000 0.016400 
#    y 0.000000 1.948570 0.000000 
#    z 0.016400 0.000000 2.018600 
# 
# From -- ./inp_files/116019.got.cif
#   From: 2010.05.17/outbox.cif.g08.bks.cpg/sg12_59_cif.got.tgz:116019.got - 2010.06.03 13:09:07.
