data_PCOD9207861
_publ_section_title
;
Structure prediction by ZEFSAII (Michael W. Deem and Ramdas Pophale) SiO2 
 PCOD9207861
Probable space group: C 2/M
;
_chemical_formula_sum "Si O2"
_cell_formula_units_Z 44
_cell_length_a 5.666369
_cell_length_b 26.990075
_cell_length_c 14.400713
_cell_angle_alpha 90.000000
_cell_angle_beta 121.130069
_cell_angle_gamma 90.000000
_cell_volume 1885.231198
_symmetry_space_group_name_H-M "C 2/M"
_symmetry_group_IT_number 12
_symmetry_cell_setting 'monoclinic'
loop_
_space_group_symop_operation_xyz
x,y,z
-x,y,-z
-x,-y,-z
x,-y,z
1/2+x,1/2+y,z
1/2-x,1/2+y,-z
1/2-x,1/2-y,-z
1/2+x,1/2-y,z
loop_
_atom_site_type_symbol
_atom_site_label
_atom_site_fract_x
_atom_site_fract_y
_atom_site_fract_z
Si Si1 0.286365 0.870253 0.083831
Si Si2 0.188872 0.555819 0.402106
Si Si3 0.750451 0.945069 0.191616
Si Si4 0.269218 0.373363 0.715888
Si Si5 0.000000 0.288032 0.000000
Si Si6 0.574069 0.273076 0.749594
O O1 0.532082 0.906482 0.110104
O O2 0.305008 0.855575 0.195427
O O3 0.309720 0.822559 0.025140
O O4 0.000000 0.895448 0.000000
O O5 0.500000 0.562554 0.500000
O O6 0.095278 0.500000 0.413169
O O7 0.202903 0.554382 0.293056
O O8 0.997234 0.602931 0.387970
O O9 0.047215 0.922363 0.233575
O O10 0.721089 0.000000 0.148857
O O11 0.462489 0.329768 0.714506
O O12 0.226466 0.267294 0.118883
O O13 0.286094 0.243697 0.711266
#
# Coordination Sequence:
#
# PCOD9207861 Si02
#       6
#     8   8   8   8   4   8
#     4  11  20  36  58  82 124 169 206 256 309 374
#     4   9  20  39  66  98 124 153 200 258 322 387
#     4  10  21  37  60  88 122 164 204 249 314 385
#     4  11  22  38  61  86 129 160 205 262 320 376
#     4  12  22  40  59  88 120 168 217 274 318 362
#     4  12  26  40  64  94 125 170 222 272 322 375
#
# _framework density 23.339312
#
# number of rings (size 3 to 8) (size 9 to 14) (size 15 to 20)
#    0.000    1.273    3.636    2.182    2.545    1.818 
#    0.000    5.909    0.000    1.091    0.000    0.000 
#    0.000    0.000    0.000    0.000    0.000    0.000 
#
# Total GULP energy -122866.749797 kJ/mol
# GULP energy per Si atom -5584.852263 kJ/mol
# Density = 2.328619 g / cm^3
# Si number density = 23.339312 Si / 1000 Ang^3
#
#
#
# Elastic Constant Matrix: (Units=GPa)
#
#
# Indices 1 2 3 4 5 6 
#
# 1 87.5035 9.8436 12.3549 0.0000 14.7010 0.0000
# 2 9.8436 51.5295 10.4003 0.0000 20.1525 0.0000
# 3 12.3549 10.4003 65.8361 0.0000 20.1077 0.0000
# 4 0.0000 0.0000 0.0000 29.3574 0.0000 15.4687
# 5 14.7010 20.1525 20.1077 0.0000 39.7716 0.0000
# 6 0.0000 0.0000 0.0000 15.4687 0.0000 27.2563
#
#
#
# Elastic Compliance Matrix: (Units=1/GPa)
#
#
# Indices 1 2 3 4 5 6 
#
# 1 0.012270 -0.000706 -0.001082 0.000000 -0.003631 0.000000
# 2 -0.000706 0.024243 -0.000030 0.000000 -0.012008 0.000000
# 3 -0.001082 -0.000030 0.018059 0.000000 -0.008715 0.000000
# 4 0.000000 0.000000 0.000000 0.048595 0.000000 -0.027579
# 5 -0.003631 -0.012008 -0.008715 0.000000 0.036977 0.000000
# 6 0.000000 0.000000 0.000000 -0.027579 0.000000 0.052341
#
#
# Mechanical properties :
#
#
# Convention : Reuss Voigt Hill
#
# Bulk Modulus (GPa) = 19.63195 30.00740 24.81968
# Shear Modulus (GPa) = 23.46332 30.76174 27.11253
#
# Velocity S-wave (km/s) = 3.17411 3.63440 3.41202
# Velocity P-wave (km/s) = 4.67580 5.52238 5.11663
#
# Compressibility (1/GPa) = 0.05093736
#
# Stress axis : x y z
#
# Youngs Moduli (GPa) = 81.49762 41.24824 55.37472
#
# Poissons Ratio (x) = 0.02910 0.05993
# Poissons Ratio (y) = 0.05750 0.00165
# Poissons Ratio (z) = 0.08820 0.00123
#
# Static dielectric constant tensor:
#      x y z
#    x 1.941410 0.000000 0.000240 
#    y 0.000000 1.900630 0.000000 
#    z 0.000240 0.000000 1.864250 
# 
# From -- ./inp_files/191864.got.cif
#   From: 2010.05.17/outbox.cif.g08.bks.cpg/sg12_96_cif.got.tgz:191864.got - 2010.06.03 13:09:07.
