data_PCOD9207230
_publ_section_title
;
Structure prediction by ZEFSAII (Michael W. Deem and Ramdas Pophale) SiO2 
 PCOD9207230
Probable space group: C 2/M
;
_chemical_formula_sum "Si O2"
_cell_formula_units_Z 56
_cell_length_a 14.656060
_cell_length_b 25.767192
_cell_length_c 9.256185
_cell_angle_alpha 90.000000
_cell_angle_beta 55.663315
_cell_angle_gamma 90.000000
_cell_volume 2886.411620
_symmetry_space_group_name_H-M "C 2/M"
_symmetry_group_IT_number 12
_symmetry_cell_setting 'monoclinic'
loop_
_space_group_symop_operation_xyz
x,y,z
-x,y,-z
-x,-y,-z
x,-y,z
1/2+x,1/2+y,z
1/2-x,1/2+y,-z
1/2-x,1/2-y,-z
1/2+x,1/2-y,z
loop_
_atom_site_type_symbol
_atom_site_label
_atom_site_fract_x
_atom_site_fract_y
_atom_site_fract_z
Si Si1 0.697888 0.439020 0.009102
Si Si2 0.551151 0.057955 0.114674
Si Si3 0.977051 0.656654 0.350945
Si Si4 0.869832 0.246164 0.814505
Si Si5 0.777324 0.285401 0.607881
Si Si6 0.621583 0.629871 0.822329
Si Si7 0.980836 0.134649 0.687897
O O1 0.670990 0.500000 0.015998
O O2 0.816712 0.435400 0.981410
O O3 0.692348 0.410230 0.856723
O O4 0.609085 0.408213 0.184738
O O5 0.500339 0.104164 0.250024
O O6 0.525174 0.000000 0.192739
O O7 0.500000 0.061191 0.000000
O O8 0.050742 0.704477 0.222507
O O9 0.000000 0.651133 0.500000
O O10 0.849448 0.670416 0.467602
O O11 0.845831 0.253605 0.665124
O O12 0.932074 0.191343 0.778401
O O13 0.750000 0.250000 0.000000
O O14 0.750000 0.250000 0.500000
O O15 0.678799 0.314134 0.777900
O O16 0.591894 0.621856 0.680124
O O17 0.500000 0.629629 0.000000
O O18 0.000000 0.134992 0.500000
#
# Coordination Sequence:
#
# PCOD9207230 Si02
#       7
#     8   8   8   8   8   8   8
#     4  10  22  42  64  84 113 156 203 248 297 361
#     4  10  22  41  63  88 118 152 196 249 302 360
#     4  10  21  37  57  84 118 153 194 239 293 355
#     4  11  21  36  57  82 118 159 198 239 292 359
#     4  11  22  35  55  86 122 154 192 243 295 352
#     4  10  21  39  61  84 116 159 205 241 288 358
#     4  11  22  37  59  89 124 155 194 251 307 352
#
# _framework density 19.401253000000001
#
# number of rings (size 3 to 8) (size 9 to 14) (size 15 to 20)
#    0.000    1.571    0.000    7.286    0.000    6.571 
#    0.000    2.857    0.000    0.000    0.000    0.000 
#    0.000    0.000    0.000    0.000    0.000    0.000 
#
# Total GULP energy -156137.185813 kJ/mol
# GULP energy per Si atom -5576.328065 kJ/mol
# Density = 1.935709 g / cm^3
# Si number density = 19.401253 Si / 1000 Ang^3
#
#
#
# Elastic Constant Matrix: (Units=GPa)
#
#
# Indices 1 2 3 4 5 6 
#
# 1 106.0327 50.2002 25.2388 0.0000 15.8239 0.0000
# 2 50.2002 131.7359 46.2324 0.0000 16.8861 0.0000
# 3 25.2388 46.2324 72.6458 0.0000 12.7625 0.0000
# 4 0.0000 0.0000 0.0000 22.4274 0.0000 14.3554
# 5 15.8239 16.8861 12.7625 0.0000 20.0558 0.0000
# 6 0.0000 0.0000 0.0000 14.3554 0.0000 -0.4930
#
#
#
# Elastic Compliance Matrix: (Units=1/GPa)
#
#
# Indices 1 2 3 4 5 6 
#
# 1 0.012244 -0.003565 -0.000918 0.000000 -0.006075 0.000000
# 2 -0.003565 0.011242 -0.005345 0.000000 -0.003251 0.000000
# 3 -0.000918 -0.005345 0.018653 0.000000 -0.006646 0.000000
# 4 0.000000 0.000000 0.000000 0.002270 0.000000 0.066113
# 5 -0.006075 -0.003251 -0.006646 0.000000 0.061620 0.000000
# 6 0.000000 0.000000 0.000000 0.066113 0.000000 -0.103288
#
#
# Mechanical properties :
#
#
# Convention : Reuss Voigt Hill
#
# Bulk Modulus (GPa) = 44.47583 61.52858 53.00220
# Shear Modulus (GPa) = 167.27283 20.98091 94.12687
#
# Velocity S-wave (km/s) = 9.29541 3.29206 6.97289
# Velocity P-wave (km/s) = 11.75501 6.79947 9.60242
#
# Compressibility (1/GPa) = 0.02248412
#
# Stress axis : x y z
#
# Youngs Moduli (GPa) = 81.67339 88.95284 53.60992
#
# Poissons Ratio (x) = 0.31711 0.04920
# Poissons Ratio (y) = 0.29116 0.28653
# Poissons Ratio (z) = 0.07496 0.47543
#
# Static dielectric constant tensor:
#      x y z
#    x 1.714500 0.000000 -0.012280 
#    y 0.000000 1.632130 0.000000 
#    z -0.012280 0.000000 1.695630 
# 
# From -- ./inp_files/65733.got.cif
#   From: 2010.05.17/outbox.cif.g08.bks.cpg/sg12_33_cif.got.tgz:65733.got - 2010.06.03 13:09:07.
