data_PCOD9207045
_publ_section_title
;
Structure prediction by ZEFSAII (Michael W. Deem and Ramdas Pophale) SiO2 
 PCOD9207045
Probable space group: C 2/M
;
_chemical_formula_sum "Si O2"
_cell_formula_units_Z 48
_cell_length_a 22.157363
_cell_length_b 7.485537
_cell_length_c 18.773705
_cell_angle_alpha 90.000000
_cell_angle_beta 38.612056
_cell_angle_gamma 90.000000
_cell_volume 1943.149677
_symmetry_space_group_name_H-M "C 2/M"
_symmetry_group_IT_number 12
_symmetry_cell_setting 'monoclinic'
loop_
_space_group_symop_operation_xyz
x,y,z
-x,y,-z
-x,-y,-z
x,-y,z
1/2+x,1/2+y,z
1/2-x,1/2+y,-z
1/2-x,1/2-y,-z
1/2+x,1/2-y,z
loop_
_atom_site_type_symbol
_atom_site_label
_atom_site_fract_x
_atom_site_fract_y
_atom_site_fract_z
Si Si1 0.651340 0.209462 0.660410
Si Si2 0.437435 0.714265 0.710996
Si Si3 0.273699 0.714882 0.152726
Si Si4 0.860383 0.799344 0.489307
Si Si5 0.857668 0.786478 0.930569
Si Si6 0.418587 0.284811 0.130323
O O1 0.754112 0.282304 0.596035
O O2 0.630489 0.304003 0.605586
O O3 0.575082 0.226725 0.794025
O O4 0.664333 0.000000 0.631997
O O5 0.448832 0.500000 0.705379
O O6 0.337453 0.742778 0.761332
O O7 0.536664 0.783829 0.584444
O O8 0.422762 0.785247 0.805623
O O9 0.280312 0.500000 0.145229
O O10 0.318351 0.775528 0.185949
O O11 0.344151 0.780196 0.023643
O O12 0.855477 0.000000 0.523704
O O13 0.875506 0.000000 0.918155
O O14 0.750000 0.750000 0.000000
O O15 0.422544 0.500000 0.128837
O O16 0.500000 0.225203 0.000000
#
# Coordination Sequence:
#
# PCOD9207045 Si02
#       6
#     8   8   8   8   8   8
#     4  10  21  37  56  82 111 140 179 230 274 312
#     4   9  17  30  53  79 103 137 176 216 266 318
#     4   9  18  32  49  75 107 137 176 221 264 314
#     4   9  19  36  59  82 108 142 181 221 269 328
#     4   8  14  25  43  68  98 128 162 206 251 299
#     4  10  22  38  58  78 105 149 188 218 265 329
#
# _framework density 24.702165000000001
#
# number of rings (size 3 to 8) (size 9 to 14) (size 15 to 20)
#    0.000    2.833    0.000    0.500    2.333    2.333 
#    0.000    0.833    0.000    5.000    0.000    0.000 
#    0.000    0.000    0.000    0.000    0.000    0.000 
#
# Total GULP energy -133899.906941 kJ/mol
# GULP energy per Si atom -5579.162789 kJ/mol
# Density = 2.464594 g / cm^3
# Si number density = 24.702165 Si / 1000 Ang^3
#
#
#
# Elastic Constant Matrix: (Units=GPa)
#
#
# Indices 1 2 3 4 5 6 
#
# 1 77.6110 -6.5947 7.7502 0.0065 -0.3210 -0.0049
# 2 -6.5947 86.4172 -5.4336 0.0113 -0.8914 -0.0082
# 3 7.7502 -5.4336 83.9548 0.0096 -15.0489 -0.0098
# 4 0.0065 0.0113 0.0096 10.1611 -0.0065 0.2939
# 5 -0.3210 -0.8914 -15.0489 -0.0065 42.3934 0.0082
# 6 -0.0049 -0.0082 -0.0098 0.2939 0.0082 8.4981
#
#
#
# Elastic Compliance Matrix: (Units=1/GPa)
#
#
# Indices 1 2 3 4 5 6 
#
# 1 0.013082 0.000919 -0.001203 -0.000009 -0.000309 0.000008
# 2 0.000919 0.011696 0.000766 -0.000014 0.000525 0.000013
# 3 -0.001203 0.000766 0.012894 -0.000010 0.004584 0.000011
# 4 -0.000009 -0.000014 -0.000010 0.098513 0.000012 -0.003407
# 5 -0.000309 0.000525 0.004584 0.000012 0.025225 -0.000019
# 6 0.000008 0.000013 0.000011 -0.003407 -0.000019 0.117791
#
#
# Mechanical properties :
#
#
# Convention : Reuss Voigt Hill
#
# Bulk Modulus (GPa) = 25.88321 26.60298 26.24309
# Shear Modulus (GPa) = 17.17544 29.02793 23.10168
#
# Velocity S-wave (km/s) = 2.63972 3.43172 3.06144
# Velocity P-wave (km/s) = 4.44878 5.14734 4.81076
#
# Compressibility (1/GPa) = 0.03863508
#
# Stress axis : x y z
#
# Youngs Moduli (GPa) = 76.44202 85.50281 77.55829
#
# Poissons Ratio (x) = -0.07862 0.09334
# Poissons Ratio (y) = -0.07029 -0.05942
# Poissons Ratio (z) = 0.09200 -0.06551
#
# Static dielectric constant tensor:
#      x y z
#    x 1.950170 0.000000 -0.042310 
#    y 0.000000 1.935510 -0.000010 
#    z -0.042310 -0.000010 2.004780 
# 
# From -- ./inp_files/351052.got.cif
#   From: 2010.05.17/outbox.cif.g08.bks.cpg/sg12_176_cif.got.tgz:351052.got - 2010.06.03 13:09:07.
