data_PCOD9207183
_publ_section_title
;
Structure prediction by ZEFSAII (Michael W. Deem and Ramdas Pophale) SiO2 
 PCOD9207183
Probable space group: C 2/M
;
_chemical_formula_sum "Si O2"
_cell_formula_units_Z 56
_cell_length_a 8.464956
_cell_length_b 18.580007
_cell_length_c 19.065577
_cell_angle_alpha 90.000000
_cell_angle_beta 77.173818
_cell_angle_gamma 90.000000
_cell_volume 2923.792403
_symmetry_space_group_name_H-M "C 2/M"
_symmetry_group_IT_number 12
_symmetry_cell_setting 'monoclinic'
loop_
_space_group_symop_operation_xyz
x,y,z
-x,y,-z
-x,-y,-z
x,-y,z
1/2+x,1/2+y,z
1/2-x,1/2+y,-z
1/2-x,1/2-y,-z
1/2+x,1/2-y,z
loop_
_atom_site_type_symbol
_atom_site_label
_atom_site_fract_x
_atom_site_fract_y
_atom_site_fract_z
Si Si1 0.901504 0.083244 0.578009
Si Si2 0.330154 0.331166 0.718799
Si Si3 0.479512 0.083243 0.421991
Si Si4 0.451048 0.831166 0.718799
Si Si5 0.237449 0.583175 0.142750
Si Si6 0.119800 0.083175 0.142750
Si Si7 0.808970 0.831554 0.000000
O O1 0.922476 0.131870 0.644397
O O2 0.711385 0.083735 0.577232
O O3 0.000000 0.107704 0.500000
O O4 0.947969 0.000000 0.588183
O O5 0.387759 0.250000 0.724484
O O6 0.354706 0.377635 0.786190
O O7 0.140571 0.330820 0.718860
O O8 0.500000 0.107701 0.500000
O O9 0.566872 0.131872 0.355603
O O10 0.536151 0.000000 0.411813
O O11 0.359104 0.877634 0.786190
O O12 0.187599 0.500000 0.140234
O O13 0.428109 0.584053 0.143781
O O14 0.221129 0.626235 0.071598
O O15 0.172166 0.000000 0.140233
O O16 0.207272 0.126236 0.071598
O O17 0.750000 0.750000 0.000000
O O18 0.000000 0.830913 0.000000
#
# Coordination Sequence:
#
# PCOD9207183 Si02
#       7
#     8   8   8   8   8   8   8
#     4   9  19  36  57  80 107 141 181 226 275 327
#     4  11  23  38  56  81 114 148 185 230 278 328
#     4   9  19  36  57  80 107 141 181 226 275 327
#     4  11  23  38  56  81 114 148 185 230 278 328
#     4  10  21  38  60  84 111 146 187 229 275 328
#     4  10  21  38  60  84 111 146 187 229 275 328
#     4  10  21  37  57  83 115 148 183 226 274 324
#
# _framework density 19.153206999999998
#
# number of rings (size 3 to 8) (size 9 to 14) (size 15 to 20)
#    0.000    2.000    0.000    3.000    0.000    9.714 
#    0.000    5.714    0.000    2.571    0.000    0.000 
#    0.000    0.000    0.000    0.000    0.000    0.000 
#
# Total GULP energy -156444.339855 kJ/mol
# GULP energy per Si atom -5587.297852 kJ/mol
# Density = 1.910961 g / cm^3
# Si number density = 19.153207 Si / 1000 Ang^3
#
#
#
# Elastic Constant Matrix: (Units=GPa)
#
#
# Indices 1 2 3 4 5 6 
#
# 1 13.1249 28.6999 30.9625 0.0000 3.3408 0.0000
# 2 28.6999 189.3348 135.6520 0.0000 4.8400 0.0000
# 3 30.9625 135.6520 216.4515 0.0000 5.8611 0.0000
# 4 0.0000 0.0000 0.0000 -455.3745 0.0000 -21.6656
# 5 3.3408 4.8400 5.8611 0.0000 28.1086 0.0000
# 6 0.0000 0.0000 0.0000 -21.6656 0.0000 23.8409
#
#
#
# Elastic Compliance Matrix: (Units=1/GPa)
#
#
# Indices 1 2 3 4 5 6 
#
# 1 0.130521 -0.011505 -0.011157 0.000000 -0.011205 0.000000
# 2 -0.011505 0.010604 -0.005016 0.000000 0.000587 0.000000
# 3 -0.011157 -0.005016 0.009353 0.000000 0.000240 0.000000
# 4 0.000000 0.000000 0.000000 -0.002105 0.000000 -0.001913
# 5 -0.011205 0.000587 0.000240 0.000000 0.036757 0.000000
# 6 0.000000 0.000000 0.000000 -0.001913 0.000000 0.040206
#
#
# Mechanical properties :
#
#
# Convention : Reuss Voigt Hill
#
# Bulk Modulus (GPa) = 10.51274 89.94889 50.23082
# Shear Modulus (GPa) = 16.00515 -65.77855 -24.88670
#
# Velocity S-wave (km/s) = 2.89388 -5.86668 -3.60856
# Velocity P-wave (km/s) = 4.08249 1.08362 2.98672
#
# Compressibility (1/GPa) = 0.09512265
#
# Stress axis : x y z
#
# Youngs Moduli (GPa) = 7.66163 94.30065 106.91688
#
# Poissons Ratio (x) = 1.08489 1.19287
# Poissons Ratio (y) = 0.08814 0.53630
# Poissons Ratio (z) = 0.08548 0.47302
#
# Static dielectric constant tensor:
#      x y z
#    x 1.664860 0.000000 -0.001030 
#    y 0.000000 1.637090 0.000000 
#    z -0.001030 0.000000 1.642180 
# 
# From -- ./inp_files/257040.got.cif
#   From: 2010.05.17/outbox.cif.g08.bks.cpg/sg12_129_cif.got.tgz:257040.got - 2010.06.03 13:09:07.
