data_PCOD9207691
_publ_section_title
;
Structure prediction by ZEFSAII (Michael W. Deem and Ramdas Pophale) SiO2 
 PCOD9207691
Probable space group: C 2/M
;
_chemical_formula_sum "Si O2"
_cell_formula_units_Z 56
_cell_length_a 14.218555
_cell_length_b 27.993027
_cell_length_c 10.897355
_cell_angle_alpha 90.000000
_cell_angle_beta 36.494685
_cell_angle_gamma 90.000000
_cell_volume 2579.642786
_symmetry_space_group_name_H-M "C 2/M"
_symmetry_group_IT_number 12
_symmetry_cell_setting 'monoclinic'
loop_
_space_group_symop_operation_xyz
x,y,z
-x,y,-z
-x,-y,-z
x,-y,z
1/2+x,1/2+y,z
1/2-x,1/2+y,-z
1/2-x,1/2-y,-z
1/2+x,1/2-y,z
loop_
_atom_site_type_symbol
_atom_site_label
_atom_site_fract_x
_atom_site_fract_y
_atom_site_fract_z
Si Si1 0.185997 0.718900 0.325676
Si Si2 0.884376 0.144349 0.240830
Si Si3 0.683285 0.576354 0.341125
Si Si4 0.802877 0.844952 0.978907
Si Si5 0.315020 0.823034 0.166829
Si Si6 0.792668 0.551911 0.492200
Si Si7 0.330619 0.945854 0.924280
O O1 0.252461 0.685071 0.363584
O O2 0.255417 0.771415 0.269526
O O3 0.000000 0.721097 0.500000
O O4 0.251047 0.692291 0.136334
O O5 0.796727 0.094422 0.346953
O O6 0.007220 0.154273 0.221487
O O7 0.000000 0.143984 0.000000
O O8 0.500000 0.569704 0.500000
O O9 0.724447 0.631972 0.318307
O O10 0.731393 0.551740 0.416471
O O11 0.783552 0.559449 0.117490
O O12 0.723208 0.828489 0.937071
O O13 0.750383 0.900183 0.055687
O O14 0.500000 0.827958 0.000000
O O15 0.761744 0.500000 0.581093
O O16 0.981392 0.559410 0.289912
O O17 0.285419 0.000000 0.932773
#
# Coordination Sequence:
#
# PCOD9207691 Si02
#       7
#     8   8   8   8   8   8   8
#     4  11  23  40  61  87 119 157 204 252 299 353
#     4  10  23  42  63  88 120 158 207 256 298 349
#     4  11  22  36  57  89 124 157 198 246 300 364
#     4  10  21  40  62  85 120 160 200 248 299 356
#     4  11  22  39  62  89 123 160 198 242 301 365
#     4  11  22  38  60  86 120 161 202 247 304 360
#     4  10  21  37  59  88 121 158 197 244 304 364
#
# _framework density 21.708431000000001
#
# number of rings (size 3 to 8) (size 9 to 14) (size 15 to 20)
#    0.000    1.429    0.000    7.286    0.000    4.286 
#    0.000    4.286    0.000    7.714    0.000    0.000 
#    0.000    0.000    0.000    0.000    0.000    0.000 
#
# Total GULP energy -156571.006948 kJ/mol
# GULP energy per Si atom -5591.821677 kJ/mol
# Density = 2.165902 g / cm^3
# Si number density = 21.708431 Si / 1000 Ang^3
#
#
#
# Elastic Constant Matrix: (Units=GPa)
#
#
# Indices 1 2 3 4 5 6 
#
# 1 82.3809 5.8271 3.2135 0.0000 -29.7779 0.0000
# 2 5.8271 87.5576 -20.8205 0.0000 10.9113 0.0000
# 3 3.2135 -20.8205 39.7108 0.0000 -4.4433 0.0000
# 4 0.0000 0.0000 0.0000 34.5032 0.0000 -4.4549
# 5 -29.7779 10.9113 -4.4433 0.0000 24.5643 0.0000
# 6 0.0000 0.0000 0.0000 -4.4549 0.0000 19.1010
#
#
#
# Elastic Compliance Matrix: (Units=1/GPa)
#
#
# Indices 1 2 3 4 5 6 
#
# 1 0.023948 -0.005859 -0.001501 0.000000 0.031362 0.000000
# 2 -0.005859 0.015024 0.006950 0.000000 -0.012519 0.000000
# 3 -0.001501 0.006950 0.028985 0.000000 0.000337 0.000000
# 4 0.000000 0.000000 0.000000 0.029883 0.000000 0.006970
# 5 0.031362 -0.012519 0.000337 0.000000 0.084349 0.000000
# 6 0.000000 0.000000 0.000000 0.006970 0.000000 0.053979
#
#
# Mechanical properties :
#
#
# Convention : Reuss Voigt Hill
#
# Bulk Modulus (GPa) = 14.89451 20.67660 17.78556
# Shear Modulus (GPa) = 19.27784 30.39566 24.83675
#
# Velocity S-wave (km/s) = 2.98322 3.74595 3.38613
# Velocity P-wave (km/s) = 4.32923 5.31554 4.84753
#
# Compressibility (1/GPa) = 0.06713881
#
# Stress axis : x y z
#
# Youngs Moduli (GPa) = 41.75729 66.56121 34.50031
#
# Poissons Ratio (x) = 0.38997 0.05177
# Poissons Ratio (y) = 0.24465 -0.23979
# Poissons Ratio (z) = 0.06266 -0.46263
#
# Static dielectric constant tensor:
#      x y z
#    x 1.823850 0.000000 0.028560 
#    y 0.000000 1.797900 0.000000 
#    z 0.028560 0.000000 1.774340 
# 
# From -- ./inp_files/150450.got.cif
#   From: 2010.05.17/outbox.cif.g08.bks.cpg/sg12_76_cif.got.tgz:150450.got - 2010.06.03 13:09:07.
