data_PCOD9207323
_publ_section_title
;
Structure prediction by ZEFSAII (Michael W. Deem and Ramdas Pophale) SiO2 
 PCOD9207323
Probable space group: C 2/M
;
_chemical_formula_sum "Si O2"
_cell_formula_units_Z 64
_cell_length_a 15.119474
_cell_length_b 7.619076
_cell_length_c 22.717610
_cell_angle_alpha 90.000000
_cell_angle_beta 101.599527
_cell_angle_gamma 90.000000
_cell_volume 2563.540407
_symmetry_space_group_name_H-M "C 2/M"
_symmetry_group_IT_number 12
_symmetry_cell_setting 'monoclinic'
loop_
_space_group_symop_operation_xyz
x,y,z
-x,y,-z
-x,-y,-z
x,-y,z
1/2+x,1/2+y,z
1/2-x,1/2+y,-z
1/2-x,1/2-y,-z
1/2+x,1/2-y,z
loop_
_atom_site_type_symbol
_atom_site_label
_atom_site_fract_x
_atom_site_fract_y
_atom_site_fract_z
Si Si1 0.309304 0.789911 0.115781
Si Si2 0.632017 0.285015 0.150772
Si Si3 0.273630 0.202104 0.588844
Si Si4 0.106358 0.789257 0.634068
Si Si5 0.061637 0.705593 0.456917
Si Si6 0.463990 0.289803 0.057447
Si Si7 0.922587 0.292424 0.242965
Si Si8 0.629624 0.702464 0.280328
O O1 0.207411 0.730339 0.113739
O O2 0.362336 0.747266 0.063514
O O3 0.368918 0.724229 0.179133
O O4 0.306840 0.000000 0.119685
O O5 0.630304 0.500000 0.153252
O O6 0.533763 0.225078 0.116635
O O7 0.656403 0.226330 0.219672
O O8 0.177116 0.279381 0.594592
O O9 0.341880 0.281904 0.549769
O O10 0.328665 0.203479 0.657886
O O11 0.258691 0.000000 0.570313
O O12 0.131244 0.736314 0.703476
O O13 0.007055 0.718772 0.606939
O O14 0.105061 0.000000 0.630978
O O15 0.075472 0.500000 0.472093
O O16 0.000000 0.787686 0.500000
O O17 0.472176 0.500000 0.056636
O O18 0.500000 0.221957 0.000000
O O19 0.936549 0.500000 0.237526
O O20 0.020719 0.207804 0.264016
O O21 0.658556 0.500000 0.289542
#
# Coordination Sequence:
#
# PCOD9207323 Si02
#       8
#     8   8   8   8   8   8   8   8
#     4  10  21  37  58  82 112 149 187 231 280 338
#     4   9  19  36  56  81 114 148 184 228 282 341
#     4  10  22  39  58  85 121 152 186 238 288 338
#     4  11  23  38  59  88 118 152 192 238 287 337
#     4  10  22  41  62  83 114 158 199 240 291 339
#     4  10  21  38  58  80 111 150 191 238 288 335
#     4  11  21  35  57  85 117 150 185 233 293 346
#     4  11  20  34  60  87 114 152 190 228 285 351
#
# _framework density 24.965475000000001
#
# number of rings (size 3 to 8) (size 9 to 14) (size 15 to 20)
#    0.000    1.750    2.500    1.875    0.000    4.000 
#    0.000    1.875    0.000    0.000    0.000    0.000 
#    0.000    0.000    0.000    0.000    0.000    0.000 
#
# Total GULP energy -178978.325604 kJ/mol
# GULP energy per Si atom -5593.072675 kJ/mol
# Density = 2.490865 g / cm^3
# Si number density = 24.965475 Si / 1000 Ang^3
#
#
#
# Elastic Constant Matrix: (Units=GPa)
#
#
# Indices 1 2 3 4 5 6 
#
# 1 134.0889 0.3006 14.0643 0.0000 -40.8733 0.0000
# 2 0.3006 70.2183 3.2489 0.0000 1.6959 0.0000
# 3 14.0643 3.2489 70.6888 0.0000 -38.9682 0.0000
# 4 0.0000 0.0000 0.0000 15.6297 0.0000 -5.3640
# 5 -40.8733 1.6959 -38.9682 0.0000 49.0701 0.0000
# 6 0.0000 0.0000 0.0000 -5.3640 0.0000 15.2645
#
#
#
# Elastic Compliance Matrix: (Units=1/GPa)
#
#
# Indices 1 2 3 4 5 6 
#
# 1 0.010951 -0.000604 0.005138 0.000000 0.013223 0.000000
# 2 -0.000604 0.014395 -0.001944 0.000000 -0.002545 0.000000
# 3 0.005138 -0.001944 0.027765 0.000000 0.026396 0.000000
# 4 0.000000 0.000000 0.000000 0.072755 0.000000 0.025567
# 5 0.013223 -0.002545 0.026396 0.000000 0.052443 0.000000
# 6 0.000000 0.000000 0.000000 0.025567 0.000000 0.074496
#
#
# Mechanical properties :
#
#
# Convention : Reuss Voigt Hill
#
# Bulk Modulus (GPa) = 17.15520 34.46927 25.81224
# Shear Modulus (GPa) = 18.72269 33.15165 25.93717
#
# Velocity S-wave (km/s) = 2.74148 3.64799 3.22673
# Velocity P-wave (km/s) = 4.11187 5.61965 4.92382
#
# Compressibility (1/GPa) = 0.05829136
#
# Stress axis : x y z
#
# Youngs Moduli (GPa) = 91.31755 69.46710 36.01674
#
# Poissons Ratio (x) = 0.04196 -0.18507
# Poissons Ratio (y) = 0.05515 0.07002
# Poissons Ratio (z) = -0.46922 0.13505
#
# Static dielectric constant tensor:
#      x y z
#    x 1.978280 0.000000 -0.034460 
#    y 0.000000 1.922740 0.000000 
#    z -0.034460 0.000000 2.013100 
# 
# From -- ./inp_files/338757.got.cif
#   From: 2010.05.17/outbox.cif.g08.bks.cpg/sg12_170_cif.got.tgz:338757.got - 2010.06.03 13:09:07.
