data_PCOD9207238
_publ_section_title
;
Structure prediction by ZEFSAII (Michael W. Deem and Ramdas Pophale) SiO2 
 PCOD9207238
Probable space group: C 2/M
;
_chemical_formula_sum "Si O2"
_cell_formula_units_Z 40
_cell_length_a 30.490789
_cell_length_b 8.770637
_cell_length_c 15.292497
_cell_angle_alpha 90.000000
_cell_angle_beta 149.565108
_cell_angle_gamma 90.000000
_cell_volume 2071.610836
_symmetry_space_group_name_H-M "C 2/M"
_symmetry_group_IT_number 12
_symmetry_cell_setting 'monoclinic'
loop_
_space_group_symop_operation_xyz
x,y,z
-x,y,-z
-x,-y,-z
x,-y,z
1/2+x,1/2+y,z
1/2-x,1/2+y,-z
1/2-x,1/2-y,-z
1/2+x,1/2-y,z
loop_
_atom_site_type_symbol
_atom_site_label
_atom_site_fract_x
_atom_site_fract_y
_atom_site_fract_z
Si Si1 0.283786 0.182541 0.286270
Si Si2 0.501206 0.680981 0.103269
Si Si3 0.890535 0.317988 0.065598
Si Si4 0.525418 0.185884 0.446462
Si Si5 0.299538 0.680320 0.502637
O O1 0.377987 0.234416 0.414250
O O2 0.273234 0.240536 0.367273
O O3 0.281602 0.000000 0.281673
O O4 0.204447 0.246482 0.093839
O O5 0.480560 0.500000 0.070247
O O6 0.434715 0.768403 0.050531
O O7 0.597901 0.702731 0.306099
O O8 0.500000 0.729584 0.000000
O O9 0.883914 0.500000 0.057768
O O10 0.954791 0.265362 0.253360
O O11 0.500000 0.235631 0.500000
O O12 0.525566 0.000000 0.445987
O O13 0.282481 0.500000 0.468154
O O14 0.250000 0.750000 0.500000
#
# Coordination Sequence:
#
# PCOD9207238 Si02
#       5
#     8   8   8   8   8
#     4  11  22  39  62  88 123 164 204 251 308 362
#     4  10  21  37  57  84 120 160 199 246 302 361
#     4  11  22  38  62  91 121 158 205 255 302 363
#     4   9  20  40  64  89 121 162 205 252 310 370
#     4  11  22  36  58  88 125 163 204 250 300 363
#
# _framework density 19.308644999999999
#
# number of rings (size 3 to 8) (size 9 to 14) (size 15 to 20)
#    0.000    1.600    2.000    3.000    0.000    3.600 
#    0.000    0.000    0.000    8.400    0.000    0.000 
#    0.000    0.000    0.000    0.000    0.000    0.000 
#
# Total GULP energy -111798.138939 kJ/mol
# GULP energy per Si atom -5589.906947 kJ/mol
# Density = 1.926470 g / cm^3
# Si number density = 19.308645 Si / 1000 Ang^3
#
#
#
# Elastic Constant Matrix: (Units=GPa)
#
#
# Indices 1 2 3 4 5 6 
#
# 1 127.7594 23.8200 82.0313 0.0000 1.3215 0.0000
# 2 23.8200 46.3082 50.6420 0.0000 10.6686 0.0000
# 3 82.0313 50.6420 165.1429 0.0000 5.3134 0.0000
# 4 0.0000 0.0000 0.0000 24.1343 0.0000 11.5368
# 5 1.3215 10.6686 5.3134 0.0000 26.7643 0.0000
# 6 0.0000 0.0000 0.0000 11.5368 0.0000 8.7675
#
#
#
# Elastic Compliance Matrix: (Units=1/GPa)
#
#
# Indices 1 2 3 4 5 6 
#
# 1 0.011505 0.000369 -0.005842 0.000000 0.000445 0.000000
# 2 0.000369 0.036105 -0.010861 0.000000 -0.012254 0.000000
# 3 -0.005842 -0.010861 0.012217 0.000000 0.002192 0.000000
# 4 0.000000 0.000000 0.000000 0.111688 0.000000 -0.146965
# 5 0.000445 -0.012254 0.002192 0.000000 0.041791 0.000000
# 6 0.000000 0.000000 0.000000 -0.146965 0.000000 0.307441
#
#
# Mechanical properties :
#
#
# Convention : Reuss Voigt Hill
#
# Bulk Modulus (GPa) = 36.82057 72.46634 54.64345
# Shear Modulus (GPa) = 8.88939 24.11438 16.50188
#
# Velocity S-wave (km/s) = 2.14798 3.53780 2.92659
# Velocity P-wave (km/s) = 5.02620 7.36885 6.30724
#
# Compressibility (1/GPa) = 0.02715874
#
# Stress axis : x y z
#
# Youngs Moduli (GPa) = 86.91836 27.69704 81.85131
#
# Poissons Ratio (x) = -0.01021 0.47819
# Poissons Ratio (y) = -0.03203 0.88895
# Poissons Ratio (z) = 0.50780 0.30081
#
# Static dielectric constant tensor:
#      x y z
#    x 1.642040 0.000000 0.005530 
#    y 0.000000 1.652120 0.000000 
#    z 0.005530 0.000000 1.679070 
# 
# From -- ./inp_files/211193.got.cif
#   From: 2010.05.17/outbox.cif.g08.bks.cpg/sg12_106_cif.got.tgz:211193.got - 2010.06.03 13:09:07.
