data_PCOD9207319
_publ_section_title
;
Structure prediction by ZEFSAII (Michael W. Deem and Ramdas Pophale) SiO2 
 PCOD9207319
Probable space group: C 2/M
;
_chemical_formula_sum "Si O2"
_cell_formula_units_Z 64
_cell_length_a 30.077699
_cell_length_b 7.515475
_cell_length_c 17.235309
_cell_angle_alpha 90.000000
_cell_angle_beta 44.262643
_cell_angle_gamma 90.000000
_cell_volume 2719.214689
_symmetry_space_group_name_H-M "C 2/M"
_symmetry_group_IT_number 12
_symmetry_cell_setting 'monoclinic'
loop_
_space_group_symop_operation_xyz
x,y,z
-x,y,-z
-x,-y,-z
x,-y,z
1/2+x,1/2+y,z
1/2-x,1/2+y,-z
1/2-x,1/2-y,-z
1/2+x,1/2-y,z
loop_
_atom_site_type_symbol
_atom_site_label
_atom_site_fract_x
_atom_site_fract_y
_atom_site_fract_z
Si Si1 0.445497 0.209820 0.836066
Si Si2 0.844818 0.213017 0.352555
Si Si3 0.483688 0.286084 0.397408
Si Si4 0.264484 0.717369 0.779362
Si Si5 0.718658 0.294864 0.415898
Si Si6 0.901577 0.783968 0.637016
Si Si7 0.016603 0.714352 0.893176
Si Si8 0.691534 0.212976 0.015444
O O1 0.504671 0.231013 0.704168
O O2 0.466118 0.284160 0.893066
O O3 0.380099 0.282153 0.879982
O O4 0.435917 0.000000 0.858400
O O5 0.786990 0.288605 0.373334
O O6 0.831497 0.278314 0.457775
O O7 0.912660 0.249384 0.228359
O O8 0.836364 0.000000 0.365316
O O9 0.483538 0.500000 0.398414
O O10 0.423410 0.229281 0.523232
O O11 0.545216 0.222072 0.369603
O O12 0.261389 0.500000 0.780369
O O13 0.269952 0.781997 0.684189
O O14 0.329967 0.770851 0.740142
O O15 0.208914 0.774364 0.906327
O O16 0.698813 0.500000 0.427311
O O17 0.903157 0.000000 0.637411
O O18 0.011093 0.500000 0.902568
O O19 0.000000 0.780441 0.000000
O O20 0.688936 0.000000 0.018710
O O21 0.750000 0.250000 0.000000
#
# Coordination Sequence:
#
# PCOD9207319 Si02
#       8
#     8   8   8   8   8   8   8   8
#     4  10  22  37  54  82 112 142 184 231 275 327
#     4  10  21  37  58  87 118 143 179 236 291 333
#     4   9  17  31  54  79 107 143 178 218 267 324
#     4   9  17  30  54  80 104 140 187 228 264 324
#     4   9  19  35  59  85 111 150 189 225 278 344
#     4   8  15  28  49  81 110 135 178 224 261 315
#     4  10  23  41  62  82 109 153 198 232 275 343
#     4  10  21  37  58  82 111 145 187 234 277 324
#
# _framework density 23.536207999999998
#
# number of rings (size 3 to 8) (size 9 to 14) (size 15 to 20)
#    0.000    2.625    0.000    1.875    3.500    2.750 
#    0.000    1.875    0.000    1.500    0.000    0.000 
#    0.000    0.000    0.000    0.000    0.000    0.000 
#
# Total GULP energy -178588.800659 kJ/mol
# GULP energy per Si atom -5580.900021 kJ/mol
# Density = 2.348264 g / cm^3
# Si number density = 23.536208 Si / 1000 Ang^3
#
#
#
# Elastic Constant Matrix: (Units=GPa)
#
#
# Indices 1 2 3 4 5 6 
#
# 1 66.6549 -2.9235 39.5560 0.0004 15.6903 0.0001
# 2 -2.9235 63.0757 -2.4738 0.0066 2.4664 -0.0126
# 3 39.5560 -2.4738 138.0677 -0.0035 8.7774 -0.0025
# 4 0.0004 0.0066 -0.0035 16.3524 0.0011 3.0756
# 5 15.6903 2.4664 8.7774 0.0011 40.8010 -0.0008
# 6 0.0001 -0.0126 -0.0025 3.0756 -0.0008 17.0548
#
#
#
# Elastic Compliance Matrix: (Units=1/GPa)
#
#
# Indices 1 2 3 4 5 6 
#
# 1 0.019662 0.000961 -0.005203 -0.000002 -0.006500 0.000000
# 2 0.000961 0.015955 0.000097 -0.000009 -0.001355 0.000013
# 3 -0.005203 0.000097 0.008728 0.000002 0.000117 0.000001
# 4 -0.000002 -0.000009 0.000002 0.063300 -0.000001 -0.011415
# 5 -0.006500 -0.001355 0.000117 -0.000001 0.027066 0.000000
# 6 0.000000 0.000013 0.000001 -0.011415 0.000000 0.060693
#
#
# Mechanical properties :
#
#
# Convention : Reuss Voigt Hill
#
# Bulk Modulus (GPa) = 27.73469 37.34621 32.54045
# Shear Modulus (GPa) = 23.17897 30.41760 26.79828
#
# Velocity S-wave (km/s) = 3.14159 3.59886 3.37797
# Velocity P-wave (km/s) = 4.99689 5.75943 5.39166
#
# Compressibility (1/GPa) = 0.03605593
#
# Stress axis : x y z
#
# Youngs Moduli (GPa) = 50.85824 62.67513 114.57804
#
# Poissons Ratio (x) = -0.06026 0.59612
# Poissons Ratio (y) = -0.04890 -0.01106
# Poissons Ratio (z) = 0.26460 -0.00605
#
# Static dielectric constant tensor:
#      x y z
#    x 1.904780 0.000000 0.015210 
#    y 0.000000 1.908870 0.000000 
#    z 0.015210 0.000000 1.875170 
# 
# From -- ./inp_files/295665.got.cif
#   From: 2010.05.17/outbox.cif.g08.bks.cpg/sg12_148_cif.got.tgz:295665.got - 2010.06.03 13:09:07.
