data_PCOD9207563
_publ_section_title
;
Structure prediction by ZEFSAII (Michael W. Deem and Ramdas Pophale) SiO2 
 PCOD9207563
Probable space group: C 2/M
;
_chemical_formula_sum "Si O2"
_cell_formula_units_Z 64
_cell_length_a 11.415125
_cell_length_b 18.446601
_cell_length_c 20.616579
_cell_angle_alpha 90.000000
_cell_angle_beta 132.359751
_cell_angle_gamma 90.000000
_cell_volume 3207.866201
_symmetry_space_group_name_H-M "C 2/M"
_symmetry_group_IT_number 12
_symmetry_cell_setting 'monoclinic'
loop_
_space_group_symop_operation_xyz
x,y,z
-x,y,-z
-x,-y,-z
x,-y,z
1/2+x,1/2+y,z
1/2-x,1/2+y,-z
1/2-x,1/2-y,-z
1/2+x,1/2-y,z
loop_
_atom_site_type_symbol
_atom_site_label
_atom_site_fract_x
_atom_site_fract_y
_atom_site_fract_z
Si Si1 0.151392 0.712055 0.519314
Si Si2 0.973169 0.336034 0.862598
Si Si3 0.848972 0.872865 0.689569
Si Si4 0.184989 0.920194 0.783973
Si Si5 0.021648 0.420552 0.616042
Si Si6 0.539820 0.666005 0.124906
Si Si7 0.148760 0.588049 0.808282
Si Si8 0.268646 0.083141 0.967830
O O1 0.250000 0.750000 0.500000
O O2 0.278642 0.691859 0.621399
O O3 0.000000 0.747604 0.500000
O O4 0.077520 0.640375 0.457710
O O5 0.059268 0.364891 0.829596
O O6 0.790317 0.359506 0.789812
O O7 0.979350 0.252407 0.886127
O O8 0.065576 0.381494 0.951962
O O9 0.695924 0.920973 0.648335
O O10 0.913673 0.847059 0.782767
O O11 0.997178 0.909340 0.709475
O O12 0.229626 0.916379 0.876955
O O13 0.230823 0.000000 0.776996
O O14 0.948331 0.500000 0.582334
O O15 0.056406 0.404918 0.704864
O O16 0.678981 0.625738 0.137292
O O17 0.371797 0.627729 0.050313
O O18 0.159697 0.500000 0.825095
O O19 0.266667 0.000000 0.988563
#
# Coordination Sequence:
#
# PCOD9207563 Si02
#       8
#     8   8   8   8   8   8   8   8
#     4  10  22  38  62  91 124 160 200 248 308 365
#     4  12  24  36  61  86 122 157 204 247 307 371
#     4   9  20  37  61  87 115 152 203 243 297 356
#     4  10  21  37  59  84 117 153 193 246 303 360
#     4   9  19  38  63  90 119 155 199 249 294 354
#     4  10  23  38  60  87 118 155 202 257 302 352
#     4  10  22  41  62  87 122 162 203 247 307 368
#     4  10  21  41  61  82 116 156 203 251 305 361
#
# _framework density 19.950956999999999
#
# number of rings (size 3 to 8) (size 9 to 14) (size 15 to 20)
#    0.000    2.000    0.000    2.625    5.250    9.250 
#    2.250    1.250    0.000    0.375    0.000    0.000 
#    0.000    0.000    0.000    0.000    0.000    0.000 
#
# Total GULP energy -178508.927966 kJ/mol
# GULP energy per Si atom -5578.403999 kJ/mol
# Density = 1.990555 g / cm^3
# Si number density = 19.950957 Si / 1000 Ang^3
#
#
#
# Elastic Constant Matrix: (Units=GPa)
#
#
# Indices 1 2 3 4 5 6 
#
# 1 103.8042 49.3859 25.8330 0.0000 5.6861 0.0000
# 2 49.3859 116.5784 2.8789 0.0000 16.0593 0.0000
# 3 25.8330 2.8789 42.9267 0.0000 8.3461 0.0000
# 4 0.0000 0.0000 0.0000 1.1931 0.0000 4.0335
# 5 5.6861 16.0593 8.3461 0.0000 29.2488 0.0000
# 6 0.0000 0.0000 0.0000 4.0335 0.0000 19.7668
#
#
#
# Elastic Compliance Matrix: (Units=1/GPa)
#
#
# Indices 1 2 3 4 5 6 
#
# 1 0.014818 -0.006506 -0.009122 0.000000 0.003294 0.000000
# 2 -0.006506 0.012142 0.004395 0.000000 -0.006656 0.000000
# 3 -0.009122 0.004395 0.030295 0.000000 -0.009285 0.000000
# 4 0.000000 0.000000 0.000000 2.702476 0.000000 -0.551451
# 5 0.003294 -0.006656 -0.009285 0.000000 0.039853 0.000000
# 6 0.000000 0.000000 0.000000 -0.551451 0.000000 0.163116
#
#
# Mechanical properties :
#
#
# Convention : Reuss Voigt Hill
#
# Bulk Modulus (GPa) = 28.74320 46.61164 37.67742
# Shear Modulus (GPa) = 1.66847 22.38917 12.02882
#
# Velocity S-wave (km/s) = 0.91548 3.35358 2.45811
# Velocity P-wave (km/s) = 3.94407 6.19751 5.19446
#
# Compressibility (1/GPa) = 0.03479084
#
# Stress axis : x y z
#
# Youngs Moduli (GPa) = 67.48332 82.35550 33.00829
#
# Poissons Ratio (x) = 0.53581 0.30110
# Poissons Ratio (y) = 0.43905 -0.14508
# Poissons Ratio (z) = 0.61557 -0.36196
#
# Static dielectric constant tensor:
#      x y z
#    x 1.732430 0.000000 -0.019310 
#    y 0.000000 1.718000 0.000000 
#    z -0.019310 0.000000 1.700270 
# 
# From -- ./inp_files/306247.got.cif
#   From: 2010.05.17/outbox.cif.g08.bks.cpg/sg12_154_cif.got.tgz:306247.got - 2010.06.03 13:09:07.
