data_PCOD9207131
_publ_section_title
;
Structure prediction by ZEFSAII (Michael W. Deem and Ramdas Pophale) SiO2 
 PCOD9207131
Probable space group: C 2/M
;
_chemical_formula_sum "Si O2"
_cell_formula_units_Z 64
_cell_length_a 32.806350
_cell_length_b 7.766526
_cell_length_c 24.861417
_cell_angle_alpha 90.000000
_cell_angle_beta 153.325011
_cell_angle_gamma 90.000000
_cell_volume 2843.729162
_symmetry_space_group_name_H-M "C 2/M"
_symmetry_group_IT_number 12
_symmetry_cell_setting 'monoclinic'
loop_
_space_group_symop_operation_xyz
x,y,z
-x,y,-z
-x,-y,-z
x,-y,z
1/2+x,1/2+y,z
1/2-x,1/2+y,-z
1/2-x,1/2-y,-z
1/2+x,1/2-y,z
loop_
_atom_site_type_symbol
_atom_site_label
_atom_site_fract_x
_atom_site_fract_y
_atom_site_fract_z
Si Si1 0.369613 0.800221 0.506142
Si Si2 0.423262 0.791027 0.951769
Si Si3 0.992872 0.201620 0.836664
Si Si4 0.711726 0.293011 0.396316
Si Si5 0.220143 0.199534 0.703640
Si Si6 0.428111 0.212198 0.252952
Si Si7 0.850630 0.698302 0.052353
Si Si8 0.811905 0.698705 0.213726
O O1 0.284090 0.725248 0.438032
O O2 0.347377 0.791037 0.416797
O O3 0.469127 0.726196 0.634370
O O4 0.375327 0.000000 0.529323
O O5 0.322763 0.731969 0.817351
O O6 0.421404 0.000000 0.952494
O O7 0.500000 0.738906 0.000000
O O8 0.450397 0.722702 0.041898
O O9 0.891787 0.271709 0.728418
O O10 0.049772 0.292542 0.857193
O O11 0.986641 0.000000 0.815157
O O12 0.705803 0.500000 0.382389
O O13 0.750000 0.250000 0.500000
O O14 0.198002 0.212464 0.740573
O O15 0.219194 0.000000 0.686906
O O16 0.363345 0.267317 0.127580
O O17 0.388592 0.267273 0.263707
O O18 0.427201 0.000000 0.251457
O O19 0.821396 0.500000 0.019995
O O20 0.780350 0.791157 0.930191
O O21 0.831514 0.500000 0.248772
#
# Coordination Sequence:
#
# PCOD9207131 Si02
#       8
#     8   8   8   8   8   8   8   8
#     4  10  21  41  63  85 117 160 205 246 292 351
#     4  10  21  37  57  81 112 152 195 238 291 350
#     4  11  22  35  55  87 120 152 194 240 292 350
#     4  10  22  38  59  88 121 159 201 245 293 349
#     4  11  23  39  59  87 121 156 198 246 298 354
#     4   9  21  39  62  88 115 155 203 245 297 360
#     4  11  21  38  62  89 121 156 196 246 301 360
#     4  11  22  39  62  89 119 154 197 248 302 357
#
# _framework density 22.505656999999999
#
# number of rings (size 3 to 8) (size 9 to 14) (size 15 to 20)
#    0.000    1.625    1.250    3.375    0.000    3.750 
#    0.000    6.875    0.000    0.000    0.000    0.000 
#    0.000    0.000    0.000    0.000    0.000    0.000 
#
# Total GULP energy -178919.557707 kJ/mol
# GULP energy per Si atom -5591.236178 kJ/mol
# Density = 2.245443 g / cm^3
# Si number density = 22.505657 Si / 1000 Ang^3
#
#
#
# Elastic Constant Matrix: (Units=GPa)
#
#
# Indices 1 2 3 4 5 6 
#
# 1 85.8967 -6.3500 -0.0956 0.0000 1.4944 0.0000
# 2 -6.3500 37.0495 -10.6614 0.0000 5.5732 0.0000
# 3 -0.0956 -10.6614 73.1055 0.0000 1.2933 0.0000
# 4 0.0000 0.0000 0.0000 14.3502 0.0000 -1.7942
# 5 1.4944 5.5732 1.2933 0.0000 37.3915 0.0000
# 6 0.0000 0.0000 0.0000 -1.7942 0.0000 15.8408
#
#
#
# Elastic Compliance Matrix: (Units=1/GPa)
#
#
# Indices 1 2 3 4 5 6 
#
# 1 0.011823 0.002253 0.000359 0.000000 -0.000821 0.000000
# 2 0.002253 0.029326 0.004361 0.000000 -0.004612 0.000000
# 3 0.000359 0.004361 0.014336 0.000000 -0.001160 0.000000
# 4 0.000000 0.000000 0.000000 0.070687 0.000000 0.008006
# 5 -0.000821 -0.004612 -0.001160 0.000000 0.027504 0.000000
# 6 0.000000 0.000000 0.000000 0.008006 0.000000 0.064035
#
#
# Mechanical properties :
#
#
# Convention : Reuss Voigt Hill
#
# Bulk Modulus (GPa) = 14.40286 17.98196 16.19241
# Shear Modulus (GPa) = 22.03530 27.72708 24.88119
#
# Velocity S-wave (km/s) = 3.13245 3.51380 3.32859
# Velocity P-wave (km/s) = 4.41549 4.94669 4.68862
#
# Compressibility (1/GPa) = 0.06943067
#
# Stress axis : x y z
#
# Youngs Moduli (GPa) = 84.58000 34.09959 69.75497
#
# Poissons Ratio (x) = -0.07683 -0.02501
# Poissons Ratio (y) = -0.19056 -0.30422
# Poissons Ratio (z) = -0.03033 -0.14872
#
# Static dielectric constant tensor:
#      x y z
#    x 1.832480 0.000000 0.040430 
#    y 0.000000 1.760810 0.000000 
#    z 0.040430 0.000000 1.826270 
# 
# From -- ./inp_files/353460.got.cif
#   From: 2010.05.17/outbox.cif.g08.bks.cpg/sg12_177_cif.got.tgz:353460.got - 2010.06.03 13:09:07.
