data_PCOD9207629
_publ_section_title
;
Structure prediction by ZEFSAII (Michael W. Deem and Ramdas Pophale) SiO2 
 PCOD9207629
Probable space group: C 2/M
;
_chemical_formula_sum "Si O2"
_cell_formula_units_Z 64
_cell_length_a 15.477943
_cell_length_b 17.988484
_cell_length_c 18.877371
_cell_angle_alpha 90.000000
_cell_angle_beta 39.001979
_cell_angle_gamma 90.000000
_cell_volume 3307.803068
_symmetry_space_group_name_H-M "C 2/M"
_symmetry_group_IT_number 12
_symmetry_cell_setting 'monoclinic'
loop_
_space_group_symop_operation_xyz
x,y,z
-x,y,-z
-x,-y,-z
x,-y,z
1/2+x,1/2+y,z
1/2-x,1/2+y,-z
1/2-x,1/2-y,-z
1/2+x,1/2-y,z
loop_
_atom_site_type_symbol
_atom_site_label
_atom_site_fract_x
_atom_site_fract_y
_atom_site_fract_z
Si Si1 0.221713 0.913896 0.051615
Si Si2 0.065918 0.086040 0.297187
Si Si3 0.295086 0.148722 0.668575
Si Si4 0.019647 0.318834 0.070363
Si Si5 0.437673 0.910763 0.436307
Si Si6 0.221406 0.174201 0.319088
Si Si7 0.775555 0.912709 0.540333
Si Si8 0.994145 0.140571 0.921175
O O1 0.126545 0.900355 0.181233
O O2 0.127975 0.898405 0.043358
O O3 0.265917 0.000000 0.024485
O O4 0.351393 0.860202 0.977882
O O5 0.133719 0.139618 0.311417
O O6 0.902499 0.094435 0.405382
O O7 0.097251 0.000000 0.296539
O O8 0.410666 0.121517 0.650215
O O9 0.345573 0.115728 0.561583
O O10 0.301039 0.237888 0.661086
O O11 0.142069 0.126585 0.790093
O O12 0.880465 0.339272 0.199272
O O13 0.033565 0.229514 0.064367
O O14 0.000000 0.339543 0.000000
O O15 0.361634 0.888081 0.412648
O O16 0.443632 0.000000 0.434658
O O17 0.189982 0.134042 0.412558
O O18 0.763446 0.000000 0.566736
O O19 0.000000 0.119241 0.000000
#
# Coordination Sequence:
#
# PCOD9207629 Si02
#       8
#     8   8   8   8   8   8   8   8
#     4  11  23  39  64  92 116 159 211 247 295 362
#     4  10  21  37  59  86 123 163 196 241 300 363
#     4  10  22  39  61  91 115 160 205 240 299 356
#     4  10  21  42  61  84 120 161 201 247 305 359
#     4  10  22  42  64  87 120 161 202 246 296 354
#     4  11  22  37  58  89 123 153 198 251 297 357
#     4  10  22  38  58  87 122 158 194 243 308 355
#     4  10  23  42  62  88 125 160 199 251 307 357
#
# _framework density 19.348189000000001
#
# number of rings (size 3 to 8) (size 9 to 14) (size 15 to 20)
#    0.000    1.750    1.250    2.625    3.500    6.000 
#    4.500    1.250    0.000    0.000    0.000    0.000 
#    0.000    0.000    0.000    0.000    0.000    0.000 
#
# Total GULP energy -178809.208938 kJ/mol
# GULP energy per Si atom -5587.787779 kJ/mol
# Density = 1.930415 g / cm^3
# Si number density = 19.348189 Si / 1000 Ang^3
#
#
#
# Elastic Constant Matrix: (Units=GPa)
#
#
# Indices 1 2 3 4 5 6 
#
# 1 105.9715 32.7028 20.6000 -0.0002 -4.7752 0.0001
# 2 32.7028 35.7463 26.5513 -0.0003 -9.6694 0.0001
# 3 20.6000 26.5513 59.7828 -0.0005 -13.1927 0.0001
# 4 -0.0002 -0.0003 -0.0005 21.8667 0.0001 -11.9464
# 5 -4.7752 -9.6694 -13.1927 0.0001 21.0855 0.0000
# 6 0.0001 0.0001 0.0001 -11.9464 0.0000 18.5772
#
#
#
# Elastic Compliance Matrix: (Units=1/GPa)
#
#
# Indices 1 2 3 4 5 6 
#
# 1 0.013332 -0.013534 0.000828 0.000000 -0.002669 0.000000
# 2 -0.013534 0.056925 -0.018023 0.000000 0.011763 0.000000
# 3 0.000828 -0.018023 0.026294 0.000000 0.008374 0.000000
# 4 0.000000 0.000000 0.000000 0.070500 0.000000 0.045336
# 5 -0.002669 0.011763 0.008374 0.000000 0.057455 0.000000
# 6 0.000000 0.000000 0.000000 0.045336 0.000000 0.082984
#
#
# Mechanical properties :
#
#
# Convention : Reuss Voigt Hill
#
# Bulk Modulus (GPa) = 28.49475 40.13431 34.31453
# Shear Modulus (GPa) = 13.13557 20.41566 16.77561
#
# Velocity S-wave (km/s) = 2.60841 3.25186 2.94775
# Velocity P-wave (km/s) = 4.88170 5.90658 5.41843
#
# Compressibility (1/GPa) = 0.03509418
#
# Stress axis : x y z
#
# Youngs Moduli (GPa) = 75.00875 17.56698 38.03085
#
# Poissons Ratio (x) = 0.23774 -0.03148
# Poissons Ratio (y) = 1.01513 0.68542
# Poissons Ratio (z) = -0.06209 0.31661
#
# Static dielectric constant tensor:
#      x y z
#    x 1.656100 0.000000 -0.003180 
#    y 0.000000 1.650710 0.000000 
#    z -0.003180 0.000000 1.661070 
# 
# From -- ./inp_files/271700.got.cif
#   From: 2010.05.17/outbox.cif.g08.bks.cpg/sg12_136_cif.got.tgz:271700.got - 2010.06.03 13:09:07.
