data_PCOD9207644
_publ_section_title
;
Structure prediction by ZEFSAII (Michael W. Deem and Ramdas Pophale) SiO2 
 PCOD9207644
Probable space group: C 2/M
;
_chemical_formula_sum "Si O2"
_cell_formula_units_Z 40
_cell_length_a 8.993048
_cell_length_b 22.330031
_cell_length_c 9.784254
_cell_angle_alpha 90.000000
_cell_angle_beta 89.999872
_cell_angle_gamma 90.000000
_cell_volume 1964.825364
_symmetry_space_group_name_H-M "C 2/M"
_symmetry_group_IT_number 12
_symmetry_cell_setting 'monoclinic'
loop_
_space_group_symop_operation_xyz
x,y,z
-x,y,-z
-x,-y,-z
x,-y,z
1/2+x,1/2+y,z
1/2-x,1/2+y,-z
1/2-x,1/2-y,-z
1/2+x,1/2-y,z
loop_
_atom_site_type_symbol
_atom_site_label
_atom_site_fract_x
_atom_site_fract_y
_atom_site_fract_z
Si Si1 0.650779 0.431147 0.090022
Si Si2 0.000000 0.245874 0.500000
Si Si3 0.000000 0.245875 0.000000
Si Si4 0.849221 0.931147 0.590023
Si Si5 0.260568 0.164398 0.898511
Si Si6 0.239432 0.335602 0.398511
O O1 0.703044 0.500000 0.081334
O O2 0.623812 0.417515 0.250000
O O3 0.500000 0.427469 0.000000
O O4 0.760023 0.383645 0.020183
O O5 0.894862 0.289035 0.587604
O O6 0.889327 0.203504 0.415700
O O7 0.889326 0.203504 0.084300
O O8 0.105136 0.289035 0.087605
O O9 0.739977 0.883645 0.520183
O O10 0.000000 0.927469 0.500000
O O11 0.796955 0.000000 0.581335
O O12 0.262414 0.134810 0.750000
#
# Coordination Sequence:
#
# PCOD9207644 Si02
#       6
#     8   4   4   8   8   8
#     4  10  21  37  59  87 118 153 197 247 296 349
#     4  10  24  38  58  90 124 156 196 242 294 350
#     4  10  24  38  58  90 124 156 196 242 294 350
#     4  10  21  37  59  87 118 153 197 247 296 349
#     4  11  22  39  62  89 120 158 198 243 295 353
#     4  11  22  39  62  89 120 158 198 243 295 353
#
# _framework density 20.358042000000001
#
# number of rings (size 3 to 8) (size 9 to 14) (size 15 to 20)
#    0.000    1.600    2.000    2.400    0.000   10.400 
#    0.000    1.000    0.000    0.000    0.000    0.000 
#    0.000    0.000    0.000    0.000    0.000    0.000 
#
# Total GULP energy -111691.053652 kJ/mol
# GULP energy per Si atom -5584.552683 kJ/mol
# Density = 2.031171 g / cm^3
# Si number density = 20.358042 Si / 1000 Ang^3
#
#
#
# Elastic Constant Matrix: (Units=GPa)
#
#
# Indices 1 2 3 4 5 6 
#
# 1 65.5115 22.2908 20.3189 0.0000 -4.0934 0.0000
# 2 22.2908 106.9238 60.7433 0.0000 3.2445 0.0000
# 3 20.3189 60.7433 171.9360 0.0000 13.0740 0.0000
# 4 0.0000 0.0000 0.0000 23.1892 0.0000 0.6598
# 5 -4.0934 3.2445 13.0740 0.0000 -0.2203 0.0000
# 6 0.0000 0.0000 0.0000 0.6598 0.0000 15.3691
#
#
#
# Elastic Compliance Matrix: (Units=1/GPa)
#
#
# Indices 1 2 3 4 5 6 
#
# 1 0.011908 -0.002941 0.003583 0.000000 -0.051956 0.000000
# 2 -0.002941 0.012218 -0.003956 0.000000 -0.000172 0.000000
# 3 0.003583 -0.003956 0.002954 0.000000 0.050456 0.000000
# 4 0.000000 0.000000 0.000000 0.043176 0.000000 -0.001854
# 5 -0.051956 -0.000172 0.050456 0.000000 -0.581998 0.000000
# 6 0.000000 0.000000 0.000000 -0.001854 0.000000 0.065145
#
#
# Mechanical properties :
#
#
# Convention : Reuss Voigt Hill
#
# Bulk Modulus (GPa) = 48.89827 61.23081 55.06454
# Shear Modulus (GPa) = -11.54333 23.73547 6.09607
#
# Velocity S-wave (km/s) = -2.38379 3.41823 1.73232
# Velocity P-wave (km/s) = 4.06136 6.76176 5.57746
#
# Compressibility (1/GPa) = 0.02045062
#
# Stress axis : x y z
#
# Youngs Moduli (GPa) = 83.97954 81.84530 338.56927
#
# Poissons Ratio (x) = 0.24072 -1.21297
# Poissons Ratio (y) = 0.24700 1.33933
# Poissons Ratio (z) = -0.30087 0.32377
#
# Static dielectric constant tensor:
#      x y z
#    x 1.716170 0.000000 0.000550 
#    y 0.000000 1.718730 0.000000 
#    z 0.000550 0.000000 1.722670 
# 
# From -- ./inp_files/39284.got.cif
#   From: 2010.05.17/outbox.cif.g08.bks.cpg/sg12_20_cif.got.tgz:39284.got - 2010.06.03 13:09:07.
