data_PCOD9207517
_publ_section_title
;
Structure prediction by ZEFSAII (Michael W. Deem and Ramdas Pophale) SiO2 
 PCOD9207517
Probable space group: C 2/M
;
_chemical_formula_sum "Si O2"
_cell_formula_units_Z 40
_cell_length_a 30.456089
_cell_length_b 8.934316
_cell_length_c 15.160704
_cell_angle_alpha 90.000000
_cell_angle_beta 30.330126
_cell_angle_gamma 90.000000
_cell_volume 2083.196804
_symmetry_space_group_name_H-M "C 2/M"
_symmetry_group_IT_number 12
_symmetry_cell_setting 'monoclinic'
loop_
_space_group_symop_operation_xyz
x,y,z
-x,y,-z
-x,-y,-z
x,-y,z
1/2+x,1/2+y,z
1/2-x,1/2+y,-z
1/2-x,1/2-y,-z
1/2+x,1/2-y,z
loop_
_atom_site_type_symbol
_atom_site_label
_atom_site_fract_x
_atom_site_fract_y
_atom_site_fract_z
Si Si1 0.750205 0.324087 0.095579
Si Si2 0.724297 0.819635 0.451636
Si Si3 0.967844 0.678749 0.280055
Si Si4 0.642863 0.679312 0.934027
Si Si5 0.550920 0.323900 0.499864
O O1 0.771164 0.500000 0.052603
O O2 0.816296 0.243068 0.046698
O O3 0.653395 0.309721 0.303464
O O4 0.750000 0.250000 0.000000
O O5 0.750000 0.750000 0.500000
O O6 0.626938 0.775462 0.591528
O O7 0.793061 0.775882 0.256661
O O8 0.725901 0.000000 0.455044
O O9 0.975040 0.500000 0.262608
O O10 0.973575 0.731501 0.371528
O O11 0.046746 0.754522 0.091199
O O12 0.639724 0.500000 0.943798
O O13 0.500000 0.276730 0.500000
O O14 0.530704 0.500000 0.550212
#
# Coordination Sequence:
#
# PCOD9207517 Si02
#       5
#     8   8   8   8   8
#     4  11  22  36  59  91 128 170 212 258 312 372
#     4  10  24  44  67  93 126 165 210 264 321 379
#     4  11  23  41  64  94 126 163 211 262 316 373
#     4  11  23  42  64  91 128 168 210 260 316 378
#     4  10  21  37  58  88 125 166 209 255 309 372
#
# _framework density 19.201257999999999
#
# number of rings (size 3 to 8) (size 9 to 14) (size 15 to 20)
#    0.000    1.400    2.000    3.000    0.000    6.800 
#    0.000    4.000    0.000    0.000    0.000    0.000 
#    0.000    0.000    0.000    0.000    0.000    0.000 
#
# Total GULP energy -111849.909247 kJ/mol
# GULP energy per Si atom -5592.495462 kJ/mol
# Density = 1.915756 g / cm^3
# Si number density = 19.201258 Si / 1000 Ang^3
#
#
#
# Elastic Constant Matrix: (Units=GPa)
#
#
# Indices 1 2 3 4 5 6 
#
# 1 133.6614 43.1037 82.2528 0.0000 -1.1059 0.0000
# 2 43.1037 64.9991 63.0334 0.0000 -2.2467 0.0000
# 3 82.2528 63.0334 153.6317 0.0000 -9.5544 0.0000
# 4 0.0000 0.0000 0.0000 32.9453 0.0000 1.6646
# 5 -1.1059 -2.2467 -9.5544 0.0000 28.7046 0.0000
# 6 0.0000 0.0000 0.0000 1.6646 0.0000 38.3314
#
#
#
# Elastic Compliance Matrix: (Units=1/GPa)
#
#
# Indices 1 2 3 4 5 6 
#
# 1 0.011504 -0.002687 -0.005149 0.000000 -0.001481 0.000000
# 2 -0.002687 0.026244 -0.009402 0.000000 -0.001179 0.000000
# 3 -0.005149 -0.009402 0.013342 0.000000 0.003506 0.000000
# 4 0.000000 0.000000 0.000000 0.030420 0.000000 -0.001321
# 5 -0.001481 -0.001179 0.003506 0.000000 0.035855 0.000000
# 6 0.000000 0.000000 0.000000 -0.001321 0.000000 0.026146
#
#
# Mechanical properties :
#
#
# Convention : Reuss Voigt Hill
#
# Bulk Modulus (GPa) = 60.19291 81.00799 70.60045
# Shear Modulus (GPa) = 27.24416 30.92309 29.08363
#
# Velocity S-wave (km/s) = 3.77088 4.01742 3.89610
# Velocity P-wave (km/s) = 7.09760 7.98749 7.55566
#
# Compressibility (1/GPa) = 0.01661325
#
# Stress axis : x y z
#
# Youngs Moduli (GPa) = 86.92282 38.10405 74.95381
#
# Poissons Ratio (x) = 0.10238 0.38594
# Poissons Ratio (y) = 0.23356 0.70474
# Poissons Ratio (z) = 0.44757 0.35827
#
# Static dielectric constant tensor:
#      x y z
#    x 1.630330 0.000000 -0.018360 
#    y 0.000000 1.655190 0.000000 
#    z -0.018360 0.000000 1.675130 
# 
# From -- ./inp_files/211180.got.cif
#   From: 2010.05.17/outbox.cif.g08.bks.cpg/sg12_106_cif.got.tgz:211180.got - 2010.06.03 13:09:07.
