data_PCOD9207415
_publ_section_title
;
Structure prediction by ZEFSAII (Michael W. Deem and Ramdas Pophale) SiO2 
 PCOD9207415
Probable space group: C 2/M
;
_chemical_formula_sum "Si O2"
_cell_formula_units_Z 64
_cell_length_a 20.761510
_cell_length_b 8.940488
_cell_length_c 24.816956
_cell_angle_alpha 90.000000
_cell_angle_beta 53.280009
_cell_angle_gamma 90.000000
_cell_volume 3692.398315
_symmetry_space_group_name_H-M "C 2/M"
_symmetry_group_IT_number 12
_symmetry_cell_setting 'monoclinic'
loop_
_space_group_symop_operation_xyz
x,y,z
-x,y,-z
-x,-y,-z
x,-y,z
1/2+x,1/2+y,z
1/2-x,1/2+y,-z
1/2-x,1/2-y,-z
1/2+x,1/2-y,z
loop_
_atom_site_type_symbol
_atom_site_label
_atom_site_fract_x
_atom_site_fract_y
_atom_site_fract_z
Si Si1 0.085334 0.178109 0.228586
Si Si2 0.684623 0.821289 0.492365
Si Si3 0.563225 0.179022 0.640568
Si Si4 0.239950 0.179439 0.848314
Si Si5 0.682151 0.679961 0.995904
Si Si6 0.213748 0.320960 0.643747
Si Si7 0.350152 0.179295 0.207703
Si Si8 0.023549 0.179293 0.138417
O O1 0.169457 0.259278 0.196233
O O2 0.054577 0.211687 0.183324
O O3 0.016704 0.235194 0.303307
O O4 0.095995 0.000000 0.227664
O O5 0.750000 0.750000 0.500000
O O6 0.599806 0.785869 0.563288
O O7 0.709822 0.757000 0.422088
O O8 0.693134 0.000000 0.488396
O O9 0.633795 0.216519 0.648583
O O10 0.550171 0.000000 0.650540
O O11 0.198998 0.221895 0.925792
O O12 0.191866 0.248594 0.822721
O O13 0.240285 0.000000 0.844324
O O14 0.687874 0.500000 0.997322
O O15 0.750000 0.750000 0.000000
O O16 0.594526 0.722731 0.061857
O O17 0.223562 0.500000 0.634869
O O18 0.196683 0.279313 0.713769
O O19 0.440926 0.237343 0.168250
O O20 0.349652 0.000000 0.203889
O O21 0.010743 0.000000 0.140887
#
# Coordination Sequence:
#
# PCOD9207415 Si02
#       8
#     8   8   8   8   8   8   8   8
#     4  11  21  34  57  85 112 145 187 233 276 328
#     4   9  17  28  46  75 110 145 181 225 274 324
#     4   9  17  31  50  78 113 144 181 227 276 327
#     4  11  24  40  59  82 112 150 186 228 284 338
#     4  10  21  38  60  84 112 145 183 231 281 332
#     4   9  18  32  51  76 109 147 183 225 276 327
#     4  11  23  39  58  82 115 151 189 232 277 331
#     4  10  21  37  58  85 113 144 186 232 279 332
#
# _framework density 17.332908
#
# number of rings (size 3 to 8) (size 9 to 14) (size 15 to 20)
#    0.000    2.000    2.500    2.250    0.000    5.500 
#    0.000    2.500    0.000    0.750    0.000    5.250 
#    0.000    0.000    0.000    0.000    0.000    0.000 
#
# Total GULP energy -178574.031132 kJ/mol
# GULP energy per Si atom -5580.438473 kJ/mol
# Density = 1.729346 g / cm^3
# Si number density = 17.332908 Si / 1000 Ang^3
#
#
#
# Elastic Constant Matrix: (Units=GPa)
#
#
# Indices 1 2 3 4 5 6 
#
# 1 99.5004 49.0992 76.6974 0.0000 6.4237 0.0001
# 2 49.0992 45.5198 65.0636 -0.0001 0.1638 -0.0001
# 3 76.6974 65.0636 193.8290 0.0000 -2.9017 0.0000
# 4 0.0000 -0.0001 0.0000 29.3233 0.0000 -2.2236
# 5 6.4237 0.1638 -2.9017 0.0000 21.2519 0.0000
# 6 0.0001 -0.0001 0.0000 -2.2236 0.0000 29.5720
#
#
#
# Elastic Compliance Matrix: (Units=1/GPa)
#
#
# Indices 1 2 3 4 5 6 
#
# 1 0.022649 -0.022005 -0.001679 0.000000 -0.006906 0.000000
# 2 -0.022005 0.063720 -0.012615 0.000000 0.004438 0.000000
# 3 -0.001679 -0.012615 0.010088 0.000000 0.001982 0.000000
# 4 0.000000 0.000000 0.000000 0.034298 0.000000 0.002579
# 5 -0.006906 0.004438 0.001982 0.000000 0.049378 0.000000
# 6 0.000000 0.000000 0.000000 0.002579 0.000000 0.034010
#
#
# Mechanical properties :
#
#
# Convention : Reuss Voigt Hill
#
# Bulk Modulus (GPa) = 41.91542 80.06327 60.98935
# Shear Modulus (GPa) = 16.96678 25.89537 21.43108
#
# Velocity S-wave (km/s) = 3.13210 3.86942 3.52012
# Velocity P-wave (km/s) = 6.10861 8.13972 7.19618
#
# Compressibility (1/GPa) = 0.02385757
#
# Stress axis : x y z
#
# Youngs Moduli (GPa) = 44.15262 15.69374 99.12984
#
# Poissons Ratio (x) = 0.34534 0.16642
# Poissons Ratio (y) = 0.97159 1.25055
# Poissons Ratio (z) = 0.07412 0.19798
#
# Static dielectric constant tensor:
#      x y z
#    x 1.549380 0.000000 0.008540 
#    y 0.000000 1.575360 0.000000 
#    z 0.008540 0.000000 1.613460 
# 
# From -- ./inp_files/345961.got.cif
#   From: 2010.05.17/outbox.cif.g08.bks.cpg/sg12_173_cif.got.tgz:345961.got - 2010.06.03 13:09:07.
