data_PCOD9207477
_publ_section_title
;
Structure prediction by ZEFSAII (Michael W. Deem and Ramdas Pophale) SiO2 
 PCOD9207477
Probable space group: C 2/M
;
_chemical_formula_sum "Si O2"
_cell_formula_units_Z 50
_cell_length_a 18.753385
_cell_length_b 8.913620
_cell_length_c 17.915101
_cell_angle_alpha 90.000000
_cell_angle_beta 117.430656
_cell_angle_gamma 90.000000
_cell_volume 2658.001279
_symmetry_space_group_name_H-M "C 2/M"
_symmetry_group_IT_number 12
_symmetry_cell_setting 'monoclinic'
loop_
_space_group_symop_operation_xyz
x,y,z
-x,y,-z
-x,-y,-z
x,-y,z
1/2+x,1/2+y,z
1/2-x,1/2+y,-z
1/2-x,1/2-y,-z
1/2+x,1/2-y,z
loop_
_atom_site_type_symbol
_atom_site_label
_atom_site_fract_x
_atom_site_fract_y
_atom_site_fract_z
Si Si1 0.355423 0.666823 0.373895
Si Si2 0.776225 0.179153 0.591027
Si Si3 0.500000 0.500000 0.500000
Si Si4 0.240373 0.820162 0.076440
Si Si5 0.439724 0.318399 0.752425
Si Si6 0.403063 0.821035 0.245087
Si Si7 0.420664 0.682705 0.916236
O O1 0.323110 0.500000 0.337741
O O2 0.287348 0.765968 0.378096
O O3 0.428645 0.628203 0.464587
O O4 0.393739 0.743367 0.320443
O O5 0.750000 0.250000 0.500000
O O6 0.864649 0.222653 0.663309
O O7 0.774667 0.000000 0.583658
O O8 0.320559 0.788001 0.161656
O O9 0.160508 0.767222 0.081380
O O10 0.233741 0.000000 0.065690
O O11 0.250000 0.750000 0.000000
O O12 0.447519 0.500000 0.754215
O O13 0.521031 0.245689 0.761676
O O14 0.423816 0.273453 0.830784
O O15 0.410910 0.000000 0.256201
O O16 0.420112 0.500000 0.916537
O O17 0.500000 0.730927 0.000000
#
# Coordination Sequence:
#
# PCOD9207477 Si02
#       7
#     8   8   2   8   8   8   8
#     4  10  22  41  63  85 116 155 199 244 299 356
#     4  11  24  40  61  87 121 158 200 249 304 356
#     4   8  24  40  66  84 120 148 204 256 292 360
#     4  10  21  37  58  86 121 155 197 245 297 356
#     4  10  22  39  60  85 117 157 198 243 297 359
#     4  11  23  38  59  88 123 157 199 250 301 355
#     4   9  17  33  59  85 110 145 192 236 284 348
#
# _framework density 18.811126000000002
#
# number of rings (size 3 to 8) (size 9 to 14) (size 15 to 20)
#    0.480    1.440    0.000    3.360    2.240    6.400 
#    0.000    1.600    0.000    2.880    0.000    0.000 
#    0.000    0.000    0.000    0.000    0.000    0.000 
#
# Total GULP energy -139239.995960 kJ/mol
# GULP energy per Si atom -5569.599838 kJ/mol
# Density = 1.876831 g / cm^3
# Si number density = 18.811126 Si / 1000 Ang^3
#
#
#
# Elastic Constant Matrix: (Units=GPa)
#
#
# Indices 1 2 3 4 5 6 
#
# 1 183.7873 40.7608 78.5788 0.0000 2.0495 0.0000
# 2 40.7608 29.1946 36.7267 0.0000 8.0803 0.0000
# 3 78.5788 36.7267 104.1258 0.0000 5.2001 0.0000
# 4 0.0000 0.0000 0.0000 20.9634 0.0000 -3.1903
# 5 2.0495 8.0803 5.2001 0.0000 37.9640 0.0000
# 6 0.0000 0.0000 0.0000 -3.1903 0.0000 37.0314
#
#
#
# Elastic Compliance Matrix: (Units=1/GPa)
#
#
# Indices 1 2 3 4 5 6 
#
# 1 0.008876 -0.007796 -0.004035 0.000000 0.001733 0.000000
# 2 -0.007796 0.072612 -0.019108 0.000000 -0.012417 0.000000
# 3 -0.004035 -0.019108 0.019307 0.000000 0.001640 0.000000
# 4 0.000000 0.000000 0.000000 0.048336 0.000000 0.004164
# 5 0.001733 -0.012417 0.001640 0.000000 0.028665 0.000000
# 6 0.000000 0.000000 0.000000 0.004164 0.000000 0.027363
#
#
# Mechanical properties :
#
#
# Convention : Reuss Voigt Hill
#
# Bulk Modulus (GPa) = 25.69609 69.91558 47.80584
# Shear Modulus (GPa) = 17.85663 29.92786 23.89225
#
# Velocity S-wave (km/s) = 3.08435 3.99302 3.56773
# Velocity P-wave (km/s) = 5.13556 7.64897 6.51463
#
# Compressibility (1/GPa) = 0.03891642
#
# Stress axis : x y z
#
# Youngs Moduli (GPa) = 112.66409 13.77190 51.79583
#
# Poissons Ratio (x) = 0.10736 0.20900
# Poissons Ratio (y) = 0.87831 0.98971
# Poissons Ratio (z) = 0.45461 0.26315
#
# Static dielectric constant tensor:
#      x y z
#    x 1.617580 0.000000 0.001500 
#    y 0.000000 1.650730 0.000000 
#    z 0.001500 0.000000 1.652920 
# 
# From -- ./inp_files/275742.got.cif
#   From: 2010.05.17/outbox.cif.g08.bks.cpg/sg12_138_cif.got.tgz:275742.got - 2010.06.03 13:09:07.
