data_PCOD9207705
_publ_section_title
;
Structure prediction by ZEFSAII (Michael W. Deem and Ramdas Pophale) SiO2 
 PCOD9207705
Probable space group: C 2/M
;
_chemical_formula_sum "Si O2"
_cell_formula_units_Z 56
_cell_length_a 30.876387
_cell_length_b 14.231917
_cell_length_c 9.572097
_cell_angle_alpha 90.000000
_cell_angle_beta 46.598067
_cell_angle_gamma 90.000000
_cell_volume 3056.070486
_symmetry_space_group_name_H-M "C 2/M"
_symmetry_group_IT_number 12
_symmetry_cell_setting 'monoclinic'
loop_
_space_group_symop_operation_xyz
x,y,z
-x,y,-z
-x,-y,-z
x,-y,z
1/2+x,1/2+y,z
1/2-x,1/2+y,-z
1/2-x,1/2-y,-z
1/2+x,1/2-y,z
loop_
_atom_site_type_symbol
_atom_site_label
_atom_site_fract_x
_atom_site_fract_y
_atom_site_fract_z
Si Si1 0.356081 0.388574 0.958794
Si Si2 0.945223 0.230171 0.226582
Si Si3 0.815056 0.231780 0.794361
Si Si4 0.835928 0.103805 0.481910
Si Si5 0.742563 0.350074 0.590338
Si Si6 0.139150 0.390535 0.497774
Si Si7 0.007194 0.891838 0.317632
O O1 0.346343 0.500000 0.950285
O O2 0.351070 0.325460 0.831420
O O3 0.422766 0.379659 0.870199
O O4 0.305694 0.354648 0.178183
O O5 0.891885 0.161373 0.296088
O O6 0.916061 0.331745 0.317320
O O7 0.968290 0.181910 0.318263
O O8 0.000000 0.232853 0.000000
O O9 0.813166 0.166249 0.661272
O O10 0.842256 0.330278 0.680544
O O11 0.750000 0.250000 0.000000
O O12 0.786257 0.094610 0.473791
O O13 0.853864 0.000000 0.489548
O O14 0.750000 0.250000 0.500000
O O15 0.804877 0.382181 0.519278
O O16 0.127479 0.500000 0.497055
O O17 0.000000 0.881346 0.500000
O O18 0.990826 0.000000 0.318743
#
# Coordination Sequence:
#
# PCOD9207705 Si02
#       7
#     8   8   8   8   8   8   8
#     4  11  22  37  63  93 124 157 190 238 306 366
#     4  11  23  39  60  86 115 153 201 249 289 348
#     4  11  21  37  59  90 122 156 193 239 288 358
#     4  11  22  36  59  89 123 152 187 244 304 358
#     4  12  21  39  58  88 121 156 196 239 298 355
#     4  11  24  41  62  85 118 161 204 247 294 348
#     4  10  21  37  59  89 122 155 190 234 298 364
#
# _framework density 18.324185
#
# number of rings (size 3 to 8) (size 9 to 14) (size 15 to 20)
#    0.000    1.000    4.286    4.714    0.000    4.286 
#    0.000    0.000    0.000    3.857    0.000    0.000 
#    0.000    0.000    0.000    0.000    0.000    0.000 
#
# Total GULP energy -156327.910826 kJ/mol
# GULP energy per Si atom -5583.139672 kJ/mol
# Density = 1.828248 g / cm^3
# Si number density = 18.324185 Si / 1000 Ang^3
#
#
#
# Elastic Constant Matrix: (Units=GPa)
#
#
# Indices 1 2 3 4 5 6 
#
# 1 97.6146 49.1728 28.5216 0.0000 3.3989 0.0000
# 2 49.1728 173.7741 57.0813 0.0000 -2.9835 0.0000
# 3 28.5216 57.0813 114.6839 0.0000 -9.4838 0.0000
# 4 0.0000 0.0000 0.0000-3432.4192 0.0000 83.0110
# 5 3.3989 -2.9835 -9.4838 0.0000 29.1594 0.0000
# 6 0.0000 0.0000 0.0000 83.0110 0.0000 22.2852
#
#
#
# Elastic Compliance Matrix: (Units=1/GPa)
#
#
# Indices 1 2 3 4 5 6 
#
# 1 0.012330 -0.002939 -0.001796 0.000000 -0.002322 0.000000
# 2 -0.002939 0.007585 -0.003033 0.000000 0.000132 0.000000
# 3 -0.001796 -0.003033 0.010962 0.000000 0.003464 0.000000
# 4 0.000000 0.000000 0.000000 -0.000267 0.000000 0.000996
# 5 -0.002322 0.000132 0.003464 0.000000 0.035705 0.000000
# 6 0.000000 0.000000 0.000000 0.000996 0.000000 0.041164
#
#
# Mechanical properties :
#
#
# Convention : Reuss Voigt Hill
#
# Bulk Modulus (GPa) = 65.18259 72.84709 69.01484
# Shear Modulus (GPa) = 39.02270 -659.44179 -310.20954
#
# Velocity S-wave (km/s) = 4.61974 -18.99095 -13.02525
# Velocity P-wave (km/s) = 8.00656 21.00081 13.72824
#
# Compressibility (1/GPa) = 0.01534152
#
# Stress axis : x y z
#
# Youngs Moduli (GPa) = 81.09981 131.83984 91.22028
#
# Poissons Ratio (x) = 0.38750 0.16380
# Poissons Ratio (y) = 0.23837 0.27670
# Poissons Ratio (z) = 0.14563 0.39992
#
# Static dielectric constant tensor:
#      x y z
#    x 1.668390 0.000000 0.014520 
#    y 0.000000 1.629760 0.000000 
#    z 0.014520 0.000000 1.647580 
# 
# From -- ./inp_files/111563.got.cif
#   From: 2010.05.17/outbox.cif.g08.bks.cpg/sg12_56_cif.got.tgz:111563.got - 2010.06.03 13:09:07.
