data_PCOD9207939
_publ_section_title
;
Structure prediction by ZEFSAII (Michael W. Deem and Ramdas Pophale) SiO2 
 PCOD9207939
Probable space group: C 2/M
;
_chemical_formula_sum "Si O2"
_cell_formula_units_Z 56
_cell_length_a 9.277203
_cell_length_b 24.977097
_cell_length_c 17.089464
_cell_angle_alpha 90.000000
_cell_angle_beta 133.571912
_cell_angle_gamma 90.000000
_cell_volume 2869.007960
_symmetry_space_group_name_H-M "C 2/M"
_symmetry_group_IT_number 12
_symmetry_cell_setting 'monoclinic'
loop_
_space_group_symop_operation_xyz
x,y,z
-x,y,-z
-x,-y,-z
x,-y,z
1/2+x,1/2+y,z
1/2-x,1/2+y,-z
1/2-x,1/2-y,-z
1/2+x,1/2-y,z
loop_
_atom_site_type_symbol
_atom_site_label
_atom_site_fract_x
_atom_site_fract_y
_atom_site_fract_z
Si Si1 0.187199 0.645170 0.626221
Si Si2 0.134196 0.861957 0.746411
Si Si3 0.208303 0.939290 0.917406
Si Si4 0.281000 0.257666 0.768581
Si Si5 0.966762 0.597486 0.146758
Si Si6 0.691224 0.783771 0.901727
Si Si7 0.264444 0.439662 0.788968
O O1 0.394825 0.637145 0.656081
O O2 0.175511 0.700416 0.672044
O O3 0.196698 0.600272 0.696344
O O4 0.000000 0.640863 0.500000
O O5 0.192590 0.889640 0.851346
O O6 0.188766 0.800308 0.751428
O O7 0.296039 0.894256 0.754135
O O8 0.002721 0.933814 0.890220
O O9 0.201606 0.000000 0.880375
O O10 0.398536 0.934199 0.044274
O O11 0.485466 0.244712 0.801439
O O12 0.318518 0.282569 0.869572
O O13 0.866180 0.656005 0.097995
O O14 0.861210 0.571453 0.181019
O O15 0.750000 0.750000 0.000000
O O16 0.231391 0.500000 0.749972
#
# Coordination Sequence:
#
# PCOD9207939 Si02
#       7
#     8   8   8   8   8   8   8
#     4  11  24  44  67  85 115 164 212 265 317 363
#     4  10  23  40  58  89 127 156 205 255 304 367
#     4  10  21  37  60  91 129 171 203 234 295 374
#     4  11  21  40  58  89 125 157 206 249 294 375
#     4  11  21  34  59  90 127 160 198 246 298 360
#     4  11  22  33  57  89 128 167 189 232 299 368
#     4  10  22  40  63  92 124 158 206 258 302 367
#
# _framework density 19.518943
#
# number of rings (size 3 to 8) (size 9 to 14) (size 15 to 20)
#    0.000    1.429    2.857    2.571    2.000    7.143 
#    0.000    0.714    0.000    0.857    0.000    0.000 
#    0.000    0.000    0.000    0.000    0.000    0.000 
#
# Total GULP energy -156024.721356 kJ/mol
# GULP energy per Si atom -5572.311477 kJ/mol
# Density = 1.947452 g / cm^3
# Si number density = 19.518943 Si / 1000 Ang^3
#
#
#
# Elastic Constant Matrix: (Units=GPa)
#
#
# Indices 1 2 3 4 5 6 
#
# 1 90.2644 21.5397 16.2986 0.0000 18.9960 0.0000
# 2 21.5397 80.3004 40.4621 0.0000 10.9033 0.0000
# 3 16.2986 40.4621 91.6903 0.0000 15.7509 0.0001
# 4 0.0000 0.0000 0.0000 9.3785 0.0000 10.5213
# 5 18.9960 10.9033 15.7509 0.0000 17.7144 0.0000
# 6 0.0000 0.0000 0.0001 10.5213 0.0000 19.6625
#
#
#
# Elastic Compliance Matrix: (Units=1/GPa)
#
#
# Indices 1 2 3 4 5 6 
#
# 1 0.014655 -0.002406 0.001065 0.000000 -0.015181 0.000000
# 2 -0.002406 0.016681 -0.006625 0.000000 -0.001796 0.000000
# 3 0.001065 -0.006625 0.015504 0.000000 -0.010850 0.000000
# 4 0.000000 0.000000 0.000000 0.266762 0.000000 -0.142742
# 5 -0.015181 -0.001796 -0.010850 0.000000 0.083484 0.000000
# 6 0.000000 0.000000 0.000000 -0.142742 0.000000 0.127239
#
#
# Mechanical properties :
#
#
# Convention : Reuss Voigt Hill
#
# Bulk Modulus (GPa) = 32.35442 46.53954 39.44698
# Shear Modulus (GPa) = 9.08166 21.61473 15.34820
#
# Velocity S-wave (km/s) = 2.15936 3.33133 2.80719
# Velocity P-wave (km/s) = 4.77797 6.22029 5.54622
#
# Compressibility (1/GPa) = 0.03090768
#
# Stress axis : x y z
#
# Youngs Moduli (GPa) = 68.23428 59.94952 64.49827
#
# Poissons Ratio (x) = 0.14426 -0.06867
# Poissons Ratio (y) = 0.16419 0.42728
# Poissons Ratio (z) = -0.07265 0.39715
#
# Static dielectric constant tensor:
#      x y z
#    x 1.764420 0.000000 0.037570 
#    y 0.000000 1.704660 0.000000 
#    z 0.037570 0.000000 1.643030 
# 
# From -- ./inp_files/259874.got.cif
#   From: 2010.05.17/outbox.cif.g08.bks.cpg/sg12_130_cif.got.tgz:259874.got - 2010.06.03 13:09:07.
