data_PCOD9207864
_publ_section_title
;
Structure prediction by ZEFSAII (Michael W. Deem and Ramdas Pophale) SiO2 
 PCOD9207864
Probable space group: C 2/M
;
_chemical_formula_sum "Si O2"
_cell_formula_units_Z 52
_cell_length_a 16.665811
_cell_length_b 7.838542
_cell_length_c 20.394628
_cell_angle_alpha 90.000000
_cell_angle_beta 52.134691
_cell_angle_gamma 90.000000
_cell_volume 2103.320187
_symmetry_space_group_name_H-M "C 2/M"
_symmetry_group_IT_number 12
_symmetry_cell_setting 'monoclinic'
loop_
_space_group_symop_operation_xyz
x,y,z
-x,y,-z
-x,-y,-z
x,-y,z
1/2+x,1/2+y,z
1/2-x,1/2+y,-z
1/2-x,1/2-y,-z
1/2+x,1/2-y,z
loop_
_atom_site_type_symbol
_atom_site_label
_atom_site_fract_x
_atom_site_fract_y
_atom_site_fract_z
Si Si1 0.067774 0.810088 0.388310
Si Si2 0.804052 0.500000 0.646446
Si Si3 0.099883 0.301882 0.106012
Si Si4 0.683188 0.201636 0.203896
Si Si5 0.860830 0.800360 0.419458
Si Si6 0.115515 0.293081 0.955652
Si Si7 0.597644 0.309627 0.742790
O O1 0.112568 0.652302 0.404902
O O2 0.127908 0.801620 0.288771
O O3 0.950481 0.782577 0.426443
O O4 0.081837 0.000000 0.409359
O O5 0.713363 0.352714 0.702660
O O6 0.128158 0.500000 0.091688
O O7 0.140835 0.237560 0.154853
O O8 0.138669 0.228718 0.018059
O O9 0.977213 0.288786 0.171693
O O10 0.661119 0.000000 0.228682
O O11 0.803349 0.222861 0.135965
O O12 0.750000 0.750000 0.500000
O O13 0.895914 0.722370 0.332262
O O14 0.849206 0.000000 0.408534
O O15 0.121058 0.500000 0.951853
O O16 0.000000 0.243530 0.000000
O O17 0.549165 0.500000 0.762507
#
# Coordination Sequence:
#
# PCOD9207864 Si02
#       7
#     8   4   8   8   8   8   8
#     4  11  23  41  67  98 135 176 221 273 336 394
#     4  10  24  42  67 101 142 172 224 268 336 407
#     4  10  21  37  60  88 126 169 222 278 329 390
#     4  11  22  37  60  90 125 169 228 274 331 394
#     4  10  22  41  68 100 128 171 222 269 327 392
#     4  10  23  38  54  84 123 169 220 277 338 390
#     4   9  21  40  61  93 128 169 216 260 331 392
#
# _framework density 24.722816999999999
#
# number of rings (size 3 to 8) (size 9 to 14) (size 15 to 20)
#    0.462    1.385    2.308    0.923    3.231    2.769 
#    0.000    1.538    0.000    1.846    0.000    0.000 
#    0.000    0.000    0.000    0.000    0.000    0.000 
#
# Total GULP energy -144838.365695 kJ/mol
# GULP energy per Si atom -5570.706373 kJ/mol
# Density = 2.466655 g / cm^3
# Si number density = 24.722817 Si / 1000 Ang^3
#
#
#
# Elastic Constant Matrix: (Units=GPa)
#
#
# Indices 1 2 3 4 5 6 
#
# 1 36.9368 30.5948 31.5001 0.0000 -11.7762 0.0004
# 2 30.5948 84.6338 20.8540 0.0000 -5.5764 0.0007
# 3 31.5001 20.8540 145.0800 0.0000 -1.1268 0.0000
# 4 0.0000 0.0000 0.0000 30.2733 0.0000 -18.6053
# 5 -11.7762 -5.5764 -1.1268 0.0000 49.1153 -0.0001
# 6 0.0004 0.0007 0.0000 -18.6053 -0.0001 28.8998
#
#
#
# Elastic Compliance Matrix: (Units=1/GPa)
#
#
# Indices 1 2 3 4 5 6 
#
# 1 0.050498 -0.015451 -0.008664 0.000000 0.010155 0.000000
# 2 -0.015451 0.017067 0.000888 0.000000 -0.001746 0.000000
# 3 -0.008664 0.000888 0.008633 0.000000 -0.001779 0.000000
# 4 0.000000 0.000000 0.000000 0.054658 0.000000 0.035188
# 5 0.010155 -0.001746 -0.001779 0.000000 0.022556 0.000000
# 6 0.000000 0.000000 0.000000 0.035188 0.000000 0.057256
#
#
# Mechanical properties :
#
#
# Convention : Reuss Voigt Hill
#
# Bulk Modulus (GPa) = 33.62148 48.06094 40.84121
# Shear Modulus (GPa) = 18.72405 33.90445 26.31425
#
# Velocity S-wave (km/s) = 2.75500 3.70724 3.26601
# Velocity P-wave (km/s) = 4.87329 6.14873 5.54779
#
# Compressibility (1/GPa) = 0.02974289
#
# Stress axis : x y z
#
# Youngs Moduli (GPa) = 19.80289 58.59208 115.84077
#
# Poissons Ratio (x) = 0.90529 1.00369
# Poissons Ratio (y) = 0.30597 -0.10285
# Poissons Ratio (z) = 0.17158 -0.05202
#
# Static dielectric constant tensor:
#      x y z
#    x 2.130260 0.000000 0.062180 
#    y 0.000000 1.903200 0.000000 
#    z 0.062180 0.000000 1.985580 
# 
# From -- ./inp_files/362650.got.cif
#   From: 2010.05.17/outbox.cif.g08.bks.cpg/sg12_182_cif.got.tgz:362650.got - 2010.06.03 13:09:07.
