data_PCOD9207512
_publ_section_title
;
Structure prediction by ZEFSAII (Michael W. Deem and Ramdas Pophale) SiO2 
 PCOD9207512
Probable space group: C 2/M
;
_chemical_formula_sum "Si O2"
_cell_formula_units_Z 64
_cell_length_a 15.108312
_cell_length_b 8.765709
_cell_length_c 33.895879
_cell_angle_alpha 90.000000
_cell_angle_beta 132.224397
_cell_angle_gamma 90.000000
_cell_volume 3324.189783
_symmetry_space_group_name_H-M "C 2/M"
_symmetry_group_IT_number 12
_symmetry_cell_setting 'monoclinic'
loop_
_space_group_symop_operation_xyz
x,y,z
-x,y,-z
-x,-y,-z
x,-y,z
1/2+x,1/2+y,z
1/2-x,1/2+y,-z
1/2-x,1/2-y,-z
1/2+x,1/2-y,z
loop_
_atom_site_type_symbol
_atom_site_label
_atom_site_fract_x
_atom_site_fract_y
_atom_site_fract_z
Si Si1 0.952143 0.681444 0.301516
Si Si2 0.171797 0.822121 0.891092
Si Si3 0.875654 0.182411 0.581346
Si Si4 0.989721 0.324588 0.892395
Si Si5 0.821296 0.182983 0.781894
Si Si6 0.401531 0.184253 0.503168
Si Si7 0.481892 0.320486 0.225931
Si Si8 0.109081 0.169475 0.003360
O O1 0.959354 0.500000 0.309104
O O2 0.814278 0.729744 0.266944
O O3 0.040522 0.761000 0.358501
O O4 0.983226 0.724879 0.265945
O O5 0.085297 0.702993 0.886494
O O6 0.298999 0.781714 0.947392
O O7 0.141482 0.802791 0.835937
O O8 0.140809 0.000000 0.890843
O O9 0.736634 0.227064 0.547747
O O10 0.919065 0.251249 0.552535
O O11 0.878868 0.000000 0.579447
O O12 0.972488 0.500000 0.897668
O O13 0.871117 0.255299 0.837228
O O14 0.051345 0.235926 0.946642
O O15 0.910725 0.218876 0.772354
O O16 0.825131 0.000000 0.787816
O O17 0.500000 0.233911 0.500000
O O18 0.407702 0.000000 0.506790
O O19 0.493923 0.500000 0.239282
O O20 0.162338 0.000000 0.011862
O O21 0.000000 0.152801 0.000000
#
# Coordination Sequence:
#
# PCOD9207512 Si02
#       8
#     8   8   8   8   8   8   8   8
#     4  11  23  38  60  86 119 158 196 240 289 343
#     4  10  21  39  60  80 108 143 182 230 288 351
#     4  10  21  37  58  88 123 156 197 244 287 336
#     4  11  22  37  59  82 107 140 182 232 287 348
#     4   9  21  41  60  81 112 154 195 236 291 352
#     4   9  19  38  63  88 119 161 201 238 286 340
#     4   9  20  39  60  82 111 148 192 239 289 345
#     4  11  24  38  54  79 110 142 180 229 285 350
#
# _framework density 19.252811999999999
#
# number of rings (size 3 to 8) (size 9 to 14) (size 15 to 20)
#    0.000    2.000    0.000    3.750    1.750    6.250 
#    0.000    5.000    0.000    0.000    0.000    0.000 
#    0.000    0.000    0.000    0.000    0.000    0.000 
#
# Total GULP energy -178513.958060 kJ/mol
# GULP energy per Si atom -5578.561189 kJ/mol
# Density = 1.920899 g / cm^3
# Si number density = 19.252812 Si / 1000 Ang^3
#
#
#
# Elastic Constant Matrix: (Units=GPa)
#
#
# Indices 1 2 3 4 5 6 
#
# 1 90.9707 20.4511 50.9749 0.0000 -1.2289 0.0000
# 2 20.4511 41.5761 36.8102 0.0000 -0.2999 0.0000
# 3 50.9749 36.8102 151.7106 0.0000 3.3112 0.0000
# 4 0.0000 0.0000 0.0000 36.1777 0.0000 -0.4544
# 5 -1.2289 -0.2999 3.3112 0.0000 21.5429 0.0000
# 6 0.0000 0.0000 0.0000 -0.4544 0.0000 24.5019
#
#
#
# Elastic Compliance Matrix: (Units=1/GPa)
#
#
# Indices 1 2 3 4 5 6 
#
# 1 0.013958 -0.003411 -0.003892 0.000000 0.001347 0.000000
# 2 -0.003411 0.031519 -0.006529 0.000000 0.001248 0.000000
# 3 -0.003892 -0.006529 0.009522 0.000000 -0.001776 0.000000
# 4 0.000000 0.000000 0.000000 0.027648 0.000000 0.000513
# 5 0.001347 0.001248 -0.001776 0.000000 0.046786 0.000000
# 6 0.000000 0.000000 0.000000 0.000513 0.000000 0.040823
#
#
# Mechanical properties :
#
#
# Convention : Reuss Voigt Hill
#
# Bulk Modulus (GPa) = 36.58044 55.63664 46.10854
# Shear Modulus (GPa) = 24.15090 28.17925 26.16507
#
# Velocity S-wave (km/s) = 3.54561 3.82991 3.69050
# Velocity P-wave (km/s) = 5.98357 6.96551 6.49312
#
# Compressibility (1/GPa) = 0.02733701
#
# Stress axis : x y z
#
# Youngs Moduli (GPa) = 71.64219 31.72644 105.01885
#
# Poissons Ratio (x) = 0.10820 0.40872
# Poissons Ratio (y) = 0.24434 0.68567
# Poissons Ratio (z) = 0.27882 0.20714
#
# Static dielectric constant tensor:
#      x y z
#    x 1.800000 0.000000 -0.175870 
#    y 0.000000 1.672460 0.000000 
#    z -0.175870 0.000000 2.031370 
# 
# From -- ./inp_files/375552.got.cif
#   From: 2010.05.17/outbox.cif.g08.bks.cpg/sg12_188_cif.got.tgz:375552.got - 2010.06.03 13:09:07.
