data_PCOD9207813
_publ_section_title
;
Structure prediction by ZEFSAII (Michael W. Deem and Ramdas Pophale) SiO2 
 PCOD9207813
Probable space group: C 2/M
;
_chemical_formula_sum "Si O2"
_cell_formula_units_Z 32
_cell_length_a 4.877825
_cell_length_b 23.836164
_cell_length_c 13.000566
_cell_angle_alpha 90.000000
_cell_angle_beta 77.266769
_cell_angle_gamma 90.000000
_cell_volume 1474.384142
_symmetry_space_group_name_H-M "C 2/M"
_symmetry_group_IT_number 12
_symmetry_cell_setting 'monoclinic'
loop_
_space_group_symop_operation_xyz
x,y,z
-x,y,-z
-x,-y,-z
x,-y,z
1/2+x,1/2+y,z
1/2-x,1/2+y,-z
1/2-x,1/2-y,-z
1/2+x,1/2-y,z
loop_
_atom_site_type_symbol
_atom_site_label
_atom_site_fract_x
_atom_site_fract_y
_atom_site_fract_z
Si Si1 0.703611 0.500000 0.580023
Si Si2 0.072472 0.904733 0.756943
Si Si3 0.500622 0.934504 0.883507
Si Si4 0.152660 0.283849 0.279565
Si Si5 0.750000 0.750000 0.500000
O O1 0.500000 0.500000 0.500000
O O2 0.659101 0.446013 0.657597
O O3 0.000000 0.500000 0.500000
O O4 0.203815 0.929224 0.851654
O O5 0.204314 0.843088 0.740774
O O6 0.737606 0.904168 0.796289
O O7 0.580576 0.000000 0.879293
O O8 0.500000 0.912937 0.000000
O O9 0.377698 0.234394 0.242108
O O10 0.057588 0.277121 0.407896
O O11 0.500000 0.699346 0.500000
#
# Coordination Sequence:
#
# PCOD9207813 Si02
#       5
#     4   8   8   8   4
#     4  12  26  40  59  94 137 176 208 248 336 396
#     4  12  23  42  66  94 136 167 212 274 326 385
#     4  11  22  41  70  98 126 163 217 275 331 395
#     4  10  21  37  60  86 120 166 218 260 299 362
#     4   8  16  30  50  76 108 144 212 250 274 336
#
# _framework density 21.703976000000001
#
# number of rings (size 3 to 8) (size 9 to 14) (size 15 to 20)
#    0.000    1.250    2.500    3.750    0.000    8.000 
#    0.000    0.000    0.000   15.000    0.000    0.000 
#    0.000    0.000    0.000    0.000    0.000    0.000 
#
# Total GULP energy -89084.954351 kJ/mol
# GULP energy per Si atom -5567.809647 kJ/mol
# Density = 2.165458 g / cm^3
# Si number density = 21.703976 Si / 1000 Ang^3
#
#
#
# Elastic Constant Matrix: (Units=GPa)
#
#
# Indices 1 2 3 4 5 6 
#
# 1 159.6154 -0.3876 -4.2101 0.0000 3.3402 0.0000
# 2 -0.3876 107.9121 13.4755 0.0000 -15.3147 0.0000
# 3 -4.2101 13.4755 53.0171 0.0000 10.5286 0.0000
# 4 0.0000 0.0000 0.0000 5.9771 0.0000 1.2019
# 5 3.3402 -15.3147 10.5286 0.0000 42.0351 0.0000
# 6 0.0000 0.0000 0.0000 1.2019 0.0000 27.0430
#
#
#
# Elastic Compliance Matrix: (Units=1/GPa)
#
#
# Indices 1 2 3 4 5 6 
#
# 1 0.006298 -0.000168 0.000688 0.000000 -0.000734 0.000000
# 2 -0.000168 0.010380 -0.003583 0.000000 0.004692 0.000000
# 3 0.000688 -0.003583 0.021149 0.000000 -0.006658 0.000000
# 4 0.000000 0.000000 0.000000 0.168812 0.000000 -0.007502
# 5 -0.000734 0.004692 -0.006658 0.000000 0.027225 0.000000
# 6 0.000000 0.000000 0.000000 -0.007502 0.000000 0.037312
#
#
# Mechanical properties :
#
#
# Convention : Reuss Voigt Hill
#
# Bulk Modulus (GPa) = 31.54339 37.58891 34.56615
# Shear Modulus (GPa) = 17.36904 35.78885 26.57894
#
# Velocity S-wave (km/s) = 2.83197 4.06514 3.50324
# Velocity P-wave (km/s) = 5.02578 6.27617 5.68545
#
# Compressibility (1/GPa) = 0.03170237
#
# Stress axis : x y z
#
# Youngs Moduli (GPa) = 158.77626 96.34262 47.28254
#
# Poissons Ratio (x) = 0.01614 -0.03255
# Poissons Ratio (y) = 0.02660 0.16943
# Poissons Ratio (z) = -0.10931 0.34523
#
# Static dielectric constant tensor:
#      x y z
#    x 1.844550 0.000000 -0.004890 
#    y 0.000000 1.838220 0.000000 
#    z -0.004890 0.000000 1.839250 
# 
# From -- ./inp_files/114937.got.cif
#   From: 2010.05.17/outbox.cif.g08.bks.cpg/sg12_58_cif.got.tgz:114937.got - 2010.06.03 13:09:07.
