data_PCOD9207373
_publ_section_title
;
Structure prediction by ZEFSAII (Michael W. Deem and Ramdas Pophale) SiO2 
 PCOD9207373
Probable space group: C 2/M
;
_chemical_formula_sum "Si O2"
_cell_formula_units_Z 32
_cell_length_a 10.543568
_cell_length_b 8.758848
_cell_length_c 18.289260
_cell_angle_alpha 90.000000
_cell_angle_beta 89.977357
_cell_angle_gamma 90.000000
_cell_volume 1689.004058
_symmetry_space_group_name_H-M "C 2/M"
_symmetry_group_IT_number 12
_symmetry_cell_setting 'monoclinic'
loop_
_space_group_symop_operation_xyz
x,y,z
-x,y,-z
-x,-y,-z
x,-y,z
1/2+x,1/2+y,z
1/2-x,1/2+y,-z
1/2-x,1/2-y,-z
1/2+x,1/2-y,z
loop_
_atom_site_type_symbol
_atom_site_label
_atom_site_fract_x
_atom_site_fract_y
_atom_site_fract_z
Si Si1 0.870665 0.183170 0.957657
Si Si2 0.628498 0.315769 0.541071
Si Si3 0.876460 0.683039 0.794989
Si Si4 0.882265 0.184266 0.289129
O O1 0.875044 0.246413 0.875648
O O2 0.861843 0.000000 0.956089
O O3 0.750000 0.250000 0.000000
O O4 0.000000 0.224921 0.000000
O O5 0.500000 0.267847 0.500000
O O6 0.635008 0.500000 0.538875
O O7 0.750000 0.250000 0.500000
O O8 0.624798 0.269269 0.625994
O O9 0.880986 0.500000 0.800400
O O10 0.747572 0.725413 0.752295
O O11 0.997776 0.742358 0.750708
O O12 0.895250 0.000000 0.286317
#
# Coordination Sequence:
#
# PCOD9207373 Si02
#       4
#     8   8   8   8
#     4  11  24  41  61  86 116 149 187 233 282 334
#     4  10  21  37  58  84 114 150 191 234 282 335
#     4  11  23  38  59  86 114 149 191 232 280 337
#     4  10  22  39  57  83 118 150 187 236 283 332
#
# _framework density 18.946076999999999
#
# number of rings (size 3 to 8) (size 9 to 14) (size 15 to 20)
#    0.000    1.500    0.000    4.500    0.000   11.500 
#    0.000    0.000    0.000    0.000    0.000    0.000 
#    0.000    0.000    0.000    0.000    0.000    0.000 
#
# Total GULP energy -89491.309586 kJ/mol
# GULP energy per Si atom -5593.206849 kJ/mol
# Density = 1.890295 g / cm^3
# Si number density = 18.946077 Si / 1000 Ang^3
#
#
#
# Elastic Constant Matrix: (Units=GPa)
#
#
# Indices 1 2 3 4 5 6 
#
# 1 228.2839 64.7788 137.5866 0.0000 -1.7933 0.0000
# 2 64.7788 33.1110 57.4441 0.0000 4.0324 0.0000
# 3 137.5866 57.4441 228.8171 0.0000 0.9527 0.0000
# 4 0.0000 0.0000 0.0000 24.9172 0.0000 -13.9515
# 5 -1.7933 4.0324 0.9527 0.0000 45.1717 0.0000
# 6 0.0000 0.0000 0.0000 -13.9515 0.0000 35.6733
#
#
#
# Elastic Compliance Matrix: (Units=1/GPa)
#
#
# Indices 1 2 3 4 5 6 
#
# 1 0.010526 -0.017439 -0.001960 0.000000 0.002016 0.000000
# 2 -0.017439 0.083325 -0.010400 0.000000 -0.007911 0.000000
# 3 -0.001960 -0.010400 0.008157 0.000000 0.000679 0.000000
# 4 0.000000 0.000000 0.000000 0.051385 0.000000 0.020096
# 5 0.002016 -0.007911 0.000679 0.000000 0.022910 0.000000
# 6 0.000000 0.000000 0.000000 0.020096 0.000000 0.035892
#
#
# Mechanical properties :
#
#
# Convention : Reuss Voigt Hill
#
# Bulk Modulus (GPa) = 23.57882 112.20345 67.89114
# Shear Modulus (GPa) = 17.48703 36.51262 26.99983
#
# Velocity S-wave (km/s) = 3.04137 4.39474 3.77913
# Velocity P-wave (km/s) = 4.98051 9.22511 7.41310
#
# Compressibility (1/GPa) = 0.04241094
#
# Stress axis : x y z
#
# Youngs Moduli (GPa) = 95.00395 12.00127 122.60029
#
# Poissons Ratio (x) = 0.20929 0.24025
# Poissons Ratio (y) = 1.65675 1.27500
# Poissons Ratio (z) = 0.18617 0.12481
#
# Static dielectric constant tensor:
#      x y z
#    x 1.620650 0.000000 0.021240 
#    y 0.000000 1.639360 0.000000 
#    z 0.021240 0.000000 1.624210 
# 
# From -- ./inp_files/201869.got.cif
#   From: 2010.05.17/outbox.cif.g08.bks.cpg/sg12_101_cif.got.tgz:201869.got - 2010.06.03 13:09:07.
