data_PCOD9207506
_publ_section_title
;
Structure prediction by ZEFSAII (Michael W. Deem and Ramdas Pophale) SiO2 
 PCOD9207506
Probable space group: C 2/M
;
_chemical_formula_sum "Si O2"
_cell_formula_units_Z 52
_cell_length_a 27.196887
_cell_length_b 17.583326
_cell_length_c 11.386661
_cell_angle_alpha 90.000000
_cell_angle_beta 151.549226
_cell_angle_gamma 90.000000
_cell_volume 2594.129182
_symmetry_space_group_name_H-M "C 2/M"
_symmetry_group_IT_number 12
_symmetry_cell_setting 'monoclinic'
loop_
_space_group_symop_operation_xyz
x,y,z
-x,y,-z
-x,-y,-z
x,-y,z
1/2+x,1/2+y,z
1/2-x,1/2+y,-z
1/2-x,1/2-y,-z
1/2+x,1/2-y,z
loop_
_atom_site_type_symbol
_atom_site_label
_atom_site_fract_x
_atom_site_fract_y
_atom_site_fract_z
Si Si1 0.678344 0.415490 0.102979
Si Si2 0.775921 0.839023 0.227371
Si Si3 0.453044 0.418484 0.705708
Si Si4 0.336634 0.088717 0.224342
Si Si5 0.958212 0.727107 0.539893
Si Si6 0.000000 0.794825 0.000000
Si Si7 0.357758 0.253775 0.887834
O O1 0.706847 0.500000 0.211935
O O2 0.553962 0.416507 0.834963
O O3 0.693922 0.337774 0.208890
O O4 0.739616 0.407845 0.110380
O O5 0.851402 0.907551 0.417082
O O6 0.852508 0.772725 0.342865
O O7 0.695972 0.866418 0.961524
O O8 0.720634 0.808053 0.227741
O O9 0.452900 0.500000 0.766430
O O10 0.460922 0.351041 0.815850
O O11 0.428515 0.137940 0.474285
O O12 0.360826 0.000000 0.255167
O O13 0.000000 0.749556 0.500000
O O14 0.045269 0.746180 0.818095
O O15 0.092271 0.747315 0.135561
#
# Coordination Sequence:
#
# PCOD9207506 Si02
#       7
#     8   8   8   8   8   4   8
#     4   9  18  34  55  83 119 148 185 234 290 352
#     4  12  22  37  60  87 119 157 193 243 288 353
#     4  10  21  37  58  88 120 152 191 243 300 348
#     4  11  23  37  57  88 122 161 196 232 289 354
#     4  12  22  38  60  87 120 159 193 240 290 348
#     4  10  21  40  62  82 117 150 198 250 297 342
#     4  11  22  40  59  89 114 155 203 242 294 341
#
# _framework density 20.045262000000001
#
# number of rings (size 3 to 8) (size 9 to 14) (size 15 to 20)
#    0.000    1.231    6.154    2.077    0.000    1.538 
#    0.000    2.308    0.000    0.000    0.000    2.692 
#    0.000    0.000    0.000    0.000    0.000    0.000 
#
# Total GULP energy -145018.883943 kJ/mol
# GULP energy per Si atom -5577.649382 kJ/mol
# Density = 1.999964 g / cm^3
# Si number density = 20.045262 Si / 1000 Ang^3
#
#
#
# Elastic Constant Matrix: (Units=GPa)
#
#
# Indices 1 2 3 4 5 6 
#
# 1 112.9293 20.7703 -2.5064 0.0000 23.2485 0.0000
# 2 20.7703 81.0568 5.9013 0.0000 12.3488 0.0000
# 3 -2.5064 5.9013 35.0009 0.0000 -0.2780 0.0000
# 4 0.0000 0.0000 0.0000 21.0805 0.0000 1.7397
# 5 23.2485 12.3488 -0.2780 0.0000 17.6422 0.0000
# 6 0.0000 0.0000 0.0000 1.7397 0.0000 23.9184
#
#
#
# Elastic Compliance Matrix: (Units=1/GPa)
#
#
# Indices 1 2 3 4 5 6 
#
# 1 0.012221 -0.000834 0.000893 0.000000 -0.015506 0.000000
# 2 -0.000834 0.014072 -0.002502 0.000000 -0.008790 0.000000
# 3 0.000893 -0.002502 0.029065 0.000000 0.001033 0.000000
# 4 0.000000 0.000000 0.000000 0.047724 0.000000 -0.003471
# 5 -0.015506 -0.008790 0.001033 0.000000 0.083285 0.000000
# 6 0.000000 0.000000 0.000000 -0.003471 0.000000 0.042061
#
#
# Mechanical properties :
#
#
# Convention : Reuss Voigt Hill
#
# Bulk Modulus (GPa) = 19.81379 30.81306 25.31342
# Shear Modulus (GPa) = 19.98896 26.18299 23.08597
#
# Velocity S-wave (km/s) = 3.16126 3.61805 3.39734
# Velocity P-wave (km/s) = 4.81983 5.73226 5.29573
#
# Compressibility (1/GPa) = 0.05046990
#
# Stress axis : x y z
#
# Youngs Moduli (GPa) = 81.82951 71.06264 34.40596
#
# Poissons Ratio (x) = 0.05927 -0.03071
# Poissons Ratio (y) = 0.06825 0.08609
# Poissons Ratio (z) = -0.07304 0.17781
#
# Static dielectric constant tensor:
#      x y z
#    x 1.720150 0.000000 0.015940 
#    y 0.000000 1.759280 0.000000 
#    z 0.015940 0.000000 1.717640 
# 
# From -- ./inp_files/184356.got.cif
#   From: 2010.05.17/outbox.cif.g08.bks.cpg/sg12_93_cif.got.tgz:184356.got - 2010.06.03 13:09:07.
