data_PCOD9207442
_publ_section_title
;
Structure prediction by ZEFSAII (Michael W. Deem and Ramdas Pophale) SiO2 
 PCOD9207442
Probable space group: C 2/M
;
_chemical_formula_sum "Si O2"
_cell_formula_units_Z 42
_cell_length_a 11.143472
_cell_length_b 12.477138
_cell_length_c 11.679344
_cell_angle_alpha 90.000000
_cell_angle_beta 95.387055
_cell_angle_gamma 90.000000
_cell_volume 1616.707730
_symmetry_space_group_name_H-M "C 2/M"
_symmetry_group_IT_number 12
_symmetry_cell_setting 'monoclinic'
loop_
_space_group_symop_operation_xyz
x,y,z
-x,y,-z
-x,-y,-z
x,-y,z
1/2+x,1/2+y,z
1/2-x,1/2+y,-z
1/2-x,1/2-y,-z
1/2+x,1/2-y,z
loop_
_atom_site_type_symbol
_atom_site_label
_atom_site_fract_x
_atom_site_fract_y
_atom_site_fract_z
Si Si1 0.601951 0.841458 0.238381
Si Si2 0.324174 0.654528 0.403612
Si Si3 0.000049 0.884154 0.796316
Si Si4 0.762333 0.877903 0.036973
Si Si5 0.000000 0.000000 0.500000
Si Si6 0.401287 0.113777 0.389994
O O1 0.693352 0.875681 0.347304
O O2 0.590282 0.714068 0.217383
O O3 0.661838 0.884335 0.128794
O O4 0.471216 0.873653 0.274806
O O5 0.414504 0.620416 0.307983
O O6 0.394210 0.593430 0.508015
O O7 0.324566 0.781915 0.407594
O O8 0.099887 0.877048 0.904767
O O9 0.940916 0.000000 0.794681
O O10 0.750199 0.000000 0.978769
O O11 0.750000 0.750000 0.000000
O O12 0.500000 0.114896 0.500000
O O13 0.338865 0.000000 0.385714
#
# Coordination Sequence:
#
# PCOD9207442 Si02
#       6
#     8   8   8   8   2   8
#     4  10  22  39  63  88 121 170 210 250 326 372
#     4  10  21  37  58  85 118 164 211 259 306 370
#     4   9  19  39  62  90 127 162 209 261 318 382
#     4  10  22  42  68  95 127 166 211 267 324 392
#     4  12  20  36  62  84 122 160 228 258 298 378
#     4  10  21  38  54  84 122 155 202 257 301 362
#
# _framework density 25.978722000000001
#
# number of rings (size 3 to 8) (size 9 to 14) (size 15 to 20)
#    0.000    2.095    1.905    0.571    2.667    3.048 
#    0.000   11.429    0.000    0.000    0.000    0.000 
#    0.000    0.000    0.000    0.000    0.000    0.000 
#
# Total GULP energy -116926.983931 kJ/mol
# GULP energy per Si atom -5567.951616 kJ/mol
# Density = 2.591959 g / cm^3
# Si number density = 25.978722 Si / 1000 Ang^3
#
#
#
# Elastic Constant Matrix: (Units=GPa)
#
#
# Indices 1 2 3 4 5 6 
#
# 1 94.3831 49.7062 21.3180 0.0000 -20.7806 0.0000
# 2 49.7062 288.4258 31.1480 0.0000 14.0203 0.0000
# 3 21.3180 31.1480 34.4775 0.0000 -16.1362 0.0000
# 4 0.0000 0.0000 0.0000 82.8512 0.0000 6.2966
# 5 -20.7806 14.0203 -16.1362 0.0000 48.7828 0.0000
# 6 0.0000 0.0000 0.0000 6.2966 0.0000 19.9465
#
#
#
# Elastic Compliance Matrix: (Units=1/GPa)
#
#
# Indices 1 2 3 4 5 6 
#
# 1 0.013815 -0.002180 -0.004171 0.000000 0.005132 0.000000
# 2 -0.002180 0.004503 -0.004449 0.000000 -0.003694 0.000000
# 3 -0.004171 -0.004449 0.041848 0.000000 0.013344 0.000000
# 4 0.000000 0.000000 0.000000 0.012367 0.000000 -0.003904
# 5 0.005132 -0.003694 0.013344 0.000000 0.028161 0.000000
# 6 0.000000 0.000000 0.000000 -0.003904 0.000000 0.051366
#
#
# Mechanical properties :
#
#
# Convention : Reuss Voigt Hill
#
# Bulk Modulus (GPa) = 25.92935 69.07008 47.49972
# Shear Modulus (GPa) = 26.80742 51.32373 39.06557
#
# Velocity S-wave (km/s) = 3.21580 4.44960 3.88203
# Velocity P-wave (km/s) = 4.87762 7.28310 6.19817
#
# Compressibility (1/GPa) = 0.03856633
#
# Stress axis : x y z
#
# Youngs Moduli (GPa) = 72.38464 222.08243 23.89578
#
# Poissons Ratio (x) = 0.48411 0.09967
# Poissons Ratio (y) = 0.15779 0.10632
# Poissons Ratio (z) = 0.30191 0.98809
#
# Static dielectric constant tensor:
#      x y z
#    x 2.002950 0.000000 -0.001200 
#    y 0.000000 2.062950 0.000000 
#    z -0.001200 0.000000 2.261770 
# 
# From -- ./inp_files/203370.got.cif
#   From: 2010.05.17/outbox.cif.g08.bks.cpg/sg12_102_cif.got.tgz:203370.got - 2010.06.03 13:09:07.
