data_PCOD9207026
_publ_section_title
;
Structure prediction by ZEFSAII (Michael W. Deem and Ramdas Pophale) SiO2 
 PCOD9207026
Probable space group: C 2/M
;
_chemical_formula_sum "Si O2"
_cell_formula_units_Z 64
_cell_length_a 8.809049
_cell_length_b 19.134987
_cell_length_c 21.093334
_cell_angle_alpha 90.000000
_cell_angle_beta 91.277005
_cell_angle_gamma 90.000000
_cell_volume 3554.631207
_symmetry_space_group_name_H-M "C 2/M"
_symmetry_group_IT_number 12
_symmetry_cell_setting 'monoclinic'
loop_
_space_group_symop_operation_xyz
x,y,z
-x,y,-z
-x,-y,-z
x,-y,z
1/2+x,1/2+y,z
1/2-x,1/2+y,-z
1/2-x,1/2-y,-z
1/2+x,1/2-y,z
loop_
_atom_site_type_symbol
_atom_site_label
_atom_site_fract_x
_atom_site_fract_y
_atom_site_fract_z
Si Si1 0.430759 0.418406 0.203911
Si Si2 0.910980 0.298009 0.320683
Si Si3 0.295740 0.803465 0.759698
Si Si4 0.622565 0.213004 0.955356
Si Si5 0.108505 0.194445 0.128637
Si Si6 0.065866 0.923749 0.570919
Si Si7 0.135929 0.219083 0.549266
Si Si8 0.332654 0.420249 0.678232
O O1 0.405822 0.500000 0.188445
O O2 0.276340 0.374804 0.214248
O O3 0.528292 0.374562 0.154221
O O4 0.537623 0.415102 0.267166
O O5 0.839399 0.237158 0.276801
O O6 0.908754 0.268618 0.392513
O O7 0.798400 0.363815 0.314732
O O8 0.072898 0.314094 0.291087
O O9 0.354677 0.751573 0.815951
O O10 0.731497 0.176936 0.904451
O O11 0.515292 0.268521 0.918114
O O12 0.500000 0.174249 0.000000
O O13 0.750000 0.250000 0.000000
O O14 0.177891 0.857949 0.575743
O O15 0.000000 0.931148 0.500000
O O16 0.922790 0.906931 0.614147
O O17 0.127829 0.000000 0.591139
O O18 0.250000 0.250000 0.500000
O O19 0.000000 0.206228 0.500000
O O20 0.274658 0.500000 0.677598
#
# Coordination Sequence:
#
# PCOD9207026 Si02
#       8
#     8   8   8   8   8   8   8   8
#     4  11  23  38  57  88 126 160 193 246 306 354
#     4  12  21  35  57  81 114 150 198 246 304 348
#     4  12  21  34  59  88 114 154 198 242 287 354
#     4   9  19  33  60  95 119 150 198 246 272 320
#     4  11  18  36  59  90 120 152 196 237 280 346
#     4   9  17  32  53  73  99 139 186 235 292 354
#     4  11  22  35  52  78 107 140 189 245 297 361
#     4  10  21  37  56  81 113 150 195 242 302 369
#
# _framework density 18.00468
#
# number of rings (size 3 to 8) (size 9 to 14) (size 15 to 20)
#    0.000    1.375    3.750    3.750    0.000    0.500 
#    0.000    0.000    0.000    6.750    0.000    0.000 
#    0.000    0.000    0.000    0.000    0.000    0.000 
#
# Total GULP energy -178288.593698 kJ/mol
# GULP energy per Si atom -5571.518553 kJ/mol
# Density = 1.796370 g / cm^3
# Si number density = 18.004680 Si / 1000 Ang^3
#
#
#
# Elastic Constant Matrix: (Units=GPa)
#
#
# Indices 1 2 3 4 5 6 
#
# 1 95.9724 56.7066 37.3756 0.0000 -34.5577 0.0000
# 2 56.7066 137.8250 27.7620 0.0000 -28.1139 0.0000
# 3 37.3756 27.7620 81.9545 0.0000 -20.0477 0.0000
# 4 0.0000 0.0000 0.0000 14.7319 0.0000 -5.0908
# 5 -34.5577 -28.1139 -20.0477 0.0000 46.4678 0.0000
# 6 0.0000 0.0000 0.0000 -5.0908 0.0000 33.2527
#
#
#
# Elastic Compliance Matrix: (Units=1/GPa)
#
#
# Indices 1 2 3 4 5 6 
#
# 1 0.018115 -0.004781 -0.004532 0.000000 0.008624 0.000000
# 2 -0.004781 0.009774 -0.000619 0.000000 0.002091 0.000000
# 3 -0.004532 -0.000619 0.015163 0.000000 0.002797 0.000000
# 4 0.000000 0.000000 0.000000 0.071671 0.000000 0.010972
# 5 0.008624 0.002091 0.002797 0.000000 0.030405 0.000000
# 6 0.000000 0.000000 0.000000 0.010972 0.000000 0.031753
#
#
# Mechanical properties :
#
#
# Convention : Reuss Voigt Hill
#
# Bulk Modulus (GPa) = 43.12818 62.16003 52.64411
# Shear Modulus (GPa) = 24.45294 31.81767 28.13531
#
# Velocity S-wave (km/s) = 3.68930 4.20836 3.95735
# Velocity P-wave (km/s) = 6.49259 7.62974 7.08402
#
# Compressibility (1/GPa) = 0.02318669
#
# Stress axis : x y z
#
# Youngs Moduli (GPa) = 55.20283 102.31350 65.95177
#
# Poissons Ratio (x) = 0.48918 0.29891
# Poissons Ratio (y) = 0.26393 0.04083
# Poissons Ratio (z) = 0.25019 0.06333
#
# Static dielectric constant tensor:
#      x y z
#    x 1.623280 0.000000 -0.033350 
#    y 0.000000 1.776750 0.000000 
#    z -0.033350 0.000000 1.677690 
# 
# From -- ./inp_files/300787.got.cif
#   From: 2010.05.17/outbox.cif.g08.bks.cpg/sg12_151_cif.got.tgz:300787.got - 2010.06.03 13:09:07.
