data_PCOD9207289
_publ_section_title
;
Structure prediction by ZEFSAII (Michael W. Deem and Ramdas Pophale) SiO2 
 PCOD9207289
Probable space group: C 2/M
;
_chemical_formula_sum "Si O2"
_cell_formula_units_Z 58
_cell_length_a 18.994672
_cell_length_b 19.455441
_cell_length_c 9.487707
_cell_angle_alpha 90.000000
_cell_angle_beta 61.451635
_cell_angle_gamma 90.000000
_cell_volume 3079.877189
_symmetry_space_group_name_H-M "C 2/M"
_symmetry_group_IT_number 12
_symmetry_cell_setting 'monoclinic'
loop_
_space_group_symop_operation_xyz
x,y,z
-x,y,-z
-x,-y,-z
x,-y,z
1/2+x,1/2+y,z
1/2-x,1/2+y,-z
1/2-x,1/2-y,-z
1/2+x,1/2-y,z
loop_
_atom_site_type_symbol
_atom_site_label
_atom_site_fract_x
_atom_site_fract_y
_atom_site_fract_z
Si Si1 0.000000 0.500000 0.000000
Si Si2 0.096497 0.920916 0.401872
Si Si3 0.406114 0.750247 0.242489
Si Si4 0.300691 0.304073 0.130629
Si Si5 0.577816 0.765652 0.192818
Si Si6 0.849558 0.772831 0.594617
Si Si7 0.382750 0.124994 0.043987
Si Si8 0.775019 0.079529 0.950128
O O1 0.931742 0.559607 0.042617
O O2 0.136356 0.854658 0.438812
O O3 0.000000 0.913278 0.500000
O O4 0.114643 0.000000 0.432225
O O5 0.137407 0.915353 0.207426
O O6 0.366146 0.689361 0.191211
O O7 0.497252 0.736823 0.200133
O O8 0.361061 0.761452 0.432332
O O9 0.396761 0.815838 0.148044
O O10 0.232926 0.254735 0.260071
O O11 0.269118 0.374223 0.094916
O O12 0.345347 0.267991 0.956731
O O13 0.586097 0.751277 0.349191
O O14 0.582342 0.844182 0.136440
O O15 0.290799 0.106784 0.098493
O O16 0.758677 0.000000 0.994725
#
# Coordination Sequence:
#
# PCOD9207289 Si02
#       8
#     2   8   8   8   8   8   8   8
#     4  12  20  40  68  94 134 160 212 268 318 376
#     4  10  21  37  57  88 122 159 210 258 311 376
#     4  11  24  36  59  93 128 158 206 265 325 364
#     4  11  22  39  62  88 124 157 217 267 314 373
#     4  11  20  38  61  90 120 158 215 255 311 374
#     4  12  22  38  63  91 123 166 207 271 314 375
#     4  11  21  38  64  93 122 165 209 262 310 383
#     4  11  22  38  66  92 122 172 217 258 316 385
#
# _framework density 18.83192
#
# number of rings (size 3 to 8) (size 9 to 14) (size 15 to 20)
#    0.000    0.966    4.828    4.966    0.000    0.000 
#    0.000    0.690    1.517    3.310    0.000    0.000 
#    0.000    0.000    0.000    0.000    0.000    0.000 
#
# Total GULP energy -161456.731958 kJ/mol
# GULP energy per Si atom -5567.473516 kJ/mol
# Density = 1.878906 g / cm^3
# Si number density = 18.831920 Si / 1000 Ang^3
#
#
#
# Elastic Constant Matrix: (Units=GPa)
#
#
# Indices 1 2 3 4 5 6 
#
# 1 106.4083 21.5178 31.4468 0.0000 -0.4401 0.0000
# 2 21.5178 100.9086 20.6132 0.0000 8.7091 0.0000
# 3 31.4468 20.6132 77.7090 0.0000 4.3843 0.0000
# 4 0.0000 0.0000 0.0000 10.8042 0.0000 -6.2903
# 5 -0.4401 8.7091 4.3843 0.0000 38.9034 0.0000
# 6 0.0000 0.0000 0.0000 -6.2903 0.0000 25.7737
#
#
#
# Elastic Compliance Matrix: (Units=1/GPa)
#
#
# Indices 1 2 3 4 5 6 
#
# 1 0.010919 -0.001581 -0.004052 0.000000 0.000934 0.000000
# 2 -0.001581 0.010871 -0.002119 0.000000 -0.002213 0.000000
# 3 -0.004052 -0.002119 0.015142 0.000000 -0.001278 0.000000
# 4 0.000000 0.000000 0.000000 0.107886 0.000000 0.026330
# 5 0.000934 -0.002213 -0.001278 0.000000 0.026355 0.000000
# 6 0.000000 0.000000 0.000000 0.026330 0.000000 0.045225
#
#
# Mechanical properties :
#
#
# Convention : Reuss Voigt Hill
#
# Bulk Modulus (GPa) = 46.66757 48.02016 47.34387
# Shear Modulus (GPa) = 20.91660 29.19281 25.05470
#
# Velocity S-wave (km/s) = 3.33633 3.94150 3.65147
# Velocity P-wave (km/s) = 6.29892 6.80210 6.55534
#
# Compressibility (1/GPa) = 0.02142816
#
# Stress axis : x y z
#
# Youngs Moduli (GPa) = 91.58493 91.98814 66.03997
#
# Poissons Ratio (x) = 0.14546 0.26758
# Poissons Ratio (y) = 0.14482 0.13993
# Poissons Ratio (z) = 0.37109 0.19491
#
# Static dielectric constant tensor:
#      x y z
#    x 1.714970 0.000000 -0.036490 
#    y 0.000000 1.675030 0.000000 
#    z -0.036490 0.000000 1.673400 
# 
# From -- ./inp_files/78008.got.cif
#   From: 2010.05.17/outbox.cif.g08.bks.cpg/sg12_40_cif.got.tgz:78008.got - 2010.06.03 13:09:07.
