data_PCOD9207804
_publ_section_title
;
Structure prediction by ZEFSAII (Michael W. Deem and Ramdas Pophale) SiO2 
 PCOD9207804
Probable space group: C 2/M
;
_chemical_formula_sum "Si O2"
_cell_formula_units_Z 40
_cell_length_a 9.834451
_cell_length_b 13.333815
_cell_length_c 17.078276
_cell_angle_alpha 90.000000
_cell_angle_beta 97.482164
_cell_angle_gamma 90.000000
_cell_volume 2220.418910
_symmetry_space_group_name_H-M "C 2/M"
_symmetry_group_IT_number 12
_symmetry_cell_setting 'monoclinic'
loop_
_space_group_symop_operation_xyz
x,y,z
-x,y,-z
-x,-y,-z
x,-y,z
1/2+x,1/2+y,z
1/2-x,1/2+y,-z
1/2-x,1/2-y,-z
1/2+x,1/2-y,z
loop_
_atom_site_type_symbol
_atom_site_label
_atom_site_fract_x
_atom_site_fract_y
_atom_site_fract_z
Si Si1 0.918687 0.386513 0.810482
Si Si2 0.233360 0.387806 0.806118
Si Si3 0.205295 0.254970 0.331714
Si Si4 0.138384 0.239642 0.058215
Si Si5 0.475862 0.379647 0.405147
O O1 0.871108 0.500000 0.802919
O O2 0.883255 0.332425 0.726657
O O3 0.856080 0.331924 0.880738
O O4 0.082392 0.382960 0.831833
O O5 0.263750 0.500000 0.783264
O O6 0.234906 0.318150 0.730494
O O7 0.337064 0.352201 0.880809
O O8 0.332309 0.319014 0.377852
O O9 0.101492 0.185883 0.375982
O O10 0.250000 0.250000 0.000000
O O11 0.000000 0.233574 0.000000
O O12 0.500000 0.380231 0.500000
O O13 0.471694 0.500000 0.380139
#
# Coordination Sequence:
#
# PCOD9207804 Si02
#       5
#     8   8   8   8   8
#     4  10  21  37  61  86 112 158 205 245 302 363
#     4  10  21  37  60  86 113 153 202 250 301 355
#     4  11  21  42  63  90 124 161 204 255 301 365
#     4  11  22  37  55  82 116 151 192 245 300 359
#     4  11  24  41  64  95 129 165 203 250 310 368
#
# _framework density 18.014617999999999
#
# number of rings (size 3 to 8) (size 9 to 14) (size 15 to 20)
#    0.000    1.400    4.000    1.800    0.000    1.600 
#    0.000    2.000    0.000    4.800    0.000    0.000 
#    0.000    0.000    0.000    0.000    0.000    0.000 
#
# Total GULP energy -111401.229060 kJ/mol
# GULP energy per Si atom -5570.061453 kJ/mol
# Density = 1.797362 g / cm^3
# Si number density = 18.014618 Si / 1000 Ang^3
#
#
#
# Elastic Constant Matrix: (Units=GPa)
#
#
# Indices 1 2 3 4 5 6 
#
# 1 97.0007 48.5270 46.3806 0.0000 -4.8834 0.0000
# 2 48.5270 119.6869 42.8234 0.0000 20.1004 0.0000
# 3 46.3806 42.8234 100.4441 0.0000 12.0246 0.0000
# 4 0.0000 0.0000 0.0000 8.3611 0.0000 0.3438
# 5 -4.8834 20.1004 12.0246 0.0000 17.9783 0.0000
# 6 0.0000 0.0000 0.0000 0.3438 0.0000 26.7909
#
#
#
# Elastic Compliance Matrix: (Units=1/GPa)
#
#
# Indices 1 2 3 4 5 6 
#
# 1 0.019087 -0.008298 -0.007617 0.000000 0.019556 0.000000
# 2 -0.008298 0.014987 -0.000307 0.000000 -0.018805 0.000000
# 3 -0.007617 -0.000307 0.015012 0.000000 -0.011767 0.000000
# 4 0.000000 0.000000 0.000000 0.119665 0.000000 -0.001536
# 5 0.019556 -0.018805 -0.011767 0.000000 0.089830 0.000000
# 6 0.000000 0.000000 0.000000 -0.001536 0.000000 0.037346
#
#
# Mechanical properties :
#
#
# Convention : Reuss Voigt Hill
#
# Bulk Modulus (GPa) = 60.08386 65.84373 62.96379
# Shear Modulus (GPa) = 14.97371 22.58610 18.77991
#
# Velocity S-wave (km/s) = 2.88618 3.54470 3.23225
# Velocity P-wave (km/s) = 6.67323 7.30634 6.99695
#
# Compressibility (1/GPa) = 0.01664341
#
# Stress axis : x y z
#
# Youngs Moduli (GPa) = 52.39177 66.72250 66.61116
#
# Poissons Ratio (x) = 0.55365 0.50738
# Poissons Ratio (y) = 0.43474 0.02045
# Poissons Ratio (z) = 0.39907 0.02048
#
# Static dielectric constant tensor:
#      x y z
#    x 1.634510 0.000000 0.002270 
#    y 0.000000 1.660180 0.000000 
#    z 0.002270 0.000000 1.575520 
# 
# From -- ./inp_files/194456.got.cif
#   From: 2010.05.17/outbox.cif.g08.bks.cpg/sg12_98_cif.got.tgz:194456.got - 2010.06.03 13:09:07.
