data_PCOD9207600
_publ_section_title
;
Structure prediction by ZEFSAII (Michael W. Deem and Ramdas Pophale) SiO2 
 PCOD9207600
Probable space group: C 2/M
;
_chemical_formula_sum "Si O2"
_cell_formula_units_Z 40
_cell_length_a 30.719276
_cell_length_b 8.285413
_cell_length_c 7.129299
_cell_angle_alpha 90.000000
_cell_angle_beta 91.748298
_cell_angle_gamma 90.000000
_cell_volume 1813.717963
_symmetry_space_group_name_H-M "C 2/M"
_symmetry_group_IT_number 12
_symmetry_cell_setting 'monoclinic'
loop_
_space_group_symop_operation_xyz
x,y,z
-x,y,-z
-x,-y,-z
x,-y,z
1/2+x,1/2+y,z
1/2-x,1/2+y,-z
1/2-x,1/2-y,-z
1/2+x,1/2-y,z
loop_
_atom_site_type_symbol
_atom_site_label
_atom_site_fract_x
_atom_site_fract_y
_atom_site_fract_z
Si Si1 0.946257 0.807314 0.838676
Si Si2 0.351982 0.692732 0.903972
Si Si3 0.033777 0.690791 0.736351
Si Si4 0.703764 0.192653 0.419265
Si Si5 0.627241 0.805901 0.676689
O O1 0.896190 0.761048 0.794636
O O2 0.985118 0.758452 0.704531
O O3 0.948493 0.000000 0.863613
O O4 0.956158 0.725991 0.041818
O O5 0.351191 0.500000 0.919866
O O6 0.309605 0.751762 0.789726
O O7 0.357927 0.766423 0.109984
O O8 0.031424 0.500000 0.704464
O O9 0.077691 0.757493 0.644835
O O10 0.750000 0.250000 0.500000
O O11 0.664771 0.257548 0.546048
O O12 0.703178 0.000000 0.425350
O O13 0.624919 0.000000 0.656005
#
# Coordination Sequence:
#
# PCOD9207600 Si02
#       5
#     8   8   8   8   8
#     4   9  16  27  46  76 112 146 180 218 264 319
#     4  10  21  37  59  86 115 149 187 227 275 331
#     4   9  15  26  48  77 108 143 183 222 263 316
#     4  11  24  42  62  83 110 143 184 236 287 336
#     4   9  20  38  59  84 113 148 188 229 276 329
#
# _framework density 22.054147
#
# number of rings (size 3 to 8) (size 9 to 14) (size 15 to 20)
#    0.000    2.400    0.000    3.600    0.000    5.600 
#    0.000    1.000    0.000    6.000    0.000    0.000 
#    0.000    0.000    0.000    0.000    0.000    0.000 
#
# Total GULP energy -111674.744840 kJ/mol
# GULP energy per Si atom -5583.737242 kJ/mol
# Density = 2.200395 g / cm^3
# Si number density = 22.054147 Si / 1000 Ang^3
#
#
#
# Elastic Constant Matrix: (Units=GPa)
#
#
# Indices 1 2 3 4 5 6 
#
# 1 113.4744 8.6301 32.9420 0.0000 20.4106 0.0000
# 2 8.6301 30.7677 -14.3194 0.0000 -0.5774 0.0000
# 3 32.9420 -14.3194 55.2593 0.0000 4.4224 0.0000
# 4 0.0000 0.0000 0.0000 -24.8751 0.0000 -1.8998
# 5 20.4106 -0.5774 4.4224 0.0000 38.1838 0.0000
# 6 0.0000 0.0000 0.0000 -1.8998 0.0000 32.7036
#
#
#
# Elastic Compliance Matrix: (Units=1/GPa)
#
#
# Indices 1 2 3 4 5 6 
#
# 1 0.013346 -0.008338 -0.009625 0.000000 -0.006145 0.000000
# 2 -0.008338 0.042180 0.015638 0.000000 0.003284 0.000000
# 3 -0.009625 0.015638 0.027713 0.000000 0.002172 0.000000
# 4 0.000000 0.000000 0.000000 -0.040023 0.000000 -0.002325
# 5 -0.006145 0.003284 0.002172 0.000000 0.029272 0.000000
# 6 0.000000 0.000000 0.000000 -0.002325 0.000000 0.030443
#
#
# Mechanical properties :
#
#
# Convention : Reuss Voigt Hill
#
# Bulk Modulus (GPa) = 12.72451 28.22299 20.47375
# Shear Modulus (GPa) = 37.37544 20.68569 29.03056
#
# Velocity S-wave (km/s) = 4.12115 3.06592 3.63206
# Velocity P-wave (km/s) = 5.33174 5.03568 5.18582
#
# Compressibility (1/GPa) = 0.07858849
#
# Stress axis : x y z
#
# Youngs Moduli (GPa) = 74.92718 23.70787 36.08435
#
# Poissons Ratio (x) = 0.19769 0.34732
# Poissons Ratio (y) = 0.62477 -0.56429
# Poissons Ratio (z) = 0.72118 -0.37075
#
# Static dielectric constant tensor:
#      x y z
#    x 1.848740 0.000000 -0.030320 
#    y 0.000000 1.749840 0.000000 
#    z -0.030320 0.000000 1.834790 
# 
# From -- ./inp_files/107491.got.cif
#   From: 2010.05.17/outbox.cif.g08.bks.cpg/sg12_54_cif.got.tgz:107491.got - 2010.06.03 13:09:07.
