data_PCOD9207617
_publ_section_title
;
Structure prediction by ZEFSAII (Michael W. Deem and Ramdas Pophale) SiO2 
 PCOD9207617
Probable space group: C 2/M
;
_chemical_formula_sum "Si O2"
_cell_formula_units_Z 50
_cell_length_a 20.752605
_cell_length_b 7.505580
_cell_length_c 15.396611
_cell_angle_alpha 90.000000
_cell_angle_beta 95.625517
_cell_angle_gamma 90.000000
_cell_volume 2386.631299
_symmetry_space_group_name_H-M "C 2/M"
_symmetry_group_IT_number 12
_symmetry_cell_setting 'monoclinic'
loop_
_space_group_symop_operation_xyz
x,y,z
-x,y,-z
-x,-y,-z
x,-y,z
1/2+x,1/2+y,z
1/2-x,1/2+y,-z
1/2-x,1/2-y,-z
1/2+x,1/2-y,z
loop_
_atom_site_type_symbol
_atom_site_label
_atom_site_fract_x
_atom_site_fract_y
_atom_site_fract_z
Si Si1 0.819100 0.784626 0.268982
Si Si2 0.278576 0.212020 0.598148
Si Si3 0.000000 0.000000 0.500000
Si Si4 0.448405 0.293507 0.059611
Si Si5 0.467087 0.208666 0.259216
Si Si6 0.307438 0.713376 0.073019
Si Si7 0.074555 0.716818 0.413782
O O1 0.770629 0.715425 0.335954
O O2 0.894763 0.736122 0.286511
O O3 0.797160 0.723190 0.170159
O O4 0.817453 0.000000 0.270757
O O5 0.250000 0.250000 0.500000
O O6 0.353723 0.265593 0.609535
O O7 0.280049 0.000000 0.610661
O O8 0.054988 0.840728 0.491576
O O9 0.441053 0.500000 0.032377
O O10 0.470125 0.289357 0.163117
O O11 0.376390 0.213849 0.049185
O O12 0.500000 0.212880 0.000000
O O13 0.521137 0.270924 0.334123
O O14 0.477975 0.000000 0.248836
O O15 0.314102 0.500000 0.080581
O O16 0.250000 0.750000 0.000000
O O17 0.071198 0.500000 0.428739
#
# Coordination Sequence:
#
# PCOD9207617 Si02
#       7
#     8   8   2   8   8   8   8
#     4   9  20  38  60  81 113 159 197 236 297 359
#     4  10  23  41  60  85 122 153 195 253 299 355
#     4  12  26  40  72  86 118 168 204 244 314 364
#     4   9  19  36  57  82 113 150 196 245 287 347
#     4  10  21  37  59  86 119 153 193 247 301 355
#     4   9  18  33  54  81 111 146 187 231 285 350
#     4  10  25  43  61  95 125 153 206 257 300 362
#
# _framework density 20.950030999999999
#
# number of rings (size 3 to 8) (size 9 to 14) (size 15 to 20)
#    0.000    2.400    0.000    1.680    5.600    4.800 
#    0.000    1.600    0.000    0.000    0.000    0.000 
#    0.000    0.000    0.000    0.000    0.000    0.000 
#
# Total GULP energy -139250.124621 kJ/mol
# GULP energy per Si atom -5570.004985 kJ/mol
# Density = 2.090235 g / cm^3
# Si number density = 20.950031 Si / 1000 Ang^3
#
#
#
# Elastic Constant Matrix: (Units=GPa)
#
#
# Indices 1 2 3 4 5 6 
#
# 1 172.4842 8.8167 103.6767 0.0000 -15.5271 0.0000
# 2 8.8167 67.0124 -1.5916 0.0000 -8.2076 0.0000
# 3 103.6767 -1.5916 110.3056 0.0000 -4.2333 0.0000
# 4 0.0000 0.0000 0.0000 13.4776 0.0000 -8.9514
# 5 -15.5271 -8.2076 -4.2333 0.0000 47.6260 0.0000
# 6 0.0000 0.0000 0.0000 -8.9514 0.0000 0.8825
#
#
#
# Elastic Compliance Matrix: (Units=1/GPa)
#
#
# Indices 1 2 3 4 5 6 
#
# 1 0.014049 -0.001779 -0.013112 0.000000 0.003108 0.000000
# 2 -0.001779 0.015481 0.001982 0.000000 0.002264 0.000000
# 3 -0.013112 0.001982 0.021340 0.000000 -0.002036 0.000000
# 4 0.000000 0.000000 0.000000 -0.012933 0.000000 -0.131187
# 5 0.003108 0.002264 -0.002036 0.000000 0.022220 0.000000
# 6 0.000000 0.000000 0.000000 -0.131187 0.000000 -0.197520
#
#
# Mechanical properties :
#
#
# Convention : Reuss Voigt Hill
#
# Bulk Modulus (GPa) = 39.91388 63.51176 51.71282
# Shear Modulus (GPa) = -48.45165 28.32392 -10.06387
#
# Velocity S-wave (km/s) = -4.81430 3.68091 -2.19412
# Velocity P-wave (km/s) = 3.43656 6.96040 4.28002
#
# Compressibility (1/GPa) = 0.02505394
#
# Stress axis : x y z
#
# Youngs Moduli (GPa) = 71.17704 64.59496 46.86086
#
# Poissons Ratio (x) = 0.11492 0.61442
# Poissons Ratio (y) = 0.12663 -0.09290
# Poissons Ratio (z) = 0.93324 -0.12806
#
# Static dielectric constant tensor:
#      x y z
#    x 1.744020 0.000000 -0.034010 
#    y 0.000000 1.817840 0.000000 
#    z -0.034010 0.000000 1.760650 
# 
# From -- ./inp_files/230050.got.cif
#   From: 2010.05.17/outbox.cif.g08.bks.cpg/sg12_116_cif.got.tgz:230050.got - 2010.06.03 13:09:07.
