data_PCOD9207019
_publ_section_title
;
Structure prediction by ZEFSAII (Michael W. Deem and Ramdas Pophale) SiO2 
 PCOD9207019
Probable space group: C 2/M
;
_chemical_formula_sum "Si O2"
_cell_formula_units_Z 60
_cell_length_a 25.085914
_cell_length_b 21.147303
_cell_length_c 5.651349
_cell_angle_alpha 90.000000
_cell_angle_beta 95.313602
_cell_angle_gamma 90.000000
_cell_volume 2985.154049
_symmetry_space_group_name_H-M "C 2/M"
_symmetry_group_IT_number 12
_symmetry_cell_setting 'monoclinic'
loop_
_space_group_symop_operation_xyz
x,y,z
-x,y,-z
-x,-y,-z
x,-y,z
1/2+x,1/2+y,z
1/2-x,1/2+y,-z
1/2-x,1/2-y,-z
1/2+x,1/2-y,z
loop_
_atom_site_type_symbol
_atom_site_label
_atom_site_fract_x
_atom_site_fract_y
_atom_site_fract_z
Si Si1 0.843591 0.427469 0.102136
Si Si2 0.712741 0.149914 0.565725
Si Si3 0.000000 0.669319 0.500000
Si Si4 0.267329 0.429115 0.239045
Si Si5 0.551064 0.264046 0.895351
Si Si6 0.439831 0.135219 0.871147
Si Si7 0.691911 0.263007 0.254979
Si Si8 0.152705 0.185436 0.749068
O O1 0.851732 0.500000 0.185744
O O2 0.836235 0.375803 0.305303
O O3 0.785693 0.425895 0.946578
O O4 0.892952 0.406539 0.957632
O O5 0.746124 0.089660 0.491141
O O6 0.698361 0.190009 0.326172
O O7 0.752040 0.198534 0.714078
O O8 0.970543 0.716369 0.310828
O O9 0.953629 0.628622 0.601987
O O10 0.288085 0.500000 0.237880
O O11 0.313346 0.378319 0.205113
O O12 0.590328 0.313364 0.789407
O O13 0.500000 0.294810 0.000000
O O14 0.573346 0.210183 0.088335
O O15 0.500000 0.121996 0.000000
O O16 0.661997 0.290456 0.481993
O O17 0.672023 0.271919 0.980499
#
# Coordination Sequence:
#
# PCOD9207019 Si02
#       8
#     8   8   4   8   8   8   8   8
#     4  11  22  37  56  80 114 159 206 247 287 344
#     4  10  21  37  56  80 122 152 196 249 299 355
#     4   8  18  38  55  82 115 146 188 242 316 370
#     4  10  23  39  57  82 121 163 200 240 290 353
#     4   9  20  35  60  86 116 149 189 247 311 358
#     4   9  20  36  55  80 111 154 194 250 302 352
#     4  10  23  34  61  90 121 154 195 245 309 353
#     4  11  22  39  59  93 121 158 196 243 300 368
#
# _framework density 20.099464999999999
#
# number of rings (size 3 to 8) (size 9 to 14) (size 15 to 20)
#    0.000    2.400    1.333    1.200    7.467    4.000 
#    0.000    0.333    0.000    0.400    0.000    0.467 
#    0.000    0.000    0.000    0.000    0.000    0.000 
#
# Total GULP energy -167136.349736 kJ/mol
# GULP energy per Si atom -5571.211658 kJ/mol
# Density = 2.005372 g / cm^3
# Si number density = 20.099465 Si / 1000 Ang^3
#
#
#
# Elastic Constant Matrix: (Units=GPa)
#
#
# Indices 1 2 3 4 5 6 
#
# 1 97.8873 41.7098 33.8330 0.0000 -40.3095 0.0000
# 2 41.7098 90.9018 26.1488 0.0000 -27.6804 0.0000
# 3 33.8330 26.1488 83.9705 0.0000 -29.9943 0.0000
# 4 0.0000 0.0000 0.0000 15.2967 0.0000 -2.4489
# 5 -40.3095 -27.6804 -29.9943 0.0000 39.1949 0.0000
# 6 0.0000 0.0000 0.0000 -2.4489 0.0000 22.9867
#
#
#
# Elastic Compliance Matrix: (Units=1/GPa)
#
#
# Indices 1 2 3 4 5 6 
#
# 1 0.018552 -0.003399 -0.000631 0.000000 0.016196 0.000000
# 2 -0.003399 0.014717 -0.001031 0.000000 0.006109 0.000000
# 3 -0.000631 -0.001031 0.016504 0.000000 0.011252 0.000000
# 4 0.000000 0.000000 0.000000 0.066508 0.000000 0.007086
# 5 0.016196 0.006109 0.011252 0.000000 0.055095 0.000000
# 6 0.000000 0.000000 0.000000 0.007086 0.000000 0.044258
#
#
# Mechanical properties :
#
#
# Convention : Reuss Voigt Hill
#
# Bulk Modulus (GPa) = 25.22113 52.90475 39.06294
# Shear Modulus (GPa) = 20.92285 26.90021 23.91153
#
# Velocity S-wave (km/s) = 3.22990 3.66232 3.45289
# Velocity P-wave (km/s) = 5.14636 6.65298 5.94757
#
# Compressibility (1/GPa) = 0.03964930
#
# Stress axis : x y z
#
# Youngs Moduli (GPa) = 53.90380 67.94683 60.59256
#
# Poissons Ratio (x) = 0.23095 0.03824
# Poissons Ratio (y) = 0.18322 0.06250
# Poissons Ratio (z) = 0.03402 0.07009
#
# Static dielectric constant tensor:
#      x y z
#    x 1.811350 0.000000 0.031300 
#    y 0.000000 1.692570 0.000000 
#    z 0.031300 0.000000 1.881110 
# 
# From -- ./inp_files/29178.got.cif
#   From: 2010.05.17/outbox.cif.g08.bks.cpg/sg12_15_cif.got.tgz:29178.got - 2010.06.03 13:09:07.
