data_PCOD9207155
_publ_section_title
;
Structure prediction by ZEFSAII (Michael W. Deem and Ramdas Pophale) SiO2 
 PCOD9207155
Probable space group: C 2/M
;
_chemical_formula_sum "Si O2"
_cell_formula_units_Z 56
_cell_length_a 20.728041
_cell_length_b 9.055911
_cell_length_c 31.580983
_cell_angle_alpha 90.000000
_cell_angle_beta 29.717858
_cell_angle_gamma 90.000000
_cell_volume 2938.736908
_symmetry_space_group_name_H-M "C 2/M"
_symmetry_group_IT_number 12
_symmetry_cell_setting 'monoclinic'
loop_
_space_group_symop_operation_xyz
x,y,z
-x,y,-z
-x,-y,-z
x,-y,z
1/2+x,1/2+y,z
1/2-x,1/2+y,-z
1/2-x,1/2-y,-z
1/2+x,1/2-y,z
loop_
_atom_site_type_symbol
_atom_site_label
_atom_site_fract_x
_atom_site_fract_y
_atom_site_fract_z
Si Si1 0.124557 0.326148 0.459672
Si Si2 0.166416 0.177348 0.275900
Si Si3 0.652560 0.177834 0.905708
Si Si4 0.124431 0.176293 0.550258
Si Si5 0.784772 0.824455 0.289838
Si Si6 0.953066 0.330385 0.882219
Si Si7 0.787631 0.829293 0.045035
O O1 0.134644 0.500000 0.465603
O O2 0.118012 0.230240 0.505350
O O3 0.242041 0.283201 0.361570
O O4 0.000000 0.310995 0.500000
O O5 0.277279 0.219410 0.178420
O O6 0.198151 0.250117 0.302805
O O7 0.017161 0.215982 0.348928
O O8 0.171650 0.000000 0.277342
O O9 0.729444 0.257200 0.899640
O O10 0.661385 0.000000 0.904425
O O11 0.500000 0.217417 0.000000
O O12 0.250000 0.250000 0.500000
O O13 0.137633 0.000000 0.544924
O O14 0.929430 0.771134 0.198707
O O15 0.770466 0.000000 0.294484
O O16 0.995195 0.500000 0.864175
O O17 0.841209 0.325695 0.910371
O O18 0.892565 0.267608 0.959814
O O19 0.829114 0.000000 0.024790
#
# Coordination Sequence:
#
# PCOD9207155 Si02
#       7
#     8   8   8   8   8   8   8
#     4  10  21  40  63  88 121 157 198 249 304 361
#     4  10  22  39  59  86 119 156 199 247 301 362
#     4  10  21  37  58  83 115 155 192 235 297 359
#     4  11  24  41  63  90 124 165 208 257 311 369
#     4  11  22  36  61  91 117 151 196 246 297 353
#     4  10  21  37  57  83 117 153 191 240 295 353
#     4  10  21  37  57  82 113 151 196 242 291 345
#
# _framework density 19.055804999999999
#
# number of rings (size 3 to 8) (size 9 to 14) (size 15 to 20)
#    0.000    1.714    1.429    2.571    0.000    6.857 
#    0.000    4.286    0.000    0.000    0.000    0.000 
#    0.000    0.000    0.000    0.000    0.000    0.000 
#
# Total GULP energy -156352.603962 kJ/mol
# GULP energy per Si atom -5584.021570 kJ/mol
# Density = 1.901243 g / cm^3
# Si number density = 19.055805 Si / 1000 Ang^3
#
#
#
# Elastic Constant Matrix: (Units=GPa)
#
#
# Indices 1 2 3 4 5 6 
#
# 1 54.9100 26.4315 35.5222 0.0000 10.5350 0.0004
# 2 26.4315 28.7289 28.2270 0.0003 8.0184 0.0003
# 3 35.5222 28.2270 110.6195 0.0002 0.6524 0.0000
# 4 0.0000 0.0003 0.0002 25.6408 -0.0001 0.7629
# 5 10.5350 8.0184 0.6524 -0.0001 21.6058 -0.0002
# 6 0.0004 0.0003 0.0000 0.7629 -0.0002 36.4086
#
#
#
# Elastic Compliance Matrix: (Units=1/GPa)
#
#
# Indices 1 2 3 4 5 6 
#
# 1 0.034914 -0.025456 -0.004672 0.000000 -0.007436 0.000000
# 2 -0.025456 0.072116 -0.010145 -0.000001 -0.014045 0.000000
# 3 -0.004672 -0.010145 0.013096 0.000000 0.005648 0.000000
# 4 0.000000 -0.000001 0.000000 0.039025 0.000000 -0.000818
# 5 -0.007436 -0.014045 0.005648 0.000000 0.054951 0.000001
# 6 0.000000 0.000000 0.000000 -0.000818 0.000001 0.027483
#
#
# Mechanical properties :
#
#
# Convention : Reuss Voigt Hill
#
# Bulk Modulus (GPa) = 25.26536 41.62442 33.44489
# Shear Modulus (GPa) = 14.91091 23.66957 19.29024
#
# Velocity S-wave (km/s) = 2.80033 3.52819 3.18512
# Velocity P-wave (km/s) = 4.87270 6.20390 5.57815
#
# Compressibility (1/GPa) = 0.03957988
#
# Stress axis : x y z
#
# Youngs Moduli (GPa) = 28.64146 13.86652 76.36143
#
# Poissons Ratio (x) = 0.35299 0.35677
# Poissons Ratio (y) = 0.72911 0.77466
# Poissons Ratio (z) = 0.13382 0.14067
#
# Static dielectric constant tensor:
#      x y z
#    x 1.651640 0.000000 -0.022710 
#    y 0.000000 1.630830 0.000000 
#    z -0.022710 0.000000 1.688940 
# 
# From -- ./inp_files/380647.got.cif
#   From: 2010.05.17/outbox.cif.g08.bks.cpg/sg12_191_cif.got.tgz:380647.got - 2010.06.03 13:09:07.
