data_PCOD9207414
_publ_section_title
;
Structure prediction by ZEFSAII (Michael W. Deem and Ramdas Pophale) SiO2 
 PCOD9207414
Probable space group: C 2/M
;
_chemical_formula_sum "Si O2"
_cell_formula_units_Z 64
_cell_length_a 28.635366
_cell_length_b 7.689356
_cell_length_c 13.630690
_cell_angle_alpha 90.000000
_cell_angle_beta 61.136415
_cell_angle_gamma 90.000000
_cell_volume 2628.459916
_symmetry_space_group_name_H-M "C 2/M"
_symmetry_group_IT_number 12
_symmetry_cell_setting 'monoclinic'
loop_
_space_group_symop_operation_xyz
x,y,z
-x,y,-z
-x,-y,-z
x,-y,z
1/2+x,1/2+y,z
1/2-x,1/2+y,-z
1/2-x,1/2-y,-z
1/2+x,1/2-y,z
loop_
_atom_site_type_symbol
_atom_site_label
_atom_site_fract_x
_atom_site_fract_y
_atom_site_fract_z
Si Si1 0.946331 0.294537 0.351883
Si Si2 0.560592 0.802547 0.256656
Si Si3 0.664993 0.199688 0.465784
Si Si4 0.718545 0.202348 0.903109
Si Si5 0.100924 0.800302 0.017083
Si Si6 0.278303 0.711802 0.331808
Si Si7 0.169556 0.202041 0.240217
Si Si8 0.896493 0.210111 0.209697
O O1 0.947051 0.500000 0.375289
O O2 0.891110 0.216074 0.447960
O O3 0.940126 0.274901 0.241273
O O4 0.002288 0.223237 0.334256
O O5 0.612862 0.713274 0.245872
O O6 0.561655 0.000000 0.292869
O O7 0.568758 0.801599 0.131278
O O8 0.722822 0.278525 0.434347
O O9 0.665568 0.199728 0.346958
O O10 0.664522 0.000000 0.500783
O O11 0.663585 0.297120 0.983553
O O12 0.721785 0.226152 0.781237
O O13 0.778004 0.264461 0.873280
O O14 0.711070 0.000000 0.935086
O O15 0.096897 0.733094 0.909699
O O16 0.082589 0.000000 0.037065
O O17 0.276297 0.500000 0.333576
O O18 0.337219 0.764030 0.307618
O O19 0.180625 0.000000 0.250656
O O20 0.897214 0.000000 0.207744
#
# Coordination Sequence:
#
# PCOD9207414 Si02
#       8
#     8   8   8   8   8   8   8   8
#     4  10  23  39  55  79 109 145 190 232 269 317
#     4  11  24  40  56  77 107 145 190 232 271 320
#     4   9  18  36  59  81 111 148 182 221 270 322
#     4   9  17  31  54  84 113 139 172 216 269 328
#     4  10  21  38  59  83 111 143 180 222 272 328
#     4   8  15  30  53  81 111 143 178 215 264 326
#     4  10  21  37  58  85 113 142 179 223 273 326
#     4   9  19  35  56  82 111 142 176 221 276 328
#
# _framework density 24.348860999999999
#
# number of rings (size 3 to 8) (size 9 to 14) (size 15 to 20)
#    0.000    2.500    0.000    2.250    0.000    7.500 
#    0.000    5.000    0.000    0.000    0.000    0.000 
#    0.000    0.000    0.000    0.000    0.000    0.000 
#
# Total GULP energy -178707.363634 kJ/mol
# GULP energy per Si atom -5584.605114 kJ/mol
# Density = 2.429344 g / cm^3
# Si number density = 24.348861 Si / 1000 Ang^3
#
#
#
# Elastic Constant Matrix: (Units=GPa)
#
#
# Indices 1 2 3 4 5 6 
#
# 1 120.8022 -1.0602 18.4529 0.0000 -24.6041 0.0000
# 2 -1.0602 69.2052 -1.5883 0.0000 -0.2761 0.0000
# 3 18.4529 -1.5883 43.5363 0.0000 -6.2505 0.0000
# 4 0.0000 0.0000 0.0000 16.3143 0.0000 5.5549
# 5 -24.6041 -0.2761 -6.2505 0.0000 27.0086 0.0000
# 6 0.0000 0.0000 0.0000 5.5549 0.0000 23.4707
#
#
#
# Elastic Compliance Matrix: (Units=1/GPa)
#
#
# Indices 1 2 3 4 5 6 
#
# 1 0.010581 0.000124 -0.003203 0.000000 0.008899 0.000000
# 2 0.000124 0.014465 0.000530 0.000000 0.000384 0.000000
# 3 -0.003203 0.000530 0.024750 0.000000 0.002816 0.000000
# 4 0.000000 0.000000 0.000000 0.066668 0.000000 -0.015779
# 5 0.008899 0.000384 0.002816 0.000000 0.045787 0.000000
# 6 0.000000 0.000000 0.000000 -0.015779 0.000000 0.046341
#
#
# Mechanical properties :
#
#
# Convention : Reuss Voigt Hill
#
# Bulk Modulus (GPa) = 22.37135 29.46137 25.91636
# Shear Modulus (GPa) = 21.87329 27.87468 24.87399
#
# Velocity S-wave (km/s) = 3.00047 3.38717 3.19966
# Velocity P-wave (km/s) = 4.60560 5.23671 4.93126
#
# Compressibility (1/GPa) = 0.04470003
#
# Stress axis : x y z
#
# Youngs Moduli (GPa) = 94.51135 69.13052 40.40343
#
# Poissons Ratio (x) = -0.00858 0.12939
# Poissons Ratio (y) = -0.01173 -0.02142
# Poissons Ratio (z) = 0.30268 -0.03665
#
# Static dielectric constant tensor:
#      x y z
#    x 1.978980 0.000000 -0.015100 
#    y 0.000000 1.884320 0.000000 
#    z -0.015100 0.000000 1.976530 
# 
# From -- ./inp_files/249031.got.cif
#   From: 2010.05.17/outbox.cif.g08.bks.cpg/sg12_125_cif.got.tgz:249031.got - 2010.06.03 13:09:07.
