data_PCOD9207251
_publ_section_title
;
Structure prediction by ZEFSAII (Michael W. Deem and Ramdas Pophale) SiO2 
 PCOD9207251
Probable space group: C 2/M
;
_chemical_formula_sum "Si O2"
_cell_formula_units_Z 28
_cell_length_a 9.697578
_cell_length_b 24.451826
_cell_length_c 4.927966
_cell_angle_alpha 90.000000
_cell_angle_beta 89.316894
_cell_angle_gamma 90.000000
_cell_volume 1168.453446
_symmetry_space_group_name_H-M "C 2/M"
_symmetry_group_IT_number 12
_symmetry_cell_setting 'monoclinic'
loop_
_space_group_symop_operation_xyz
x,y,z
-x,y,-z
-x,-y,-z
x,-y,z
1/2+x,1/2+y,z
1/2-x,1/2+y,-z
1/2-x,1/2-y,-z
1/2+x,1/2-y,z
loop_
_atom_site_type_symbol
_atom_site_label
_atom_site_fract_x
_atom_site_fract_y
_atom_site_fract_z
Si Si1 0.132764 0.730214 0.803867
Si Si2 0.895393 0.500000 0.254184
Si Si3 0.159767 0.614120 0.905739
Si Si4 0.404182 0.346838 0.270939
O O1 0.250000 0.750000 0.000000
O O2 0.163570 0.668202 0.714640
O O3 0.122637 0.784264 0.622512
O O4 0.000000 0.724993 0.000000
O O5 0.810352 0.556352 0.237827
O O6 0.000000 0.500000 0.500000
O O7 0.000000 0.500000 0.000000
O O8 0.265757 0.625451 0.151391
O O9 0.000000 0.610736 0.000000
O O10 0.500000 0.374013 0.500000
O O11 0.500000 0.342339 0.000000
#
# Coordination Sequence:
#
# PCOD9207251 Si02
#       4
#     8   4   8   8
#     4   8  15  31  53  79 110 144 180 222 274 329
#     4  10  22  38  58  84 112 144 189 238 277 322
#     4   9  19  38  60  84 112 150 192 233 277 332
#     4  10  21  37  57  85 118 148 182 230 285 338
#
# _framework density 23.963301000000001
#
# number of rings (size 3 to 8) (size 9 to 14) (size 15 to 20)
#    0.000    2.857    0.000    0.000    0.000    5.714 
#    0.000   50.000    0.000    0.000    0.000    0.000 
#    0.000    0.000    0.000    0.000    0.000    0.000 
#
# Total GULP energy -78039.607694 kJ/mol
# GULP energy per Si atom -5574.257692 kJ/mol
# Density = 2.390876 g / cm^3
# Si number density = 23.963301 Si / 1000 Ang^3
#
#
#
# Elastic Constant Matrix: (Units=GPa)
#
#
# Indices 1 2 3 4 5 6 
#
# 1 114.4428 59.1323 50.2037 0.0000 42.7587 0.0000
# 2 59.1323 214.9645 49.0928 0.0000 21.2818 0.0000
# 3 50.2037 49.0928 127.7697 0.0000 31.0349 0.0000
# 4 0.0000 0.0000 0.0000 9.8517 0.0000 12.3706
# 5 42.7587 21.2818 31.0349 0.0000 62.4229 0.0000
# 6 0.0000 0.0000 0.0000 12.3706 0.0000 23.7906
#
#
#
# Elastic Compliance Matrix: (Units=1/GPa)
#
#
# Indices 1 2 3 4 5 6 
#
# 1 0.013980 -0.002489 -0.002749 0.000000 -0.007361 0.000000
# 2 -0.002489 0.005584 -0.001273 0.000000 0.000434 0.000000
# 3 -0.002749 -0.001273 0.010046 0.000000 -0.002678 0.000000
# 4 0.000000 0.000000 0.000000 0.292463 0.000000 -0.152075
# 5 -0.007361 0.000434 -0.002678 0.000000 0.022245 0.000000
# 6 0.000000 0.000000 0.000000 -0.152075 0.000000 0.121109
#
#
# Mechanical properties :
#
#
# Convention : Reuss Voigt Hill
#
# Bulk Modulus (GPa) = 60.28163 86.00384 73.14273
# Shear Modulus (GPa) = 10.33100 39.12958 24.73029
#
# Velocity S-wave (km/s) = 2.07859 4.04529 3.21597
# Velocity P-wave (km/s) = 5.56517 7.60177 6.66176
#
# Compressibility (1/GPa) = 0.01658880
#
# Stress axis : x y z
#
# Youngs Moduli (GPa) = 71.52977 179.06982 99.53984
#
# Poissons Ratio (x) = 0.44573 0.27361
# Poissons Ratio (y) = 0.17805 0.12672
# Poissons Ratio (z) = 0.19662 0.22797
#
# Static dielectric constant tensor:
#      x y z
#    x 1.981550 0.000000 -0.003570 
#    y 0.000000 2.045300 0.000000 
#    z -0.003570 0.000000 1.903470 
# 
# From -- ./inp_files/6329.got.cif
#   From: 2010.05.17/outbox.cif.g08.bks.cpg/sg12_4_cif.got.tgz:6329.got - 2010.06.03 13:09:07.
