data_PCOD9207138
_publ_section_title
;
Structure prediction by ZEFSAII (Michael W. Deem and Ramdas Pophale) SiO2 
 PCOD9207138
Probable space group: C 2/M
;
_chemical_formula_sum "Si O2"
_cell_formula_units_Z 64
_cell_length_a 16.674064
_cell_length_b 8.383586
_cell_length_c 22.532387
_cell_angle_alpha 90.000000
_cell_angle_beta 90.085962
_cell_angle_gamma 90.000000
_cell_volume 3149.763898
_symmetry_space_group_name_H-M "C 2/M"
_symmetry_group_IT_number 12
_symmetry_cell_setting 'monoclinic'
loop_
_space_group_symop_operation_xyz
x,y,z
-x,y,-z
-x,-y,-z
x,-y,z
1/2+x,1/2+y,z
1/2-x,1/2+y,-z
1/2-x,1/2-y,-z
1/2+x,1/2-y,z
loop_
_atom_site_type_symbol
_atom_site_label
_atom_site_fract_x
_atom_site_fract_y
_atom_site_fract_z
Si Si1 0.159871 0.189745 0.498569
Si Si2 0.594141 0.189012 0.622575
Si Si3 0.341232 0.693719 0.748886
Si Si4 0.915946 0.805963 0.625492
Si Si5 0.248272 0.690492 0.067499
Si Si6 0.089187 0.308672 0.867713
Si Si7 0.914949 0.191396 0.869170
Si Si8 0.661089 0.194575 0.746985
O O1 0.250000 0.250000 0.500000
O O2 0.118291 0.239993 0.559443
O O3 0.118353 0.247941 0.437973
O O4 0.159362 0.000000 0.495464
O O5 0.502497 0.231200 0.633806
O O6 0.641412 0.249939 0.680545
O O7 0.607122 0.000000 0.618785
O O8 0.342050 0.500000 0.749382
O O9 0.363457 0.741607 0.682284
O O10 0.400801 0.746703 0.800822
O O11 0.250992 0.744399 0.763601
O O12 0.921594 0.000000 0.624854
O O13 0.330558 0.750876 0.098579
O O14 0.165034 0.752164 0.096611
O O15 0.410560 0.000000 0.130423
O O16 0.250000 0.750000 0.000000
O O17 0.752207 0.500000 0.930070
O O18 0.101332 0.254505 0.799029
O O19 0.002357 0.250521 0.890164
O O20 0.915676 0.000000 0.871014
O O21 0.659139 0.000000 0.745669
#
# Coordination Sequence:
#
# PCOD9207138 Si02
#       8
#     8   8   8   8   8   8   8   8
#     4  11  23  39  58  79 109 150 199 252 311 375
#     4  11  22  36  57  84 117 155 200 251 308 368
#     4   9  17  34  61  88 119 161 206 254 309 372
#     4  10  21  37  57  81 114 156 201 248 308 372
#     4  12  26  46  70  99 134 173 218 264 317 379
#     4  11  22  41  68  98 134 174 217 267 323 380
#     4  11  22  40  67  99 134 173 216 265 323 383
#     4   9  18  35  60  89 123 164 206 254 312 373
#
# _framework density 20.318982999999999
#
# number of rings (size 3 to 8) (size 9 to 14) (size 15 to 20)
#    0.000    1.500    1.250    4.500    0.000    5.000 
#    0.000    5.000    0.000    0.000    0.000    0.000 
#    0.000    0.000    0.000    0.000    0.000    0.000 
#
# Total GULP energy -178727.456170 kJ/mol
# GULP energy per Si atom -5585.233005 kJ/mol
# Density = 2.027274 g / cm^3
# Si number density = 20.318983 Si / 1000 Ang^3
#
#
#
# Elastic Constant Matrix: (Units=GPa)
#
#
# Indices 1 2 3 4 5 6 
#
# 1 141.5956 25.7089 51.6111 0.0000 -3.3204 0.0000
# 2 25.7089 55.1584 24.0735 0.0000 -0.7241 0.0000
# 3 51.6111 24.0735 123.6904 0.0000 -2.0310 0.0000
# 4 0.0000 0.0000 0.0000 22.5339 0.0000 -2.5437
# 5 -3.3204 -0.7241 -2.0310 0.0000 22.2072 0.0000
# 6 0.0000 0.0000 0.0000 -2.5437 0.0000 35.7669
#
#
#
# Elastic Compliance Matrix: (Units=1/GPa)
#
#
# Indices 1 2 3 4 5 6 
#
# 1 0.008700 -0.002694 -0.003090 0.000000 0.000930 0.000000
# 2 -0.002694 0.020649 -0.002895 0.000000 0.000006 0.000000
# 3 -0.003090 -0.002895 0.009943 0.000000 0.000353 0.000000
# 4 0.000000 0.000000 0.000000 0.044737 0.000000 0.003182
# 5 0.000930 0.000006 0.000353 0.000000 0.045202 0.000000
# 6 0.000000 0.000000 0.000000 0.003182 0.000000 0.028185
#
#
# Mechanical properties :
#
#
# Convention : Reuss Voigt Hill
#
# Bulk Modulus (GPa) = 45.59171 58.13682 51.86427
# Shear Modulus (GPa) = 27.45973 30.70500 29.08236
#
# Velocity S-wave (km/s) = 3.68017 3.89157 3.78734
# Velocity P-wave (km/s) = 6.36749 6.99046 6.68624
#
# Compressibility (1/GPa) = 0.02193381
#
# Stress axis : x y z
#
# Youngs Moduli (GPa) = 114.94556 48.42935 100.56911
#
# Poissons Ratio (x) = 0.13046 0.31081
# Poissons Ratio (y) = 0.30965 0.29111
# Poissons Ratio (z) = 0.35524 0.14019
#
# Static dielectric constant tensor:
#      x y z
#    x 1.710530 0.000000 -0.010240 
#    y 0.000000 1.673220 0.000000 
#    z -0.010240 0.000000 1.810340 
# 
# From -- ./inp_files/338840.got.cif
#   From: 2010.05.17/outbox.cif.g08.bks.cpg/sg12_170_cif.got.tgz:338840.got - 2010.06.03 13:09:07.
