data_PCOD9207502
_publ_section_title
;
Structure prediction by ZEFSAII (Michael W. Deem and Ramdas Pophale) SiO2 
 PCOD9207502
Probable space group: C 2/M
;
_chemical_formula_sum "Si O2"
_cell_formula_units_Z 44
_cell_length_a 17.100309
_cell_length_b 12.082125
_cell_length_c 17.581323
_cell_angle_alpha 90.000000
_cell_angle_beta 143.974045
_cell_angle_gamma 90.000000
_cell_volume 2136.427576
_symmetry_space_group_name_H-M "C 2/M"
_symmetry_group_IT_number 12
_symmetry_cell_setting 'monoclinic'
loop_
_space_group_symop_operation_xyz
x,y,z
-x,y,-z
-x,-y,-z
x,-y,z
1/2+x,1/2+y,z
1/2-x,1/2+y,-z
1/2-x,1/2-y,-z
1/2+x,1/2-y,z
loop_
_atom_site_type_symbol
_atom_site_label
_atom_site_fract_x
_atom_site_fract_y
_atom_site_fract_z
Si Si1 0.804094 0.121748 0.046917
Si Si2 0.386330 0.369009 0.472636
Si Si3 0.774383 0.876693 0.855017
Si Si4 0.979982 0.244114 0.286923
Si Si5 0.000000 0.279860 0.000000
Si Si6 0.581636 0.128295 0.218030
O O1 0.906280 0.135513 0.195772
O O2 0.734113 0.000000 0.002477
O O3 0.750000 0.250000 0.000000
O O4 0.850104 0.113586 0.996096
O O5 0.500000 0.344205 0.500000
O O6 0.397502 0.500000 0.499860
O O7 0.414102 0.294339 0.568042
O O8 0.237667 0.350238 0.325444
O O9 0.631658 0.822592 0.761714
O O10 0.760078 0.000000 0.811928
O O11 0.870557 0.795797 0.886266
O O12 0.036739 0.303667 0.256628
O O13 0.005840 0.348361 0.926209
O O14 0.571136 0.000000 0.229503
#
# Coordination Sequence:
#
# PCOD9207502 Si02
#       6
#     8   8   8   8   4   8
#     4   9  18  33  54  87 119 156 204 248 302 362
#     4  10  22  41  63  90 123 160 205 259 315 380
#     4  10  21  37  58  87 124 160 203 256 308 369
#     4  11  20  39  63  89 120 163 205 257 311 374
#     4  12  22  40  60  88 126 168 204 252 318 374
#     4  11  24  40  61  92 125 161 210 261 314 375
#
# _framework density 20.595129
#
# number of rings (size 3 to 8) (size 9 to 14) (size 15 to 20)
#    0.000    1.636    1.818    3.273    0.000    0.727 
#    0.000    1.818    0.000   13.091    0.000    0.000 
#    0.000    0.000    0.000    0.000    0.000    0.000 
#
# Total GULP energy -122480.307006 kJ/mol
# GULP energy per Si atom -5567.286682 kJ/mol
# Density = 2.054825 g / cm^3
# Si number density = 20.595129 Si / 1000 Ang^3
#
#
#
# Elastic Constant Matrix: (Units=GPa)
#
#
# Indices 1 2 3 4 5 6 
#
# 1 84.6759 44.5315 16.4740 0.0000 10.5695 0.0000
# 2 44.5315 128.2967 38.3744 0.0000 -8.7643 0.0000
# 3 16.4740 38.3744 80.1228 0.0000 -3.5273 0.0000
# 4 0.0000 0.0000 0.0000 14.2942 0.0000 3.9776
# 5 10.5695 -8.7643 -3.5273 0.0000 35.3378 0.0000
# 6 0.0000 0.0000 0.0000 3.9776 0.0000 22.6158
#
#
#
# Elastic Compliance Matrix: (Units=1/GPa)
#
#
# Indices 1 2 3 4 5 6 
#
# 1 0.015697 -0.005630 -0.000803 0.000000 -0.006171 0.000000
# 2 -0.005630 0.011236 -0.004045 0.000000 0.004067 0.000000
# 3 -0.000803 -0.004045 0.014614 0.000000 0.000696 0.000000
# 4 0.000000 0.000000 0.000000 0.073558 0.000000 -0.012937
# 5 -0.006171 0.004067 0.000696 0.000000 0.031222 0.000000
# 6 0.000000 0.000000 0.000000 -0.012937 0.000000 0.046492
#
#
# Mechanical properties :
#
#
# Convention : Reuss Voigt Hill
#
# Bulk Modulus (GPa) = 48.56264 54.65056 51.60660
# Shear Modulus (GPa) = 22.66145 27.36394 25.01269
#
# Velocity S-wave (km/s) = 3.32072 3.64903 3.48874
# Velocity P-wave (km/s) = 6.19143 6.65937 6.42966
#
# Compressibility (1/GPa) = 0.02059196
#
# Stress axis : x y z
#
# Youngs Moduli (GPa) = 63.70635 88.99771 68.42839
#
# Poissons Ratio (x) = 0.50105 0.05493
# Poissons Ratio (y) = 0.35866 0.27679
# Poissons Ratio (z) = 0.05114 0.35999
#
# Static dielectric constant tensor:
#      x y z
#    x 1.757130 0.000000 0.035270 
#    y 0.000000 1.757030 0.000000 
#    z 0.035270 0.000000 1.754720 
# 
# From -- ./inp_files/277120.got.cif
#   From: 2010.05.17/outbox.cif.g08.bks.cpg/sg12_139_cif.got.tgz:277120.got - 2010.06.03 13:09:07.
