data_PCOD9207638
_publ_section_title
;
Structure prediction by ZEFSAII (Michael W. Deem and Ramdas Pophale) SiO2 
 PCOD9207638
Probable space group: C 2/M
;
_chemical_formula_sum "Si O2"
_cell_formula_units_Z 48
_cell_length_a 26.789179
_cell_length_b 11.561128
_cell_length_c 9.642348
_cell_angle_alpha 90.000000
_cell_angle_beta 111.096148
_cell_angle_gamma 90.000000
_cell_volume 2786.209027
_symmetry_space_group_name_H-M "C 2/M"
_symmetry_group_IT_number 12
_symmetry_cell_setting 'monoclinic'
loop_
_space_group_symop_operation_xyz
x,y,z
-x,y,-z
-x,-y,-z
x,-y,z
1/2+x,1/2+y,z
1/2-x,1/2+y,-z
1/2-x,1/2-y,-z
1/2+x,1/2-y,z
loop_
_atom_site_type_symbol
_atom_site_label
_atom_site_fract_x
_atom_site_fract_y
_atom_site_fract_z
Si Si1 0.563697 0.865785 0.563697
Si Si2 0.374479 0.272538 0.606801
Si Si3 0.703881 0.362530 0.703882
Si Si4 0.062713 0.000000 0.895698
Si Si5 0.437287 0.500000 0.770272
Si Si6 0.668737 0.861690 0.168738
Si Si7 0.625521 0.727463 0.857843
O O1 0.500000 0.856882 0.500000
O O2 0.587710 0.803848 0.453273
O O3 0.587710 0.803849 0.722148
O O4 0.579259 0.000000 0.579259
O O5 0.324524 0.309474 0.460117
O O6 0.406718 0.386785 0.684779
O O7 0.355653 0.199771 0.720397
O O8 0.693900 0.500000 0.693901
O O9 0.767240 0.343405 0.767240
O O10 0.675476 0.309473 0.811069
O O11 0.093282 0.113215 0.871342
O O12 0.000000 0.000000 0.791206
O O13 0.064771 0.000000 0.064771
O O14 0.658688 0.000000 0.158689
O O15 0.644347 0.800229 0.009092
#
# Coordination Sequence:
#
# PCOD9207638 Si02
#       7
#     8   8   8   4   4   8   8
#     4  10  22  39  59  84 116 152 192 235 288 349
#     4  11  21  39  61  85 118 152 192 243 293 348
#     4  10  21  37  59  87 117 150 191 242 291 350
#     4  11  22  37  61  91 119 151 193 245 299 342
#     4  11  22  37  61  91 119 151 193 245 299 342
#     4  11  23  38  58  85 116 157 198 237 288 344
#     4  11  21  39  61  85 118 152 192 243 293 348
#
# _framework density 17.227709000000001
#
# number of rings (size 3 to 8) (size 9 to 14) (size 15 to 20)
#    0.000    1.333    3.333    3.000    0.000    0.000 
#    0.000    2.500    3.667    4.000    0.000    0.000 
#    0.000    0.000    0.000    0.000    0.000    0.000 
#
# Total GULP energy -134082.383184 kJ/mol
# GULP energy per Si atom -5586.765966 kJ/mol
# Density = 1.718850 g / cm^3
# Si number density = 17.227709 Si / 1000 Ang^3
#
#
#
# Elastic Constant Matrix: (Units=GPa)
#
#
# Indices 1 2 3 4 5 6 
#
# 1 102.1054 95.2822 82.3237 0.0000 -0.3620 0.0000
# 2 95.2822 179.8754 98.5876 0.0000 -1.4858 0.0000
# 3 82.3237 98.5876 145.8764 0.0000 -19.3261 0.0000
# 4 0.0000 0.0000 0.0000 16.3665 0.0000 4.4968
# 5 -0.3620 -1.4858 -19.3261 0.0000 18.8243 0.0000
# 6 0.0000 0.0000 0.0000 4.4968 0.0000 26.3619
#
#
#
# Elastic Compliance Matrix: (Units=1/GPa)
#
#
# Indices 1 2 3 4 5 6 
#
# 1 0.025659 -0.007854 -0.010636 0.000000 -0.011046 0.000000
# 2 -0.007854 0.011927 -0.004078 0.000000 -0.003397 0.000000
# 3 -0.010636 -0.004078 0.017991 0.000000 0.017944 0.000000
# 4 0.000000 0.000000 0.000000 0.064105 0.000000 -0.010935
# 5 -0.011046 -0.003397 0.017944 0.000000 0.071065 0.000000
# 6 0.000000 0.000000 0.000000 -0.010935 0.000000 0.039799
#
#
# Mechanical properties :
#
#
# Convention : Reuss Voigt Hill
#
# Bulk Modulus (GPa) = 95.77926 108.91604 102.34765
# Shear Modulus (GPa) = 17.91080 22.42146 20.16613
#
# Velocity S-wave (km/s) = 3.22786 3.61151 3.42506
# Velocity P-wave (km/s) = 8.34319 8.98607 8.67059
#
# Compressibility (1/GPa) = 0.01044067
#
# Stress axis : x y z
#
# Youngs Moduli (GPa) = 38.97308 83.84456 55.58318
#
# Poissons Ratio (x) = 0.65848 0.59118
# Poissons Ratio (y) = 0.30608 0.22669
# Poissons Ratio (z) = 0.41452 0.34196
#
# Static dielectric constant tensor:
#      x y z
#    x 1.557800 0.000000 0.001970 
#    y 0.000000 1.555800 0.000000 
#    z 0.001970 0.000000 1.553420 
# 
# From -- ./inp_files/94538.got.cif
#   From: 2010.05.17/outbox.cif.g08.bks.cpg/sg12_48_cif.got.tgz:94538.got - 2010.06.03 13:09:07.
