data_PCOD9207017
_publ_section_title
;
Structure prediction by ZEFSAII (Michael W. Deem and Ramdas Pophale) SiO2 
 PCOD9207017
Probable space group: C 2/M
;
_chemical_formula_sum "Si O2"
_cell_formula_units_Z 56
_cell_length_a 10.907488
_cell_length_b 14.857438
_cell_length_c 22.883704
_cell_angle_alpha 90.000000
_cell_angle_beta 137.992728
_cell_angle_gamma 90.000000
_cell_volume 2481.801812
_symmetry_space_group_name_H-M "C 2/M"
_symmetry_group_IT_number 12
_symmetry_cell_setting 'monoclinic'
loop_
_space_group_symop_operation_xyz
x,y,z
-x,y,-z
-x,-y,-z
x,-y,z
1/2+x,1/2+y,z
1/2-x,1/2+y,-z
1/2-x,1/2-y,-z
1/2+x,1/2-y,z
loop_
_atom_site_type_symbol
_atom_site_label
_atom_site_fract_x
_atom_site_fract_y
_atom_site_fract_z
Si Si1 0.443940 0.900636 0.729466
Si Si2 0.875003 0.903119 0.896641
Si Si3 0.719438 0.101022 0.202991
Si Si4 0.545699 0.226296 0.947118
Si Si5 0.971671 0.751203 0.324204
Si Si6 0.867073 0.399999 0.364377
Si Si7 0.220509 0.899930 0.444097
O O1 0.655978 0.896182 0.827209
O O2 0.315567 0.896636 0.740074
O O3 0.415306 0.819395 0.674924
O O4 0.420968 0.000000 0.693992
O O5 0.935608 0.813694 0.885686
O O6 0.911003 0.000000 0.880842
O O7 0.000000 0.903598 0.000000
O O8 0.532309 0.135516 0.107994
O O9 0.870356 0.177294 0.246204
O O10 0.768079 0.000000 0.202188
O O11 0.500000 0.219594 0.000000
O O12 0.750000 0.250000 0.000000
O O13 0.836876 0.685041 0.312293
O O14 0.090586 0.815134 0.408673
O O15 0.823744 0.500000 0.325094
O O16 0.085715 0.396535 0.454622
O O17 0.770390 0.393728 0.392810
O O18 0.139027 0.000000 0.425688
#
# Coordination Sequence:
#
# PCOD9207017 Si02
#       7
#     8   8   8   8   8   8   8
#     4  10  21  37  56  80 114 153 192 242 297 349
#     4   9  17  34  58  82 105 144 195 238 278 338
#     4  11  24  39  56  84 123 157 188 239 309 359
#     4  11  23  40  65  87 116 157 206 247 296 354
#     4  12  20  34  58  85 113 148 195 236 287 353
#     4   9  19  36  57  83 111 146 193 239 279 335
#     4   9  19  36  56  79 114 152 185 230 291 347
#
# _framework density 22.564250999999999
#
# number of rings (size 3 to 8) (size 9 to 14) (size 15 to 20)
#    0.000    1.857    1.429    4.714    0.000    2.000 
#    0.000    0.000    0.000    0.000    0.000   12.000 
#    0.000    0.000    0.000    0.000    0.000    0.000 
#
# Total GULP energy -156238.886877 kJ/mol
# GULP energy per Si atom -5579.960246 kJ/mol
# Density = 2.251289 g / cm^3
# Si number density = 22.564251 Si / 1000 Ang^3
#
#
#
# Elastic Constant Matrix: (Units=GPa)
#
#
# Indices 1 2 3 4 5 6 
#
# 1 53.7795 19.3642 1.9803 0.0000 -5.9036 0.0000
# 2 19.3642 187.3808 28.8249 0.0000 0.0363 0.0000
# 3 1.9803 28.8249 66.8314 0.0000 5.5913 0.0000
# 4 0.0000 0.0000 0.0000 24.5887 0.0000 -3.9080
# 5 -5.9036 0.0363 5.5913 0.0000 28.6796 0.0000
# 6 0.0000 0.0000 0.0000 -3.9080 0.0000 20.6079
#
#
#
# Elastic Compliance Matrix: (Units=1/GPa)
#
#
# Indices 1 2 3 4 5 6 
#
# 1 0.019778 -0.002037 -0.000049 0.000000 0.004083 0.000000
# 2 -0.002037 0.005932 -0.002503 0.000000 0.000061 0.000000
# 3 -0.000049 -0.002503 0.016311 0.000000 -0.003187 0.000000
# 4 0.000000 0.000000 0.000000 0.041933 0.000000 0.007952
# 5 0.004083 0.000061 -0.003187 0.000000 0.036330 0.000000
# 6 0.000000 0.000000 0.000000 0.007952 0.000000 0.050033
#
#
# Mechanical properties :
#
#
# Convention : Reuss Voigt Hill
#
# Bulk Modulus (GPa) = 30.44881 45.37004 37.90943
# Shear Modulus (GPa) = 26.25451 31.96339 29.10895
#
# Velocity S-wave (km/s) = 3.41478 3.76779 3.59562
# Velocity P-wave (km/s) = 5.39177 6.25132 5.83739
#
# Compressibility (1/GPa) = 0.03284200
#
# Stress axis : x y z
#
# Youngs Moduli (GPa) = 50.56123 168.56757 61.30888
#
# Poissons Ratio (x) = 0.34340 0.00301
# Poissons Ratio (y) = 0.10300 0.15348
# Poissons Ratio (z) = 0.00248 0.42200
#
# Static dielectric constant tensor:
#      x y z
#    x 1.809860 0.000000 0.006580 
#    y 0.000000 1.880650 0.000000 
#    z 0.006580 0.000000 1.909170 
# 
# From -- ./inp_files/358241.got.cif
#   From: 2010.05.17/outbox.cif.g08.bks.cpg/sg12_180_cif.got.tgz:358241.got - 2010.06.03 13:09:07.
