data_PCOD9207736
_publ_section_title
;
Structure prediction by ZEFSAII (Michael W. Deem and Ramdas Pophale) SiO2 
 PCOD9207736
Probable space group: C 2/M
;
_chemical_formula_sum "Si O2"
_cell_formula_units_Z 40
_cell_length_a 14.469221
_cell_length_b 25.233367
_cell_length_c 14.464985
_cell_angle_alpha 90.000000
_cell_angle_beta 159.083260
_cell_angle_gamma 90.000000
_cell_volume 1885.470982
_symmetry_space_group_name_H-M "C 2/M"
_symmetry_group_IT_number 12
_symmetry_cell_setting 'monoclinic'
loop_
_space_group_symop_operation_xyz
x,y,z
-x,y,-z
-x,-y,-z
x,-y,z
1/2+x,1/2+y,z
1/2-x,1/2+y,-z
1/2-x,1/2-y,-z
1/2+x,1/2-y,z
loop_
_atom_site_type_symbol
_atom_site_label
_atom_site_fract_x
_atom_site_fract_y
_atom_site_fract_z
Si Si1 0.989870 0.938877 0.724385
Si Si2 0.059385 0.732682 0.946861
Si Si3 0.015506 0.373530 0.238187
Si Si4 0.277545 0.438382 0.733868
Si Si5 0.559119 0.797177 0.446140
O O1 0.784401 0.904762 0.473786
O O2 0.861807 0.939378 0.707033
O O3 0.011068 0.000000 0.713708
O O4 0.269931 0.911955 0.995824
O O5 0.019687 0.676744 0.860894
O O6 0.849628 0.774327 0.711022
O O7 0.349136 0.755240 0.210932
O O8 0.000000 0.727201 0.000000
O O9 0.026539 0.348314 0.351372
O O10 0.263769 0.500000 0.753022
O O11 0.000000 0.416650 0.500000
O O12 0.500000 0.410018 0.000000
O O13 0.500000 0.803318 0.500000
#
# Coordination Sequence:
#
# PCOD9207736 Si02
#       5
#     8   8   8   8   8
#     4  11  24  38  54  81 117 158 201 244 282 325
#     4  10  21  39  62  88 117 147 187 241 300 357
#     4  12  22  37  62  85 115 157 197 236 288 349
#     4   9  17  31  49  68  97 141 188 229 270 318
#     4  10  21  37  59  90 122 147 181 235 293 356
#
# _framework density 21.214858
#
# number of rings (size 3 to 8) (size 9 to 14) (size 15 to 20)
#    0.000    1.600    0.000    5.400    0.000    5.600 
#    0.000    0.000    0.000    4.200    0.000    0.000 
#    0.000    0.000    0.000    0.000    0.000    0.000 
#
# Total GULP energy -111840.406981 kJ/mol
# GULP energy per Si atom -5592.020349 kJ/mol
# Density = 2.116657 g / cm^3
# Si number density = 21.214858 Si / 1000 Ang^3
#
#
#
# Elastic Constant Matrix: (Units=GPa)
#
#
# Indices 1 2 3 4 5 6 
#
# 1 27.3838 15.4186 18.8681 0.0010 0.1172 -0.0004
# 2 15.4186 131.7229 61.0710 0.0004 -15.2868 -0.0004
# 3 18.8681 61.0710 160.8341 0.0026 -3.6469 -0.0011
# 4 0.0010 0.0004 0.0026 32.5510 0.0010 -2.0482
# 5 0.1172 -15.2868 -3.6469 0.0010 17.1256 -0.0005
# 6 -0.0004 -0.0004 -0.0011 -2.0482 -0.0005 16.5585
#
#
#
# Elastic Compliance Matrix: (Units=1/GPa)
#
#
# Indices 1 2 3 4 5 6 
#
# 1 0.041027 -0.003672 -0.003516 -0.000001 -0.004307 0.000000
# 2 -0.003672 0.010617 -0.003402 0.000000 0.008778 0.000000
# 3 -0.003516 -0.003402 0.007892 0.000000 -0.001332 0.000000
# 4 -0.000001 0.000000 0.000000 0.030962 -0.000002 0.003830
# 5 -0.004307 0.008778 -0.001332 -0.000002 0.065974 0.000002
# 6 0.000000 0.000000 0.000000 0.003830 0.000002 0.060866
#
#
# Mechanical properties :
#
#
# Convention : Reuss Voigt Hill
#
# Bulk Modulus (GPa) = 26.07176 56.73957 41.40566
# Shear Modulus (GPa) = 19.89635 28.21922 24.05778
#
# Velocity S-wave (km/s) = 3.06576 3.65110 3.37115
# Velocity P-wave (km/s) = 4.98476 6.67662 5.89174
#
# Compressibility (1/GPa) = 0.03835568
#
# Stress axis : x y z
#
# Youngs Moduli (GPa) = 24.37432 94.18510 126.71679
#
# Poissons Ratio (x) = 0.34583 0.44559
# Poissons Ratio (y) = 0.08950 0.43106
# Poissons Ratio (z) = 0.08571 0.32040
#
# Static dielectric constant tensor:
#      x y z
#    x 1.740980 0.000000 -0.022900 
#    y 0.000000 1.772690 0.000000 
#    z -0.022900 0.000000 1.763720 
# 
# From -- ./inp_files/219037.got.cif
#   From: 2010.05.17/outbox.cif.g08.bks.cpg/sg12_110_cif.got.tgz:219037.got - 2010.06.03 13:09:07.
