data_PCOD9207178
_publ_section_title
;
Structure prediction by ZEFSAII (Michael W. Deem and Ramdas Pophale) SiO2 
 PCOD9207178
Probable space group: C 2/M
;
_chemical_formula_sum "Si O2"
_cell_formula_units_Z 64
_cell_length_a 18.489364
_cell_length_b 8.877364
_cell_length_c 31.099958
_cell_angle_alpha 90.000000
_cell_angle_beta 137.875076
_cell_angle_gamma 90.000000
_cell_volume 3423.939194
_symmetry_space_group_name_H-M "C 2/M"
_symmetry_group_IT_number 12
_symmetry_cell_setting 'monoclinic'
loop_
_space_group_symop_operation_xyz
x,y,z
-x,y,-z
-x,-y,-z
x,-y,z
1/2+x,1/2+y,z
1/2-x,1/2+y,-z
1/2-x,1/2-y,-z
1/2+x,1/2-y,z
loop_
_atom_site_type_symbol
_atom_site_label
_atom_site_fract_x
_atom_site_fract_y
_atom_site_fract_z
Si Si1 0.579361 0.320002 0.426004
Si Si2 0.270808 0.180722 0.181775
Si Si3 0.368070 0.680496 0.058315
Si Si4 0.318733 0.318605 0.688570
Si Si5 0.262251 0.180033 0.573562
Si Si6 0.848616 0.681122 0.311450
Si Si7 0.565788 0.318995 0.814518
Si Si8 0.535288 0.180229 0.064486
O O1 0.578098 0.500000 0.420811
O O2 0.642082 0.248735 0.413200
O O3 0.651464 0.282168 0.499664
O O4 0.459443 0.256864 0.374759
O O5 0.319136 0.222970 0.249655
O O6 0.349996 0.238922 0.179608
O O7 0.153381 0.252764 0.124615
O O8 0.261717 0.000000 0.176070
O O9 0.363545 0.500000 0.051449
O O10 0.408588 0.714018 0.124472
O O11 0.450334 0.748487 0.060030
O O12 0.250000 0.750000 0.000000
O O13 0.315971 0.500000 0.683168
O O14 0.269835 0.245872 0.624367
O O15 0.248106 0.277833 0.699010
O O16 0.443392 0.274117 0.749444
O O17 0.272928 0.000000 0.579215
O O18 0.861492 0.500000 0.318531
O O19 0.575158 0.500000 0.812929
O O20 0.536991 0.000000 0.070568
O O21 0.500000 0.213418 0.000000
#
# Coordination Sequence:
#
# PCOD9207178 Si02
#       8
#     8   8   8   8   8   8   8   8
#     4  10  21  37  58  83 112 149 190 232 283 340
#     4  11  23  39  61  88 116 149 191 237 285 337
#     4  11  23  40  62  88 120 155 193 238 285 337
#     4  10  21  38  59  82 112 151 190 229 282 342
#     4  10  21  37  57  83 114 146 187 238 284 333
#     4  10  22  39  58  84 117 150 188 235 284 337
#     4  10  22  40  60  84 116 151 188 234 285 337
#     4  11  24  41  61  87 119 154 193 237 285 337
#
# _framework density 18.69192
#
# number of rings (size 3 to 8) (size 9 to 14) (size 15 to 20)
#    0.000    1.625    0.000    4.125    0.000   13.000 
#    0.000    3.750    0.000    0.000    0.000    0.000 
#    0.000    0.000    0.000    0.000    0.000    0.000 
#
# Total GULP energy -178914.306127 kJ/mol
# GULP energy per Si atom -5591.072066 kJ/mol
# Density = 1.864938 g / cm^3
# Si number density = 18.691920 Si / 1000 Ang^3
#
#
#
# Elastic Constant Matrix: (Units=GPa)
#
#
# Indices 1 2 3 4 5 6 
#
# 1 181.4242 67.6304 99.0371 0.0000 3.3053 0.0000
# 2 67.6304 46.5841 58.8440 0.0000 -2.7433 0.0001
# 3 99.0371 58.8440 128.8037 0.0000 4.9782 0.0000
# 4 0.0000 0.0000 0.0000 33.8109 0.0000 1.0213
# 5 3.3053 -2.7433 4.9782 0.0000 40.7915 0.0000
# 6 0.0000 0.0001 0.0000 1.0213 0.0000 38.0498
#
#
#
# Elastic Compliance Matrix: (Units=1/GPa)
#
#
# Indices 1 2 3 4 5 6 
#
# 1 0.012633 -0.014778 -0.002898 0.000000 -0.001664 0.000000
# 2 -0.014778 0.069695 -0.020803 0.000000 0.008423 0.000000
# 3 -0.002898 -0.020803 0.019633 0.000000 -0.003560 0.000000
# 4 0.000000 0.000000 0.000000 0.029600 0.000000 -0.000795
# 5 -0.001664 0.008423 -0.003560 0.000000 0.025651 0.000000
# 6 0.000000 0.000000 0.000000 -0.000795 0.000000 0.026303
#
#
# Mechanical properties :
#
#
# Convention : Reuss Voigt Hill
#
# Bulk Modulus (GPa) = 39.99410 89.75943 64.87676
# Shear Modulus (GPa) = 18.60073 31.28380 24.94227
#
# Velocity S-wave (km/s) = 3.15798 4.09547 3.65689
# Velocity P-wave (km/s) = 5.89407 8.39574 7.25357
#
# Compressibility (1/GPa) = 0.02500369
#
# Stress axis : x y z
#
# Youngs Moduli (GPa) = 79.15753 14.34831 50.93372
#
# Poissons Ratio (x) = 0.21204 0.14760
# Poissons Ratio (y) = 1.16978 1.05957
# Poissons Ratio (z) = 0.22940 0.29849
#
# Static dielectric constant tensor:
#      x y z
#    x 1.607840 0.000000 -0.005520 
#    y 0.000000 1.626730 0.000000 
#    z -0.005520 0.000000 1.624680 
# 
# From -- ./inp_files/378320.got.cif
#   From: 2010.05.17/outbox.cif.g08.bks.cpg/sg12_190_cif.got.tgz:378320.got - 2010.06.03 13:09:07.
