data_PCOD9207594
_publ_section_title
;
Structure prediction by ZEFSAII (Michael W. Deem and Ramdas Pophale) SiO2 
 PCOD9207594
Probable space group: C 2/M
;
_chemical_formula_sum "Si O2"
_cell_formula_units_Z 56
_cell_length_a 23.754507
_cell_length_b 7.900257
_cell_length_c 15.122247
_cell_angle_alpha 90.000000
_cell_angle_beta 110.825251
_cell_angle_gamma 90.000000
_cell_volume 2652.536976
_symmetry_space_group_name_H-M "C 2/M"
_symmetry_group_IT_number 12
_symmetry_cell_setting 'monoclinic'
loop_
_space_group_symop_operation_xyz
x,y,z
-x,y,-z
-x,-y,-z
x,-y,z
1/2+x,1/2+y,z
1/2-x,1/2+y,-z
1/2-x,1/2-y,-z
1/2+x,1/2-y,z
loop_
_atom_site_type_symbol
_atom_site_label
_atom_site_fract_x
_atom_site_fract_y
_atom_site_fract_z
Si Si1 0.090137 0.298537 0.796686
Si Si2 0.726945 0.796518 0.889667
Si Si3 0.688164 0.202710 0.353893
Si Si4 0.157889 0.301047 0.148891
Si Si5 0.674340 0.795011 0.544080
Si Si6 0.948497 0.196520 0.033893
Si Si7 0.942535 0.292559 0.412004
O O1 0.095434 0.500000 0.789326
O O2 0.158801 0.233072 0.839734
O O3 0.058188 0.269222 0.872076
O O4 0.057724 0.235578 0.690041
O O5 0.774028 0.721529 0.846744
O O6 0.727673 0.000000 0.880978
O O7 0.750000 0.750000 0.000000
O O8 0.655174 0.267269 0.247529
O O9 0.666859 0.264799 0.438143
O O10 0.759489 0.239492 0.388272
O O11 0.680617 0.000000 0.349088
O O12 0.142909 0.500000 0.139704
O O13 0.113680 0.214566 0.054519
O O14 0.619780 0.740207 0.575874
O O15 0.674516 0.000000 0.543506
O O16 0.962701 0.000000 0.054250
O O17 0.000000 0.274040 0.000000
O O18 0.943641 0.500000 0.413821
O O19 0.000000 0.235163 0.500000
#
# Coordination Sequence:
#
# PCOD9207594 Si02
#       7
#     8   8   8   8   8   8   8
#     4  10  21  37  59  86 113 146 188 234 284 337
#     4  11  21  34  56  86 117 149 188 234 283 336
#     4   9  19  33  53  82 113 144 181 226 278 331
#     4  11  22  36  56  85 116 149 188 231 281 340
#     4   9  17  33  55  80 110 145 183 227 277 329
#     4  11  25  42  58  78 108 148 190 232 282 341
#     4   9  18  33  56  84 111 142 185 231 274 325
#
# _framework density 21.111863
#
# number of rings (size 3 to 8) (size 9 to 14) (size 15 to 20)
#    0.000    2.000    1.429    2.143    0.000    5.143 
#    0.000    3.571    0.000    1.714    0.000    0.000 
#    0.000    0.000    0.000    0.000    0.000    0.000 
#
# Total GULP energy -156380.088696 kJ/mol
# GULP energy per Si atom -5585.003168 kJ/mol
# Density = 2.106381 g / cm^3
# Si number density = 21.111863 Si / 1000 Ang^3
#
#
#
# Elastic Constant Matrix: (Units=GPa)
#
#
# Indices 1 2 3 4 5 6 
#
# 1 98.6094 -6.6999 55.3419 0.0000 -16.3466 0.0000
# 2 -6.6999 17.0174 0.1554 0.0000 2.7741 0.0000
# 3 55.3419 0.1554 180.1365 0.0000 -21.2730 0.0000
# 4 0.0000 0.0000 0.0000 6.4379 0.0000 -2.5054
# 5 -16.3466 2.7741 -21.2730 0.0000 23.6524 0.0000
# 6 0.0000 0.0000 0.0000 -2.5054 0.0000 19.9920
#
#
#
# Elastic Compliance Matrix: (Units=1/GPa)
#
#
# Indices 1 2 3 4 5 6 
#
# 1 0.013286 0.004351 -0.003425 0.000000 0.005591 0.000000
# 2 0.004351 0.061490 -0.002110 0.000000 -0.006103 0.000000
# 3 -0.003425 -0.002110 0.007110 0.000000 0.004275 0.000000
# 4 0.000000 0.000000 0.000000 0.163296 0.000000 0.020465
# 5 0.005591 -0.006103 0.004275 0.000000 0.050704 0.000000
# 6 0.000000 0.000000 0.000000 0.020465 0.000000 0.052585
#
#
# Mechanical properties :
#
#
# Convention : Reuss Voigt Hill
#
# Bulk Modulus (GPa) = 12.57600 43.70645 28.14122
# Shear Modulus (GPa) = 13.25041 26.48083 19.86562
#
# Velocity S-wave (km/s) = 2.50797 3.54547 3.07085
# Velocity P-wave (km/s) = 3.78897 6.12435 5.09235
#
# Compressibility (1/GPa) = 0.07951654
#
# Stress axis : x y z
#
# Youngs Moduli (GPa) = 75.26871 16.26269 140.64010
#
# Poissons Ratio (x) = -0.07075 0.48171
# Poissons Ratio (y) = -0.32746 0.29681
# Poissons Ratio (z) = 0.25781 0.03432
#
# Static dielectric constant tensor:
#      x y z
#    x 1.750650 0.000000 -0.017260 
#    y 0.000000 1.766560 0.000000 
#    z -0.017260 0.000000 1.756820 
# 
# From -- ./inp_files/237474.got.cif
#   From: 2010.05.17/outbox.cif.g08.bks.cpg/sg12_119_cif.got.tgz:237474.got - 2010.06.03 13:09:07.
