data_PCOD9207807
_publ_section_title
;
Structure prediction by ZEFSAII (Michael W. Deem and Ramdas Pophale) SiO2 
 PCOD9207807
Probable space group: C 2/M
;
_chemical_formula_sum "Si O2"
_cell_formula_units_Z 56
_cell_length_a 14.281426
_cell_length_b 18.316579
_cell_length_c 19.836275
_cell_angle_alpha 90.000000
_cell_angle_beta 149.162080
_cell_angle_gamma 90.000000
_cell_volume 2659.893083
_symmetry_space_group_name_H-M "C 2/M"
_symmetry_group_IT_number 12
_symmetry_cell_setting 'monoclinic'
loop_
_space_group_symop_operation_xyz
x,y,z
-x,y,-z
-x,-y,-z
x,-y,z
1/2+x,1/2+y,z
1/2-x,1/2+y,-z
1/2-x,1/2-y,-z
1/2+x,1/2-y,z
loop_
_atom_site_type_symbol
_atom_site_label
_atom_site_fract_x
_atom_site_fract_y
_atom_site_fract_z
Si Si1 0.129294 0.671758 0.733562
Si Si2 0.604635 0.085736 0.216186
Si Si3 0.704931 0.820005 0.152953
Si Si4 0.008109 0.916886 0.724374
Si Si5 0.627887 0.585595 0.218891
Si Si6 0.715341 0.085142 0.432716
Si Si7 0.744740 0.671743 0.034263
O O1 0.179126 0.753898 0.743288
O O2 0.217091 0.618680 0.732529
O O3 0.223450 0.673977 0.865628
O O4 0.926850 0.642614 0.623376
O O5 0.681926 0.120394 0.196749
O O6 0.722328 0.098320 0.356968
O O7 0.410728 0.123378 0.109745
O O8 0.582036 0.000000 0.193793
O O9 0.830224 0.858181 0.173511
O O10 0.500000 0.800544 0.000000
O O11 0.859250 0.907323 0.691998
O O12 0.903378 0.909455 0.589090
O O13 0.079057 0.000000 0.775190
O O14 0.605201 0.500000 0.189480
O O15 0.445878 0.631190 0.092116
O O16 0.650455 0.000000 0.401055
O O17 0.750000 0.750000 0.000000
#
# Coordination Sequence:
#
# PCOD9207807 Si02
#       7
#     8   8   8   8   8   8   8
#     4  11  23  38  60  87 119 158 194 239 297 353
#     4  10  21  37  60  86 115 155 199 247 298 350
#     4  12  24  39  60  89 124 158 195 243 301 360
#     4  10  23  42  63  86 117 158 201 247 295 350
#     4  11  22  36  58  88 119 155 199 245 296 353
#     4   9  21  43  64  85 115 154 203 250 294 348
#     4  11  21  37  59  85 120 157 196 244 298 354
#
# _framework density 21.053478999999999
#
# number of rings (size 3 to 8) (size 9 to 14) (size 15 to 20)
#    0.000    1.429    0.000    6.000    0.000    7.429 
#    0.000    5.714    0.000    0.000    0.000    0.000 
#    0.000    0.000    0.000    0.000    0.000    0.000 
#
# Total GULP energy -156379.291969 kJ/mol
# GULP energy per Si atom -5584.974713 kJ/mol
# Density = 2.100556 g / cm^3
# Si number density = 21.053479 Si / 1000 Ang^3
#
#
#
# Elastic Constant Matrix: (Units=GPa)
#
#
# Indices 1 2 3 4 5 6 
#
# 1 80.6229 22.9412 -11.8791 -0.0032 11.2588 0.0019
# 2 22.9412 101.8453 5.3582 0.0051 13.1562 -0.0017
# 3 -11.8791 5.3582 33.1687 -0.0143 -0.9566 0.0194
# 4 -0.0032 0.0051 -0.0143 -10.3052 0.0013 39.6525
# 5 11.2588 13.1562 -0.9566 0.0013 11.9343 0.0003
# 6 0.0019 -0.0017 0.0194 39.6525 0.0003 -0.4591
#
#
#
# Elastic Compliance Matrix: (Units=1/GPa)
#
#
# Indices 1 2 3 4 5 6 
#
# 1 0.015504 -0.002279 0.005584 -0.000003 -0.011666 0.000003
# 2 -0.002279 0.011950 -0.003072 0.000002 -0.011269 -0.000002
# 3 0.005584 -0.003072 0.032666 -0.000016 0.000736 0.000008
# 4 -0.000003 0.000002 -0.000016 0.000293 -0.000001 0.025295
# 5 -0.011666 -0.011269 0.000736 -0.000001 0.107280 -0.000003
# 6 0.000003 -0.000002 0.000008 0.025295 -0.000003 0.006574
#
#
# Mechanical properties :
#
#
# Convention : Reuss Voigt Hill
#
# Bulk Modulus (GPa) = 16.50525 27.60863 22.05694
# Shear Modulus (GPa) = 25.77389 13.51511 19.64450
#
# Velocity S-wave (km/s) = 3.50267 2.53641 3.05794
# Velocity P-wave (km/s) = 4.92087 4.66046 4.79243
#
# Compressibility (1/GPa) = 0.06058678
#
# Stress axis : x y z
#
# Youngs Moduli (GPa) = 64.49986 83.68549 30.61261
#
# Poissons Ratio (x) = 0.19073 -0.17095
# Poissons Ratio (y) = 0.14700 0.09403
# Poissons Ratio (z) = -0.36019 0.25705
#
# Static dielectric constant tensor:
#      x y z
#    x 1.796160 0.000010 -0.035310 
#    y 0.000010 1.777390 0.000000 
#    z -0.035310 0.000000 1.736550 
# 
# From -- ./inp_files/311663.got.cif
#   From: 2010.05.17/outbox.cif.g08.bks.cpg/sg12_156_cif.got.tgz:311663.got - 2010.06.03 13:09:07.
