data_PCOD9207677
_publ_section_title
;
Structure prediction by ZEFSAII (Michael W. Deem and Ramdas Pophale) SiO2 
 PCOD9207677
Probable space group: C 2/M
;
_chemical_formula_sum "Si O2"
_cell_formula_units_Z 32
_cell_length_a 18.905142
_cell_length_b 11.746746
_cell_length_c 11.060069
_cell_angle_alpha 90.000000
_cell_angle_beta 33.256146
_cell_angle_gamma 90.000000
_cell_volume 1346.912205
_symmetry_space_group_name_H-M "C 2/M"
_symmetry_group_IT_number 12
_symmetry_cell_setting 'monoclinic'
loop_
_space_group_symop_operation_xyz
x,y,z
-x,y,-z
-x,-y,-z
x,-y,z
1/2+x,1/2+y,z
1/2-x,1/2+y,-z
1/2-x,1/2-y,-z
1/2+x,1/2-y,z
loop_
_atom_site_type_symbol
_atom_site_label
_atom_site_fract_x
_atom_site_fract_y
_atom_site_fract_z
Si Si1 0.401442 0.370757 0.246348
Si Si2 0.391874 0.830566 0.417689
Si Si3 0.833061 0.623264 0.021208
Si Si4 0.279643 0.127047 0.811035
O O1 0.433838 0.500000 0.221866
O O2 0.409233 0.301046 0.359039
O O3 0.251677 0.363333 0.419531
O O4 0.500000 0.329743 0.000000
O O5 0.513968 0.882044 0.175429
O O6 0.397201 0.865552 0.549005
O O7 0.777559 0.500000 0.144415
O O8 0.809079 0.626876 0.910636
O O9 0.787117 0.750268 0.124839
O O10 0.219598 0.000000 0.872829
#
# Coordination Sequence:
#
# PCOD9207677 Si02
#       4
#     8   8   8   8
#     4  10  22  39  57  81 115 153 193 239 289 337
#     4  11  21  35  60  86 111 150 195 234 282 342
#     4  10  21  37  59  88 118 149 189 235 282 337
#     4  10  21  38  60  86 118 153 187 230 286 343
#
# _framework density 23.758043000000001
#
# number of rings (size 3 to 8) (size 9 to 14) (size 15 to 20)
#    0.000    1.750    0.000    4.500    0.000    6.000 
#    0.000    0.000    0.000   19.500    0.000    0.000 
#    0.000    0.000    0.000    0.000    0.000    0.000 
#
# Total GULP energy -89083.256601 kJ/mol
# GULP energy per Si atom -5567.703538 kJ/mol
# Density = 2.370397 g / cm^3
# Si number density = 23.758043 Si / 1000 Ang^3
#
#
#
# Elastic Constant Matrix: (Units=GPa)
#
#
# Indices 1 2 3 4 5 6 
#
# 1 39.4733 36.0242 -3.0052 0.0000 -0.7602 0.0000
# 2 36.0242 226.8818 63.2272 0.0000 6.2253 0.0000
# 3 -3.0052 63.2272 65.7749 0.0000 -14.1783 0.0000
# 4 0.0000 0.0000 0.0000 26.2862 0.0000 9.5373
# 5 -0.7602 6.2253 -14.1783 0.0000 35.1424 0.0000
# 6 0.0000 0.0000 0.0000 9.5373 0.0000 19.9706
#
#
#
# Elastic Compliance Matrix: (Units=1/GPa)
#
#
# Indices 1 2 3 4 5 6 
#
# 1 0.034502 -0.008924 0.011671 0.000000 0.007036 0.000000
# 2 -0.008924 0.008809 -0.010135 0.000000 -0.005843 0.000000
# 3 0.011671 -0.010135 0.028390 0.000000 0.013502 0.000000
# 4 0.000000 0.000000 0.000000 0.046016 0.000000 -0.021976
# 5 0.007036 -0.005843 0.013502 0.000000 0.035090 0.000000
# 6 0.000000 0.000000 0.000000 -0.021976 0.000000 0.060569
#
#
# Mechanical properties :
#
#
# Convention : Reuss Voigt Hill
#
# Bulk Modulus (GPa) = 17.56706 58.29137 37.92921
# Shear Modulus (GPa) = 20.23260 32.00542 26.11901
#
# Velocity S-wave (km/s) = 2.92140 3.67432 3.31928
# Velocity P-wave (km/s) = 4.33470 6.52607 5.53982
#
# Compressibility (1/GPa) = 0.05692472
#
# Stress axis : x y z
#
# Youngs Moduli (GPa) = 28.98419 113.51710 35.22417
#
# Poissons Ratio (x) = 1.01299 -0.41110
# Poissons Ratio (y) = 0.25864 0.35700
# Poissons Ratio (z) = -0.33827 1.15051
#
# Static dielectric constant tensor:
#      x y z
#    x 1.938060 0.000000 -0.055490 
#    y 0.000000 1.971910 0.000000 
#    z -0.055490 0.000000 1.922500 
# 
# From -- ./inp_files/127193.got.cif
#   From: 2010.05.17/outbox.cif.g08.bks.cpg/sg12_64_cif.got.tgz:127193.got - 2010.06.03 13:09:07.
