data_PCOD9207105
_publ_section_title
;
Structure prediction by ZEFSAII (Michael W. Deem and Ramdas Pophale) SiO2 
 PCOD9207105
Probable space group: C 2/M
;
_chemical_formula_sum "Si O2"
_cell_formula_units_Z 56
_cell_length_a 18.388557
_cell_length_b 14.092434
_cell_length_c 17.114710
_cell_angle_alpha 90.000000
_cell_angle_beta 137.741395
_cell_angle_gamma 90.000000
_cell_volume 2982.505589
_symmetry_space_group_name_H-M "C 2/M"
_symmetry_group_IT_number 12
_symmetry_cell_setting 'monoclinic'
loop_
_space_group_symop_operation_xyz
x,y,z
-x,y,-z
-x,-y,-z
x,-y,z
1/2+x,1/2+y,z
1/2-x,1/2+y,-z
1/2-x,1/2-y,-z
1/2+x,1/2-y,z
loop_
_atom_site_type_symbol
_atom_site_label
_atom_site_fract_x
_atom_site_fract_y
_atom_site_fract_z
Si Si1 0.248066 0.786133 0.825027
Si Si2 0.908650 0.613259 0.070591
Si Si3 0.535053 0.762147 0.738704
Si Si4 0.375649 0.390133 0.877464
Si Si5 0.338007 0.112630 0.568458
Si Si6 0.382802 0.611800 0.698463
Si Si7 0.344154 0.112122 0.757136
O O1 0.124410 0.777263 0.751431
O O2 0.300780 0.681894 0.864309
O O3 0.270735 0.831284 0.758562
O O4 0.315358 0.848796 0.940385
O O5 0.901626 0.500000 0.076702
O O6 0.908957 0.669478 0.152472
O O7 0.027994 0.632757 0.128734
O O8 0.439831 0.824467 0.624152
O O9 0.476388 0.677096 0.738170
O O10 0.347646 0.500000 0.869920
O O11 0.367804 0.371755 0.778579
O O12 0.500000 0.375665 0.000000
O O13 0.229061 0.132922 0.435081
O O14 0.322521 0.132324 0.648710
O O15 0.362061 0.000000 0.580445
O O16 0.407125 0.500000 0.706939
O O17 0.328784 0.000000 0.757503
#
# Coordination Sequence:
#
# PCOD9207105 Si02
#       7
#     8   8   8   8   8   8   8
#     4  12  22  33  53  84 118 145 176 228 290 340
#     4  10  21  38  59  80 108 151 195 229 270 333
#     4  11  22  35  55  84 115 145 180 233 289 333
#     4  10  21  37  57  80 110 149 189 228 270 328
#     4   9  19  39  63  80 102 145 197 239 273 324
#     4  10  21  39  61  81 106 149 197 230 267 331
#     4   9  18  34  57  81 106 142 188 235 278 326
#
# _framework density 18.776159
#
# number of rings (size 3 to 8) (size 9 to 14) (size 15 to 20)
#    0.000    1.857    0.000    6.429    0.000    3.429 
#    0.000    4.286    0.000    5.143    0.000    0.000 
#    0.000    0.000    0.000    0.000    0.000    0.000 
#
# Total GULP energy -156487.574659 kJ/mol
# GULP energy per Si atom -5588.841952 kJ/mol
# Density = 1.873342 g / cm^3
# Si number density = 18.776159 Si / 1000 Ang^3
#
#
#
# Elastic Constant Matrix: (Units=GPa)
#
#
# Indices 1 2 3 4 5 6 
#
# 1 75.7282 44.0695 33.2648 0.0000 18.4048 0.0000
# 2 44.0695 87.8290 33.7878 0.0000 14.2680 0.0000
# 3 33.2648 33.7878 89.5305 0.0000 2.2954 0.0000
# 4 0.0000 0.0000 0.0000 26.4127 0.0000 -6.2356
# 5 18.4048 14.2680 2.2954 0.0000 10.1188 0.0000
# 6 0.0000 0.0000 0.0000 -6.2356 0.0000 12.6733
#
#
#
# Elastic Compliance Matrix: (Units=1/GPa)
#
#
# Indices 1 2 3 4 5 6 
#
# 1 0.031656 -0.004499 -0.008801 0.000000 -0.049238 0.000000
# 2 -0.004499 0.018115 -0.004747 0.000000 -0.016282 0.000000
# 3 -0.008801 -0.004747 0.015741 0.000000 0.019132 0.000000
# 4 0.000000 0.000000 0.000000 0.042836 0.000000 0.021077
# 5 -0.049238 -0.016282 0.019132 0.000000 0.207003 0.000000
# 6 0.000000 0.000000 0.000000 0.021077 0.000000 0.089276
#
#
# Mechanical properties :
#
#
# Convention : Reuss Voigt Hill
#
# Bulk Modulus (GPa) = 33.99536 52.81466 43.40501
# Shear Modulus (GPa) = 11.09808 19.30533 15.20171
#
# Velocity S-wave (km/s) = 2.43384 3.21001 2.84848
# Velocity P-wave (km/s) = 5.10323 6.47522 5.82973
#
# Compressibility (1/GPa) = 0.02941578
#
# Stress axis : x y z
#
# Youngs Moduli (GPa) = 31.58918 55.20417 63.53022
#
# Poissons Ratio (x) = 0.24838 0.55916
# Poissons Ratio (y) = 0.14213 0.30158
# Poissons Ratio (z) = 0.27803 0.26206
#
# Static dielectric constant tensor:
#      x y z
#    x 1.617430 0.000000 -0.012640 
#    y 0.000000 1.680660 0.000000 
#    z -0.012640 0.000000 1.635240 
# 
# From -- ./inp_files/277869.got.cif
#   From: 2010.05.17/outbox.cif.g08.bks.cpg/sg12_139_cif.got.tgz:277869.got - 2010.06.03 13:09:07.
