data_PCOD9207056
_publ_section_title
;
Structure prediction by ZEFSAII (Michael W. Deem and Ramdas Pophale) SiO2 
 PCOD9207056
Probable space group: C 2/M
;
_chemical_formula_sum "Si O2"
_cell_formula_units_Z 56
_cell_length_a 8.661732
_cell_length_b 18.560643
_cell_length_c 19.936338
_cell_angle_alpha 90.000000
_cell_angle_beta 116.051453
_cell_angle_gamma 90.000000
_cell_volume 2879.472258
_symmetry_space_group_name_H-M "C 2/M"
_symmetry_group_IT_number 12
_symmetry_cell_setting 'monoclinic'
loop_
_space_group_symop_operation_xyz
x,y,z
-x,y,-z
-x,-y,-z
x,-y,z
1/2+x,1/2+y,z
1/2-x,1/2+y,-z
1/2-x,1/2-y,-z
1/2+x,1/2-y,z
loop_
_atom_site_type_symbol
_atom_site_label
_atom_site_fract_x
_atom_site_fract_y
_atom_site_fract_z
Si Si1 0.572017 0.797742 0.173234
Si Si2 0.746960 0.917009 0.125411
Si Si3 0.555306 0.186746 0.416774
Si Si4 0.658950 0.189408 0.746769
Si Si5 0.609489 0.311669 0.955902
Si Si6 0.793615 0.157346 0.567512
Si Si7 0.912584 0.917842 0.719677
O O1 0.606898 0.865144 0.132300
O O2 0.416332 0.814227 0.193325
O O3 0.745553 0.767074 0.242054
O O4 0.518651 0.729251 0.118806
O O5 0.807919 0.877821 0.068881
O O6 0.902559 0.915891 0.209437
O O7 0.696864 0.000000 0.105329
O O8 0.509616 0.177126 0.330918
O O9 0.702318 0.137295 0.479103
O O10 0.376146 0.175726 0.421164
O O11 0.605686 0.270305 0.431055
O O12 0.792567 0.131547 0.743684
O O13 0.500000 0.333012 0.000000
O O14 0.750000 0.250000 0.000000
O O15 0.901794 0.109228 0.640193
O O16 0.850033 0.000000 0.708593
#
# Coordination Sequence:
#
# PCOD9207056 Si02
#       7
#     8   8   8   8   8   8   8
#     4  12  21  38  63  91 118 160 197 247 296 363
#     4  11  24  42  63  93 124 159 200 248 301 355
#     4   9  17  28  49  80 109 140 194 251 290 339
#     4  11  19  33  59  86 113 153 211 243 292 346
#     4  12  23  41  66  92 119 153 197 243 295 367
#     4   9  17  31  48  77 112 147 186 246 304 334
#     4  10  21  37  56  82 120 161 204 248 301 359
#
# _framework density 19.448007
#
# number of rings (size 3 to 8) (size 9 to 14) (size 15 to 20)
#    0.000    1.429    4.286    2.571    0.000    0.857 
#    0.000    7.143    0.000    0.000    0.000   10.000 
#    0.000    0.000    0.000    0.000    0.000    0.000 
#
# Total GULP energy -155999.245607 kJ/mol
# GULP energy per Si atom -5571.401629 kJ/mol
# Density = 1.940374 g / cm^3
# Si number density = 19.448007 Si / 1000 Ang^3
#
#
#
# Elastic Constant Matrix: (Units=GPa)
#
#
# Indices 1 2 3 4 5 6 
#
# 1 43.2376 14.5629 -1.5394 0.0000 -16.1432 0.0000
# 2 14.5629 105.9918 9.1182 0.0000 -16.3460 0.0000
# 3 -1.5394 9.1182 63.1465 0.0000 -8.1098 0.0000
# 4 0.0000 0.0000 0.0000 16.5372 0.0000 -4.9364
# 5 -16.1432 -16.3460 -8.1098 0.0000 20.7203 0.0000
# 6 0.0000 0.0000 0.0000 -4.9364 0.0000 22.6312
#
#
#
# Elastic Compliance Matrix: (Units=1/GPa)
#
#
# Indices 1 2 3 4 5 6 
#
# 1 0.033807 -0.000794 0.004466 0.000000 0.027460 0.000000
# 2 -0.000794 0.010774 -0.000593 0.000000 0.007649 0.000000
# 3 0.004466 -0.000593 0.017286 0.000000 0.009777 0.000000
# 4 0.000000 0.000000 0.000000 0.064681 0.000000 0.014109
# 5 0.027460 0.007649 0.009777 0.000000 0.079517 0.000000
# 6 0.000000 0.000000 0.000000 0.014109 0.000000 0.047264
#
#
# Mechanical properties :
#
#
# Convention : Reuss Voigt Hill
#
# Bulk Modulus (GPa) = 14.70051 28.51772 21.60912
# Shear Modulus (GPa) = 18.52891 24.66002 21.59447
#
# Velocity S-wave (km/s) = 3.09000 3.56476 3.33584
# Velocity P-wave (km/s) = 4.50623 5.62483 5.09631
#
# Compressibility (1/GPa) = 0.06802484
#
# Stress axis : x y z
#
# Youngs Moduli (GPa) = 29.57961 92.81224 57.84921
#
# Poissons Ratio (x) = 0.07371 -0.25833
# Poissons Ratio (y) = 0.02349 0.03429
# Poissons Ratio (z) = -0.13209 0.05502
#
# Static dielectric constant tensor:
#      x y z
#    x 1.675760 0.000000 0.053390 
#    y 0.000000 1.651720 0.000000 
#    z 0.053390 0.000000 1.862000 
# 
# From -- ./inp_files/300895.got.cif
#   From: 2010.05.17/outbox.cif.g08.bks.cpg/sg12_151_cif.got.tgz:300895.got - 2010.06.03 13:09:07.
