data_PCOD9207233
_publ_section_title
;
Structure prediction by ZEFSAII (Michael W. Deem and Ramdas Pophale) SiO2 
 PCOD9207233
Probable space group: C 2/M
;
_chemical_formula_sum "Si O2"
_cell_formula_units_Z 40
_cell_length_a 7.509408
_cell_length_b 25.646779
_cell_length_c 14.274417
_cell_angle_alpha 90.000000
_cell_angle_beta 38.700578
_cell_angle_gamma 90.000000
_cell_volume 1718.901451
_symmetry_space_group_name_H-M "C 2/M"
_symmetry_group_IT_number 12
_symmetry_cell_setting 'monoclinic'
loop_
_space_group_symop_operation_xyz
x,y,z
-x,y,-z
-x,-y,-z
x,-y,z
1/2+x,1/2+y,z
1/2-x,1/2+y,-z
1/2-x,1/2-y,-z
1/2+x,1/2-y,z
loop_
_atom_site_type_symbol
_atom_site_label
_atom_site_fract_x
_atom_site_fract_y
_atom_site_fract_z
Si Si1 0.790458 0.269232 0.878994
Si Si2 0.229472 0.941553 0.826567
Si Si3 0.974506 0.342618 0.353877
Si Si4 0.981265 0.167512 0.300810
Si Si5 0.193473 0.943592 0.175020
O O1 0.022980 0.305426 0.737024
O O2 0.817631 0.216453 0.805559
O O3 0.500000 0.302987 0.000000
O O4 0.750000 0.250000 0.000000
O O5 0.480124 0.900951 0.703103
O O6 0.047229 0.944652 0.806321
O O7 0.328230 0.000000 0.810571
O O8 0.000000 0.925682 0.000000
O O9 0.252654 0.332632 0.307162
O O10 0.708757 0.329624 0.528219
O O11 0.143496 0.112411 0.241842
O O12 0.170663 0.000000 0.235275
O O13 0.500000 0.942436 0.000000
#
# Coordination Sequence:
#
# PCOD9207233 Si02
#       5
#     8   8   8   8   8
#     4  12  23  39  61  82 109 149 193 236 279 335
#     4   9  18  33  58  85 111 148 188 227 275 330
#     4  10  21  37  57  84 119 146 185 239 281 333
#     4  10  21  37  57  85 117 149 185 232 288 335
#     4   9  18  34  58  86 114 146 186 229 273 331
#
# _framework density 23.270676999999999
#
# number of rings (size 3 to 8) (size 9 to 14) (size 15 to 20)
#    0.000    2.000    2.000    1.800    2.800    0.800 
#    0.000    4.000    0.000    0.000    0.000    5.600 
#    0.000    0.000    0.000    0.000    0.000    0.000 
#
# Total GULP energy -111492.238545 kJ/mol
# GULP energy per Si atom -5574.611927 kJ/mol
# Density = 2.321771 g / cm^3
# Si number density = 23.270677 Si / 1000 Ang^3
#
#
#
# Elastic Constant Matrix: (Units=GPa)
#
#
# Indices 1 2 3 4 5 6 
#
# 1 40.0231 19.7627 20.4103 0.0000 4.7325 0.0000
# 2 19.7627 183.8666 93.5959 0.0000 5.8058 0.0000
# 3 20.4103 93.5959 175.6761 0.0000 17.2994 0.0000
# 4 0.0000 0.0000 0.0000 -55.9631 0.0000 5.7596
# 5 4.7325 5.8058 17.2994 0.0000 30.8831 0.0000
# 6 0.0000 0.0000 0.0000 5.7596 0.0000 19.0560
#
#
#
# Elastic Compliance Matrix: (Units=1/GPa)
#
#
# Indices 1 2 3 4 5 6 
#
# 1 0.027201 -0.001874 -0.001890 0.000000 -0.002757 0.000000
# 2 -0.001874 0.007614 -0.003944 0.000000 0.001065 0.000000
# 3 -0.001890 -0.003944 0.008373 0.000000 -0.003659 0.000000
# 4 0.000000 0.000000 0.000000 -0.017330 0.000000 0.005238
# 5 -0.002757 0.001065 -0.003659 0.000000 0.034652 0.000000
# 6 0.000000 0.000000 0.000000 0.005238 0.000000 0.050894
#
#
# Mechanical properties :
#
#
# Convention : Reuss Voigt Hill
#
# Bulk Modulus (GPa) = 36.00754 74.12262 55.06508
# Shear Modulus (GPa) = 36.74354 16.51500 26.62927
#
# Velocity S-wave (km/s) = 3.97793 2.66689 3.38646
# Velocity P-wave (km/s) = 6.05025 6.43464 6.24540
#
# Compressibility (1/GPa) = 0.02777196
#
# Stress axis : x y z
#
# Youngs Moduli (GPa) = 36.76332 131.33563 119.42676
#
# Poissons Ratio (x) = 0.24619 0.22572
# Poissons Ratio (y) = 0.06891 0.47098
# Poissons Ratio (z) = 0.06949 0.51795
#
# Static dielectric constant tensor:
#      x y z
#    x 1.742500 0.000000 0.149020 
#    y 0.000000 1.898380 0.000000 
#    z 0.149020 0.000000 1.724700 
# 
# From -- ./inp_files/79929.got.cif
#   From: 2010.05.17/outbox.cif.g08.bks.cpg/sg12_40_cif.got.tgz:79929.got - 2010.06.03 13:09:07.
