data_PCOD9207663
_publ_section_title
;
Structure prediction by ZEFSAII (Michael W. Deem and Ramdas Pophale) SiO2 
 PCOD9207663
Probable space group: C 2/M
;
_chemical_formula_sum "Si O2"
_cell_formula_units_Z 64
_cell_length_a 28.661453
_cell_length_b 10.971711
_cell_length_c 9.467815
_cell_angle_alpha 90.000000
_cell_angle_beta 96.344195
_cell_angle_gamma 90.000000
_cell_volume 2959.065215
_symmetry_space_group_name_H-M "C 2/M"
_symmetry_group_IT_number 12
_symmetry_cell_setting 'monoclinic'
loop_
_space_group_symop_operation_xyz
x,y,z
-x,y,-z
-x,-y,-z
x,-y,z
1/2+x,1/2+y,z
1/2-x,1/2+y,-z
1/2-x,1/2-y,-z
1/2+x,1/2-y,z
loop_
_atom_site_type_symbol
_atom_site_label
_atom_site_fract_x
_atom_site_fract_y
_atom_site_fract_z
Si Si1 0.830824 0.640786 0.974800
Si Si2 0.591639 0.635531 0.325538
Si Si3 0.758819 0.356759 0.719541
Si Si4 0.442579 0.364397 0.381293
Si Si5 0.654414 0.136792 0.440828
Si Si6 0.931187 0.304185 0.903044
Si Si7 0.656108 0.257084 0.718943
Si Si8 0.521242 0.862404 0.780112
O O1 0.821021 0.500000 0.007756
O O2 0.789095 0.692164 0.862964
O O3 0.878921 0.645317 0.901854
O O4 0.840257 0.715469 0.119125
O O5 0.612885 0.500000 0.332086
O O6 0.556448 0.637249 0.447543
O O7 0.626086 0.747542 0.371899
O O8 0.571524 0.668605 0.164530
O O9 0.754587 0.500000 0.743852
O O10 0.792314 0.344203 0.594948
O O11 0.706809 0.307400 0.692786
O O12 0.458136 0.500000 0.339090
O O13 0.387456 0.347798 0.320122
O O14 0.466526 0.244399 0.324533
O O15 0.648003 0.147217 0.606676
O O16 0.640578 0.000000 0.390689
O O17 0.966350 0.365590 0.802860
O O18 0.953493 0.323349 0.064714
O O19 0.536089 0.000000 0.744903
#
# Coordination Sequence:
#
# PCOD9207663 Si02
#       8
#     8   8   8   8   8   8   8   8
#     4  11  21  37  61  89 124 162 203 260 319 372
#     4  10  23  43  66  95 130 171 211 259 319 380
#     4  10  21  37  59  87 122 166 212 258 314 369
#     4  10  23  42  64  91 129 171 210 259 317 378
#     4  10  21  38  64  95 125 165 213 261 313 371
#     4  11  22  41  66  93 125 162 208 262 317 375
#     4  11  21  37  60  89 128 166 213 254 311 374
#     4  11  24  42  68  98 126 163 212 264 321 380
#
# _framework density 21.628451999999999
#
# number of rings (size 3 to 8) (size 9 to 14) (size 15 to 20)
#    0.000    1.500    2.500    3.000    0.000    5.000 
#    0.000    4.375    0.000    0.000    0.000    0.000 
#    0.000    0.000    0.000    0.000    0.000    0.000 
#
# Total GULP energy -178534.319702 kJ/mol
# GULP energy per Si atom -5579.197491 kJ/mol
# Density = 2.157922 g / cm^3
# Si number density = 21.628452 Si / 1000 Ang^3
#
#
#
# Elastic Constant Matrix: (Units=GPa)
#
#
# Indices 1 2 3 4 5 6 
#
# 1 88.6625 50.8367 12.3615 0.0000 3.2899 0.0000
# 2 50.8367 157.9254 48.1082 0.0000 -9.1770 0.0000
# 3 12.3615 48.1082 62.3614 0.0000 -2.4568 0.0000
# 4 0.0000 0.0000 0.0000 20.4654 0.0000 -1.1673
# 5 3.2899 -9.1770 -2.4568 0.0000 28.4347 0.0000
# 6 0.0000 0.0000 0.0000 -1.1673 0.0000 22.5521
#
#
#
# Elastic Compliance Matrix: (Units=1/GPa)
#
#
# Indices 1 2 3 4 5 6 
#
# 1 0.014147 -0.005028 0.000949 0.000000 -0.003177 0.000000
# 2 -0.005028 0.010194 -0.006738 0.000000 0.003290 0.000000
# 3 0.000949 -0.006738 0.021027 0.000000 -0.000468 0.000000
# 4 0.000000 0.000000 0.000000 0.049008 0.000000 0.002537
# 5 -0.003177 0.003290 -0.000468 0.000000 0.036557 0.000000
# 6 0.000000 0.000000 0.000000 0.002537 0.000000 0.044473
#
#
# Mechanical properties :
#
#
# Convention : Reuss Voigt Hill
#
# Bulk Modulus (GPa) = 42.13184 59.06246 50.59715
# Shear Modulus (GPa) = 24.39603 27.46664 25.93133
#
# Velocity S-wave (km/s) = 3.36215 3.56748 3.46634
# Velocity P-wave (km/s) = 5.88169 6.65854 6.28214
#
# Compressibility (1/GPa) = 0.02373502
#
# Stress axis : x y z
#
# Youngs Moduli (GPa) = 70.68595 98.09378 47.55780
#
# Poissons Ratio (x) = 0.49319 -0.04514
# Poissons Ratio (y) = 0.35539 0.32045
# Poissons Ratio (z) = -0.06709 0.66097
#
# Static dielectric constant tensor:
#      x y z
#    x 1.841050 0.000000 0.040800 
#    y 0.000000 1.761980 0.000000 
#    z 0.040800 0.000000 1.828690 
# 
# From -- ./inp_files/110472.got.cif
#   From: 2010.05.17/outbox.cif.g08.bks.cpg/sg12_56_cif.got.tgz:110472.got - 2010.06.03 13:09:07.
