data_PCOD9207598
_publ_section_title
;
Structure prediction by ZEFSAII (Michael W. Deem and Ramdas Pophale) SiO2 
 PCOD9207598
Probable space group: C 2/M
;
_chemical_formula_sum "Si O2"
_cell_formula_units_Z 48
_cell_length_a 9.207608
_cell_length_b 16.288960
_cell_length_c 17.586581
_cell_angle_alpha 90.000000
_cell_angle_beta 60.839212
_cell_angle_gamma 90.000000
_cell_volume 2303.366524
_symmetry_space_group_name_H-M "C 2/M"
_symmetry_group_IT_number 12
_symmetry_cell_setting 'monoclinic'
loop_
_space_group_symop_operation_xyz
x,y,z
-x,y,-z
-x,-y,-z
x,-y,z
1/2+x,1/2+y,z
1/2-x,1/2+y,-z
1/2-x,1/2-y,-z
1/2+x,1/2-y,z
loop_
_atom_site_type_symbol
_atom_site_label
_atom_site_fract_x
_atom_site_fract_y
_atom_site_fract_z
Si Si1 0.451858 0.096326 0.770928
Si Si2 0.393537 0.840675 0.413092
Si Si3 0.401513 0.598569 0.210337
Si Si4 0.537066 0.092416 0.072169
Si Si5 0.256389 0.335622 0.397783
Si Si6 0.637942 0.331815 0.029305
O O1 0.577435 0.106815 0.669504
O O2 0.270017 0.124717 0.789156
O O3 0.514023 0.133517 0.835127
O O4 0.432137 0.000000 0.791346
O O5 0.324985 0.753886 0.401183
O O6 0.575745 0.829056 0.404039
O O7 0.278511 0.875386 0.510345
O O8 0.421216 0.500000 0.197483
O O9 0.372837 0.620420 0.306309
O O10 0.551101 0.646138 0.131285
O O11 0.466678 0.000000 0.086359
O O12 0.500000 0.131803 0.000000
O O13 0.736212 0.095050 0.024439
O O14 0.500000 0.326352 0.000000
O O15 0.750000 0.250000 0.000000
#
# Coordination Sequence:
#
# PCOD9207598 Si02
#       6
#     8   8   8   8   8   8
#     4   9  18  34  59  85 112 149 189 235 284 338
#     4   9  18  35  56  85 115 148 186 230 286 340
#     4  10  21  37  59  86 114 151 196 240 289 343
#     4  10  21  39  59  82 115 152 192 237 287 344
#     4   9  19  34  58  83 114 149 185 234 284 339
#     4  12  25  39  58  85 114 153 194 242 294 347
#
# _framework density 20.839064
#
# number of rings (size 3 to 8) (size 9 to 14) (size 15 to 20)
#    0.000    2.167    1.667    1.000    2.333    1.333 
#    3.000    3.333    0.000    0.000    0.000    4.667 
#    0.000    0.000    0.000    0.000    0.000    0.000 
#
# Total GULP energy -133719.920286 kJ/mol
# GULP energy per Si atom -5571.663345 kJ/mol
# Density = 2.079163 g / cm^3
# Si number density = 20.839064 Si / 1000 Ang^3
#
#
#
# Elastic Constant Matrix: (Units=GPa)
#
#
# Indices 1 2 3 4 5 6 
#
# 1 44.3368 8.4608 36.0056 0.0000 23.4516 0.0000
# 2 8.4608 48.4785 34.9218 0.0000 2.2739 0.0000
# 3 36.0056 34.9218 214.5151 0.0000 26.1428 0.0000
# 4 0.0000 0.0000 0.0000 33.4272 0.0000 -6.7425
# 5 23.4516 2.2739 26.1428 0.0000 34.6072 0.0000
# 6 0.0000 0.0000 0.0000 -6.7425 0.0000 13.3423
#
#
#
# Elastic Compliance Matrix: (Units=1/GPa)
#
#
# Indices 1 2 3 4 5 6 
#
# 1 0.037895 -0.003377 -0.002983 0.000000 -0.023205 0.000000
# 2 -0.003377 0.023737 -0.003730 0.000000 0.003546 0.000000
# 3 -0.002983 -0.003730 0.006050 0.000000 -0.002304 0.000000
# 4 0.000000 0.000000 0.000000 0.033311 0.000000 0.016834
# 5 -0.023205 0.003546 -0.002304 0.000000 0.046128 0.000000
# 6 0.000000 0.000000 0.000000 0.016834 0.000000 0.083457
#
#
# Mechanical properties :
#
#
# Convention : Reuss Voigt Hill
#
# Bulk Modulus (GPa) = 21.05063 51.78964 36.42014
# Shear Modulus (GPa) = 18.75525 31.47149 25.11337
#
# Velocity S-wave (km/s) = 3.00326 3.89037 3.47524
# Velocity P-wave (km/s) = 4.70633 6.71462 5.79809
#
# Compressibility (1/GPa) = 0.04750451
#
# Stress axis : x y z
#
# Youngs Moduli (GPa) = 26.38849 42.12765 165.28044
#
# Poissons Ratio (x) = 0.14225 0.49303
# Poissons Ratio (y) = 0.08910 0.61645
# Poissons Ratio (z) = 0.07872 0.15712
#
# Static dielectric constant tensor:
#      x y z
#    x 1.769890 0.000000 0.044210 
#    y 0.000000 1.765880 0.000000 
#    z 0.044210 0.000000 1.847000 
# 
# From -- ./inp_files/256445.got.cif
#   From: 2010.05.17/outbox.cif.g08.bks.cpg/sg12_129_cif.got.tgz:256445.got - 2010.06.03 13:09:07.
