data_PCOD9207601
_publ_section_title
;
Structure prediction by ZEFSAII (Michael W. Deem and Ramdas Pophale) SiO2 
 PCOD9207601
Probable space group: C 2/M
;
_chemical_formula_sum "Si O2"
_cell_formula_units_Z 48
_cell_length_a 19.909180
_cell_length_b 7.576164
_cell_length_c 20.768989
_cell_angle_alpha 90.000000
_cell_angle_beta 137.088386
_cell_angle_gamma 90.000000
_cell_volume 2132.955902
_symmetry_space_group_name_H-M "C 2/M"
_symmetry_group_IT_number 12
_symmetry_cell_setting 'monoclinic'
loop_
_space_group_symop_operation_xyz
x,y,z
-x,y,-z
-x,-y,-z
x,-y,z
1/2+x,1/2+y,z
1/2-x,1/2+y,-z
1/2-x,1/2-y,-z
1/2+x,1/2-y,z
loop_
_atom_site_type_symbol
_atom_site_label
_atom_site_fract_x
_atom_site_fract_y
_atom_site_fract_z
Si Si1 0.641222 0.209673 0.398375
Si Si2 0.018131 0.290562 0.083890
Si Si3 0.865635 0.790176 0.090308
Si Si4 0.070706 0.202117 0.724894
Si Si5 0.399785 0.283460 0.395121
Si Si6 0.810581 0.284410 0.708286
O O1 0.750000 0.250000 0.500000
O O2 0.547777 0.295823 0.366548
O O3 0.641317 0.271316 0.324722
O O4 0.626027 0.000000 0.390694
O O5 0.032907 0.500000 0.086676
O O6 0.119127 0.221054 0.185635
O O7 0.931174 0.271138 0.075592
O O8 0.000000 0.216889 0.000000
O O9 0.901748 0.719273 0.185845
O O10 0.878893 0.000000 0.101104
O O11 0.750000 0.750000 0.000000
O O12 0.109868 0.279275 0.685528
O O13 0.106547 0.000000 0.752173
O O14 0.500000 0.225173 0.500000
O O15 0.402471 0.500000 0.395471
O O16 0.302175 0.228885 0.364607
O O17 0.810110 0.500000 0.707511
#
# Coordination Sequence:
#
# PCOD9207601 Si02
#       6
#     8   8   8   8   8   8
#     4  11  21  35  58  85 116 151 191 237 289 350
#     4  10  21  38  63  89 115 150 199 248 297 361
#     4  11  24  40  61  88 122 157 199 248 301 363
#     4  10  21  37  59  86 115 149 192 243 294 348
#     4   9  17  31  54  83 113 145 189 238 283 336
#     4   9  18  33  55  83 112 147 190 239 287 338
#
# _framework density 22.503981
#
# number of rings (size 3 to 8) (size 9 to 14) (size 15 to 20)
#    0.000    2.000    1.667    2.000    2.333    3.667 
#    0.000    0.000    0.000    5.500    0.000    0.000 
#    0.000    0.000    0.000    0.000    0.000    0.000 
#
# Total GULP energy -134053.510587 kJ/mol
# GULP energy per Si atom -5585.562941 kJ/mol
# Density = 2.245276 g / cm^3
# Si number density = 22.503981 Si / 1000 Ang^3
#
#
#
# Elastic Constant Matrix: (Units=GPa)
#
#
# Indices 1 2 3 4 5 6 
#
# 1 63.9114 -13.3290 -7.8784 0.0000 2.4626 0.0000
# 2 -13.3290 55.7839 -5.6682 0.0000 -8.4026 0.0000
# 3 -7.8784 -5.6682 86.6056 0.0000 0.2002 0.0000
# 4 0.0000 0.0000 0.0000 5.0898 0.0000 6.4862
# 5 2.4626 -8.4026 0.2002 0.0000 44.8687 0.0000
# 6 0.0000 0.0000 0.0000 6.4862 0.0000 14.5085
#
#
#
# Elastic Compliance Matrix: (Units=1/GPa)
#
#
# Indices 1 2 3 4 5 6 
#
# 1 0.016741 0.004160 0.001796 0.000000 -0.000148 0.000000
# 2 0.004160 0.019606 0.001654 0.000000 0.003436 0.000000
# 3 0.001796 0.001654 0.011818 0.000000 0.000158 0.000000
# 4 0.000000 0.000000 0.000000 0.456607 0.000000 -0.204133
# 5 -0.000148 0.003436 0.000158 0.000000 0.022938 0.000000
# 6 0.000000 0.000000 0.000000 -0.204133 0.000000 0.160186
#
#
# Mechanical properties :
#
#
# Convention : Reuss Voigt Hill
#
# Bulk Modulus (GPa) = 15.77674 16.94996 16.36335
# Shear Modulus (GPa) = 7.20664 28.43849 17.82256
#
# Velocity S-wave (km/s) = 1.79146 3.55873 2.81726
# Velocity P-wave (km/s) = 3.36229 4.94311 4.22725
#
# Compressibility (1/GPa) = 0.06338444
#
# Stress axis : x y z
#
# Youngs Moduli (GPa) = 59.73227 51.00490 84.61806
#
# Poissons Ratio (x) = -0.21220 -0.15194
# Poissons Ratio (y) = -0.24851 -0.13993
# Poissons Ratio (z) = -0.10725 -0.08435
#
# Static dielectric constant tensor:
#      x y z
#    x 1.796310 0.000000 -0.026760 
#    y 0.000000 1.851390 0.000000 
#    z -0.026760 0.000000 1.878090 
# 
# From -- ./inp_files/230349.got.cif
#   From: 2010.05.17/outbox.cif.g08.bks.cpg/sg12_116_cif.got.tgz:230349.got - 2010.06.03 13:09:07.
