data_PCOD9207717
_publ_section_title
;
Structure prediction by ZEFSAII (Michael W. Deem and Ramdas Pophale) SiO2 
 PCOD9207717
Probable space group: C 2/M
;
_chemical_formula_sum "Si O2"
_cell_formula_units_Z 48
_cell_length_a 8.365485
_cell_length_b 25.875113
_cell_length_c 9.555911
_cell_angle_alpha 90.000000
_cell_angle_beta 92.729007
_cell_angle_gamma 90.000000
_cell_volume 2066.106303
_symmetry_space_group_name_H-M "C 2/M"
_symmetry_group_IT_number 12
_symmetry_cell_setting 'monoclinic'
loop_
_space_group_symop_operation_xyz
x,y,z
-x,y,-z
-x,-y,-z
x,-y,z
1/2+x,1/2+y,z
1/2-x,1/2+y,-z
1/2-x,1/2-y,-z
1/2+x,1/2-y,z
loop_
_atom_site_type_symbol
_atom_site_label
_atom_site_fract_x
_atom_site_fract_y
_atom_site_fract_z
Si Si1 0.164945 0.205644 0.085168
Si Si2 0.169925 0.596016 0.933675
Si Si3 0.802850 0.092176 0.662698
Si Si4 0.845485 0.793263 0.589962
Si Si5 0.859505 0.558245 0.588353
Si Si6 0.367071 0.561574 0.192611
O O1 0.280451 0.155870 0.083445
O O2 0.130332 0.221990 0.245167
O O3 0.250000 0.250000 0.000000
O O4 0.000000 0.192367 0.000000
O O5 0.178388 0.574615 0.776730
O O6 0.309523 0.570650 0.032782
O O7 0.000000 0.588963 0.000000
O O8 0.769734 0.149951 0.605409
O O9 0.788368 0.057267 0.526724
O O10 0.974424 0.089829 0.746203
O O11 0.750000 0.750000 0.500000
O O12 0.000000 0.801652 0.500000
O O13 0.909422 0.500000 0.625675
O O14 0.783080 0.582674 0.722097
O O15 0.000000 0.582255 0.500000
O O16 0.386826 0.500000 0.216434
#
# Coordination Sequence:
#
# PCOD9207717 Si02
#       6
#     8   8   8   8   8   8
#     4  11  23  42  67  94 128 173 221 271 334 402
#     4  11  24  41  62  92 128 167 214 268 327 389
#     4  11  23  41  63  89 123 166 212 264 322 389
#     4  11  24  41  62  92 125 161 210 266 323 384
#     4  10  21  37  59  89 123 161 207 259 317 380
#     4  11  23  40  65  94 127 170 216 265 323 391
#
# _framework density 23.232106000000002
#
# number of rings (size 3 to 8) (size 9 to 14) (size 15 to 20)
#    0.000    1.167    0.000    7.000    0.000    7.000 
#    0.000    0.000    0.000    0.000    0.000    0.000 
#    0.000    0.000    0.000    0.000    0.000    0.000 
#
# Total GULP energy -134085.270163 kJ/mol
# GULP energy per Si atom -5586.886257 kJ/mol
# Density = 2.317923 g / cm^3
# Si number density = 23.232106 Si / 1000 Ang^3
#
#
#
# Elastic Constant Matrix: (Units=GPa)
#
#
# Indices 1 2 3 4 5 6 
#
# 1 84.0526 7.4241 21.3604 0.0000 -9.2896 0.0000
# 2 7.4241 76.5502 22.0333 0.0000 11.1557 0.0000
# 3 21.3604 22.0333 155.1049 0.0000 -5.5297 0.0000
# 4 0.0000 0.0000 0.0000 32.1441 0.0000 8.6635
# 5 -9.2896 11.1557 -5.5297 0.0000 47.2152 0.0000
# 6 0.0000 0.0000 0.0000 8.6635 0.0000 28.6625
#
#
#
# Elastic Compliance Matrix: (Units=1/GPa)
#
#
# Indices 1 2 3 4 5 6 
#
# 1 0.012666 -0.001180 -0.001484 0.000000 0.002597 0.000000
# 2 -0.001180 0.014317 -0.002009 0.000000 -0.003850 0.000000
# 3 -0.001484 -0.002009 0.006973 0.000000 0.000999 0.000000
# 4 0.000000 0.000000 0.000000 0.033869 0.000000 -0.010237
# 5 0.002597 -0.003850 0.000999 0.000000 0.022717 0.000000
# 6 0.000000 0.000000 0.000000 -0.010237 0.000000 0.037983
#
#
# Mechanical properties :
#
#
# Convention : Reuss Voigt Hill
#
# Bulk Modulus (GPa) = 40.63305 46.37150 43.50227
# Shear Modulus (GPa) = 34.22955 39.26369 36.74662
#
# Velocity S-wave (km/s) = 3.84262 4.11550 3.98140
# Velocity P-wave (km/s) = 6.10046 6.52583 6.31673
#
# Compressibility (1/GPa) = 0.02461051
#
# Stress axis : x y z
#
# Youngs Moduli (GPa) = 78.95358 69.84738 143.41878
#
# Poissons Ratio (x) = 0.08240 0.21285
# Poissons Ratio (y) = 0.09314 0.28807
# Poissons Ratio (z) = 0.11718 0.14029
#
# Static dielectric constant tensor:
#      x y z
#    x 1.944890 0.000000 -0.003410 
#    y 0.000000 1.877800 0.000000 
#    z -0.003410 0.000000 1.868070 
# 
# From -- ./inp_files/42241.got.cif
#   From: 2010.05.17/outbox.cif.g08.bks.cpg/sg12_22_cif.got.tgz:42241.got - 2010.06.03 13:09:07.
