data_PCOD9207021
_publ_section_title
;
Structure prediction by ZEFSAII (Michael W. Deem and Ramdas Pophale) SiO2 
 PCOD9207021
Probable space group: C 2/M
;
_chemical_formula_sum "Si O2"
_cell_formula_units_Z 64
_cell_length_a 12.626628
_cell_length_b 13.090626
_cell_length_c 18.895049
_cell_angle_alpha 90.000000
_cell_angle_beta 86.259277
_cell_angle_gamma 90.000000
_cell_volume 3116.517514
_symmetry_space_group_name_H-M "C 2/M"
_symmetry_group_IT_number 12
_symmetry_cell_setting 'monoclinic'
loop_
_space_group_symop_operation_xyz
x,y,z
-x,y,-z
-x,-y,-z
x,-y,z
1/2+x,1/2+y,z
1/2-x,1/2+y,-z
1/2-x,1/2-y,-z
1/2+x,1/2-y,z
loop_
_atom_site_type_symbol
_atom_site_label
_atom_site_fract_x
_atom_site_fract_y
_atom_site_fract_z
Si Si1 0.906372 0.114434 0.676992
Si Si2 0.602617 0.876896 0.082739
Si Si3 0.705655 0.823767 0.776837
Si Si4 0.294756 0.114436 0.770468
Si Si5 0.490552 0.171645 0.301429
Si Si6 0.339513 0.385887 0.515358
Si Si7 0.900947 0.670283 0.457057
Si Si8 0.140040 0.376565 0.927612
O O1 0.800591 0.123365 0.729948
O O2 0.981161 0.207646 0.696797
O O3 0.872293 0.129383 0.596263
O O4 0.950726 0.000000 0.682151
O O5 0.657503 0.855526 0.154658
O O6 0.480883 0.840883 0.083121
O O7 0.596513 0.000000 0.079855
O O8 0.661555 0.845155 0.007807
O O9 0.714607 0.704387 0.755948
O O10 0.590178 0.859753 0.756664
O O11 0.712448 0.838910 0.860515
O O12 0.395531 0.119751 0.713900
O O13 0.251672 0.000000 0.774560
O O14 0.430792 0.145260 0.375942
O O15 0.372212 0.500000 0.491786
O O16 0.211990 0.376326 0.517030
O O17 0.387078 0.292921 0.468426
O O18 0.000000 0.637184 0.500000
O O19 0.142349 0.500000 0.924802
#
# Coordination Sequence:
#
# PCOD9207021 Si02
#       8
#     8   8   8   8   8   8   8   8
#     4  10  21  37  56  81 108 138 183 226 266 324
#     4   8  15  30  52  81 111 140 180 225 264 313
#     4  11  21  34  56  84 111 144 183 223 274 321
#     4  10  22  37  55  81 113 146 183 223 267 325
#     4  11  22  37  56  81 107 144 180 223 277 318
#     4  10  22  38  59  83 106 138 180 224 271 326
#     4  11  22  39  59  79 113 139 176 231 270 325
#     4   9  16  29  54  84 111 141 179 225 270 312
#
# _framework density 20.535741999999999
#
# number of rings (size 3 to 8) (size 9 to 14) (size 15 to 20)
#    0.000    2.000    3.750    1.125    0.000    3.000 
#    0.000    1.250    0.000    0.000    0.000    1.750 
#    0.000    0.000    0.000    0.000    0.000    0.000 
#
# Total GULP energy -178626.289437 kJ/mol
# GULP energy per Si atom -5582.071545 kJ/mol
# Density = 2.048900 g / cm^3
# Si number density = 20.535742 Si / 1000 Ang^3
#
#
#
# Elastic Constant Matrix: (Units=GPa)
#
#
# Indices 1 2 3 4 5 6 
#
# 1 52.4928 -5.7404 -0.5002 0.0000 -2.8238 0.0000
# 2 -5.7404 68.5792 -2.9322 0.0000 0.1597 0.0000
# 3 -0.5002 -2.9322 76.9002 0.0000 -20.0985 0.0000
# 4 0.0000 0.0000 0.0000 21.1534 0.0000 2.3382
# 5 -2.8238 0.1597 -20.0985 0.0000 19.2046 0.0000
# 6 0.0000 0.0000 0.0000 2.3382 0.0000 0.3729
#
#
#
# Elastic Compliance Matrix: (Units=1/GPa)
#
#
# Indices 1 2 3 4 5 6 
#
# 1 0.019471 0.001675 0.001287 0.000000 0.004196 0.000000
# 2 0.001675 0.014755 0.000834 0.000000 0.000996 0.000000
# 3 0.001287 0.000834 0.018021 0.000000 0.019042 0.000000
# 4 0.000000 0.000000 0.000000 0.154005 0.000000 -0.965590
# 5 0.004196 0.000996 0.019042 0.000000 0.072608 0.000000
# 6 0.000000 0.000000 0.000000 -0.965590 0.000000 8.735658
#
#
# Mechanical properties :
#
#
# Convention : Reuss Voigt Hill
#
# Bulk Modulus (GPa) = 16.71123 19.95852 18.33488
# Shear Modulus (GPa) = 0.55390 21.95583 11.25487
#
# Velocity S-wave (km/s) = 0.51991 3.27334 2.34361
# Velocity P-wave (km/s) = 2.91817 4.90167 4.03374
#
# Compressibility (1/GPa) = 0.05984000
#
# Stress axis : x y z
#
# Youngs Moduli (GPa) = 51.35734 67.77257 55.49135
#
# Poissons Ratio (x) = -0.11353 -0.07143
# Poissons Ratio (y) = -0.08603 -0.04627
# Poissons Ratio (z) = -0.06611 -0.05652
#
# Static dielectric constant tensor:
#      x y z
#    x 1.714330 0.000000 0.009140 
#    y 0.000000 1.731110 0.000000 
#    z 0.009140 0.000000 1.759160 
# 
# From -- ./inp_files/263333.got.cif
#   From: 2010.05.17/outbox.cif.g08.bks.cpg/sg12_132_cif.got.tgz:263333.got - 2010.06.03 13:09:07.
