data_PCOD9207645
_publ_section_title
;
Structure prediction by ZEFSAII (Michael W. Deem and Ramdas Pophale) SiO2 
 PCOD9207645
Probable space group: C 2/M
;
_chemical_formula_sum "Si O2"
_cell_formula_units_Z 48
_cell_length_a 26.258906
_cell_length_b 8.059474
_cell_length_c 14.773211
_cell_angle_alpha 90.000000
_cell_angle_beta 139.505360
_cell_angle_gamma 90.000000
_cell_volume 2030.275949
_symmetry_space_group_name_H-M "C 2/M"
_symmetry_group_IT_number 12
_symmetry_cell_setting 'monoclinic'
loop_
_space_group_symop_operation_xyz
x,y,z
-x,y,-z
-x,-y,-z
x,-y,z
1/2+x,1/2+y,z
1/2-x,1/2+y,-z
1/2-x,1/2-y,-z
1/2+x,1/2-y,z
loop_
_atom_site_type_symbol
_atom_site_label
_atom_site_fract_x
_atom_site_fract_y
_atom_site_fract_z
Si Si1 0.418416 0.192973 0.277340
Si Si2 0.333995 0.309056 0.995915
Si Si3 0.333641 0.200309 0.651386
Si Si4 0.823918 0.808905 0.314735
Si Si5 0.073056 0.694259 0.389410
Si Si6 0.418635 0.800196 0.940321
O O1 0.390138 0.288259 0.327290
O O2 0.496835 0.264105 0.336710
O O3 0.430304 0.000000 0.319015
O O4 0.352596 0.204762 0.110425
O O5 0.329642 0.500000 0.016956
O O6 0.254909 0.257504 0.837841
O O7 0.402543 0.280164 0.014937
O O8 0.250000 0.250000 0.500000
O O9 0.399471 0.263159 0.669781
O O10 0.352180 0.253039 0.778392
O O11 0.338279 0.000000 0.657787
O O12 0.854346 0.712959 0.443757
O O13 0.812588 0.000000 0.324645
O O14 0.054723 0.500000 0.350480
O O15 0.415492 0.000000 0.949238
O O16 0.500000 0.763073 0.000000
#
# Coordination Sequence:
#
# PCOD9207645 Si02
#       6
#     8   8   8   8   8   8
#     4  11  23  42  66  90 120 159 202 250 306 365
#     4  12  25  41  62  90 124 161 205 253 301 358
#     4  10  21  37  59  87 118 154 196 242 292 349
#     4  12  25  41  62  90 124 160 201 250 304 362
#     4  10  22  41  64  90 121 159 201 246 300 362
#     4  10  21  40  64  89 119 158 203 249 301 358
#
# _framework density 23.642106999999999
#
# number of rings (size 3 to 8) (size 9 to 14) (size 15 to 20)
#    0.000    1.167    0.000    6.500    0.000   10.333 
#    0.000    1.667    0.000    0.000    0.000    0.000 
#    0.000    0.000    0.000    0.000    0.000    0.000 
#
# Total GULP energy -134403.163321 kJ/mol
# GULP energy per Si atom -5600.131805 kJ/mol
# Density = 2.358830 g / cm^3
# Si number density = 23.642107 Si / 1000 Ang^3
#
#
#
# Elastic Constant Matrix: (Units=GPa)
#
#
# Indices 1 2 3 4 5 6 
#
# 1 79.8115 0.6571 -6.2745 0.0000 -6.2711 0.0000
# 2 0.6571 37.7962 -14.7962 0.0000 6.4003 0.0000
# 3 -6.2745 -14.7962 71.2533 0.0000 -5.4547 0.0000
# 4 0.0000 0.0000 0.0000 23.1765 0.0000 -1.9381
# 5 -6.2711 6.4003 -5.4547 0.0000 43.1193 0.0000
# 6 0.0000 0.0000 0.0000 -1.9381 0.0000 25.7113
#
#
#
# Elastic Compliance Matrix: (Units=1/GPa)
#
#
# Indices 1 2 3 4 5 6 
#
# 1 0.012789 -0.000070 0.001267 0.000000 0.002031 0.000000
# 2 -0.000070 0.029348 0.005810 0.000000 -0.003631 0.000000
# 3 0.001267 0.005810 0.015450 0.000000 0.001276 0.000000
# 4 0.000000 0.000000 0.000000 0.043421 0.000000 0.003273
# 5 0.002031 -0.003631 0.001276 0.000000 0.024187 0.000000
# 6 0.000000 0.000000 0.000000 0.003273 0.000000 0.039140
#
#
# Mechanical properties :
#
#
# Convention : Reuss Voigt Hill
#
# Bulk Modulus (GPa) = 13.96607 16.44820 15.20713
# Shear Modulus (GPa) = 28.70439 32.35306 30.52873
#
# Velocity S-wave (km/s) = 3.48821 3.70327 3.59735
# Velocity P-wave (km/s) = 4.70569 5.02572 4.86834
#
# Compressibility (1/GPa) = 0.07160211
#
# Stress axis : x y z
#
# Youngs Moduli (GPa) = 78.19048 34.07345 64.72390
#
# Poissons Ratio (x) = 0.00239 -0.08201
# Poissons Ratio (y) = 0.00549 -0.37606
# Poissons Ratio (z) = -0.09907 -0.19797
#
# Static dielectric constant tensor:
#      x y z
#    x 1.907340 0.000000 0.046890 
#    y 0.000000 1.849670 0.000000 
#    z 0.046890 0.000000 1.895050 
# 
# From -- ./inp_files/244849.got.cif
#   From: 2010.05.17/outbox.cif.g08.bks.cpg/sg12_123_cif.got.tgz:244849.got - 2010.06.03 13:09:07.
