data_PCOD9207196
_publ_section_title
;
Structure prediction by ZEFSAII (Michael W. Deem and Ramdas Pophale) SiO2 
 PCOD9207196
Probable space group: C 2/M
;
_chemical_formula_sum "Si O2"
_cell_formula_units_Z 48
_cell_length_a 10.693015
_cell_length_b 14.645953
_cell_length_c 14.432547
_cell_angle_alpha 90.000000
_cell_angle_beta 91.048854
_cell_angle_gamma 90.000000
_cell_volume 2259.893749
_symmetry_space_group_name_H-M "C 2/M"
_symmetry_group_IT_number 12
_symmetry_cell_setting 'monoclinic'
loop_
_space_group_symop_operation_xyz
x,y,z
-x,y,-z
-x,-y,-z
x,-y,z
1/2+x,1/2+y,z
1/2-x,1/2+y,-z
1/2-x,1/2-y,-z
1/2+x,1/2-y,z
loop_
_atom_site_type_symbol
_atom_site_label
_atom_site_fract_x
_atom_site_fract_y
_atom_site_fract_z
Si Si1 0.009276 0.105950 0.845443
Si Si2 0.089147 0.600531 0.867022
Si Si3 0.439391 0.102531 0.398651
Si Si4 0.792952 0.146177 0.993502
Si Si5 0.858304 0.244901 0.271333
Si Si6 0.644774 0.898606 0.238792
O O1 0.027611 0.178563 0.762056
O O2 0.893700 0.129257 0.912216
O O3 0.996981 0.000000 0.816560
O O4 0.132912 0.116557 0.913128
O O5 0.104343 0.500000 0.825275
O O6 0.163600 0.598125 0.963147
O O7 0.153473 0.678401 0.807731
O O8 0.942348 0.621246 0.851860
O O9 0.500000 0.114172 0.500000
O O10 0.367479 0.194052 0.364298
O O11 0.547835 0.099280 0.322678
O O12 0.378332 0.000000 0.397270
O O13 0.750000 0.250000 0.000000
O O14 0.742748 0.177637 0.264848
O O15 0.700293 0.000000 0.230257
#
# Coordination Sequence:
#
# PCOD9207196 Si02
#       6
#     8   8   8   8   8   8
#     4  11  24  40  59  86 123 165 203 250 315 368
#     4  10  21  37  57  83 116 155 205 254 296 350
#     4   9  20  40  64  92 124 158 200 248 302 364
#     4  11  22  39  60  84 116 157 210 259 302 351
#     4  11  21  35  64  89 121 157 200 246 306 367
#     4   9  20  37  58  86 121 159 198 246 301 359
#
# _framework density 21.239936
#
# number of rings (size 3 to 8) (size 9 to 14) (size 15 to 20)
#    0.000    1.833    1.667    4.000    4.667    0.667 
#    0.000    0.000    0.000   10.000    0.000    0.000 
#    0.000    0.000    0.000    0.000    0.000    0.000 
#
# Total GULP energy -133845.086553 kJ/mol
# GULP energy per Si atom -5576.878606 kJ/mol
# Density = 2.119159 g / cm^3
# Si number density = 21.239936 Si / 1000 Ang^3
#
#
#
# Elastic Constant Matrix: (Units=GPa)
#
#
# Indices 1 2 3 4 5 6 
#
# 1 70.1036 59.5366 38.4544 0.0000 15.5691 0.0000
# 2 59.5366 180.6330 24.5919 0.0000 23.7927 0.0000
# 3 38.4544 24.5919 94.8218 0.0000 21.3946 0.0000
# 4 0.0000 0.0000 0.0000 29.5553 0.0000 8.4426
# 5 15.5691 23.7927 21.3946 0.0000 22.7535 0.0000
# 6 0.0000 0.0000 0.0000 8.4426 0.0000 44.7785
#
#
#
# Elastic Compliance Matrix: (Units=1/GPa)
#
#
# Indices 1 2 3 4 5 6 
#
# 1 0.024857 -0.006793 -0.007722 0.000000 -0.002644 0.000000
# 2 -0.006793 0.008280 0.001920 0.000000 -0.005814 0.000000
# 3 -0.007722 0.001920 0.015791 0.000000 -0.011571 0.000000
# 4 0.000000 0.000000 0.000000 0.035761 0.000000 -0.006742
# 5 -0.002644 -0.005814 -0.011571 0.000000 0.062718 0.000000
# 6 0.000000 0.000000 0.000000 -0.006742 0.000000 0.023603
#
#
# Mechanical properties :
#
#
# Convention : Reuss Voigt Hill
#
# Bulk Modulus (GPa) = 42.13110 65.63602 53.88356
# Shear Modulus (GPa) = 24.49617 34.28250 29.38933
#
# Velocity S-wave (km/s) = 3.39972 4.02189 3.72382
# Velocity P-wave (km/s) = 5.94051 7.24822 6.62670
#
# Compressibility (1/GPa) = 0.02373543
#
# Stress axis : x y z
#
# Youngs Moduli (GPa) = 40.23011 120.77743 63.32837
#
# Poissons Ratio (x) = 0.82048 0.48904
# Poissons Ratio (y) = 0.27330 -0.12156
# Poissons Ratio (z) = 0.31067 -0.23184
#
# Static dielectric constant tensor:
#      x y z
#    x 1.842300 0.000000 0.007740 
#    y 0.000000 1.830780 0.000000 
#    z 0.007740 0.000000 1.798350 
# 
# From -- ./inp_files/204466.got.cif
#   From: 2010.05.17/outbox.cif.g08.bks.cpg/sg12_103_cif.got.tgz:204466.got - 2010.06.03 13:09:07.
