data_PCOD9207780
_publ_section_title
;
Structure prediction by ZEFSAII (Michael W. Deem and Ramdas Pophale) SiO2 
 PCOD9207780
Probable space group: C 2/M
;
_chemical_formula_sum "Si O2"
_cell_formula_units_Z 40
_cell_length_a 11.035029
_cell_length_b 15.117720
_cell_length_c 14.592368
_cell_angle_alpha 90.000000
_cell_angle_beta 131.649266
_cell_angle_gamma 90.000000
_cell_volume 1819.022486
_symmetry_space_group_name_H-M "C 2/M"
_symmetry_group_IT_number 12
_symmetry_cell_setting 'monoclinic'
loop_
_space_group_symop_operation_xyz
x,y,z
-x,y,-z
-x,-y,-z
x,-y,z
1/2+x,1/2+y,z
1/2-x,1/2+y,-z
1/2-x,1/2-y,-z
1/2+x,1/2-y,z
loop_
_atom_site_type_symbol
_atom_site_label
_atom_site_fract_x
_atom_site_fract_y
_atom_site_fract_z
Si Si1 0.420257 0.402674 0.359589
Si Si2 0.529891 0.103082 0.745110
Si Si3 0.757004 0.285530 0.282761
Si Si4 0.772736 0.601577 0.463015
Si Si5 0.434945 0.220492 0.071861
O O1 0.500000 0.403104 0.500000
O O2 0.341103 0.500000 0.306624
O O3 0.313498 0.315438 0.297344
O O4 0.579634 0.396114 0.377013
O O5 0.664659 0.157791 0.758506
O O6 0.363630 0.121713 0.604624
O O7 0.534341 0.133449 0.851784
O O8 0.560402 0.000000 0.752631
O O9 0.816172 0.327774 0.407641
O O10 0.563110 0.289391 0.179766
O O11 0.817634 0.500000 0.460247
O O12 0.500000 0.211074 0.000000
O O13 0.250000 0.250000 0.000000
#
# Coordination Sequence:
#
# PCOD9207780 Si02
#       5
#     8   8   8   8   8
#     4  10  21  37  59  96 141 181 224 280 345 417
#     4  11  24  44  72 107 144 183 232 294 355 423
#     4  12  23  41  73 100 142 185 235 288 361 417
#     4  10  22  40  66 106 146 180 225 283 358 436
#     4  12  27  50  72  99 138 190 248 298 343 411
#
# _framework density 21.989833999999998
#
# number of rings (size 3 to 8) (size 9 to 14) (size 15 to 20)
#    0.000    1.000    2.000    4.800    0.000    6.800 
#    0.000    3.000    0.000    0.000    0.000    0.000 
#    0.000    0.000    0.000    0.000    0.000    0.000 
#
# Total GULP energy -111793.818037 kJ/mol
# GULP energy per Si atom -5589.690902 kJ/mol
# Density = 2.193978 g / cm^3
# Si number density = 21.989834 Si / 1000 Ang^3
#
#
#
# Elastic Constant Matrix: (Units=GPa)
#
#
# Indices 1 2 3 4 5 6 
#
# 1 131.1517 81.8369 56.5465 0.0000 12.0820 0.0000
# 2 81.8369 135.6029 72.5146 0.0000 -4.2606 0.0000
# 3 56.5465 72.5146 107.9175 0.0000 1.9427 0.0000
# 4 0.0000 0.0000 0.0000 44.7503 0.0000 -21.9577
# 5 12.0820 -4.2606 1.9427 0.0000 48.1375 0.0000
# 6 0.0000 0.0000 0.0000 -21.9577 0.0000 45.2349
#
#
#
# Elastic Compliance Matrix: (Units=1/GPa)
#
#
# Indices 1 2 3 4 5 6 
#
# 1 0.013268 -0.006943 -0.002218 0.000000 -0.003855 0.000000
# 2 -0.006943 0.015229 -0.006656 0.000000 0.003359 0.000000
# 3 -0.002218 -0.006656 0.014912 0.000000 -0.000634 0.000000
# 4 0.000000 0.000000 0.000000 0.029333 0.000000 0.014239
# 5 -0.003855 0.003359 -0.000634 0.000000 0.022064 0.000000
# 6 0.000000 0.000000 0.000000 0.014239 0.000000 0.029018
#
#
# Mechanical properties :
#
#
# Convention : Reuss Voigt Hill
#
# Bulk Modulus (GPa) = 84.91081 88.49645 86.70363
# Shear Modulus (GPa) = 31.37095 38.54282 34.95689
#
# Velocity S-wave (km/s) = 3.78115 4.19114 3.99141
# Velocity P-wave (km/s) = 7.60002 7.98451 7.79464
#
# Compressibility (1/GPa) = 0.01177706
#
# Stress axis : x y z
#
# Youngs Moduli (GPa) = 75.36837 65.66370 67.05900
#
# Poissons Ratio (x) = 0.45587 0.14873
# Poissons Ratio (y) = 0.52325 0.44634
# Poissons Ratio (z) = 0.16716 0.43705
#
# Static dielectric constant tensor:
#      x y z
#    x 1.885500 0.000000 0.009490 
#    y 0.000000 1.790330 0.000000 
#    z 0.009490 0.000000 1.820040 
# 
# From -- ./inp_files/129241.got.cif
#   From: 2010.05.17/outbox.cif.g08.bks.cpg/sg12_65_cif.got.tgz:129241.got - 2010.06.03 13:09:07.
