data_PCOD9207352
_publ_section_title
;
Structure prediction by ZEFSAII (Michael W. Deem and Ramdas Pophale) SiO2 
 PCOD9207352
Probable space group: C 2/M
;
_chemical_formula_sum "Si O2"
_cell_formula_units_Z 48
_cell_length_a 25.848989
_cell_length_b 7.602592
_cell_length_c 15.055510
_cell_angle_alpha 90.000000
_cell_angle_beta 138.621333
_cell_angle_gamma 90.000000
_cell_volume 1955.795982
_symmetry_space_group_name_H-M "C 2/M"
_symmetry_group_IT_number 12
_symmetry_cell_setting 'monoclinic'
loop_
_space_group_symop_operation_xyz
x,y,z
-x,y,-z
-x,-y,-z
x,-y,z
1/2+x,1/2+y,z
1/2-x,1/2+y,-z
1/2-x,1/2-y,-z
1/2+x,1/2-y,z
loop_
_atom_site_type_symbol
_atom_site_label
_atom_site_fract_x
_atom_site_fract_y
_atom_site_fract_z
Si Si1 0.175633 0.294463 0.519910
Si Si2 0.322609 0.702109 0.813062
Si Si3 0.084039 0.212914 0.568848
Si Si4 0.421314 0.713587 0.099422
Si Si5 0.332375 0.710464 0.152325
Si Si6 0.090650 0.292399 0.240718
O O1 0.192628 0.500000 0.526074
O O2 0.249608 0.214571 0.666995
O O3 0.104592 0.280915 0.498075
O O4 0.150402 0.220082 0.392525
O O5 0.301198 0.500000 0.804675
O O6 0.393046 0.706082 0.832735
O O7 0.354258 0.779507 0.945204
O O8 0.149323 0.273910 0.724782
O O9 0.000000 0.264077 0.500000
O O10 0.084605 0.000000 0.563356
O O11 0.420085 0.500000 0.096793
O O12 0.399229 0.771980 0.169730
O O13 0.504682 0.768322 0.169490
O O14 0.338345 0.500000 0.165194
O O15 0.250000 0.750000 0.000000
O O16 0.103331 0.500000 0.244894
#
# Coordination Sequence:
#
# PCOD9207352 Si02
#       6
#     8   8   8   8   8   8
#     4  10  22  39  58  82 111 145 185 227 275 328
#     4  10  21  38  59  81 108 146 188 225 268 327
#     4  10  21  37  58  84 112 145 186 228 271 322
#     4  10  21  38  59  81 109 148 187 222 268 328
#     4  10  21  37  58  84 113 146 184 226 273 325
#     4  11  23  37  56  84 114 143 180 229 280 326
#
# _framework density 24.542437
#
# number of rings (size 3 to 8) (size 9 to 14) (size 15 to 20)
#    0.000    1.833    0.000    3.500    0.000    9.000 
#    0.000    0.000    0.000    0.000    0.000    0.000 
#    0.000    0.000    0.000    0.000    0.000    0.000 
#
# Total GULP energy -134270.326164 kJ/mol
# GULP energy per Si atom -5594.596924 kJ/mol
# Density = 2.448658 g / cm^3
# Si number density = 24.542437 Si / 1000 Ang^3
#
#
#
# Elastic Constant Matrix: (Units=GPa)
#
#
# Indices 1 2 3 4 5 6 
#
# 1 72.1743 -5.9824 -13.5947 0.0000 -6.7684 0.0000
# 2 -5.9824 63.9726 5.0706 0.0000 -3.0587 0.0000
# 3 -13.5947 5.0706 80.9240 0.0000 -10.5708 0.0000
# 4 0.0000 0.0000 0.0000 11.6454 0.0000 5.1914
# 5 -6.7684 -3.0587 -10.5708 0.0000 49.4542 0.0000
# 6 0.0000 0.0000 0.0000 5.1914 0.0000 14.4955
#
#
#
# Elastic Compliance Matrix: (Units=1/GPa)
#
#
# Indices 1 2 3 4 5 6 
#
# 1 0.014731 0.001288 0.002744 0.000000 0.002682 0.000000
# 2 0.001288 0.015852 -0.000644 0.000000 0.001019 0.000000
# 3 0.002744 -0.000644 0.013273 0.000000 0.003173 0.000000
# 4 0.000000 0.000000 0.000000 0.102185 0.000000 -0.036596
# 5 0.002682 0.001019 0.003173 0.000000 0.021329 0.000000
# 6 0.000000 0.000000 0.000000 -0.036596 0.000000 0.082093
#
#
# Mechanical properties :
#
#
# Convention : Reuss Voigt Hill
#
# Bulk Modulus (GPa) = 19.74984 20.89532 20.32258
# Shear Modulus (GPa) = 19.26314 30.55750 24.91032
#
# Velocity S-wave (km/s) = 2.80463 3.53241 3.18935
# Velocity P-wave (km/s) = 4.30728 5.01694 4.67559
#
# Compressibility (1/GPa) = 0.05063331
#
# Stress axis : x y z
#
# Youngs Moduli (GPa) = 67.88589 63.08383 75.34037
#
# Poissons Ratio (x) = -0.08127 -0.20676
# Poissons Ratio (y) = -0.08745 0.04850
# Poissons Ratio (z) = -0.18630 0.04061
#
# Static dielectric constant tensor:
#      x y z
#    x 1.919490 0.000000 0.029520 
#    y 0.000000 1.941930 0.000000 
#    z 0.029520 0.000000 1.990110 
# 
# From -- ./inp_files/244616.got.cif
#   From: 2010.05.17/outbox.cif.g08.bks.cpg/sg12_123_cif.got.tgz:244616.got - 2010.06.03 13:09:07.
