data_PCOD9207331
_publ_section_title
;
Structure prediction by ZEFSAII (Michael W. Deem and Ramdas Pophale) SiO2 
 PCOD9207331
Probable space group: C 2/M
;
_chemical_formula_sum "Si O2"
_cell_formula_units_Z 64
_cell_length_a 21.061760
_cell_length_b 8.509044
_cell_length_c 22.859202
_cell_angle_alpha 90.000000
_cell_angle_beta 123.767515
_cell_angle_gamma 90.000000
_cell_volume 3405.603931
_symmetry_space_group_name_H-M "C 2/M"
_symmetry_group_IT_number 12
_symmetry_cell_setting 'monoclinic'
loop_
_space_group_symop_operation_xyz
x,y,z
-x,y,-z
-x,-y,-z
x,-y,z
1/2+x,1/2+y,z
1/2-x,1/2+y,-z
1/2-x,1/2-y,-z
1/2+x,1/2-y,z
loop_
_atom_site_type_symbol
_atom_site_label
_atom_site_fract_x
_atom_site_fract_y
_atom_site_fract_z
Si Si1 0.134631 0.309957 0.804648
Si Si2 0.450551 0.188238 0.030163
Si Si3 0.084100 0.188487 0.432600
Si Si4 0.361249 0.308467 0.668346
Si Si5 0.279653 0.688431 0.952701
Si Si6 0.413173 0.809944 0.349725
Si Si7 0.813188 0.309721 0.409389
Si Si8 0.500263 0.688521 0.819584
O O1 0.129965 0.500000 0.804447
O O2 0.217319 0.264217 0.872082
O O3 0.118358 0.259846 0.729864
O O4 0.070005 0.242231 0.814157
O O5 0.487378 0.244983 0.109634
O O6 0.448845 0.000000 0.029262
O O7 0.500000 0.242932 0.000000
O O8 0.363901 0.248934 0.983363
O O9 0.109692 0.241454 0.380849
O O10 0.142246 0.250783 0.510885
O O11 0.998841 0.248198 0.401344
O O12 0.084302 0.000000 0.433554
O O13 0.361229 0.500000 0.668435
O O14 0.274727 0.256498 0.635126
O O15 0.421995 0.258179 0.748343
O O16 0.282190 0.500000 0.956406
O O17 0.250000 0.750000 0.000000
O O18 0.358747 0.758562 0.374798
O O19 0.415558 0.000000 0.351492
O O20 0.813310 0.500000 0.410352
O O21 0.500331 0.500000 0.822533
#
# Coordination Sequence:
#
# PCOD9207331 Si02
#       8
#     8   8   8   8   8   8   8   8
#     4  10  21  37  59  87 117 151 193 241 292 349
#     4  11  25  43  61  87 125 162 197 243 297 350
#     4  11  21  36  57  83 115 149 190 238 291 343
#     4   9  20  37  58  85 114 148 190 240 290 341
#     4  11  22  37  62  92 121 154 197 245 294 351
#     4  10  21  37  58  83 111 151 193 234 287 344
#     4  10  21  38  57  80 114 150 192 239 286 343
#     4  11  21  37  63  89 115 152 195 242 294 350
#
# _framework density 18.792556000000001
#
# number of rings (size 3 to 8) (size 9 to 14) (size 15 to 20)
#    0.000    1.625    2.500    2.250    0.000    4.500 
#    0.000    4.375    0.000    0.000    0.000    0.000 
#    0.000    0.000    0.000    0.000    0.000    0.000 
#
# Total GULP energy -178818.112446 kJ/mol
# GULP energy per Si atom -5588.066014 kJ/mol
# Density = 1.874978 g / cm^3
# Si number density = 18.792556 Si / 1000 Ang^3
#
#
#
# Elastic Constant Matrix: (Units=GPa)
#
#
# Indices 1 2 3 4 5 6 
#
# 1 184.9051 27.9842 101.8160 0.0000 17.2629 0.0000
# 2 27.9842 19.8257 29.6231 0.0000 3.7340 0.0000
# 3 101.8160 29.6231 177.1434 0.0000 25.9170 0.0000
# 4 0.0000 0.0000 0.0000 25.2116 0.0000 1.8833
# 5 17.2629 3.7340 25.9170 0.0000 23.2975 0.0000
# 6 0.0000 0.0000 0.0000 1.8833 0.0000 14.3246
#
#
#
# Elastic Compliance Matrix: (Units=1/GPa)
#
#
# Indices 1 2 3 4 5 6 
#
# 1 0.008481 -0.006298 -0.003643 0.000000 -0.001223 0.000000
# 2 -0.006298 0.072002 -0.008856 0.000000 0.002979 0.000000
# 3 -0.003643 -0.008856 0.010292 0.000000 -0.007331 0.000000
# 4 0.000000 0.000000 0.000000 0.040058 0.000000 -0.005266
# 5 -0.001223 0.002979 -0.007331 0.000000 0.051507 0.000000
# 6 0.000000 0.000000 0.000000 -0.005266 0.000000 0.070502
#
#
# Mechanical properties :
#
#
# Convention : Reuss Voigt Hill
#
# Bulk Modulus (GPa) = 18.80383 77.85787 48.33085
# Shear Modulus (GPa) = 16.22511 27.39680 21.81096
#
# Velocity S-wave (km/s) = 2.94152 3.82233 3.41048
# Velocity P-wave (km/s) = 4.64375 7.81027 6.42514
#
# Compressibility (1/GPa) = 0.05318066
#
# Stress axis : x y z
#
# Youngs Moduli (GPa) = 117.90592 13.88854 97.15917
#
# Poissons Ratio (x) = 0.08748 0.35391
# Poissons Ratio (y) = 0.74263 0.86047
# Poissons Ratio (z) = 0.42948 0.12300
#
# Static dielectric constant tensor:
#      x y z
#    x 1.621790 0.000000 0.001490 
#    y 0.000000 1.645220 0.000000 
#    z 0.001490 0.000000 1.634480 
# 
# From -- ./inp_files/320175.got.cif
#   From: 2010.05.17/outbox.cif.g08.bks.cpg/sg12_161_cif.got.tgz:320175.got - 2010.06.03 13:09:07.
