data_PCOD9207869
_publ_section_title
;
Structure prediction by ZEFSAII (Michael W. Deem and Ramdas Pophale) SiO2 
 PCOD9207869
Probable space group: C 2/M
;
_chemical_formula_sum "Si O2"
_cell_formula_units_Z 64
_cell_length_a 24.974554
_cell_length_b 8.805015
_cell_length_c 15.386857
_cell_angle_alpha 90.000000
_cell_angle_beta 91.520503
_cell_angle_gamma 90.000000
_cell_volume 3382.398821
_symmetry_space_group_name_H-M "C 2/M"
_symmetry_group_IT_number 12
_symmetry_cell_setting 'monoclinic'
loop_
_space_group_symop_operation_xyz
x,y,z
-x,y,-z
-x,-y,-z
x,-y,z
1/2+x,1/2+y,z
1/2-x,1/2+y,-z
1/2-x,1/2-y,-z
1/2+x,1/2-y,z
loop_
_atom_site_type_symbol
_atom_site_label
_atom_site_fract_x
_atom_site_fract_y
_atom_site_fract_z
Si Si1 0.764746 0.681021 0.632572
Si Si2 0.549259 0.681220 0.763731
Si Si3 0.728774 0.318178 0.183070
Si Si4 0.363808 0.681199 0.953637
Si Si5 0.851162 0.681057 0.142618
Si Si6 0.527779 0.819647 0.094676
Si Si7 0.450853 0.316957 0.436689
Si Si8 0.665692 0.181676 0.532827
O O1 0.758723 0.500000 0.631954
O O2 0.783644 0.738268 0.726709
O O3 0.707558 0.754900 0.605697
O O4 0.806837 0.722596 0.558422
O O5 0.544962 0.500000 0.774170
O O6 0.608917 0.734925 0.790516
O O7 0.510153 0.762414 0.830074
O O8 0.537521 0.720913 0.663390
O O9 0.724859 0.500000 0.194719
O O10 0.688168 0.275684 0.104723
O O11 0.789614 0.281879 0.159742
O O12 0.363678 0.500000 0.967923
O O13 0.416429 0.730976 0.903854
O O14 0.364282 0.765274 0.045823
O O15 0.858932 0.500000 0.150029
O O16 0.536577 0.000000 0.102158
O O17 0.500000 0.790507 0.000000
O O18 0.500000 0.267597 0.500000
O O19 0.446493 0.500000 0.442719
O O20 0.393560 0.247809 0.460011
O O21 0.663779 0.000000 0.540033
#
# Coordination Sequence:
#
# PCOD9207869 Si02
#       8
#     8   8   8   8   8   8   8   8
#     4  10  21  37  60  89 118 154 198 242 292 352
#     4  11  23  39  63  91 117 154 201 246 296 354
#     4  10  23  39  57  86 122 157 194 239 295 352
#     4  11  23  39  60  86 117 156 198 242 293 351
#     4  11  22  38  59  85 119 155 195 243 293 349
#     4  11  23  40  62  87 117 154 197 247 298 348
#     4  10  23  42  62  88 122 158 198 246 300 357
#     4  10  21  38  61  88 118 154 197 245 296 349
#
# _framework density 18.921482999999998
#
# number of rings (size 3 to 8) (size 9 to 14) (size 15 to 20)
#    0.000    1.500    1.250    3.375    0.000    8.250 
#    0.000    3.750    0.000    0.000    0.000    0.000 
#    0.000    0.000    0.000    0.000    0.000    0.000 
#
# Total GULP energy -178909.328744 kJ/mol
# GULP energy per Si atom -5590.916523 kJ/mol
# Density = 1.887842 g / cm^3
# Si number density = 18.921483 Si / 1000 Ang^3
#
#
#
# Elastic Constant Matrix: (Units=GPa)
#
#
# Indices 1 2 3 4 5 6 
#
# 1 50.9983 10.8719 48.1603 0.0000 -2.0124 0.0000
# 2 10.8719 16.2134 28.2024 0.0000 -0.4522 0.0000
# 3 48.1603 28.2024 100.3509 0.0000 14.3388 0.0000
# 4 0.0000 0.0000 0.0000 21.4727 0.0000 -1.0868
# 5 -2.0124 -0.4522 14.3388 0.0000 28.0025 0.0000
# 6 0.0000 0.0000 0.0000 -1.0868 0.0000 33.8590
#
#
#
# Elastic Compliance Matrix: (Units=1/GPa)
#
#
# Indices 1 2 3 4 5 6 
#
# 1 0.044462 0.024848 -0.031112 0.000000 0.019527 0.000000
# 2 0.024848 0.146980 -0.058075 0.000000 0.033897 0.000000
# 3 -0.031112 -0.058075 0.044961 0.000000 -0.026196 0.000000
# 4 0.000000 0.000000 0.000000 0.046647 0.000000 0.001497
# 5 0.019527 0.033897 -0.026196 0.000000 0.051076 0.000000
# 6 0.000000 0.000000 0.000000 0.001497 0.000000 0.029582
#
#
# Mechanical properties :
#
#
# Convention : Reuss Voigt Hill
#
# Bulk Modulus (GPa) = 9.28295 38.00355 23.64325
# Shear Modulus (GPa) = 9.46442 22.02205 15.74324
#
# Velocity S-wave (km/s) = 2.23893 3.41525 2.88762
# Velocity P-wave (km/s) = 3.40594 5.97330 4.86214
#
# Compressibility (1/GPa) = 0.10772440
#
# Stress axis : x y z
#
# Youngs Moduli (GPa) = 22.49094 6.80363 22.24174
#
# Poissons Ratio (x) = -0.16905 0.69198
# Poissons Ratio (y) = -0.55884 1.29169
# Poissons Ratio (z) = 0.69973 0.39512
#
# Static dielectric constant tensor:
#      x y z
#    x 1.636000 0.000000 -0.003590 
#    y 0.000000 1.632570 0.000000 
#    z -0.003590 0.000000 1.645290 
# 
# From -- ./inp_files/238774.got.cif
#   From: 2010.05.17/outbox.cif.g08.bks.cpg/sg12_120_cif.got.tgz:238774.got - 2010.06.03 13:09:07.
