data_PCOD9207401
_publ_section_title
;
Structure prediction by ZEFSAII (Michael W. Deem and Ramdas Pophale) SiO2 
 PCOD9207401
Probable space group: C 2/M
;
_chemical_formula_sum "Si O2"
_cell_formula_units_Z 42
_cell_length_a 10.381644
_cell_length_b 7.702992
_cell_length_c 30.088926
_cell_angle_alpha 90.000000
_cell_angle_beta 54.399735
_cell_angle_gamma 90.000000
_cell_volume 1956.479018
_symmetry_space_group_name_H-M "C 2/M"
_symmetry_group_IT_number 12
_symmetry_cell_setting 'monoclinic'
loop_
_space_group_symop_operation_xyz
x,y,z
-x,y,-z
-x,-y,-z
x,-y,z
1/2+x,1/2+y,z
1/2-x,1/2+y,-z
1/2-x,1/2-y,-z
1/2+x,1/2-y,z
loop_
_atom_site_type_symbol
_atom_site_label
_atom_site_fract_x
_atom_site_fract_y
_atom_site_fract_z
Si Si1 0.679198 0.208629 0.466426
Si Si2 0.357572 0.300264 0.091181
Si Si3 0.000000 0.500000 0.000000
Si Si4 0.274701 0.704497 0.723227
Si Si5 0.868120 0.210715 0.342084
Si Si6 0.508311 0.298592 0.155465
O O1 0.500000 0.275906 0.500000
O O2 0.750000 0.250000 0.500000
O O3 0.786648 0.272122 0.404012
O O4 0.673146 0.000000 0.463281
O O5 0.403744 0.500000 0.070478
O O6 0.445813 0.249266 0.119153
O O7 0.168255 0.299104 0.136277
O O8 0.401745 0.155335 0.046372
O O9 0.276754 0.500000 0.731976
O O10 0.232322 0.734355 0.680359
O O11 0.450560 0.773343 0.697932
O O12 0.134790 0.779119 0.781331
O O13 0.872236 0.000000 0.342012
O O14 0.551181 0.500000 0.145284
#
# Coordination Sequence:
#
# PCOD9207401 Si02
#       6
#     8   8   2   8   8   8
#     4  10  21  37  58  84 119 164 209 260 317 381
#     4  11  26  46  70 102 134 176 222 267 324 397
#     4  12  26  48  72 100 140 180 214 278 322 370
#     4  11  23  37  62  91 122 161 207 265 318 385
#     4  10  22  39  57  88 124 161 209 261 321 381
#     4  11  24  45  68  97 131 171 215 266 332 388
#
# _framework density 21.467134000000001
#
# number of rings (size 3 to 8) (size 9 to 14) (size 15 to 20)
#    0.000    1.333    0.952    3.714    2.667    6.476 
#    0.000    0.000    0.000    0.000    0.000    0.000 
#    0.000    0.000    0.000    0.000    0.000    0.000 
#
# Total GULP energy -117162.516444 kJ/mol
# GULP energy per Si atom -5579.167450 kJ/mol
# Density = 2.141827 g / cm^3
# Si number density = 21.467134 Si / 1000 Ang^3
#
#
#
# Elastic Constant Matrix: (Units=GPa)
#
#
# Indices 1 2 3 4 5 6 
#
# 1 31.4104 -13.5086 -31.8290 0.0000 47.5786 0.0000
# 2 -13.5086 56.0615 10.6777 0.0000 18.7099 0.0000
# 3 -31.8290 10.6777 66.3377 0.0000 -7.4432 0.0000
# 4 0.0000 0.0000 0.0000 26.9888 0.0000 10.6679
# 5 47.5786 18.7099 -7.4432 0.0000 -74.9404 0.0000
# 6 0.0000 0.0000 0.0000 10.6679 0.0000 8.6096
#
#
#
# Elastic Compliance Matrix: (Units=1/GPa)
#
#
# Indices 1 2 3 4 5 6 
#
# 1 0.024081 -0.001284 0.013292 0.000000 0.013648 0.000000
# 2 -0.001284 0.016855 -0.002916 0.000000 0.003682 0.000000
# 3 0.013292 -0.002916 0.022535 0.000000 0.005473 0.000000
# 4 0.000000 0.000000 0.000000 0.072619 0.000000 -0.089981
# 5 0.013648 0.003682 0.005473 0.000000 -0.004303 0.000000
# 6 0.000000 0.000000 0.000000 -0.089981 0.000000 0.227644
#
#
# Mechanical properties :
#
#
# Convention : Reuss Voigt Hill
#
# Bulk Modulus (GPa) = 12.24663 9.38775 10.81719
# Shear Modulus (GPa) = 13.56984 4.69623 9.13303
#
# Velocity S-wave (km/s) = 2.51693 1.48067 2.06486
# Velocity P-wave (km/s) = 3.76348 2.70292 3.27640
#
# Compressibility (1/GPa) = 0.08165509
#
# Stress axis : x y z
#
# Youngs Moduli (GPa) = 41.52703 59.33118 44.37487
#
# Poissons Ratio (x) = 0.07618 -0.58983
# Poissons Ratio (y) = 0.05332 0.12939
# Poissons Ratio (z) = -0.55198 0.17300
#
# Static dielectric constant tensor:
#      x y z
#    x 1.739830 0.000000 -0.018520 
#    y 0.000000 1.791660 0.000000 
#    z -0.018520 0.000000 1.752860 
# 
# From -- ./inp_files/371817.got.cif
#   From: 2010.05.17/outbox.cif.g08.bks.cpg/sg12_186_cif.got.tgz:371817.got - 2010.06.03 13:09:07.
