data_PCOD9207276
_publ_section_title
;
Structure prediction by ZEFSAII (Michael W. Deem and Ramdas Pophale) SiO2 
 PCOD9207276
Probable space group: C 2/M
;
_chemical_formula_sum "Si O2"
_cell_formula_units_Z 56
_cell_length_a 16.697466
_cell_length_b 13.966149
_cell_length_c 12.131281
_cell_angle_alpha 90.000000
_cell_angle_beta 93.116607
_cell_angle_gamma 90.000000
_cell_volume 2824.821983
_symmetry_space_group_name_H-M "C 2/M"
_symmetry_group_IT_number 12
_symmetry_cell_setting 'monoclinic'
loop_
_space_group_symop_operation_xyz
x,y,z
-x,y,-z
-x,-y,-z
x,-y,z
1/2+x,1/2+y,z
1/2-x,1/2+y,-z
1/2-x,1/2-y,-z
1/2+x,1/2-y,z
loop_
_atom_site_type_symbol
_atom_site_label
_atom_site_fract_x
_atom_site_fract_y
_atom_site_fract_z
Si Si1 0.558501 0.303228 0.408522
Si Si2 0.362709 0.890350 0.518319
Si Si3 0.709504 0.733349 0.115941
Si Si4 0.925440 0.113652 0.262093
Si Si5 0.093891 0.894536 0.992831
Si Si6 0.745722 0.391852 0.717491
Si Si7 0.772346 0.886414 0.670056
O O1 0.500000 0.347750 0.500000
O O2 0.576469 0.194698 0.447787
O O3 0.500627 0.321667 0.299606
O O4 0.645960 0.346092 0.382034
O O5 0.301308 0.890838 0.615968
O O6 0.306104 0.867158 0.409922
O O7 0.394288 0.000000 0.509026
O O8 0.626133 0.686100 0.075259
O O9 0.713180 0.830403 0.184602
O O10 0.742154 0.659595 0.210842
O O11 0.750000 0.750000 0.000000
O O12 0.844573 0.138621 0.322818
O O13 0.946383 0.000000 0.276105
O O14 0.895357 0.128226 0.134847
O O15 0.130150 0.000000 0.019354
O O16 0.000000 0.902484 0.000000
O O17 0.736138 0.500000 0.756910
O O18 0.782737 0.000000 0.679082
#
# Coordination Sequence:
#
# PCOD9207276 Si02
#       7
#     8   8   8   8   8   8   8
#     4  12  24  36  65  95 129 165 210 259 318 385
#     4  10  23  43  64  88 126 171 211 258 315 377
#     4  12  23  37  66  93 126 166 214 258 315 379
#     4  10  21  37  57  87 123 159 201 257 316 370
#     4  10  21  37  57  86 124 160 199 254 319 375
#     4  10  21  40  64  87 121 166 215 261 310 374
#     4  11  24  42  65  96 130 164 211 268 321 378
#
# _framework density 19.824258
#
# number of rings (size 3 to 8) (size 9 to 14) (size 15 to 20)
#    0.000    1.286    2.857    3.000    2.000    4.286 
#    0.000    0.000    0.000    1.286    0.000    0.000 
#    0.000    0.000    0.000    0.000    0.000    0.000 
#
# Total GULP energy -156119.329598 kJ/mol
# GULP energy per Si atom -5575.690343 kJ/mol
# Density = 1.977914 g / cm^3
# Si number density = 19.824258 Si / 1000 Ang^3
#
#
#
# Elastic Constant Matrix: (Units=GPa)
#
#
# Indices 1 2 3 4 5 6 
#
# 1 63.6225 47.2829 29.6917 0.0000 11.7718 0.0000
# 2 47.2829 123.1941 55.1415 0.0000 24.5656 0.0000
# 3 29.6917 55.1415 108.4396 0.0000 8.5284 0.0000
# 4 0.0000 0.0000 0.0000 25.4525 0.0000 -12.9383
# 5 11.7718 24.5656 8.5284 0.0000 34.9327 0.0000
# 6 0.0000 0.0000 0.0000 -12.9383 0.0000 -180.5199
#
#
#
# Elastic Compliance Matrix: (Units=1/GPa)
#
#
# Indices 1 2 3 4 5 6 
#
# 1 0.022532 -0.007206 -0.002352 0.000000 -0.001951 0.000000
# 2 -0.007206 0.014322 -0.004801 0.000000 -0.006471 0.000000
# 3 -0.002352 -0.004801 0.012213 0.000000 0.001187 0.000000
# 4 0.000000 0.000000 0.000000 0.037908 0.000000 -0.002717
# 5 -0.001951 -0.006471 0.001187 0.000000 0.033545 0.000000
# 6 0.000000 0.000000 0.000000 -0.002717 0.000000 -0.005345
#
#
# Mechanical properties :
#
#
# Convention : Reuss Voigt Hill
#
# Bulk Modulus (GPa) = 49.13937 62.16539 55.65238
# Shear Modulus (GPa) = 33.18375 -13.15094 10.01641
#
# Velocity S-wave (km/s) = 4.09577 -2.57840 2.25024
# Velocity P-wave (km/s) = 6.87083 4.74996 5.90637
#
# Compressibility (1/GPa) = 0.02035028
#
# Stress axis : x y z
#
# Youngs Moduli (GPa) = 44.38200 69.82094 81.87667
#
# Poissons Ratio (x) = 0.50314 0.19254
# Poissons Ratio (y) = 0.31983 0.39308
# Poissons Ratio (z) = 0.10437 0.33520
#
# Static dielectric constant tensor:
#      x y z
#    x 1.779640 0.000000 -0.082380 
#    y 0.000000 1.739030 0.000000 
#    z -0.082380 0.000000 1.806140 
# 
# From -- ./inp_files/156130.got.cif
#   From: 2010.05.17/outbox.cif.g08.bks.cpg/sg12_79_cif.got.tgz:156130.got - 2010.06.03 13:09:07.
