data_PCOD9207564
_publ_section_title
;
Structure prediction by ZEFSAII (Michael W. Deem and Ramdas Pophale) SiO2 
 PCOD9207564
Probable space group: C 2/M
;
_chemical_formula_sum "Si O2"
_cell_formula_units_Z 64
_cell_length_a 12.183596
_cell_length_b 27.701256
_cell_length_c 9.678132
_cell_angle_alpha 90.000000
_cell_angle_beta 73.521389
_cell_angle_gamma 90.000000
_cell_volume 3132.214148
_symmetry_space_group_name_H-M "C 2/M"
_symmetry_group_IT_number 12
_symmetry_cell_setting 'monoclinic'
loop_
_space_group_symop_operation_xyz
x,y,z
-x,y,-z
-x,-y,-z
x,-y,z
1/2+x,1/2+y,z
1/2-x,1/2+y,-z
1/2-x,1/2-y,-z
1/2+x,1/2-y,z
loop_
_atom_site_type_symbol
_atom_site_label
_atom_site_fract_x
_atom_site_fract_y
_atom_site_fract_z
Si Si1 0.019661 0.915990 0.211011
Si Si2 0.219924 0.643163 0.502591
Si Si3 0.022135 0.293010 0.658325
Si Si4 0.316439 0.556468 0.101198
Si Si5 0.395948 0.117024 0.734371
Si Si6 0.940537 0.555909 0.161542
Si Si7 0.304547 0.553349 0.641535
Si Si8 0.456624 0.684217 0.355793
O O1 0.076205 0.941518 0.322127
O O2 0.896481 0.935407 0.207283
O O3 0.011076 0.859377 0.249423
O O4 0.104777 0.927837 0.054822
O O5 0.142425 0.678134 0.625269
O O6 0.140935 0.620486 0.411614
O O7 0.284415 0.599049 0.552402
O O8 0.320371 0.675662 0.402913
O O9 0.019826 0.238030 0.706461
O O10 0.000000 0.290864 0.500000
O O11 0.928016 0.327946 0.759658
O O12 0.286067 0.500000 0.099714
O O13 0.207020 0.590596 0.151356
O O14 0.507594 0.085647 0.730031
O O15 0.973839 0.500000 0.165094
O O16 0.803265 0.557541 0.213257
O O17 0.000000 0.574056 0.000000
O O18 0.294453 0.500000 0.580923
O O19 0.500000 0.680699 0.500000
#
# Coordination Sequence:
#
# PCOD9207564 Si02
#       8
#     8   8   8   8   8   8   8   8
#     4  11  22  41  60  88 123 160 215 252 289 360
#     4  11  21  39  59  92 122 159 197 248 304 369
#     4   9  21  38  64  89 119 156 202 250 307 363
#     4  11  23  40  65  88 119 169 207 247 302 358
#     4  11  21  39  62  93 123 152 206 250 298 372
#     4  10  21  37  59  84 118 165 206 244 298 363
#     4  11  22  36  57  88 125 157 195 252 308 358
#     4  11  21  40  64  89 117 162 205 249 307 356
#
# _framework density 20.432831
#
# number of rings (size 3 to 8) (size 9 to 14) (size 15 to 20)
#    0.000    1.375    3.750    3.000    0.000    2.000 
#    0.000    2.500    2.750    0.000    0.000    0.000 
#    0.000    0.000    0.000    0.000    0.000    0.000 
#
# Total GULP energy -178675.132961 kJ/mol
# GULP energy per Si atom -5583.597905 kJ/mol
# Density = 2.038632 g / cm^3
# Si number density = 20.432831 Si / 1000 Ang^3
#
#
#
# Elastic Constant Matrix: (Units=GPa)
#
#
# Indices 1 2 3 4 5 6 
#
# 1 87.7124 39.3263 9.3429 0.0000 3.5533 0.0000
# 2 39.3263 174.5324 34.0606 0.0000 -13.0450 0.0000
# 3 9.3429 34.0606 36.2655 0.0000 -2.4934 0.0000
# 4 0.0000 0.0000 0.0000 22.0930 0.0000 -7.2489
# 5 3.5533 -13.0450 -2.4934 0.0000 32.9801 0.0000
# 6 0.0000 0.0000 0.0000 -7.2489 0.0000 27.7101
#
#
#
# Elastic Compliance Matrix: (Units=1/GPa)
#
#
# Indices 1 2 3 4 5 6 
#
# 1 0.012913 -0.002964 -0.000723 0.000000 -0.002618 0.000000
# 2 -0.002964 0.007872 -0.006427 0.000000 0.002947 0.000000
# 3 -0.000723 -0.006427 0.033803 0.000000 0.000091 0.000000
# 4 0.000000 0.000000 0.000000 0.049513 0.000000 0.012953
# 5 -0.002618 0.002947 0.000091 0.000000 0.031776 0.000000
# 6 0.000000 0.000000 0.000000 0.012953 0.000000 0.039476
#
#
# Mechanical properties :
#
#
# Convention : Reuss Voigt Hill
#
# Bulk Modulus (GPa) = 29.10355 51.55221 40.32788
# Shear Modulus (GPa) = 24.15046 30.94200 27.54623
#
# Velocity S-wave (km/s) = 3.44167 3.89566 3.67568
# Velocity P-wave (km/s) = 5.48342 6.74683 6.14767
#
# Compressibility (1/GPa) = 0.03436007
#
# Stress axis : x y z
#
# Youngs Moduli (GPa) = 77.44134 127.03138 29.58299
#
# Poissons Ratio (x) = 0.37656 0.02138
# Poissons Ratio (y) = 0.22956 0.19013
# Poissons Ratio (z) = 0.05597 0.81645
#
# Static dielectric constant tensor:
#      x y z
#    x 1.759880 0.000000 -0.004850 
#    y 0.000000 1.705600 0.000000 
#    z -0.004850 0.000000 1.775700 
# 
# From -- ./inp_files/135350.got.cif
#   From: 2010.05.17/outbox.cif.g08.bks.cpg/sg12_68_cif.got.tgz:135350.got - 2010.06.03 13:09:07.
