data_PCOD9207058
_publ_section_title
;
Structure prediction by ZEFSAII (Michael W. Deem and Ramdas Pophale) SiO2 
 PCOD9207058
Probable space group: C 2/M
;
_chemical_formula_sum "Si O2"
_cell_formula_units_Z 58
_cell_length_a 23.657398
_cell_length_b 7.505601
_cell_length_c 19.388222
_cell_angle_alpha 90.000000
_cell_angle_beta 42.389743
_cell_angle_gamma 90.000000
_cell_volume 2320.918938
_symmetry_space_group_name_H-M "C 2/M"
_symmetry_group_IT_number 12
_symmetry_cell_setting 'monoclinic'
loop_
_space_group_symop_operation_xyz
x,y,z
-x,y,-z
-x,-y,-z
x,-y,z
1/2+x,1/2+y,z
1/2-x,1/2+y,-z
1/2-x,1/2-y,-z
1/2+x,1/2-y,z
loop_
_atom_site_type_symbol
_atom_site_label
_atom_site_fract_x
_atom_site_fract_y
_atom_site_fract_z
Si Si1 0.922209 0.298031 0.786843
Si Si2 0.500000 0.500000 0.500000
Si Si3 0.409057 0.213364 0.652393
Si Si4 0.319107 0.308088 0.995825
Si Si5 0.209678 0.293313 0.360467
Si Si6 0.461573 0.718295 0.959711
Si Si7 0.613005 0.286140 0.586769
Si Si8 0.876589 0.217669 0.268880
O O1 0.905608 0.500000 0.823261
O O2 0.872463 0.257199 0.761327
O O3 0.897507 0.179375 0.872397
O O4 0.017725 0.280512 0.677682
O O5 0.487426 0.341648 0.569449
O O6 0.346773 0.283572 0.649354
O O7 0.427039 0.000000 0.629539
O O8 0.289265 0.500000 0.047697
O O9 0.368732 0.220915 0.016489
O O10 0.250000 0.250000 0.000000
O O11 0.218505 0.500000 0.333170
O O12 0.162821 0.283522 0.476052
O O13 0.301950 0.218553 0.287188
O O14 0.456958 0.500000 0.964450
O O15 0.533733 0.775587 0.840390
O O16 0.500000 0.768887 0.000000
O O17 0.614585 0.500000 0.581961
O O18 0.646142 0.230125 0.632511
O O19 0.876949 0.000000 0.267601
#
# Coordination Sequence:
#
# PCOD9207058 Si02
#       8
#     8   2   8   8   8   8   8   8
#     4  11  23  40  62  88 124 163 209 260 321 379
#     4  12  22  36  64  82 128 176 214 268 324 372
#     4  10  24  39  56  90 126 166 219 265 319 386
#     4  11  23  41  67  99 131 164 211 266 326 397
#     4  10  21  37  56  82 124 166 208 260 312 370
#     4   9  18  36  65  97 125 160 210 263 320 392
#     4  11  21  34  57  87 121 158 206 255 303 373
#     4   9  18  35  57  85 119 160 204 256 312 373
#
# _framework density 24.990102
#
# number of rings (size 3 to 8) (size 9 to 14) (size 15 to 20)
#    0.000    1.793    1.379    2.690    4.828    3.310 
#    0.000    4.828    0.000    1.655    0.000    0.000 
#    0.000    0.000    0.000    0.000    0.000    0.000 
#
# Total GULP energy -161579.399064 kJ/mol
# GULP energy per Si atom -5571.703416 kJ/mol
# Density = 2.493322 g / cm^3
# Si number density = 24.990102 Si / 1000 Ang^3
#
#
#
# Elastic Constant Matrix: (Units=GPa)
#
#
# Indices 1 2 3 4 5 6 
#
# 1 184.2161 1.9908 19.0692 0.0021 -14.2072 -0.0023
# 2 1.9908 87.3699 -11.8202 -0.0174 7.0356 0.0139
# 3 19.0692 -11.8202 27.8563 -0.0038 -6.8606 0.0053
# 4 0.0021 -0.0174 -0.0038 16.4459 0.0113 2.4158
# 5 -14.2072 7.0356 -6.8606 0.0113 47.3873 -0.0036
# 6 -0.0023 0.0139 0.0053 2.4158 -0.0036 5.5453
#
#
#
# Elastic Compliance Matrix: (Units=1/GPa)
#
#
# Indices 1 2 3 4 5 6 
#
# 1 0.005962 -0.000796 -0.004096 -0.000005 0.001313 0.000011
# 2 -0.000796 0.012304 0.005451 0.000022 -0.001276 -0.000047
# 3 -0.004096 0.005451 0.042012 0.000022 0.004045 -0.000063
# 4 -0.000005 0.000022 0.000022 0.064963 -0.000019 -0.028301
# 5 0.001313 -0.001276 0.004045 -0.000019 0.022271 0.000023
# 6 0.000011 -0.000047 -0.000063 -0.028301 0.000023 0.192661
#
#
# Mechanical properties :
#
#
# Convention : Reuss Voigt Hill
#
# Bulk Modulus (GPa) = 16.28728 35.32468 25.80598
# Shear Modulus (GPa) = 13.90747 33.22253 23.56500
#
# Velocity S-wave (km/s) = 2.36162 3.65009 3.07412
# Velocity P-wave (km/s) = 3.73738 5.65069 4.79053
#
# Compressibility (1/GPa) = 0.06139759
#
# Stress axis : x y z
#
# Youngs Moduli (GPa) = 167.72263 81.27436 23.80289
#
# Poissons Ratio (x) = 0.06467 0.09749
# Poissons Ratio (y) = 0.13345 -0.12976
# Poissons Ratio (z) = 0.68696 -0.44305
#
# Static dielectric constant tensor:
#      x y z
#    x 2.153810 -0.000040 -0.050070 
#    y -0.000040 1.963580 -0.000030 
#    z -0.050070 -0.000030 1.978570 
# 
# From -- ./inp_files/324543.got.cif
#   From: 2010.05.17/outbox.cif.g08.bks.cpg/sg12_163_cif.got.tgz:324543.got - 2010.06.03 13:09:07.
