data_PCOD9207659
_publ_section_title
;
Structure prediction by ZEFSAII (Michael W. Deem and Ramdas Pophale) SiO2 
 PCOD9207659
Probable space group: C 2/M
;
_chemical_formula_sum "Si O2"
_cell_formula_units_Z 48
_cell_length_a 29.364660
_cell_length_b 14.575103
_cell_length_c 15.582234
_cell_angle_alpha 90.000000
_cell_angle_beta 19.566050
_cell_angle_gamma 90.000000
_cell_volume 2233.432319
_symmetry_space_group_name_H-M "C 2/M"
_symmetry_group_IT_number 12
_symmetry_cell_setting 'monoclinic'
loop_
_space_group_symop_operation_xyz
x,y,z
-x,y,-z
-x,-y,-z
x,-y,z
1/2+x,1/2+y,z
1/2-x,1/2+y,-z
1/2-x,1/2-y,-z
1/2+x,1/2-y,z
loop_
_atom_site_type_symbol
_atom_site_label
_atom_site_fract_x
_atom_site_fract_y
_atom_site_fract_z
Si Si1 0.922354 0.601286 0.999988
Si Si2 0.390417 0.643420 0.458817
Si Si3 0.947257 0.182744 0.999989
Si Si4 0.419578 0.605805 0.722232
Si Si5 0.650764 0.856576 0.458818
Si Si6 0.641815 0.105806 0.277760
O O1 0.946144 0.500000 0.999985
O O2 0.761264 0.603741 0.266057
O O3 0.945177 0.704148 0.999974
O O4 0.027323 0.603738 0.733935
O O5 0.491489 0.603514 0.349538
O O6 0.380108 0.749999 0.499985
O O7 0.454616 0.643859 0.249218
O O8 0.796169 0.143867 0.249209
O O9 0.000000 0.156560 0.000000
O O10 0.500000 0.647482 0.500000
O O11 0.392994 0.500000 0.744917
O O12 0.275522 0.650210 0.999997
O O13 0.658979 0.896480 0.349526
O O14 0.500000 0.147482 0.500000
O O15 0.637915 0.000000 0.255081
#
# Coordination Sequence:
#
# PCOD9207659 Si02
#       6
#     8   8   8   8   8   8
#     4  10  22  37  61  92 124 161 203 254 312 367
#     4  10  21  39  62  90 123 162 205 254 307 365
#     4  10  22  43  66  87 121 168 212 254 307 368
#     4  10  21  37  59  87 121 160 201 247 305 368
#     4  10  21  39  62  90 123 162 205 254 307 365
#     4  10  21  37  59  87 121 160 201 247 305 368
#
# _framework density 21.491586000000002
#
# number of rings (size 3 to 8) (size 9 to 14) (size 15 to 20)
#    0.000    2.000    1.667    1.000    2.333    7.000 
#    0.000    1.667    0.000    7.000    0.000    0.000 
#    0.000    0.000    0.000    0.000    0.000    0.000 
#
# Total GULP energy -133789.327002 kJ/mol
# GULP energy per Si atom -5574.555292 kJ/mol
# Density = 2.144267 g / cm^3
# Si number density = 21.491586 Si / 1000 Ang^3
#
#
#
# Elastic Constant Matrix: (Units=GPa)
#
#
# Indices 1 2 3 4 5 6 
#
# 1 135.2848 19.4277 96.8075 0.0000 -0.1876 0.0000
# 2 19.4277 74.7930 33.8422 0.0000 -1.2556 0.0000
# 3 96.8075 33.8422 225.8566 0.0000 -7.6832 0.0000
# 4 0.0000 0.0000 0.0000 -59.1854 0.0000 6.1071
# 5 -0.1876 -1.2556 -7.6832 0.0000 20.9974 0.0000
# 6 0.0000 0.0000 0.0000 6.1071 0.0000 10.9198
#
#
#
# Elastic Compliance Matrix: (Units=1/GPa)
#
#
# Indices 1 2 3 4 5 6 
#
# 1 0.010755 -0.000762 -0.004551 0.000000 -0.001615 0.000000
# 2 -0.000762 0.014397 -0.001824 0.000000 0.000187 0.000000
# 3 -0.004551 -0.001824 0.006730 0.000000 0.002313 0.000000
# 4 0.000000 0.000000 0.000000 -0.015974 0.000000 0.008934
# 5 -0.001615 0.000187 0.002313 0.000000 0.048468 0.000000
# 6 0.000000 0.000000 0.000000 0.008934 0.000000 0.086580
#
#
# Mechanical properties :
#
#
# Convention : Reuss Voigt Hill
#
# Bulk Modulus (GPa) = 56.79051 81.78769 69.28910
# Shear Modulus (GPa) = 29.22277 13.60350 21.41313
#
# Velocity S-wave (km/s) = 3.69145 2.51862 3.15993
# Velocity P-wave (km/s) = 6.68214 6.82614 6.75452
#
# Compressibility (1/GPa) = 0.01760858
#
# Stress axis : x y z
#
# Youngs Moduli (GPa) = 92.97607 69.46031 148.58341
#
# Poissons Ratio (x) = 0.05291 0.67618
# Poissons Ratio (y) = 0.07082 0.27107
# Poissons Ratio (z) = 0.42312 0.12672
#
# Static dielectric constant tensor:
#      x y z
#    x 1.718160 0.000000 -0.008530 
#    y 0.000000 1.834340 0.000000 
#    z -0.008530 0.000000 1.816080 
# 
# From -- ./inp_files/251411.got.cif
#   From: 2010.05.17/outbox.cif.g08.bks.cpg/sg12_126_cif.got.tgz:251411.got - 2010.06.03 13:09:07.
