data_PCOD9207903
_publ_section_title
;
Structure prediction by ZEFSAII (Michael W. Deem and Ramdas Pophale) SiO2 
 PCOD9207903
Probable space group: C 2/M
;
_chemical_formula_sum "Si O2"
_cell_formula_units_Z 58
_cell_length_a 19.886019
_cell_length_b 9.175713
_cell_length_c 21.572032
_cell_angle_alpha 90.000000
_cell_angle_beta 49.633073
_cell_angle_gamma 90.000000
_cell_volume 2999.050024
_symmetry_space_group_name_H-M "C 2/M"
_symmetry_group_IT_number 12
_symmetry_cell_setting 'monoclinic'
loop_
_space_group_symop_operation_xyz
x,y,z
-x,y,-z
-x,-y,-z
x,-y,z
1/2+x,1/2+y,z
1/2-x,1/2+y,-z
1/2-x,1/2-y,-z
1/2+x,1/2-y,z
loop_
_atom_site_type_symbol
_atom_site_label
_atom_site_fract_x
_atom_site_fract_y
_atom_site_fract_z
Si Si1 0.000000 0.500000 0.500000
Si Si2 0.813579 0.673859 0.089220
Si Si3 0.407650 0.328013 0.142094
Si Si4 0.607408 0.672092 0.070292
Si Si5 0.840964 0.662083 0.533924
Si Si6 0.557756 0.827639 0.646246
Si Si7 0.885356 0.825747 0.789000
Si Si8 0.818137 0.328426 0.309665
O O1 0.073535 0.624522 0.475967
O O2 0.822844 0.500000 0.083865
O O3 0.883291 0.748287 0.093139
O O4 0.714427 0.710939 0.170749
O O5 0.828796 0.734707 0.011215
O O6 0.391483 0.500000 0.145210
O O7 0.508828 0.308235 0.102322
O O8 0.347613 0.259340 0.231682
O O9 0.630006 0.500000 0.052838
O O10 0.607351 0.713887 0.142448
O O11 0.799407 0.500000 0.546628
O O12 0.877720 0.723480 0.447092
O O13 0.771459 0.764329 0.608717
O O14 0.463311 0.751240 0.705390
O O15 0.606989 0.809734 0.682183
O O16 0.543841 0.000000 0.642507
O O17 0.896491 0.000000 0.778067
O O18 0.810640 0.500000 0.300285
#
# Coordination Sequence:
#
# PCOD9207903 Si02
#       8
#     2   8   8   8   8   8   8   8
#     4   8  20  40  62  84 120 160 208 236 284 360
#     4  11  24  39  59  90 123 159 201 258 317 365
#     4  11  23  40  62  87 119 164 206 253 306 370
#     4  10  21  40  63  85 116 159 212 254 301 372
#     4   9  20  39  61  87 121 161 200 241 286 363
#     4  10  21  37  60  90 122 156 202 252 299 355
#     4  10  22  40  60  87 124 161 203 253 308 366
#     4  11  22  37  60  92 123 153 200 256 307 353
#
# _framework density 19.339456999999999
#
# number of rings (size 3 to 8) (size 9 to 14) (size 15 to 20)
#    0.414    1.379    1.379    2.483    0.000    6.621 
#    0.000    0.345    0.000    0.000    0.000    0.000 
#    0.000    0.000    0.000    0.000    0.000    0.000 
#
# Total GULP energy -161687.624899 kJ/mol
# GULP energy per Si atom -5575.435341 kJ/mol
# Density = 1.929544 g / cm^3
# Si number density = 19.339457 Si / 1000 Ang^3
#
#
#
# Elastic Constant Matrix: (Units=GPa)
#
#
# Indices 1 2 3 4 5 6 
#
# 1 32.1985 21.8486 -5.0198 0.0001 -12.1712 -0.0001
# 2 21.8486 41.7180 24.8402 0.0002 -6.8118 -0.0002
# 3 -5.0198 24.8402 80.1115 0.0000 1.7785 -0.0001
# 4 0.0001 0.0002 0.0000 30.2945 0.0000 -7.0798
# 5 -12.1712 -6.8118 1.7785 0.0000 15.2820 0.0000
# 6 -0.0001 -0.0002 -0.0001 -7.0798 0.0000 18.0076
#
#
#
# Elastic Compliance Matrix: (Units=1/GPa)
#
#
# Indices 1 2 3 4 5 6 
#
# 1 0.081991 -0.047321 0.018878 0.000000 0.042011 0.000000
# 2 -0.047321 0.060143 -0.021427 0.000000 -0.008387 0.000000
# 3 0.018878 -0.021427 0.020240 0.000000 0.003129 0.000000
# 4 0.000000 0.000000 0.000000 0.036349 0.000000 0.014291
# 5 0.042011 -0.008387 0.003129 0.000000 0.094793 0.000000
# 6 0.000000 0.000000 0.000000 0.014291 0.000000 0.061151
#
#
# Mechanical properties :
#
#
# Convention : Reuss Voigt Hill
#
# Bulk Modulus (GPa) = 15.96623 26.37402 21.17013
# Shear Modulus (GPa) = 10.51998 20.20742 15.36370
#
# Velocity S-wave (km/s) = 2.33484 3.23597 2.82161
# Velocity P-wave (km/s) = 3.94237 5.25633 4.64604
#
# Compressibility (1/GPa) = 0.06263218
#
# Stress axis : x y z
#
# Youngs Moduli (GPa) = 12.19645 16.62712 49.40703
#
# Poissons Ratio (x) = 0.78682 -0.93270
# Poissons Ratio (y) = 0.57715 1.05866
# Poissons Ratio (z) = -0.23024 0.35628
#
# Static dielectric constant tensor:
#      x y z
#    x 1.684840 0.000000 0.014120 
#    y 0.000000 1.648450 0.000000 
#    z 0.014120 0.000000 1.669580 
# 
# From -- ./inp_files/346475.got.cif
#   From: 2010.05.17/outbox.cif.g08.bks.cpg/sg12_174_cif.got.tgz:346475.got - 2010.06.03 13:09:07.
