data_PCOD9207452
_publ_section_title
;
Structure prediction by ZEFSAII (Michael W. Deem and Ramdas Pophale) SiO2 
 PCOD9207452
Probable space group: C 2/M
;
_chemical_formula_sum "Si O2"
_cell_formula_units_Z 56
_cell_length_a 17.278317
_cell_length_b 20.381674
_cell_length_c 9.499129
_cell_angle_alpha 90.000000
_cell_angle_beta 123.297911
_cell_angle_gamma 90.000000
_cell_volume 2796.028969
_symmetry_space_group_name_H-M "C 2/M"
_symmetry_group_IT_number 12
_symmetry_cell_setting 'monoclinic'
loop_
_space_group_symop_operation_xyz
x,y,z
-x,y,-z
-x,-y,-z
x,-y,z
1/2+x,1/2+y,z
1/2-x,1/2+y,-z
1/2-x,1/2-y,-z
1/2+x,1/2-y,z
loop_
_atom_site_type_symbol
_atom_site_label
_atom_site_fract_x
_atom_site_fract_y
_atom_site_fract_z
Si Si1 0.203685 0.575700 0.558048
Si Si2 0.904964 0.648201 0.321444
Si Si3 0.148848 0.198098 0.752165
Si Si4 0.480341 0.305772 0.129706
Si Si5 0.098846 0.571215 0.177334
Si Si6 0.641699 0.823466 0.014850
Si Si7 0.822197 0.809764 0.543481
O O1 0.233302 0.500000 0.599000
O O2 0.169923 0.605529 0.671181
O O3 0.116224 0.576732 0.361433
O O4 0.280036 0.625093 0.572340
O O5 0.879629 0.725490 0.294050
O O6 0.000000 0.640461 0.500000
O O7 0.904130 0.633414 0.154967
O O8 0.252416 0.191839 0.914847
O O9 0.154159 0.175386 0.596002
O O10 0.078737 0.166456 0.796324
O O11 0.419764 0.241394 0.029769
O O12 0.419251 0.288872 0.709414
O O13 0.500000 0.341641 0.000000
O O14 0.141666 0.500000 0.182915
O O15 0.145446 0.634836 0.159359
O O16 0.000000 0.571230 0.000000
O O17 0.750000 0.750000 0.500000
#
# Coordination Sequence:
#
# PCOD9207452 Si02
#       7
#     8   8   8   8   8   8   8
#     4  11  25  41  61  91 128 171 215 259 312 380
#     4  11  22  36  59  88 129 164 203 252 318 380
#     4  11  22  39  60  96 127 161 205 267 316 376
#     4  11  24  36  61  95 128 155 203 265 318 369
#     4  10  21  37  58  85 122 167 211 252 307 379
#     4  11  22  37  61  91 129 158 205 261 317 369
#     4  12  23  39  66  91 125 172 210 257 317 370
#
# _framework density 20.028406
#
# number of rings (size 3 to 8) (size 9 to 14) (size 15 to 20)
#    0.000    1.000    2.857    6.000    4.000    0.857 
#    0.000    0.000    0.000    3.000    0.000    0.000 
#    0.000    0.000    0.000    0.000    0.000    0.000 
#
# Total GULP energy -156106.590873 kJ/mol
# GULP energy per Si atom -5575.235388 kJ/mol
# Density = 1.998282 g / cm^3
# Si number density = 20.028406 Si / 1000 Ang^3
#
#
#
# Elastic Constant Matrix: (Units=GPa)
#
#
# Indices 1 2 3 4 5 6 
#
# 1 96.8058 21.1644 22.7991 0.0000 5.8025 0.0000
# 2 21.1644 57.0456 -13.6954 0.0000 -11.2897 0.0000
# 3 22.7991 -13.6954 76.6396 0.0000 -2.5163 0.0000
# 4 0.0000 0.0000 0.0000 18.5126 0.0000 -0.3224
# 5 5.8025 -11.2897 -2.5163 0.0000 47.9537 0.0000
# 6 0.0000 0.0000 0.0000 -0.3224 0.0000 10.5754
#
#
#
# Elastic Compliance Matrix: (Units=1/GPa)
#
#
# Indices 1 2 3 4 5 6 
#
# 1 0.013299 -0.006903 -0.005305 0.000000 -0.003513 0.000000
# 2 -0.006903 0.022918 0.006365 0.000000 0.006565 0.000000
# 3 -0.005305 0.006365 0.015861 0.000000 0.002973 0.000000
# 4 0.000000 0.000000 0.000000 0.054046 0.000000 0.001647
# 5 -0.003513 0.006565 0.002973 0.000000 0.022980 0.000000
# 6 0.000000 0.000000 0.000000 0.001647 0.000000 0.094609
#
#
# Mechanical properties :
#
#
# Convention : Reuss Voigt Hill
#
# Bulk Modulus (GPa) = 24.75785 32.33634 28.54710
# Shear Modulus (GPa) = 20.09126 28.75653 24.42389
#
# Velocity S-wave (km/s) = 3.17067 3.79329 3.49587
# Velocity P-wave (km/s) = 5.07862 5.94691 5.52983
#
# Compressibility (1/GPa) = 0.04039123
#
# Stress axis : x y z
#
# Youngs Moduli (GPa) = 75.19295 43.63367 63.04684
#
# Poissons Ratio (x) = 0.30120 0.33447
# Poissons Ratio (y) = 0.51905 -0.40126
# Poissons Ratio (z) = 0.39891 -0.27771
#
# Static dielectric constant tensor:
#      x y z
#    x 1.758000 0.000000 -0.044230 
#    y 0.000000 1.695140 0.000000 
#    z -0.044230 0.000000 1.779860 
# 
# From -- ./inp_files/77610.got.cif
#   From: 2010.05.17/outbox.cif.g08.bks.cpg/sg12_39_cif.got.tgz:77610.got - 2010.06.03 13:09:07.
