data_PCOD9207140
_publ_section_title
;
Structure prediction by ZEFSAII (Michael W. Deem and Ramdas Pophale) SiO2 
 PCOD9207140
Probable space group: C 2/M
;
_chemical_formula_sum "Si O2"
_cell_formula_units_Z 52
_cell_length_a 21.915561
_cell_length_b 23.496832
_cell_length_c 8.417192
_cell_angle_alpha 90.000000
_cell_angle_beta 140.646876
_cell_angle_gamma 90.000000
_cell_volume 2748.435738
_symmetry_space_group_name_H-M "C 2/M"
_symmetry_group_IT_number 12
_symmetry_cell_setting 'monoclinic'
loop_
_space_group_symop_operation_xyz
x,y,z
-x,y,-z
-x,-y,-z
x,-y,z
1/2+x,1/2+y,z
1/2-x,1/2+y,-z
1/2-x,1/2-y,-z
1/2+x,1/2-y,z
loop_
_atom_site_type_symbol
_atom_site_label
_atom_site_fract_x
_atom_site_fract_y
_atom_site_fract_z
Si Si1 0.500000 0.199575 0.500000
Si Si2 0.196718 0.798426 0.180349
Si Si3 0.773660 0.177949 0.401450
Si Si4 0.523912 0.065730 0.221647
Si Si5 0.668818 0.874959 0.748013
Si Si6 0.485665 0.726151 0.790785
Si Si7 0.692493 0.936795 0.092402
O O1 0.405453 0.161262 0.295621
O O2 0.516703 0.233394 0.368642
O O3 0.241459 0.816082 0.439989
O O4 0.216151 0.730733 0.206688
O O5 0.249093 0.833652 0.150529
O O6 0.083141 0.809303 0.959765
O O7 0.886116 0.191579 0.595287
O O8 0.741322 0.116174 0.279421
O O9 0.604218 0.100363 0.475965
O O10 0.556381 0.000000 0.267990
O O11 0.500000 0.089620 0.000000
O O12 0.422352 0.064563 0.108001
O O13 0.707741 0.925060 0.936778
O O14 0.500000 0.751697 0.000000
O O15 0.725834 0.000000 0.207222
#
# Coordination Sequence:
#
# PCOD9207140 Si02
#       7
#     4   8   8   8   8   8   8
#     4  12  22  34  59  92 119 164 184 240 306 370
#     4  10  22  37  62  90 119 154 192 251 307 360
#     4  10  21  40  61  88 118 154 200 246 303 362
#     4  10  21  37  57  81 115 158 201 245 294 353
#     4  12  22  36  55  92 121 154 196 242 300 366
#     4  10  23  40  58  88 127 154 198 248 304 365
#     4  11  23  38  58  83 118 161 201 246 295 354
#
# _framework density 18.919854000000001
#
# number of rings (size 3 to 8) (size 9 to 14) (size 15 to 20)
#    0.000    1.385    3.077    2.308    2.154    3.077 
#    0.000    0.769    0.000    6.923    0.000    0.000 
#    0.000    0.000    0.000    0.000    0.000    0.000 
#
# Total GULP energy -145126.387780 kJ/mol
# GULP energy per Si atom -5581.784145 kJ/mol
# Density = 1.887679 g / cm^3
# Si number density = 18.919854 Si / 1000 Ang^3
#
#
#
# Elastic Constant Matrix: (Units=GPa)
#
#
# Indices 1 2 3 4 5 6 
#
# 1 82.6349 29.6336 3.2180 0.0000 2.6429 0.0000
# 2 29.6336 99.9256 32.1400 0.0000 -14.0954 0.0000
# 3 3.2180 32.1400 53.1963 0.0000 -8.7219 0.0000
# 4 0.0000 0.0000 0.0000 22.6786 0.0000 2.3935
# 5 2.6429 -14.0954 -8.7219 0.0000 33.8569 0.0000
# 6 0.0000 0.0000 0.0000 2.3935 0.0000 5.0769
#
#
#
# Elastic Compliance Matrix: (Units=1/GPa)
#
#
# Indices 1 2 3 4 5 6 
#
# 1 0.013948 -0.005099 0.001786 0.000000 -0.002752 0.000000
# 2 -0.005099 0.014667 -0.007817 0.000000 0.004491 0.000000
# 3 0.001786 -0.007817 0.023865 0.000000 0.002754 0.000000
# 4 0.000000 0.000000 0.000000 0.046403 0.000000 -0.021877
# 5 -0.002752 0.004491 0.002754 0.000000 0.032330 0.000000
# 6 0.000000 0.000000 0.000000 -0.021877 0.000000 0.207284
#
#
# Mechanical properties :
#
#
# Convention : Reuss Voigt Hill
#
# Bulk Modulus (GPa) = 33.09064 40.63779 36.86421
# Shear Modulus (GPa) = 13.48324 23.70682 18.59503
#
# Velocity S-wave (km/s) = 2.67245 3.54363 3.13842
# Velocity P-wave (km/s) = 5.20101 6.18617 5.71486
#
# Compressibility (1/GPa) = 0.03022003
#
# Stress axis : x y z
#
# Youngs Moduli (GPa) = 71.69255 68.17909 41.90307
#
# Poissons Ratio (x) = 0.34765 -0.07483
# Poissons Ratio (y) = 0.36556 0.32755
# Poissons Ratio (z) = -0.12803 0.53295
#
# Static dielectric constant tensor:
#      x y z
#    x 1.671470 0.000000 -0.035820 
#    y 0.000000 1.657440 0.000000 
#    z -0.035820 0.000000 1.695920 
# 
# From -- ./inp_files/99180.got.cif
#   From: 2010.05.17/outbox.cif.g08.bks.cpg/sg12_50_cif.got.tgz:99180.got - 2010.06.03 13:09:07.
