data_PCOD9207114
_publ_section_title
;
Structure prediction by ZEFSAII (Michael W. Deem and Ramdas Pophale) SiO2 
 PCOD9207114
Probable space group: C 2/M
;
_chemical_formula_sum "Si O2"
_cell_formula_units_Z 56
_cell_length_a 19.470566
_cell_length_b 8.643845
_cell_length_c 19.360640
_cell_angle_alpha 90.000000
_cell_angle_beta 62.300913
_cell_angle_gamma 90.000000
_cell_volume 2884.996435
_symmetry_space_group_name_H-M "C 2/M"
_symmetry_group_IT_number 12
_symmetry_cell_setting 'monoclinic'
loop_
_space_group_symop_operation_xyz
x,y,z
-x,y,-z
-x,-y,-z
x,-y,z
1/2+x,1/2+y,z
1/2-x,1/2+y,-z
1/2-x,1/2-y,-z
1/2+x,1/2-y,z
loop_
_atom_site_type_symbol
_atom_site_label
_atom_site_fract_x
_atom_site_fract_y
_atom_site_fract_z
Si Si1 0.921469 0.685232 0.264300
Si Si2 0.841988 0.183074 0.171222
Si Si3 0.417355 0.817009 0.005886
Si Si4 0.263811 0.185058 0.418010
Si Si5 0.826443 0.182390 0.928445
Si Si6 0.081688 0.186853 0.246168
Si Si7 0.310651 0.686963 0.685022
O O1 0.920555 0.500000 0.254654
O O2 0.906102 0.764612 0.197593
O O3 0.847666 0.728386 0.346828
O O4 0.001077 0.737681 0.261853
O O5 0.855855 0.272385 0.093527
O O6 0.760919 0.234528 0.242180
O O7 0.845333 0.000000 0.158245
O O8 0.415699 0.000000 0.992568
O O9 0.500000 0.775863 0.000000
O O10 0.396694 0.726189 0.946606
O O11 0.250000 0.250000 0.500000
O O12 0.199727 0.231042 0.390300
O O13 0.262515 0.000000 0.423181
O O14 0.852383 0.236063 0.840288
O O15 0.815420 0.000000 0.930169
O O16 0.750000 0.250000 0.000000
O O17 0.112151 0.225731 0.308518
O O18 0.073948 0.000000 0.245002
O O19 0.300459 0.500000 0.694164
#
# Coordination Sequence:
#
# PCOD9207114 Si02
#       7
#     8   8   8   8   8   8   8
#     4  10  21  37  57  82 113 147 182 223 275 331
#     4  11  21  34  55  80 105 138 184 231 274 326
#     4  11  23  37  53  74 104 143 184 230 282 329
#     4   9  19  36  59  85 112 144 180 220 267 323
#     4  11  23  37  55  80 110 146 189 235 283 334
#     4  10  21  37  57  81 110 144 184 230 276 326
#     4   9  19  37  58  81 111 144 179 220 269 325
#
# _framework density 19.410768999999998
#
# number of rings (size 3 to 8) (size 9 to 14) (size 15 to 20)
#    0.000    1.857    0.000    5.143    0.000    9.143 
#    0.000    0.714    0.000    4.286    0.000    0.000 
#    0.000    0.000    0.000    0.000    0.000    0.000 
#
# Total GULP energy -156407.088707 kJ/mol
# GULP energy per Si atom -5585.967454 kJ/mol
# Density = 1.936659 g / cm^3
# Si number density = 19.410769 Si / 1000 Ang^3
#
#
#
# Elastic Constant Matrix: (Units=GPa)
#
#
# Indices 1 2 3 4 5 6 
#
# 1 86.7087 13.1762 17.5820 0.0000 21.5469 0.0000
# 2 13.1762 8.2723 3.6623 0.0000 1.8721 0.0000
# 3 17.5820 3.6623 94.1392 0.0000 21.0303 0.0000
# 4 0.0000 0.0000 0.0000 24.4520 0.0000 0.0637
# 5 21.5469 1.8721 21.0303 0.0000 25.0345 0.0000
# 6 0.0000 0.0000 0.0000 0.0637 0.0000 32.4939
#
#
#
# Elastic Compliance Matrix: (Units=1/GPa)
#
#
# Indices 1 2 3 4 5 6 
#
# 1 0.019396 -0.027812 0.000891 0.000000 -0.015363 0.000000
# 2 -0.027812 0.163717 -0.004662 0.000000 0.015611 0.000000
# 3 0.000891 -0.004662 0.013210 0.000000 -0.011516 0.000000
# 4 0.000000 0.000000 0.000000 0.040897 0.000000 -0.000080
# 5 -0.015363 0.015611 -0.011516 0.000000 0.061674 0.000000
# 6 0.000000 0.000000 0.000000 -0.000080 0.000000 0.030775
#
#
# Mechanical properties :
#
#
# Convention : Reuss Voigt Hill
#
# Bulk Modulus (GPa) = 7.50993 28.66237 18.08615
# Shear Modulus (GPa) = 11.43587 26.70939 19.07263
#
# Velocity S-wave (km/s) = 2.42988 3.71348 3.13801
# Velocity P-wave (km/s) = 3.42779 5.76063 4.73997
#
# Compressibility (1/GPa) = 0.13315705
#
# Stress axis : x y z
#
# Youngs Moduli (GPa) = 51.55668 6.10810 75.70014
#
# Poissons Ratio (x) = 0.16988 -0.06749
# Poissons Ratio (y) = 1.43391 0.35293
# Poissons Ratio (z) = -0.04596 0.02848
#
# Static dielectric constant tensor:
#      x y z
#    x 1.705600 0.000000 0.010090 
#    y 0.000000 1.653400 0.000000 
#    z 0.010090 0.000000 1.692550 
# 
# From -- ./inp_files/280196.got.cif
#   From: 2010.05.17/outbox.cif.g08.bks.cpg/sg12_141_cif.got.tgz:280196.got - 2010.06.03 13:09:07.
