data_PCOD9207507
_publ_section_title
;
Structure prediction by ZEFSAII (Michael W. Deem and Ramdas Pophale) SiO2 
 PCOD9207507
Probable space group: C 2/M
;
_chemical_formula_sum "Si O2"
_cell_formula_units_Z 56
_cell_length_a 14.803142
_cell_length_b 9.079056
_cell_length_c 25.008492
_cell_angle_alpha 90.000000
_cell_angle_beta 116.438743
_cell_angle_gamma 90.000000
_cell_volume 3009.570213
_symmetry_space_group_name_H-M "C 2/M"
_symmetry_group_IT_number 12
_symmetry_cell_setting 'monoclinic'
loop_
_space_group_symop_operation_xyz
x,y,z
-x,y,-z
-x,-y,-z
x,-y,z
1/2+x,1/2+y,z
1/2-x,1/2+y,-z
1/2-x,1/2-y,-z
1/2+x,1/2-y,z
loop_
_atom_site_type_symbol
_atom_site_label
_atom_site_fract_x
_atom_site_fract_y
_atom_site_fract_z
Si Si1 0.399639 0.823235 0.506404
Si Si2 0.228686 0.829421 0.938576
Si Si3 0.905928 0.167662 0.935717
Si Si4 0.629425 0.825365 0.817632
Si Si5 0.675970 0.324235 0.406673
Si Si6 0.835181 0.170434 0.805748
Si Si7 0.589938 0.175480 0.278310
O O1 0.500000 0.779907 0.500000
O O2 0.385273 0.743892 0.559481
O O3 0.295174 0.791980 0.447364
O O4 0.404761 0.000000 0.516343
O O5 0.331566 0.796077 0.933880
O O6 0.145893 0.756997 0.878067
O O7 0.207819 0.000000 0.941584
O O8 0.250000 0.750000 0.000000
O O9 0.917816 0.184659 0.875252
O O10 0.861126 0.000000 0.930105
O O11 0.000000 0.171798 0.000000
O O12 0.727647 0.801488 0.806261
O O13 0.527123 0.780974 0.761174
O O14 0.623338 0.000000 0.826696
O O15 0.664094 0.500000 0.403142
O O16 0.637497 0.254910 0.341693
O O17 0.855248 0.275301 0.761667
O O18 0.836204 0.000000 0.787911
O O19 0.595394 0.000000 0.286814
#
# Coordination Sequence:
#
# PCOD9207507 Si02
#       7
#     8   8   8   8   8   8   8
#     4   9  19  38  63  88 119 158 195 232 278 331
#     4  11  22  35  54  79 107 139 181 233 289 349
#     4   9  19  36  56  79 107 140 180 229 291 353
#     4   9  21  41  58  77 108 149 190 234 289 349
#     4  10  21  37  58  88 121 152 194 239 280 333
#     4   9  19  37  57  78 109 145 187 234 286 346
#     4  11  23  38  59  84 116 154 194 238 287 343
#
# _framework density 18.607306999999999
#
# number of rings (size 3 to 8) (size 9 to 14) (size 15 to 20)
#    0.000    2.286    0.000    3.000    2.000    5.714 
#    0.000    5.714    0.000    0.000    0.000    0.000 
#    0.000    0.000    0.000    0.000    0.000    0.000 
#
# Total GULP energy -156187.317448 kJ/mol
# GULP energy per Si atom -5578.118480 kJ/mol
# Density = 1.856496 g / cm^3
# Si number density = 18.607307 Si / 1000 Ang^3
#
#
#
# Elastic Constant Matrix: (Units=GPa)
#
#
# Indices 1 2 3 4 5 6 
#
# 1 88.6273 39.6329 56.5395 0.0000 -3.2433 0.0000
# 2 39.6329 59.5032 69.7453 0.0000 -0.3178 0.0000
# 3 56.5395 69.7453 170.6884 0.0000 0.3850 0.0000
# 4 0.0000 0.0000 0.0000 37.1899 0.0000 -5.1709
# 5 -3.2433 -0.3178 0.3850 0.0000 18.0005 0.0000
# 6 0.0000 0.0000 0.0000 -5.1709 0.0000 27.9353
#
#
#
# Elastic Compliance Matrix: (Units=1/GPa)
#
#
# Indices 1 2 3 4 5 6 
#
# 1 0.016516 -0.008762 -0.001897 0.000000 0.002862 0.000000
# 2 -0.008762 0.036915 -0.012180 0.000000 -0.000667 0.000000
# 3 -0.001897 -0.012180 0.011466 0.000000 -0.000802 0.000000
# 4 0.000000 0.000000 0.000000 0.027599 0.000000 0.005109
# 5 0.002862 -0.000667 -0.000802 0.000000 0.056075 0.000000
# 6 0.000000 0.000000 0.000000 0.005109 0.000000 0.036743
#
#
# Mechanical properties :
#
#
# Convention : Reuss Voigt Hill
#
# Bulk Modulus (GPa) = 52.03262 72.29492 62.16377
# Shear Modulus (GPa) = 21.06164 26.81854 23.94009
#
# Velocity S-wave (km/s) = 3.36802 3.80055 3.59081
# Velocity P-wave (km/s) = 6.56879 7.62865 7.11847
#
# Compressibility (1/GPa) = 0.01921871
#
# Stress axis : x y z
#
# Youngs Moduli (GPa) = 60.54559 27.08948 87.21643
#
# Poissons Ratio (x) = 0.23736 0.16547
# Poissons Ratio (y) = 0.53050 1.06229
# Poissons Ratio (z) = 0.11487 0.32995
#
# Static dielectric constant tensor:
#      x y z
#    x 1.672860 0.000000 0.009390 
#    y 0.000000 1.630390 0.000000 
#    z 0.009390 0.000000 1.636630 
# 
# From -- ./inp_files/338203.got.cif
#   From: 2010.05.17/outbox.cif.g08.bks.cpg/sg12_170_cif.got.tgz:338203.got - 2010.06.03 13:09:07.
