data_PCOD9207592
_publ_section_title
;
Structure prediction by ZEFSAII (Michael W. Deem and Ramdas Pophale) SiO2 
 PCOD9207592
Probable space group: C 2/M
;
_chemical_formula_sum "Si O2"
_cell_formula_units_Z 58
_cell_length_a 19.571088
_cell_length_b 10.162865
_cell_length_c 21.493844
_cell_angle_alpha 90.000000
_cell_angle_beta 47.577101
_cell_angle_gamma 90.000000
_cell_volume 3155.810366
_symmetry_space_group_name_H-M "C 2/M"
_symmetry_group_IT_number 12
_symmetry_cell_setting 'monoclinic'
loop_
_space_group_symop_operation_xyz
x,y,z
-x,y,-z
-x,-y,-z
x,-y,z
1/2+x,1/2+y,z
1/2-x,1/2+y,-z
1/2-x,1/2-y,-z
1/2+x,1/2-y,z
loop_
_atom_site_type_symbol
_atom_site_label
_atom_site_fract_x
_atom_site_fract_y
_atom_site_fract_z
Si Si1 0.567642 0.154848 0.131635
Si Si2 0.069838 0.846487 0.013729
Si Si3 0.000000 0.500000 0.500000
Si Si4 0.036869 0.746773 0.566999
Si Si5 0.907007 0.342542 0.331333
Si Si6 0.658982 0.348662 0.288816
Si Si7 0.718777 0.657851 0.384429
Si Si8 0.786867 0.347578 0.853446
O O1 0.485707 0.179759 0.231422
O O2 0.662317 0.178301 0.112065
O O3 0.564651 0.000000 0.115791
O O4 0.557089 0.248893 0.079289
O O5 0.176593 0.834887 0.926728
O O6 0.054696 0.000000 0.040901
O O7 0.000000 0.816487 0.000000
O O8 0.993333 0.615088 0.450052
O O9 0.066571 0.719436 0.619442
O O10 0.125190 0.801071 0.476004
O O11 0.947865 0.840507 0.624458
O O12 0.900546 0.500000 0.344368
O O13 0.808816 0.293039 0.365564
O O14 0.682997 0.500000 0.259249
O O15 0.716325 0.300348 0.313838
O O16 0.675497 0.252119 0.221228
O O17 0.722793 0.500000 0.380621
O O18 0.809734 0.500000 0.822962
#
# Coordination Sequence:
#
# PCOD9207592 Si02
#       8
#     8   8   2   8   8   8   8   8
#     4  10  21  39  64  90 117 157 203 244 294 356
#     4  10  23  42  63  91 126 157 190 245 309 363
#     4  12  24  32  66  88 108 164 208 260 296 360
#     4  12  21  39  59  85 120 156 207 249 300 349
#     4  10  21  37  59  85 121 157 197 246 297 351
#     4  11  23  37  60  88 120 154 202 249 299 350
#     4  10  22  38  56  82 118 160 197 248 299 350
#     4  10  22  40  64  88 119 159 197 245 298 360
#
# _framework density 18.378796999999999
#
# number of rings (size 3 to 8) (size 9 to 14) (size 15 to 20)
#    0.000    1.517    3.448    1.241    2.897    2.483 
#    0.000    0.000    1.517    0.000    0.000    0.000 
#    0.000    0.000    0.000    0.000    0.000    0.000 
#
# Total GULP energy -161648.800018 kJ/mol
# GULP energy per Si atom -5574.096552 kJ/mol
# Density = 1.833697 g / cm^3
# Si number density = 18.378797 Si / 1000 Ang^3
#
#
#
# Elastic Constant Matrix: (Units=GPa)
#
#
# Indices 1 2 3 4 5 6 
#
# 1 121.8925 51.5401 47.7127 0.0000 28.6895 0.0000
# 2 51.5401 64.9754 45.3251 0.0000 29.2277 0.0000
# 3 47.7127 45.3251 67.2455 0.0000 25.2686 0.0000
# 4 0.0000 0.0000 0.0000 22.0014 0.0000 13.3412
# 5 28.6895 29.2277 25.2686 0.0000 25.0463 0.0000
# 6 0.0000 0.0000 0.0000 13.3412 0.0000 24.4335
#
#
#
# Elastic Compliance Matrix: (Units=1/GPa)
#
#
# Indices 1 2 3 4 5 6 
#
# 1 0.013197 -0.005808 -0.003729 0.000000 -0.004576 0.000000
# 2 -0.005808 0.042781 -0.013617 0.000000 -0.029532 0.000000
# 3 -0.003729 -0.013617 0.030792 0.000000 -0.010904 0.000000
# 4 0.000000 0.000000 0.000000 0.067949 0.000000 -0.037102
# 5 -0.004576 -0.029532 -0.010904 0.000000 0.090631 0.000000
# 6 0.000000 0.000000 0.000000 -0.037102 0.000000 0.061186
#
#
# Mechanical properties :
#
#
# Convention : Reuss Voigt Hill
#
# Bulk Modulus (GPa) = 24.71489 60.36325 42.53907
# Shear Modulus (GPa) = 13.64883 21.59861 17.62372
#
# Velocity S-wave (km/s) = 2.72810 3.43183 3.10000
# Velocity P-wave (km/s) = 4.83736 6.97270 6.00077
#
# Compressibility (1/GPa) = 0.04046144
#
# Stress axis : x y z
#
# Youngs Moduli (GPa) = 75.77748 23.37486 32.47575
#
# Poissons Ratio (x) = 0.13576 0.12110
# Poissons Ratio (y) = 0.44012 0.44223
# Poissons Ratio (z) = 0.28257 0.31830
#
# Static dielectric constant tensor:
#      x y z
#    x 1.651700 0.000000 -0.012130 
#    y 0.000000 1.612250 0.000000 
#    z -0.012130 0.000000 1.605520 
# 
# From -- ./inp_files/281506.got.cif
#   From: 2010.05.17/outbox.cif.g08.bks.cpg/sg12_141_cif.got.tgz:281506.got - 2010.06.03 13:09:07.
