data_PCOD9207395
_publ_section_title
;
Structure prediction by ZEFSAII (Michael W. Deem and Ramdas Pophale) SiO2 
 PCOD9207395
Probable space group: C 2/M
;
_chemical_formula_sum "Si O2"
_cell_formula_units_Z 48
_cell_length_a 19.033952
_cell_length_b 31.632049
_cell_length_c 5.145621
_cell_angle_alpha 90.000000
_cell_angle_beta 55.992273
_cell_angle_gamma 90.000000
_cell_volume 2568.199705
_symmetry_space_group_name_H-M "C 2/M"
_symmetry_group_IT_number 12
_symmetry_cell_setting 'monoclinic'
loop_
_space_group_symop_operation_xyz
x,y,z
-x,y,-z
-x,-y,-z
x,-y,z
1/2+x,1/2+y,z
1/2-x,1/2+y,-z
1/2-x,1/2-y,-z
1/2+x,1/2-y,z
loop_
_atom_site_type_symbol
_atom_site_label
_atom_site_fract_x
_atom_site_fract_y
_atom_site_fract_z
Si Si1 0.760054 0.500000 0.026425
Si Si2 0.000000 0.930113 0.000000
Si Si3 0.177550 0.407462 0.173045
Si Si4 0.000000 0.129008 0.500000
Si Si5 0.599561 0.864346 0.836259
Si Si6 0.242219 0.700470 0.469727
Si Si7 0.356640 0.500000 0.232922
Si Si8 0.683191 0.340682 0.184725
O O1 0.715642 0.500000 0.398930
O O2 0.813685 0.457348 0.878780
O O3 0.686870 0.500000 0.958087
O O4 0.006027 0.900806 0.737344
O O5 0.082360 0.959745 0.856182
O O6 0.140798 0.393723 0.526995
O O7 0.120720 0.385757 0.068028
O O8 0.270361 0.386021 0.944919
O O9 0.914682 0.156029 0.681549
O O10 0.649649 0.819883 0.711067
O O11 0.500000 0.859808 0.000000
O O12 0.250000 0.750000 0.500000
O O13 0.300772 0.675974 0.558277
O O14 0.270015 0.689022 0.120766
#
# Coordination Sequence:
#
# PCOD9207395 Si02
#       8
#     4   4   8   4   8   8   4   8
#     4  12  22  37  57  84 112 156 206 252 290 345
#     4  11  22  34  52  78 116 158 194 252 280 334
#     4  10  21  37  59  82 117 152 198 241 296 342
#     4  12  22  37  56  84 120 158 196 226 294 349
#     4  10  21  40  61  86 112 153 190 238 297 365
#     4  10  21  40  63  85 117 146 191 238 296 347
#     4  11  22  34  52  80 113 152 210 244 289 334
#     4  10  21  37  58  84 117 158 185 237 290 354
#
# _framework density 18.690135000000001
#
# number of rings (size 3 to 8) (size 9 to 14) (size 15 to 20)
#    0.000    1.500    0.000    6.000    0.000    4.000 
#    3.000    2.500    0.000    0.000    0.000    0.000 
#    0.000    0.000    0.000    0.000    0.000    0.000 
#
# Total GULP energy -134156.940934 kJ/mol
# GULP energy per Si atom -5589.872539 kJ/mol
# Density = 1.864760 g / cm^3
# Si number density = 18.690135 Si / 1000 Ang^3
#
#
#
# Elastic Constant Matrix: (Units=GPa)
#
#
# Indices 1 2 3 4 5 6 
#
# 1 66.6403 -11.2349 -2.4719 0.0000 -16.5062 0.0000
# 2 -11.2349 96.0205 3.1186 0.0000 -15.2907 0.0000
# 3 -2.4719 3.1186 26.3459 0.0000 1.5011 0.0000
# 4 0.0000 0.0000 0.0000 10.4293 0.0000 6.5281
# 5 -16.5062 -15.2907 1.5011 0.0000 49.8637 0.0000
# 6 0.0000 0.0000 0.0000 6.5281 0.0000 12.5122
#
#
#
# Elastic Compliance Matrix: (Units=1/GPa)
#
#
# Indices 1 2 3 4 5 6 
#
# 1 0.017182 0.003031 0.000878 0.000000 0.006591 0.000000
# 2 0.003031 0.011543 -0.001343 0.000000 0.004583 0.000000
# 3 0.000878 -0.001343 0.038270 0.000000 -0.001273 0.000000
# 4 0.000000 0.000000 0.000000 0.142381 0.000000 -0.074286
# 5 0.006591 0.004583 -0.001273 0.000000 0.023680 0.000000
# 6 0.000000 0.000000 0.000000 -0.074286 0.000000 0.118680
#
#
# Mechanical properties :
#
#
# Convention : Reuss Voigt Hill
#
# Bulk Modulus (GPa) = 13.86434 18.64782 16.25608
# Shear Modulus (GPa) = 13.48992 27.86738 20.67865
#
# Velocity S-wave (km/s) = 2.68949 3.86556 3.32986
# Velocity P-wave (km/s) = 4.13262 5.47014 4.84773
#
# Compressibility (1/GPa) = 0.07212747
#
# Stress axis : x y z
#
# Youngs Moduli (GPa) = 58.20022 86.63526 26.12981
#
# Poissons Ratio (x) = -0.26263 -0.02294
# Poissons Ratio (y) = -0.17643 0.03509
# Poissons Ratio (z) = -0.05109 0.11636
#
# Static dielectric constant tensor:
#      x y z
#    x 1.628840 0.000000 -0.002220 
#    y 0.000000 1.621010 0.000000 
#    z -0.002220 0.000000 1.626300 
# 
# From -- ./inp_files/22843.got.cif
#   From: 2010.05.17/outbox.cif.g08.bks.cpg/sg12_12_cif.got.tgz:22843.got - 2010.06.03 13:09:07.
