data_PCOD9207572
_publ_section_title
;
Structure prediction by ZEFSAII (Michael W. Deem and Ramdas Pophale) SiO2 
 PCOD9207572
Probable space group: C 2/M
;
_chemical_formula_sum "Si O2"
_cell_formula_units_Z 52
_cell_length_a 15.961271
_cell_length_b 15.523973
_cell_length_c 9.965354
_cell_angle_alpha 90.000000
_cell_angle_beta 114.400860
_cell_angle_gamma 90.000000
_cell_volume 2248.680058
_symmetry_space_group_name_H-M "C 2/M"
_symmetry_group_IT_number 12
_symmetry_cell_setting 'monoclinic'
loop_
_space_group_symop_operation_xyz
x,y,z
-x,y,-z
-x,-y,-z
x,-y,z
1/2+x,1/2+y,z
1/2-x,1/2+y,-z
1/2-x,1/2-y,-z
1/2+x,1/2-y,z
loop_
_atom_site_type_symbol
_atom_site_label
_atom_site_fract_x
_atom_site_fract_y
_atom_site_fract_z
Si Si1 0.200813 0.404699 0.122813
Si Si2 0.848934 0.780997 0.886940
Si Si3 0.929772 0.788660 0.640819
Si Si4 0.000000 0.642511 0.500000
Si Si5 0.589549 0.598705 0.843265
Si Si6 0.802848 0.406466 0.297387
Si Si7 0.776058 0.906058 0.454864
O O1 0.164871 0.500000 0.058565
O O2 0.154117 0.314761 0.052214
O O3 0.307761 0.400409 0.150180
O O4 0.204317 0.400840 0.287124
O O5 0.891929 0.778559 0.766847
O O6 0.747990 0.826320 0.806526
O O7 0.904203 0.845707 0.017638
O O8 0.848247 0.829637 0.499122
O O9 0.960361 0.701853 0.591916
O O10 0.014911 0.854434 0.701790
O O11 0.087548 0.596101 0.622729
O O12 0.562915 0.500000 0.849914
O O13 0.771908 0.500000 0.219974
O O14 0.769453 0.403741 0.429530
O O15 0.822712 0.000000 0.472004
#
# Coordination Sequence:
#
# PCOD9207572 Si02
#       7
#     8   8   8   4   8   8   8
#     4  10  21  37  59  85 112 146 188 234 282 336
#     4  11  22  39  60  82 114 153 191 229 278 339
#     4  11  22  35  57  85 116 151 186 231 283 332
#     4  12  23  36  55  84 118 150 189 234 279 332
#     4  11  23  38  59  86 114 147 189 237 285 333
#     4  10  21  37  59  85 115 152 190 231 277 329
#     4   9  18  35  58  84 113 145 184 230 283 336
#
# _framework density 23.124676000000001
#
# number of rings (size 3 to 8) (size 9 to 14) (size 15 to 20)
#    0.000    1.538    0.000    5.769    0.000    4.923 
#    0.000    3.846    0.000    2.769    0.000    0.000 
#    0.000    0.000    0.000    0.000    0.000    0.000 
#
# Total GULP energy -145407.404140 kJ/mol
# GULP energy per Si atom -5592.592467 kJ/mol
# Density = 2.307204 g / cm^3
# Si number density = 23.124676 Si / 1000 Ang^3
#
#
#
# Elastic Constant Matrix: (Units=GPa)
#
#
# Indices 1 2 3 4 5 6 
#
# 1 40.8619 22.2989 -10.4390 0.0000 3.1165 0.0000
# 2 22.2989 152.6958 11.2952 0.0000 2.7875 0.0000
# 3 -10.4390 11.2952 43.3941 0.0000 -6.8448 0.0000
# 4 0.0000 0.0000 0.0000 -128.7738 0.0000 -36.8414
# 5 3.1165 2.7875 -6.8448 0.0000 28.7134 0.0000
# 6 0.0000 0.0000 0.0000 -36.8414 0.0000 13.6738
#
#
#
# Elastic Compliance Matrix: (Units=1/GPa)
#
#
# Indices 1 2 3 4 5 6 
#
# 1 0.029279 -0.004868 0.008192 0.000000 -0.000752 0.000000
# 2 -0.004868 0.007521 -0.003284 0.000000 -0.000985 0.000000
# 3 0.008192 -0.003284 0.026787 0.000000 0.005815 0.000000
# 4 0.000000 0.000000 0.000000 -0.004385 0.000000 -0.011815
# 5 -0.000752 -0.000985 0.005815 0.000000 0.036391 0.000000
# 6 0.000000 0.000000 0.000000 -0.011815 0.000000 0.041299
#
#
# Mechanical properties :
#
#
# Convention : Reuss Voigt Hill
#
# Bulk Modulus (GPa) = 15.70660 31.47353 23.59006
# Shear Modulus (GPa) = 31.63877 -3.02421 14.30728
#
# Velocity S-wave (km/s) = 3.70291 -1.14482 2.49007
# Velocity P-wave (km/s) = 5.00888 3.44854 4.30008
#
# Compressibility (1/GPa) = 0.06366751
#
# Stress axis : x y z
#
# Youngs Moduli (GPa) = 34.15366 132.96515 37.33102
#
# Poissons Ratio (x) = 0.64728 -0.30582
# Poissons Ratio (y) = 0.16626 0.12259
# Poissons Ratio (z) = -0.27979 0.43665
#
# Static dielectric constant tensor:
#      x y z
#    x 1.856210 0.000000 -0.012910 
#    y 0.000000 1.882680 0.000000 
#    z -0.012910 0.000000 1.855470 
# 
# From -- ./inp_files/143818.got.cif
#   From: 2010.05.17/outbox.cif.g08.bks.cpg/sg12_72_cif.got.tgz:143818.got - 2010.06.03 13:09:07.
