data_PCOD9207486
_publ_section_title
;
Structure prediction by ZEFSAII (Michael W. Deem and Ramdas Pophale) SiO2 
 PCOD9207486
Probable space group: C 2/M
;
_chemical_formula_sum "Si O2"
_cell_formula_units_Z 36
_cell_length_a 13.060966
_cell_length_b 13.429723
_cell_length_c 14.449697
_cell_angle_alpha 90.000000
_cell_angle_beta 54.289163
_cell_angle_gamma 90.000000
_cell_volume 2057.987619
_symmetry_space_group_name_H-M "C 2/M"
_symmetry_group_IT_number 12
_symmetry_cell_setting 'monoclinic'
loop_
_space_group_symop_operation_xyz
x,y,z
-x,y,-z
-x,-y,-z
x,-y,z
1/2+x,1/2+y,z
1/2-x,1/2+y,-z
1/2-x,1/2-y,-z
1/2+x,1/2-y,z
loop_
_atom_site_type_symbol
_atom_site_label
_atom_site_fract_x
_atom_site_fract_y
_atom_site_fract_z
Si Si1 0.759311 0.612931 0.420385
Si Si2 0.519024 0.116429 0.169129
Si Si3 0.352898 0.181823 0.568536
Si Si4 0.500000 0.254660 0.000000
Si Si5 0.744904 0.381675 0.822264
O O1 0.714720 0.500000 0.428740
O O2 0.665813 0.700065 0.438289
O O3 0.793283 0.629351 0.510136
O O4 0.889325 0.627439 0.294884
O O5 0.517536 0.185674 0.080622
O O6 0.636061 0.140731 0.174274
O O7 0.529693 0.000000 0.136926
O O8 0.500000 0.156359 0.500000
O O9 0.282511 0.149701 0.698730
O O10 0.377354 0.322422 0.080277
O O11 0.722833 0.500000 0.836646
#
# Coordination Sequence:
#
# PCOD9207486 Si02
#       5
#     8   8   8   4   8
#     4  10  21  37  58  87 116 146 185 232 282 335
#     4  10  21  38  60  84 113 148 192 232 274 335
#     4  11  21  37  62  85 114 148 185 232 284 335
#     4  12  22  40  58  82 116 154 186 232 280 332
#     4  11  23  38  58  86 114 148 189 234 280 332
#
# _framework density 17.492816999999999
#
# number of rings (size 3 to 8) (size 9 to 14) (size 15 to 20)
#    0.000    1.333    4.444    2.000    0.000    1.333 
#    0.000    0.000    0.000    1.333    0.000    0.000 
#    0.000    0.000    0.000    0.000    0.000    0.000 
#
# Total GULP energy -100562.485109 kJ/mol
# GULP energy per Si atom -5586.804728 kJ/mol
# Density = 1.745300 g / cm^3
# Si number density = 17.492817 Si / 1000 Ang^3
#
#
#
# Elastic Constant Matrix: (Units=GPa)
#
#
# Indices 1 2 3 4 5 6 
#
# 1 37.9737 10.1447 12.3534 0.0000 18.3635 0.0000
# 2 10.1447 63.9186 25.2525 0.0000 20.9330 0.0000
# 3 12.3534 25.2525 79.5308 0.0000 20.9386 0.0000
# 4 0.0000 0.0000 0.0000 -105.3549 0.0000 126.7104
# 5 18.3635 20.9330 20.9386 0.0000 33.6549 0.0000
# 6 0.0000 0.0000 0.0000 126.7104 0.0000 -117.5554
#
#
#
# Elastic Compliance Matrix: (Units=1/GPa)
#
#
# Indices 1 2 3 4 5 6 
#
# 1 0.035845 0.001067 -0.000697 0.000000 -0.019789 0.000000
# 2 0.001067 0.020587 -0.003800 0.000000 -0.011022 0.000000
# 3 -0.000697 -0.003800 0.015745 0.000000 -0.007052 0.000000
# 4 0.000000 0.000000 0.000000 0.032027 0.000000 0.034521
# 5 -0.019789 -0.011022 -0.007052 0.000000 0.051754 0.000000
# 6 0.000000 0.000000 0.000000 0.034521 0.000000 0.028703
#
#
# Mechanical properties :
#
#
# Convention : Reuss Voigt Hill
#
# Bulk Modulus (GPa) = 15.30994 30.76935 23.03964
# Shear Modulus (GPa) = 23.44175 -28.93956 -2.74891
#
# Velocity S-wave (km/s) = 3.66468 -4.07181 -1.25493
# Velocity P-wave (km/s) = 5.16504 2.11619 3.33162
#
# Compressibility (1/GPa) = 0.06531704
#
# Stress axis : x y z
#
# Youngs Moduli (GPa) = 27.89774 48.57478 63.51088
#
# Poissons Ratio (x) = -0.05182 0.04424
# Poissons Ratio (y) = -0.02976 0.24137
# Poissons Ratio (z) = 0.01943 0.18461
#
# Static dielectric constant tensor:
#      x y z
#    x 1.560130 0.000000 0.002370 
#    y 0.000000 1.587990 0.000000 
#    z 0.002370 0.000000 1.559820 
# 
# From -- ./inp_files/127943.got.cif
#   From: 2010.05.17/outbox.cif.g08.bks.cpg/sg12_64_cif.got.tgz:127943.got - 2010.06.03 13:09:07.
