data_PCOD9207235
_publ_section_title
;
Structure prediction by ZEFSAII (Michael W. Deem and Ramdas Pophale) SiO2 
 PCOD9207235
Probable space group: C 2/M
;
_chemical_formula_sum "Si O2"
_cell_formula_units_Z 56
_cell_length_a 8.800664
_cell_length_b 28.979733
_cell_length_c 11.737136
_cell_angle_alpha 90.000000
_cell_angle_beta 67.981446
_cell_angle_gamma 90.000000
_cell_volume 2775.114906
_symmetry_space_group_name_H-M "C 2/M"
_symmetry_group_IT_number 12
_symmetry_cell_setting 'monoclinic'
loop_
_space_group_symop_operation_xyz
x,y,z
-x,y,-z
-x,-y,-z
x,-y,z
1/2+x,1/2+y,z
1/2-x,1/2+y,-z
1/2-x,1/2-y,-z
1/2+x,1/2-y,z
loop_
_atom_site_type_symbol
_atom_site_label
_atom_site_fract_x
_atom_site_fract_y
_atom_site_fract_z
Si Si1 0.748611 0.698653 0.136019
Si Si2 0.994902 0.359462 0.373559
Si Si3 0.551132 0.446157 0.260495
Si Si4 0.884631 0.301347 0.863981
Si Si5 0.311627 0.053843 0.739505
Si Si6 0.131538 0.859462 0.373559
Si Si7 0.172237 0.555879 1.000000
O O1 0.677190 0.750000 0.145619
O O2 0.640967 0.668753 0.252785
O O3 0.930414 0.700955 0.139172
O O4 0.773311 0.680120 1.000000
O O5 0.810385 0.358766 0.379230
O O6 0.000000 0.340581 0.500000
O O7 0.106248 0.331247 0.252785
O O8 0.063022 0.411459 0.353841
O O9 0.580168 0.500000 0.281026
O O10 0.367099 0.441759 0.265801
O O11 0.583137 0.411459 0.353841
O O12 0.678790 0.432548 0.124842
O O13 0.361194 0.000000 0.718975
O O14 0.303631 0.067452 0.875159
O O15 0.000000 0.840581 0.500000
O O16 0.162626 0.500000 0.999999
O O17 0.000000 0.574728 0.000000
#
# Coordination Sequence:
#
# PCOD9207235 Si02
#       7
#     8   8   8   8   8   8   8
#     4   9  20  40  65  92 119 151 193 243 299 360
#     4  11  24  40  60  87 122 161 203 249 300 362
#     4  10  21  37  57  84 119 158 204 254 301 353
#     4   9  20  40  65  92 119 151 193 243 299 360
#     4  10  21  37  57  84 119 158 204 254 301 353
#     4  11  24  40  60  87 122 161 203 249 300 362
#     4   9  17  31  53  81 112 149 194 243 297 351
#
# _framework density 20.179345999999999
#
# number of rings (size 3 to 8) (size 9 to 14) (size 15 to 20)
#    0.000    2.143    0.000    2.143    2.000    6.857 
#    0.000    2.857    0.000    0.000    0.000    0.000 
#    0.000    0.000    0.000    0.000    0.000    0.000 
#
# Total GULP energy -156419.075262 kJ/mol
# GULP energy per Si atom -5586.395545 kJ/mol
# Density = 2.013342 g / cm^3
# Si number density = 20.179346 Si / 1000 Ang^3
#
#
#
# Elastic Constant Matrix: (Units=GPa)
#
#
# Indices 1 2 3 4 5 6 
#
# 1 45.3396 26.0149 41.5934 0.0000 4.7819 0.0000
# 2 26.0149 72.8446 68.2055 0.0000 2.9552 0.0000
# 3 41.5934 68.2055 173.6909 0.0000 4.2083 0.0000
# 4 0.0000 0.0000 0.0000 12.0076 0.0000 -1.0402
# 5 4.7819 2.9552 4.2083 0.0000 35.9683 0.0000
# 6 0.0000 0.0000 0.0000 -1.0402 0.0000 26.8615
#
#
#
# Elastic Compliance Matrix: (Units=1/GPa)
#
#
# Indices 1 2 3 4 5 6 
#
# 1 0.030301 -0.006285 -0.004716 0.000000 -0.002960 0.000000
# 2 -0.006285 0.023036 -0.007537 0.000000 -0.000175 0.000000
# 3 -0.004716 -0.007537 0.009844 0.000000 0.000094 0.000000
# 4 0.000000 0.000000 0.000000 0.083561 0.000000 0.003236
# 5 -0.002960 -0.000175 0.000094 0.000000 0.028199 0.000000
# 6 0.000000 0.000000 0.000000 0.003236 0.000000 0.037353
#
#
# Mechanical properties :
#
#
# Convention : Reuss Voigt Hill
#
# Bulk Modulus (GPa) = 38.30711 62.61141 50.45926
# Shear Modulus (GPa) = 19.37441 25.37158 22.37299
#
# Velocity S-wave (km/s) = 3.10193 3.54970 3.33334
# Velocity P-wave (km/s) = 5.64392 6.92064 6.31463
#
# Compressibility (1/GPa) = 0.02610482
#
# Stress axis : x y z
#
# Youngs Moduli (GPa) = 33.00231 43.40990 101.58552
#
# Poissons Ratio (x) = 0.27285 0.47910
# Poissons Ratio (y) = 0.20743 0.76560
# Poissons Ratio (z) = 0.15565 0.32716
#
# Static dielectric constant tensor:
#      x y z
#    x 1.673860 0.000000 0.004490 
#    y 0.000000 1.718590 0.000000 
#    z 0.004490 0.000000 1.737940 
# 
# From -- ./inp_files/125599.got.cif
#   From: 2010.05.17/outbox.cif.g08.bks.cpg/sg12_63_cif.got.tgz:125599.got - 2010.06.03 13:09:07.
