data_PCOD9207834
_publ_section_title
;
Structure prediction by ZEFSAII (Michael W. Deem and Ramdas Pophale) SiO2 
 PCOD9207834
Probable space group: C 2/M
;
_chemical_formula_sum "Si O2"
_cell_formula_units_Z 42
_cell_length_a 16.135316
_cell_length_b 8.905368
_cell_length_c 26.175457
_cell_angle_alpha 90.000000
_cell_angle_beta 39.166615
_cell_angle_gamma 90.000000
_cell_volume 2375.474502
_symmetry_space_group_name_H-M "C 2/M"
_symmetry_group_IT_number 12
_symmetry_cell_setting 'monoclinic'
loop_
_space_group_symop_operation_xyz
x,y,z
-x,y,-z
-x,-y,-z
x,-y,z
1/2+x,1/2+y,z
1/2-x,1/2+y,-z
1/2-x,1/2-y,-z
1/2+x,1/2-y,z
loop_
_atom_site_type_symbol
_atom_site_label
_atom_site_fract_x
_atom_site_fract_y
_atom_site_fract_z
Si Si1 0.213458 0.165631 0.832636
Si Si2 0.470974 0.321449 0.746447
Si Si3 0.159189 0.180445 0.743070
Si Si4 0.072351 0.822644 0.411560
Si Si5 0.613379 0.821348 0.583444
Si Si6 0.500000 0.500000 0.000000
O O1 0.324231 0.267194 0.804873
O O2 0.165376 0.220022 0.800087
O O3 0.091343 0.128491 0.927414
O O4 0.277958 0.000000 0.792810
O O5 0.478725 0.500000 0.735629
O O6 0.525499 0.284101 0.776819
O O7 0.566717 0.243146 0.659914
O O8 0.279528 0.263584 0.658376
O O9 0.177143 0.000000 0.730654
O O10 0.000000 0.800862 0.500000
O O11 0.996490 0.730347 0.404509
O O12 0.069054 0.000000 0.400832
O O13 0.750000 0.750000 0.500000
O O14 0.625372 0.000000 0.579513
#
# Coordination Sequence:
#
# PCOD9207834 Si02
#       6
#     8   8   8   8   8   2
#     4   9  19  40  65  89 117 163 202 248 316 383
#     4  11  22  37  61  93 125 162 206 258 311 367
#     4  10  21  37  60  87 123 162 204 252 309 372
#     4  11  23  37  55  85 122 163 213 265 307 359
#     4  12  24  38  56  83 122 169 216 261 310 359
#     4   8  20  40  74  88 122 158 216 248 322 388
#
# _framework density 17.680678
#
# number of rings (size 3 to 8) (size 9 to 14) (size 15 to 20)
#    0.571    0.952    1.905    4.000    0.000    6.095 
#    0.000    1.429    0.000    0.000    0.000    0.000 
#    0.000    0.000    0.000    0.000    0.000    0.000 
#
# Total GULP energy -116908.403913 kJ/mol
# GULP energy per Si atom -5567.066853 kJ/mol
# Density = 1.764044 g / cm^3
# Si number density = 17.680678 Si / 1000 Ang^3
#
#
#
# Elastic Constant Matrix: (Units=GPa)
#
#
# Indices 1 2 3 4 5 6 
#
# 1 141.3288 61.2918 56.5161 0.0000 -5.9674 0.0000
# 2 61.2918 72.1719 40.1510 0.0000 -1.9981 0.0000
# 3 56.5161 40.1510 124.3547 0.0000 2.9540 0.0000
# 4 0.0000 0.0000 0.0000 14.8467 0.0000 -5.8925
# 5 -5.9674 -1.9981 2.9540 0.0000 5.8978 0.0000
# 6 0.0000 0.0000 0.0000 -5.8925 0.0000 24.6033
#
#
#
# Elastic Compliance Matrix: (Units=1/GPa)
#
#
# Indices 1 2 3 4 5 6 
#
# 1 0.012554 -0.008558 -0.003213 0.000000 0.011412 0.000000
# 2 -0.008558 0.023161 -0.003612 0.000000 0.000997 0.000000
# 3 -0.003213 -0.003612 0.010904 0.000000 -0.009937 0.000000
# 4 0.000000 0.000000 0.000000 0.074430 0.000000 0.017826
# 5 0.011412 0.000997 -0.009937 0.000000 0.186416 0.000000
# 6 0.000000 0.000000 0.000000 0.017826 0.000000 0.044914
#
#
# Mechanical properties :
#
#
# Convention : Reuss Voigt Hill
#
# Bulk Modulus (GPa) = 63.08443 72.64148 67.86295
# Shear Modulus (GPa) = 12.87232 21.06266 16.96749
#
# Velocity S-wave (km/s) = 2.70116 3.45524 3.10120
# Velocity P-wave (km/s) = 6.74431 7.55597 7.16164
#
# Compressibility (1/GPa) = 0.01585177
#
# Stress axis : x y z
#
# Youngs Moduli (GPa) = 79.65626 43.17660 91.70633
#
# Poissons Ratio (x) = 0.36949 0.29470
# Poissons Ratio (y) = 0.68167 0.33128
# Poissons Ratio (z) = 0.25597 0.15597
#
# Static dielectric constant tensor:
#      x y z
#    x 1.633950 0.000000 0.001240 
#    y 0.000000 1.604450 0.000000 
#    z 0.001240 0.000000 1.577450 
# 
# From -- ./inp_files/267345.got.cif
#   From: 2010.05.17/outbox.cif.g08.bks.cpg/sg12_134_cif.got.tgz:267345.got - 2010.06.03 13:09:07.
