data_PCOD9207191
_publ_section_title
;
Structure prediction by ZEFSAII (Michael W. Deem and Ramdas Pophale) SiO2 
 PCOD9207191
Probable space group: C 2/M
;
_chemical_formula_sum "Si O2"
_cell_formula_units_Z 56
_cell_length_a 25.527396
_cell_length_b 7.818219
_cell_length_c 15.471626
_cell_angle_alpha 90.000000
_cell_angle_beta 48.325291
_cell_angle_gamma 90.000000
_cell_volume 2306.381925
_symmetry_space_group_name_H-M "C 2/M"
_symmetry_group_IT_number 12
_symmetry_cell_setting 'monoclinic'
loop_
_space_group_symop_operation_xyz
x,y,z
-x,y,-z
-x,-y,-z
x,-y,z
1/2+x,1/2+y,z
1/2-x,1/2+y,-z
1/2-x,1/2-y,-z
1/2+x,1/2-y,z
loop_
_atom_site_type_symbol
_atom_site_label
_atom_site_fract_x
_atom_site_fract_y
_atom_site_fract_z
Si Si1 0.426694 0.206220 0.287094
Si Si2 0.935122 0.807112 0.617981
Si Si3 0.144156 0.699688 0.452603
Si Si4 0.668743 0.197917 0.140790
Si Si5 0.193023 0.805493 0.926526
Si Si6 0.215279 0.704201 0.630403
Si Si7 0.453456 0.705030 0.970399
O O1 0.398185 0.256998 0.413910
O O2 0.364759 0.264862 0.288885
O O3 0.500714 0.262197 0.166605
O O4 0.426034 0.000000 0.288869
O O5 0.879627 0.808118 0.601952
O O6 0.904666 0.708408 0.731450
O O7 0.000000 0.721362 0.500000
O O8 0.953352 0.000000 0.624857
O O9 0.128238 0.500000 0.456491
O O10 0.228202 0.716101 0.368197
O O11 0.667127 0.302063 0.054760
O O12 0.685280 0.000000 0.102672
O O13 0.728883 0.265886 0.140942
O O14 0.126789 0.726471 0.948191
O O15 0.202692 0.000000 0.885050
O O16 0.215464 0.500000 0.641098
O O17 0.250000 0.750000 0.500000
O O18 0.447066 0.500000 0.986370
O O19 0.500000 0.770881 0.000000
#
# Coordination Sequence:
#
# PCOD9207191 Si02
#       7
#     8   8   8   8   8   8   8
#     4   9  20  36  55  83 116 151 191 239 290 346
#     4  11  25  41  58  86 123 158 196 244 301 362
#     4  10  21  37  57  83 115 153 197 243 295 357
#     4  10  21  39  64  90 118 157 203 254 303 353
#     4   9  20  40  63  88 119 156 203 251 301 362
#     4   9  17  32  53  79 111 147 191 234 278 339
#     4  10  22  38  57  84 116 151 192 240 297 358
#
# _framework density 24.280453999999999
#
# number of rings (size 3 to 8) (size 9 to 14) (size 15 to 20)
#    0.000    2.286    0.000    2.571    2.000    7.143 
#    0.000    1.429    0.000    0.000    0.000    0.000 
#    0.000    0.000    0.000    0.000    0.000    0.000 
#
# Total GULP energy -156287.929413 kJ/mol
# GULP energy per Si atom -5581.711765 kJ/mol
# Density = 2.422519 g / cm^3
# Si number density = 24.280454 Si / 1000 Ang^3
#
#
#
# Elastic Constant Matrix: (Units=GPa)
#
#
# Indices 1 2 3 4 5 6 
#
# 1 65.4247 0.1368 -8.6750 0.0003 -6.0188 0.0000
# 2 0.1368 55.7148 2.6348 0.0007 3.6254 -0.0008
# 3 -8.6750 2.6348 77.8035 0.0000 1.0226 -0.0004
# 4 0.0003 0.0007 0.0000 20.8642 0.0000 -2.7720
# 5 -6.0188 3.6254 1.0226 0.0000 27.4308 0.0000
# 6 0.0000 -0.0008 -0.0004 -2.7720 0.0000 11.4105
#
#
#
# Elastic Compliance Matrix: (Units=1/GPa)
#
#
# Indices 1 2 3 4 5 6 
#
# 1 0.015833 -0.000346 0.001732 0.000000 0.003455 0.000000
# 2 -0.000346 0.018138 -0.000621 0.000000 -0.002450 0.000001
# 3 0.001732 -0.000621 0.013067 0.000000 -0.000025 0.000000
# 4 0.000000 0.000000 0.000000 0.049528 0.000000 0.012032
# 5 0.003455 -0.002450 -0.000025 0.000000 0.037538 0.000000
# 6 0.000000 0.000001 0.000000 0.012032 0.000000 0.090561
#
#
# Mechanical properties :
#
#
# Convention : Reuss Voigt Hill
#
# Bulk Modulus (GPa) = 20.58911 20.79291 20.69101
# Shear Modulus (GPa) = 20.89214 25.59751 23.24482
#
# Velocity S-wave (km/s) = 2.93653 3.25043 3.09746
# Velocity P-wave (km/s) = 4.47165 4.76123 4.61871
#
# Compressibility (1/GPa) = 0.04856937
#
# Stress axis : x y z
#
# Youngs Moduli (GPa) = 63.15949 55.13232 76.52678
#
# Poissons Ratio (x) = 0.01905 -0.13252
# Poissons Ratio (y) = 0.02183 0.04749
# Poissons Ratio (z) = -0.10937 0.03421
#
# Static dielectric constant tensor:
#      x y z
#    x 2.013760 0.000000 -0.057900 
#    y 0.000000 1.875070 0.000000 
#    z -0.057900 0.000000 1.963750 
# 
# From -- ./inp_files/292449.got.cif
#   From: 2010.05.17/outbox.cif.g08.bks.cpg/sg12_147_cif.got.tgz:292449.got - 2010.06.03 13:09:07.
