data_PCOD9207917
_publ_section_title
;
Structure prediction by ZEFSAII (Michael W. Deem and Ramdas Pophale) SiO2 
 PCOD9207917
Probable space group: C 2/M
;
_chemical_formula_sum "Si O2"
_cell_formula_units_Z 36
_cell_length_a 5.589701
_cell_length_b 28.905368
_cell_length_c 11.456829
_cell_angle_alpha 90.000000
_cell_angle_beta 107.345285
_cell_angle_gamma 90.000000
_cell_volume 1766.928721
_symmetry_space_group_name_H-M "C 2/M"
_symmetry_group_IT_number 12
_symmetry_cell_setting 'monoclinic'
loop_
_space_group_symop_operation_xyz
x,y,z
-x,y,-z
-x,-y,-z
x,-y,z
1/2+x,1/2+y,z
1/2-x,1/2+y,-z
1/2-x,1/2-y,-z
1/2+x,1/2-y,z
loop_
_atom_site_type_symbol
_atom_site_label
_atom_site_fract_x
_atom_site_fract_y
_atom_site_fract_z
Si Si1 0.903381 0.124098 0.738585
Si Si2 0.741947 0.050984 0.114940
Si Si3 0.000000 0.904573 0.500000
Si Si4 0.405200 0.276680 0.853363
Si Si5 0.028980 0.550680 0.344997
O O1 0.867114 0.174799 0.783012
O O2 0.655439 0.093649 0.688773
O O3 0.069948 0.093791 0.853064
O O4 0.012973 0.124196 0.622142
O O5 0.650811 0.047818 0.234656
O O6 0.849903 0.000000 0.099701
O O7 0.500000 0.059019 0.000000
O O8 0.755626 0.937105 0.464438
O O9 0.637418 0.249651 0.825113
O O10 0.500000 0.284527 0.000000
O O11 0.914883 0.500000 0.351179
#
# Coordination Sequence:
#
# PCOD9207917 Si02
#       5
#     8   8   4   8   8
#     4  11  23  38  66  89 127 169 220 267 327 390
#     4   9  20  35  55  91 133 168 210 261 323 393
#     4  10  23  40  58  92 130 170 220 264 317 384
#     4  10  25  46  71 100 130 166 218 279 340 402
#     4  10  21  37  60  90 130 174 216 262 316 385
#
# _framework density 20.374337000000001
#
# number of rings (size 3 to 8) (size 9 to 14) (size 15 to 20)
#    0.000    2.000    0.000    1.667    9.333    4.444 
#    0.000    4.444    0.000    0.000    0.000    0.000 
#    0.000    0.000    0.000    0.000    0.000    0.000 
#
# Total GULP energy -100458.057014 kJ/mol
# GULP energy per Si atom -5581.003167 kJ/mol
# Density = 2.032796 g / cm^3
# Si number density = 20.374337 Si / 1000 Ang^3
#
#
#
# Elastic Constant Matrix: (Units=GPa)
#
#
# Indices 1 2 3 4 5 6 
#
# 1 99.1533 89.4832 30.3000 0.0000 9.0184 0.0000
# 2 89.4832 198.5493 70.2671 0.0000 8.5830 0.0000
# 3 30.3000 70.2671 88.5201 0.0000 15.1288 0.0000
# 4 0.0000 0.0000 0.0000 -174.8932 0.0000 -24.9436
# 5 9.0184 8.5830 15.1288 0.0000 31.2676 0.0000
# 6 0.0000 0.0000 0.0000 -24.9436 0.0000 26.6471
#
#
#
# Elastic Compliance Matrix: (Units=1/GPa)
#
#
# Indices 1 2 3 4 5 6 
#
# 1 0.017310 -0.008011 0.000994 0.000000 -0.003274 0.000000
# 2 -0.008011 0.010732 -0.006179 0.000000 0.002355 0.000000
# 3 0.000994 -0.006179 0.017029 0.000000 -0.006830 0.000000
# 4 0.000000 0.000000 0.000000 -0.005044 0.000000 -0.004722
# 5 -0.003274 0.002355 -0.006830 0.000000 0.035585 0.000000
# 6 0.000000 0.000000 0.000000 -0.004722 0.000000 0.033107
#
#
# Mechanical properties :
#
#
# Convention : Reuss Voigt Hill
#
# Bulk Modulus (GPa) = 53.54050 85.14702 69.34376
# Shear Modulus (GPa) = 35.37619 -10.31752 12.52933
#
# Velocity S-wave (km/s) = 4.17143 -2.25277 2.48252
# Velocity P-wave (km/s) = 7.03822 5.92583 6.50584
#
# Compressibility (1/GPa) = 0.01867745
#
# Stress axis : x y z
#
# Youngs Moduli (GPa) = 57.77173 93.17690 58.72299
#
# Poissons Ratio (x) = 0.74648 -0.05838
# Poissons Ratio (y) = 0.46283 0.36287
# Poissons Ratio (z) = -0.05743 0.57578
#
# Static dielectric constant tensor:
#      x y z
#    x 1.801330 0.000000 -0.040880 
#    y 0.000000 1.687410 0.000000 
#    z -0.040880 0.000000 1.738700 
# 
# From -- ./inp_files/114980.got.cif
#   From: 2010.05.17/outbox.cif.g08.bks.cpg/sg12_58_cif.got.tgz:114980.got - 2010.06.03 13:09:07.
