data_PCOD9207124
_publ_section_title
;
Structure prediction by ZEFSAII (Michael W. Deem and Ramdas Pophale) SiO2 
 PCOD9207124
Probable space group: C 2/M
;
_chemical_formula_sum "Si O2"
_cell_formula_units_Z 56
_cell_length_a 18.395825
_cell_length_b 8.417559
_cell_length_c 29.531732
_cell_angle_alpha 90.000000
_cell_angle_beta 38.956915
_cell_angle_gamma 90.000000
_cell_volume 2875.163588
_symmetry_space_group_name_H-M "C 2/M"
_symmetry_group_IT_number 12
_symmetry_cell_setting 'monoclinic'
loop_
_space_group_symop_operation_xyz
x,y,z
-x,y,-z
-x,-y,-z
x,-y,z
1/2+x,1/2+y,z
1/2-x,1/2+y,-z
1/2-x,1/2-y,-z
1/2+x,1/2-y,z
loop_
_atom_site_type_symbol
_atom_site_label
_atom_site_fract_x
_atom_site_fract_y
_atom_site_fract_z
Si Si1 0.202244 0.192027 0.571022
Si Si2 0.487299 0.309453 0.144275
Si Si3 0.868324 0.692181 0.572399
Si Si4 0.561135 0.692185 0.284509
Si Si5 0.153104 0.690480 0.143632
Si Si6 0.227802 0.190385 0.285346
Si Si7 0.083496 0.806094 0.000275
O O1 0.250000 0.250000 0.500000
O O2 0.285097 0.245182 0.571849
O O3 0.070519 0.245244 0.643041
O O4 0.202513 0.000000 0.570675
O O5 0.487125 0.500000 0.144533
O O6 0.570119 0.250678 0.144105
O O7 0.357311 0.251054 0.215006
O O8 0.535303 0.254346 0.072287
O O9 0.867363 0.500000 0.573489
O O10 0.821314 0.751323 0.643036
O O11 0.000000 0.744689 0.500000
O O12 0.561177 0.500000 0.283810
O O13 0.607462 0.751510 0.214105
O O14 0.644613 0.745351 0.284788
O O15 0.152891 0.500000 0.143362
O O16 0.284802 0.745691 0.071493
O O17 0.228753 0.000000 0.284786
O O18 0.083221 0.000000 0.000312
O O19 0.000000 0.754073 0.000000
#
# Coordination Sequence:
#
# PCOD9207124 Si02
#       7
#     8   8   8   8   8   8   8
#     4  10  21  37  57  81 111 147 186 231 283 338
#     4  11  22  38  60  83 115 155 189 233 294 347
#     4  10  21  37  58  85 116 152 194 236 284 346
#     4  10  22  39  57  82 117 153 189 234 289 341
#     4  11  22  37  60  88 116 149 194 239 279 338
#     4  11  23  38  58  85 115 149 195 245 288 339
#     4   9  19  36  58  85 115 149 191 236 283 338
#
# _framework density 19.477152
#
# number of rings (size 3 to 8) (size 9 to 14) (size 15 to 20)
#    0.000    1.714    0.000    4.286    0.000    4.857 
#    0.000    2.143    0.000    5.143    0.000    0.000 
#    0.000    0.000    0.000    0.000    0.000    0.000 
#
# Total GULP energy -156551.623286 kJ/mol
# GULP energy per Si atom -5591.129403 kJ/mol
# Density = 1.943282 g / cm^3
# Si number density = 19.477152 Si / 1000 Ang^3
#
#
#
# Elastic Constant Matrix: (Units=GPa)
#
#
# Indices 1 2 3 4 5 6 
#
# 1 248.8974 32.4516 152.5899 0.0001 -0.5716 0.0005
# 2 32.4516 16.2306 29.8203 0.0001 -1.9375 -0.0004
# 3 152.5899 29.8203 245.9742 0.0000 -1.0980 0.0000
# 4 0.0001 0.0001 0.0000 14.8477 0.0000 9.3736
# 5 -0.5716 -1.9375 -1.0980 0.0000 47.2060 0.0000
# 6 0.0005 -0.0004 0.0000 9.3736 0.0000 5.5870
#
#
#
# Elastic Compliance Matrix: (Units=1/GPa)
#
#
# Indices 1 2 3 4 5 6 
#
# 1 0.007209 -0.008020 -0.003501 -0.000015 -0.000323 0.000023
# 2 -0.008020 0.088625 -0.005754 0.000098 0.003407 -0.000156
# 3 -0.003501 -0.005754 0.006935 -0.000003 -0.000117 0.000005
# 4 -0.000015 0.000098 -0.000003 -1.137945 0.000004 1.909183
# 5 -0.000323 0.003407 -0.000117 0.000004 0.021317 -0.000007
# 6 0.000023 -0.000156 0.000005 1.909183 -0.000007 -3.024137
#
#
# Mechanical properties :
#
#
# Convention : Reuss Voigt Hill
#
# Bulk Modulus (GPa) = 14.65874 104.53620 59.59747
# Shear Modulus (GPa) = -1.25606 33.27751 16.01072
#
# Velocity S-wave (km/s) = -0.80392 4.13793 2.87021
# Velocity P-wave (km/s) = 2.58471 8.75315 6.45362
#
# Compressibility (1/GPa) = 0.06821867
#
# Stress axis : x y z
#
# Youngs Moduli (GPa) = 138.71238 11.28347 144.20377
#
# Poissons Ratio (x) = 0.09049 0.50492
# Poissons Ratio (y) = 1.11242 0.82977
# Poissons Ratio (z) = 0.48569 0.06493
#
# Static dielectric constant tensor:
#      x y z
#    x 1.656650 0.000000 -0.013190 
#    y 0.000000 1.671320 0.000000 
#    z -0.013190 0.000000 1.637060 
# 
# From -- ./inp_files/275548.got.cif
#   From: 2010.05.17/outbox.cif.g08.bks.cpg/sg12_138_cif.got.tgz:275548.got - 2010.06.03 13:09:07.
