data_PCOD9207326
_publ_section_title
;
Structure prediction by ZEFSAII (Michael W. Deem and Ramdas Pophale) SiO2 
 PCOD9207326
Probable space group: C 2/M
;
_chemical_formula_sum "Si O2"
_cell_formula_units_Z 56
_cell_length_a 27.688719
_cell_length_b 14.608948
_cell_length_c 7.208422
_cell_angle_alpha 90.000000
_cell_angle_beta 70.166831
_cell_angle_gamma 90.000000
_cell_volume 2742.874928
_symmetry_space_group_name_H-M "C 2/M"
_symmetry_group_IT_number 12
_symmetry_cell_setting 'monoclinic'
loop_
_space_group_symop_operation_xyz
x,y,z
-x,y,-z
-x,-y,-z
x,-y,z
1/2+x,1/2+y,z
1/2-x,1/2+y,-z
1/2-x,1/2-y,-z
1/2+x,1/2-y,z
loop_
_atom_site_type_symbol
_atom_site_label
_atom_site_fract_x
_atom_site_fract_y
_atom_site_fract_z
Si Si1 0.667204 0.897790 0.695997
Si Si2 0.647780 0.899121 0.149379
Si Si3 0.719157 0.395068 0.500023
Si Si4 0.268182 0.602633 0.073908
Si Si5 0.630459 0.701751 0.114935
Si Si6 0.120587 0.781892 0.680308
Si Si7 0.441637 0.605454 0.510301
O O1 0.645213 0.905606 0.929772
O O2 0.725636 0.861326 0.643534
O O3 0.632808 0.825112 0.634263
O O4 0.671224 0.000000 0.609024
O O5 0.708103 0.885880 0.114975
O O6 0.631637 0.000000 0.243456
O O7 0.621105 0.801777 0.217534
O O8 0.711777 0.500000 0.447862
O O9 0.669732 0.334497 0.529638
O O10 0.725389 0.395376 0.713569
O O11 0.281861 0.500000 0.991088
O O12 0.309718 0.672985 0.941088
O O13 0.594901 0.630890 0.269182
O O14 0.619978 0.703399 0.905430
O O15 0.072761 0.826474 0.638968
O O16 0.500000 0.615510 0.500000
O O17 0.432900 0.500000 0.464450
#
# Coordination Sequence:
#
# PCOD9207326 Si02
#       7
#     8   8   8   8   8   8   8
#     4   9  18  31  50  81 118 156 191 222 264 325
#     4   9  18  31  50  81 118 156 191 222 264 325
#     4   9  17  28  46  77 114 152 191 225 268 328
#     4   9  17  28  46  77 114 152 191 225 268 328
#     4  10  21  37  58  82 114 151 187 231 283 335
#     4  10  21  37  58  82 114 151 187 231 283 335
#     4  11  26  44  63  87 107 135 188 244 294 345
#
# _framework density 20.416535
#
# number of rings (size 3 to 8) (size 9 to 14) (size 15 to 20)
#    0.000    2.429    0.000    1.714    4.000    2.286 
#    0.000    1.429    0.000    1.714    0.000    4.000 
#    0.000    0.000    0.000    0.000    0.000    0.000 
#
# Total GULP energy -156255.582654 kJ/mol
# GULP energy per Si atom -5580.556523 kJ/mol
# Density = 2.037007 g / cm^3
# Si number density = 20.416535 Si / 1000 Ang^3
#
#
#
# Elastic Constant Matrix: (Units=GPa)
#
#
# Indices 1 2 3 4 5 6 
#
# 1 64.9538 41.2885 1.0249 0.0000 9.7660 0.0000
# 2 41.2885 85.2388 -12.6777 0.0000 1.0699 0.0000
# 3 1.0249 -12.6777 36.5461 0.0000 13.3270 0.0000
# 4 0.0000 0.0000 0.0000 -6.8617 0.0000 -4.7288
# 5 9.7660 1.0699 13.3270 0.0000 21.1106 0.0000
# 6 0.0000 0.0000 0.0000 -4.7288 0.0000 24.9288
#
#
#
# Elastic Compliance Matrix: (Units=1/GPa)
#
#
# Indices 1 2 3 4 5 6 
#
# 1 0.024486 -0.011911 -0.001179 0.000000 -0.009979 0.000000
# 2 -0.011911 0.018477 0.006594 0.000000 0.000411 0.000000
# 3 -0.001179 0.006594 0.038460 0.000000 -0.024068 0.000000
# 4 0.000000 0.000000 0.000000 -0.128887 0.000000 -0.024449
# 5 -0.009979 0.000411 -0.024068 0.000000 0.067159 0.000000
# 6 0.000000 0.000000 0.000000 -0.024449 0.000000 0.035476
#
#
# Mechanical properties :
#
#
# Convention : Reuss Voigt Hill
#
# Bulk Modulus (GPa) = 14.61365 27.33445 20.97405
# Shear Modulus (GPa) = 54.96070 18.30908 36.63489
#
# Velocity S-wave (km/s) = 5.19405 2.99787 4.24060
# Velocity P-wave (km/s) = 6.56842 5.03988 5.85425
#
# Compressibility (1/GPa) = 0.06842919
#
# Stress axis : x y z
#
# Youngs Moduli (GPa) = 40.84014 54.12235 26.00112
#
# Poissons Ratio (x) = 0.64464 0.03067
# Poissons Ratio (y) = 0.48644 -0.17144
# Poissons Ratio (z) = 0.04817 -0.35686
#
# Static dielectric constant tensor:
#      x y z
#    x 1.709920 0.000000 0.042410 
#    y 0.000000 1.804150 0.000000 
#    z 0.042410 0.000000 1.739670 
# 
# From -- ./inp_files/96283.got.cif
#   From: 2010.05.17/outbox.cif.g08.bks.cpg/sg12_49_cif.got.tgz:96283.got - 2010.06.03 13:09:07.
