data_PCOD9207406
_publ_section_title
;
Structure prediction by ZEFSAII (Michael W. Deem and Ramdas Pophale) SiO2 
 PCOD9207406
Probable space group: C 2/M
;
_chemical_formula_sum "Si O2"
_cell_formula_units_Z 56
_cell_length_a 19.870884
_cell_length_b 9.083805
_cell_length_c 19.474572
_cell_angle_alpha 90.000000
_cell_angle_beta 127.020447
_cell_angle_gamma 90.000000
_cell_volume 2806.626980
_symmetry_space_group_name_H-M "C 2/M"
_symmetry_group_IT_number 12
_symmetry_cell_setting 'monoclinic'
loop_
_space_group_symop_operation_xyz
x,y,z
-x,y,-z
-x,-y,-z
x,-y,z
1/2+x,1/2+y,z
1/2-x,1/2+y,-z
1/2-x,1/2-y,-z
1/2+x,1/2-y,z
loop_
_atom_site_type_symbol
_atom_site_label
_atom_site_fract_x
_atom_site_fract_y
_atom_site_fract_z
Si Si1 0.069580 0.170219 0.881596
Si Si2 0.165513 0.676347 0.746878
Si Si3 0.065997 0.257908 0.092671
Si Si4 0.784694 0.337186 0.720994
Si Si5 0.674090 0.175609 0.412332
Si Si6 0.504144 0.677698 0.694057
Si Si7 0.699711 0.331351 0.064469
O O1 0.033961 0.230759 0.788679
O O2 0.994209 0.174494 0.890901
O O3 0.090646 0.000000 0.881247
O O4 0.151998 0.239227 0.969702
O O5 0.156311 0.500000 0.745912
O O6 0.222497 0.720437 0.717136
O O7 0.077124 0.758999 0.690623
O O8 0.218938 0.732522 0.846921
O O9 0.131499 0.342306 0.180691
O O10 0.127406 0.168019 0.079505
O O11 0.000000 0.334676 0.000000
O O12 0.745207 0.500000 0.698282
O O13 0.809818 0.301203 0.658998
O O14 0.750000 0.250000 0.500000
O O15 0.586029 0.252348 0.376652
O O16 0.670574 0.000000 0.422317
O O17 0.499667 0.500000 0.690006
O O18 0.720262 0.500000 0.060139
#
# Coordination Sequence:
#
# PCOD9207406 Si02
#       7
#     8   8   8   8   8   8   8
#     4   9  16  27  47  78 115 157 203 246 292 345
#     4  10  21  37  58  84 120 164 206 245 292 351
#     4   9  15  27  49  80 118 155 199 240 289 347
#     4  10  21  38  60  88 122 157 195 245 300 352
#     4  11  24  44  68  94 122 151 193 248 305 362
#     4  11  22  37  60  88 121 158 199 247 301 358
#     4   8  15  27  46  75 114 158 203 248 288 336
#
# _framework density 19.952777000000001
#
# number of rings (size 3 to 8) (size 9 to 14) (size 15 to 20)
#    0.000    2.286    1.429    1.714    0.000    4.286 
#    0.000    0.714    0.000    6.000    0.000    0.000 
#    0.000    0.000    0.000    0.000    0.000    0.000 
#
# Total GULP energy -156003.977159 kJ/mol
# GULP energy per Si atom -5571.570613 kJ/mol
# Density = 1.990736 g / cm^3
# Si number density = 19.952777 Si / 1000 Ang^3
#
#
#
# Elastic Constant Matrix: (Units=GPa)
#
#
# Indices 1 2 3 4 5 6 
#
# 1 78.4920 40.1006 49.1744 0.0000 31.1582 0.0000
# 2 40.1006 74.6047 44.7524 0.0000 15.2744 0.0000
# 3 49.1744 44.7524 94.3387 0.0000 26.4225 0.0000
# 4 0.0000 0.0000 0.0000 16.6284 0.0000 2.0783
# 5 31.1582 15.2744 26.4225 0.0000 32.8573 0.0000
# 6 0.0000 0.0000 0.0000 2.0783 0.0000 20.9177
#
#
#
# Elastic Compliance Matrix: (Units=1/GPa)
#
#
# Indices 1 2 3 4 5 6 
#
# 1 0.027172 -0.007628 -0.005577 0.000000 -0.017736 0.000000
# 2 -0.007628 0.020981 -0.006803 0.000000 0.002951 0.000000
# 3 -0.005577 -0.006803 0.018544 0.000000 -0.006461 0.000000
# 4 0.000000 0.000000 0.000000 0.060894 0.000000 -0.006050
# 5 -0.017736 0.002951 -0.006461 0.000000 0.051077 0.000000
# 6 0.000000 0.000000 0.000000 -0.006050 0.000000 0.048408
#
#
# Mechanical properties :
#
#
# Convention : Reuss Voigt Hill
#
# Bulk Modulus (GPa) = 37.48235 57.27670 47.37952
# Shear Modulus (GPa) = 18.11683 21.64122 19.87902
#
# Velocity S-wave (km/s) = 3.01655 3.29693 3.15985
# Velocity P-wave (km/s) = 5.56409 6.57734 6.09182
#
# Compressibility (1/GPa) = 0.02667922
#
# Stress axis : x y z
#
# Youngs Moduli (GPa) = 36.80287 47.66208 53.92515
#
# Poissons Ratio (x) = 0.36358 0.30076
# Poissons Ratio (y) = 0.28074 0.36687
# Poissons Ratio (z) = 0.20526 0.32426
#
# Static dielectric constant tensor:
#      x y z
#    x 1.711020 0.000000 -0.005530 
#    y 0.000000 1.709500 0.000000 
#    z -0.005530 0.000000 1.730150 
# 
# From -- ./inp_files/320234.got.cif
#   From: 2010.05.17/outbox.cif.g08.bks.cpg/sg12_161_cif.got.tgz:320234.got - 2010.06.03 13:09:07.
