data_PCOD9207999
_publ_section_title
;
Structure prediction by ZEFSAII (Michael W. Deem and Ramdas Pophale) SiO2 
 PCOD9207999
Probable space group: C 2/M
;
_chemical_formula_sum "Si O2"
_cell_formula_units_Z 48
_cell_length_a 16.547576
_cell_length_b 31.071362
_cell_length_c 9.309450
_cell_angle_alpha 90.000000
_cell_angle_beta 29.771590
_cell_angle_gamma 90.000000
_cell_volume 2376.709517
_symmetry_space_group_name_H-M "C 2/M"
_symmetry_group_IT_number 12
_symmetry_cell_setting 'monoclinic'
loop_
_space_group_symop_operation_xyz
x,y,z
-x,y,-z
-x,-y,-z
x,-y,z
1/2+x,1/2+y,z
1/2-x,1/2+y,-z
1/2-x,1/2-y,-z
1/2+x,1/2-y,z
loop_
_atom_site_type_symbol
_atom_site_label
_atom_site_fract_x
_atom_site_fract_y
_atom_site_fract_z
Si Si1 0.676323 0.641507 0.802672
Si Si2 0.815587 0.953481 0.229670
Si Si3 0.238070 0.721668 0.875986
Si Si4 0.129642 0.272770 0.575707
Si Si5 0.829425 0.546494 0.847723
Si Si6 0.167029 0.871008 0.162243
O O1 0.745563 0.594893 0.642148
O O2 0.795427 0.680893 0.582573
O O3 0.500000 0.648412 0.000000
O O4 0.652852 0.637991 0.012033
O O5 0.803287 0.954822 0.075767
O O6 0.741177 0.000000 0.392080
O O7 0.000000 0.953559 0.000000
O O8 0.056897 0.724718 0.090145
O O9 0.250000 0.750000 0.000000
O O10 0.365041 0.741676 0.570135
O O11 0.271517 0.672681 0.862195
O O12 0.250000 0.250000 0.500000
O O13 0.827401 0.500000 0.925963
O O14 0.000000 0.550265 0.500000
O O15 0.790441 0.589283 0.993309
O O16 0.000000 0.882512 0.500000
#
# Coordination Sequence:
#
# PCOD9207999 Si02
#       6
#     8   8   8   8   8   8
#     4  10  21  37  61  87 122 157 200 250 297 353
#     4   8  15  30  54  84 113 148 193 237 282 340
#     4  12  25  41  63  87 118 155 201 248 302 361
#     4  12  26  43  62  86 116 158 202 253 303 361
#     4   9  19  35  60  91 123 158 200 248 298 353
#     4  11  24  38  61  91 125 162 202 248 302 362
#
# _framework density 20.195989999999998
#
# number of rings (size 3 to 8) (size 9 to 14) (size 15 to 20)
#    0.000    1.667    1.667    3.000    7.000    0.333 
#    0.000    0.000    0.000    0.000    0.000    0.000 
#    0.000   29.667    0.000    0.000    0.000    0.000 
#
# Total GULP energy -133816.182532 kJ/mol
# GULP energy per Si atom -5575.674272 kJ/mol
# Density = 2.015002 g / cm^3
# Si number density = 20.195990 Si / 1000 Ang^3
#
#
#
# Elastic Constant Matrix: (Units=GPa)
#
#
# Indices 1 2 3 4 5 6 
#
# 1 49.4714 8.1137 -0.7986 0.0000 -3.9578 0.0000
# 2 8.1137 206.9924 37.4361 0.0000 -6.3126 0.0000
# 3 -0.7986 37.4361 59.0861 0.0000 -6.8624 0.0000
# 4 0.0000 0.0000 0.0000 20.3658 0.0000 -10.0182
# 5 -3.9578 -6.3126 -6.8624 0.0000 21.7229 0.0000
# 6 0.0000 0.0000 0.0000 -10.0182 0.0000 32.8564
#
#
#
# Elastic Compliance Matrix: (Units=1/GPa)
#
#
# Indices 1 2 3 4 5 6 
#
# 1 0.020701 -0.000932 0.001325 0.000000 0.003920 0.000000
# 2 -0.000932 0.005504 -0.003461 0.000000 0.000336 0.000000
# 3 0.001325 -0.003461 0.019772 0.000000 0.005482 0.000000
# 4 0.000000 0.000000 0.000000 0.057766 0.000000 0.017613
# 5 0.003920 0.000336 0.005482 0.000000 0.048578 0.000000
# 6 0.000000 0.000000 0.000000 0.017613 0.000000 0.035806
#
#
# Mechanical properties :
#
#
# Convention : Reuss Voigt Hill
#
# Bulk Modulus (GPa) = 25.09854 45.00581 35.05217
# Shear Modulus (GPa) = 24.09156 33.04227 28.56691
#
# Velocity S-wave (km/s) = 3.45757 4.04924 3.76504
# Velocity P-wave (km/s) = 5.32862 6.64791 6.02448
#
# Compressibility (1/GPa) = 0.03984296
#
# Stress axis : x y z
#
# Youngs Moduli (GPa) = 48.30581 181.69432 50.57751
#
# Poissons Ratio (x) = 0.16927 -0.06703
# Poissons Ratio (y) = 0.04500 0.17503
# Poissons Ratio (z) = -0.06402 0.62877
#
# Static dielectric constant tensor:
#      x y z
#    x 1.730420 0.000000 -0.006340 
#    y 0.000000 1.773640 0.000000 
#    z -0.006340 0.000000 1.683670 
# 
# From -- ./inp_files/80631.got.cif
#   From: 2010.05.17/outbox.cif.g08.bks.cpg/sg12_41_cif.got.tgz:80631.got - 2010.06.03 13:09:07.
