data_PCOD9207435
_publ_section_title
;
Structure prediction by ZEFSAII (Michael W. Deem and Ramdas Pophale) SiO2 
 PCOD9207435
Probable space group: C 2/M
;
_chemical_formula_sum "Si O2"
_cell_formula_units_Z 48
_cell_length_a 9.454150
_cell_length_b 13.657834
_cell_length_c 16.922557
_cell_angle_alpha 90.000000
_cell_angle_beta 65.170769
_cell_angle_gamma 90.000000
_cell_volume 1983.112085
_symmetry_space_group_name_H-M "C 2/M"
_symmetry_group_IT_number 12
_symmetry_cell_setting 'monoclinic'
loop_
_space_group_symop_operation_xyz
x,y,z
-x,y,-z
-x,-y,-z
x,-y,z
1/2+x,1/2+y,z
1/2-x,1/2+y,-z
1/2-x,1/2-y,-z
1/2+x,1/2-y,z
loop_
_atom_site_type_symbol
_atom_site_label
_atom_site_fract_x
_atom_site_fract_y
_atom_site_fract_z
Si Si1 0.867066 0.890420 0.965741
Si Si2 0.682043 0.227381 0.601458
Si Si3 0.924440 0.610172 0.730546
Si Si4 0.077704 0.114460 0.337525
Si Si5 0.217735 0.262319 0.122602
Si Si6 0.372030 0.894691 0.157693
O O1 0.901189 0.816953 0.886295
O O2 0.837205 0.000000 0.944779
O O3 0.732316 0.843987 0.051718
O O4 0.000000 0.895305 0.000000
O O5 0.750000 0.250000 0.500000
O O6 0.543515 0.146217 0.636353
O O7 0.822272 0.180039 0.621740
O O8 0.580895 0.325870 0.647310
O O9 0.869571 0.500000 0.731289
O O10 0.025449 0.616882 0.787836
O O11 0.796511 0.687360 0.788125
O O12 0.197102 0.105569 0.236391
O O13 0.049789 0.000000 0.370187
O O14 0.366383 0.191148 0.096494
O O15 0.412039 0.000000 0.114856
#
# Coordination Sequence:
#
# PCOD9207435 Si02
#       6
#     8   8   8   8   8   8
#     4  10  22  36  52  81 117 150 187 239 302 368
#     4  11  22  39  65  94 128 170 213 264 325 388
#     4  10  21  37  58  85 116 152 199 254 313 367
#     4  10  22  42  66  93 129 172 218 269 330 388
#     4  11  19  35  60  80 109 153 197 241 300 371
#     4   9  18  34  57  83 111 148 198 253 303 363
#
# _framework density 24.204383
#
# number of rings (size 3 to 8) (size 9 to 14) (size 15 to 20)
#    0.000    1.833    1.667    4.000    0.000    2.000 
#    0.000    1.667    0.000   13.000    0.000    0.000 
#    0.000    0.000    0.000    0.000    0.000    0.000 
#
# Total GULP energy -133712.099472 kJ/mol
# GULP energy per Si atom -5571.337478 kJ/mol
# Density = 2.414929 g / cm^3
# Si number density = 24.204383 Si / 1000 Ang^3
#
#
#
# Elastic Constant Matrix: (Units=GPa)
#
#
# Indices 1 2 3 4 5 6 
#
# 1 65.8689 36.8313 2.1067 0.0000 7.8836 0.0000
# 2 36.8313 194.7073 26.3288 0.0000 -1.9386 0.0000
# 3 2.1067 26.3288 98.2207 0.0000 -3.0382 0.0000
# 4 0.0000 0.0000 0.0000 20.7685 0.0000 -5.5749
# 5 7.8836 -1.9386 -3.0382 0.0000 29.7825 0.0000
# 6 0.0000 0.0000 0.0000 -5.5749 0.0000 22.0199
#
#
#
# Elastic Compliance Matrix: (Units=1/GPa)
#
#
# Indices 1 2 3 4 5 6 
#
# 1 0.017678 -0.003446 0.000394 0.000000 -0.004864 0.000000
# 2 -0.003446 0.006002 -0.001499 0.000000 0.001150 0.000000
# 3 0.000394 -0.001499 0.010602 0.000000 0.000880 0.000000
# 4 0.000000 0.000000 0.000000 0.051661 0.000000 0.013079
# 5 -0.004864 0.001150 0.000880 0.000000 0.035029 0.000000
# 6 0.000000 0.000000 0.000000 0.013079 0.000000 0.048725
#
#
# Mechanical properties :
#
#
# Convention : Reuss Voigt Hill
#
# Bulk Modulus (GPa) = 39.71480 54.37005 47.04242
# Shear Modulus (GPa) = 26.71069 34.08287 30.39678
#
# Velocity S-wave (km/s) = 3.32557 3.75657 3.54762
# Velocity P-wave (km/s) = 5.58477 6.42864 6.02151
#
# Compressibility (1/GPa) = 0.02517953
#
# Stress axis : x y z
#
# Youngs Moduli (GPa) = 56.56788 166.61369 94.32335
#
# Poissons Ratio (x) = 0.57410 -0.03717
# Poissons Ratio (y) = 0.19492 0.14143
# Poissons Ratio (z) = -0.02229 0.24982
#
# Static dielectric constant tensor:
#      x y z
#    x 2.115700 0.000000 -0.067660 
#    y 0.000000 2.024770 0.000000 
#    z -0.067660 0.000000 1.962340 
# 
# From -- ./inp_files/261718.got.cif
#   From: 2010.05.17/outbox.cif.g08.bks.cpg/sg12_131_cif.got.tgz:261718.got - 2010.06.03 13:09:07.
