data_PCOD9207805
_publ_section_title
;
Structure prediction by ZEFSAII (Michael W. Deem and Ramdas Pophale) SiO2 
 PCOD9207805
Probable space group: C 2/M
;
_chemical_formula_sum "Si O2"
_cell_formula_units_Z 40
_cell_length_a 13.431830
_cell_length_b 10.719966
_cell_length_c 12.527133
_cell_angle_alpha 90.000000
_cell_angle_beta 105.757987
_cell_angle_gamma 90.000000
_cell_volume 1735.976108
_symmetry_space_group_name_H-M "C 2/M"
_symmetry_group_IT_number 12
_symmetry_cell_setting 'monoclinic'
loop_
_space_group_symop_operation_xyz
x,y,z
-x,y,-z
-x,-y,-z
x,-y,z
1/2+x,1/2+y,z
1/2-x,1/2+y,-z
1/2-x,1/2-y,-z
1/2+x,1/2-y,z
loop_
_atom_site_type_symbol
_atom_site_label
_atom_site_fract_x
_atom_site_fract_y
_atom_site_fract_z
Si Si1 0.048318 0.268207 0.772693
Si Si2 0.196109 0.281542 0.642336
Si Si3 0.845036 0.639360 0.828691
Si Si4 0.619995 0.360304 0.000282
Si Si5 0.609173 0.363480 0.424023
O O1 0.125013 0.338134 0.714255
O O2 0.958741 0.345313 0.807006
O O3 0.985430 0.173174 0.678827
O O4 0.112989 0.191137 0.878492
O O5 0.257947 0.165642 0.714301
O O6 0.289001 0.361252 0.620995
O O7 0.128422 0.235354 0.523073
O O8 0.836549 0.500000 0.870767
O O9 0.836621 0.751672 0.911281
O O10 0.665499 0.500000 0.023102
O O11 0.500000 0.370689 0.000000
O O12 0.597666 0.500000 0.466950
#
# Coordination Sequence:
#
# PCOD9207805 Si02
#       5
#     8   8   8   8   8
#     4  10  21  37  60  86 114 151 196 240 289 347
#     4  10  22  38  57  86 118 150 191 241 295 347
#     4  10  22  39  59  87 122 155 192 242 295 346
#     4   9  19  36  58  85 118 154 194 241 290 343
#     4  10  21  38  59  83 114 151 193 240 289 345
#
# _framework density 23.041789999999999
#
# number of rings (size 3 to 8) (size 9 to 14) (size 15 to 20)
#    0.000    2.200    0.000    1.800    0.000   14.000 
#    0.000    0.000    0.000    7.200    0.000    0.000 
#    0.000    0.000    0.000    0.000    0.000    0.000 
#
# Total GULP energy -111750.690116 kJ/mol
# GULP energy per Si atom -5587.534506 kJ/mol
# Density = 2.298935 g / cm^3
# Si number density = 23.041790 Si / 1000 Ang^3
#
#
#
# Elastic Constant Matrix: (Units=GPa)
#
#
# Indices 1 2 3 4 5 6 
#
# 1 121.1097 14.9015 40.4243 0.0000 -22.2121 0.0000
# 2 14.9015 106.8473 35.8318 0.0000 3.1027 0.0000
# 3 40.4243 35.8318 112.4613 0.0000 -12.1950 0.0000
# 4 0.0000 0.0000 0.0000 5.1865 0.0000 1.2345
# 5 -22.2121 3.1027 -12.1950 0.0000 37.9167 0.0000
# 6 0.0000 0.0000 0.0000 1.2345 0.0000 -13.2159
#
#
#
# Elastic Compliance Matrix: (Units=1/GPa)
#
#
# Indices 1 2 3 4 5 6 
#
# 1 0.010248 -0.000591 -0.002942 0.000000 0.005106 0.000000
# 2 -0.000591 0.010661 -0.003436 0.000000 -0.002324 0.000000
# 3 -0.002942 -0.003436 0.011281 0.000000 0.002186 0.000000
# 4 0.000000 0.000000 0.000000 0.188615 0.000000 0.017618
# 5 0.005106 -0.002324 0.002186 0.000000 0.030258 0.000000
# 6 0.000000 0.000000 0.000000 0.017618 0.000000 -0.074021
#
#
# Mechanical properties :
#
#
# Convention : Reuss Voigt Hill
#
# Bulk Modulus (GPa) = 54.78707 58.08150 56.43428
# Shear Modulus (GPa) = 25.37231 22.59484 23.98358
#
# Velocity S-wave (km/s) = 3.32195 3.13485 3.22976
# Velocity P-wave (km/s) = 6.20827 6.19394 6.20111
#
# Compressibility (1/GPa) = 0.01825248
#
# Stress axis : x y z
#
# Youngs Moduli (GPa) = 97.58017 93.79548 88.64197
#
# Poissons Ratio (x) = 0.05543 0.26076
# Poissons Ratio (y) = 0.05767 0.30462
# Poissons Ratio (z) = 0.28705 0.32233
#
# Static dielectric constant tensor:
#      x y z
#    x 1.910920 0.000000 -0.048550 
#    y 0.000000 1.817680 0.000000 
#    z -0.048550 0.000000 1.830830 
# 
# From -- ./inp_files/141101.got.cif
#   From: 2010.05.17/outbox.cif.g08.bks.cpg/sg12_71_cif.got.tgz:141101.got - 2010.06.03 13:09:07.
