data_PCOD9207996
_publ_section_title
;
Structure prediction by ZEFSAII (Michael W. Deem and Ramdas Pophale) SiO2 
 PCOD9207996
Probable space group: C 2/M
;
_chemical_formula_sum "Si O2"
_cell_formula_units_Z 52
_cell_length_a 17.987773
_cell_length_b 21.514694
_cell_length_c 7.661152
_cell_angle_alpha 90.000000
_cell_angle_beta 53.249528
_cell_angle_gamma 90.000000
_cell_volume 2375.604221
_symmetry_space_group_name_H-M "C 2/M"
_symmetry_group_IT_number 12
_symmetry_cell_setting 'monoclinic'
loop_
_space_group_symop_operation_xyz
x,y,z
-x,y,-z
-x,-y,-z
x,-y,z
1/2+x,1/2+y,z
1/2-x,1/2+y,-z
1/2-x,1/2-y,-z
1/2+x,1/2-y,z
loop_
_atom_site_type_symbol
_atom_site_label
_atom_site_fract_x
_atom_site_fract_y
_atom_site_fract_z
Si Si1 0.517655 0.932983 0.683100
Si Si2 0.596860 0.429701 0.757516
Si Si3 0.787671 0.567957 0.696708
Si Si4 0.040473 0.187208 0.628903
Si Si5 0.500000 0.163146 0.000000
Si Si6 0.868091 0.245827 0.042956
Si Si7 0.169508 0.294247 0.294409
O O1 0.500000 0.925181 0.500000
O O2 0.628465 0.935993 0.559871
O O3 0.477016 0.000000 0.788530
O O4 0.486352 0.877914 0.848063
O O5 0.601241 0.500000 0.670553
O O6 0.686178 0.425616 0.758298
O O7 0.598292 0.369684 0.629054
O O8 0.500000 0.427890 0.000000
O O9 0.790968 0.500000 0.785041
O O10 0.820938 0.631271 0.739979
O O11 0.094085 0.252241 0.506236
O O12 0.000000 0.165795 0.500000
O O13 0.953285 0.199995 0.878994
O O14 0.409553 0.206154 0.122137
O O15 0.846148 0.272833 0.881946
O O16 0.769099 0.221063 0.238831
#
# Coordination Sequence:
#
# PCOD9207996 Si02
#       7
#     8   8   8   8   4   8   8
#     4  10  22  41  63  90 127 166 210 265 324 389
#     4  10  22  39  62  92 127 162 211 264 309 380
#     4  10  21  37  61  87 119 163 210 255 314 383
#     4  10  22  40  63  89 124 166 209 261 325 383
#     4  12  23  36  64  92 123 166 210 264 318 390
#     4  10  23  37  57  94 125 155 211 265 311 390
#     4  10  21  40  61  86 128 165 203 265 327 373
#
# _framework density 21.889168999999999
#
# number of rings (size 3 to 8) (size 9 to 14) (size 15 to 20)
#    0.000    1.846    0.000    3.000    5.385    2.154 
#    0.000    0.769    0.000    5.538    0.000    0.000 
#    0.000    0.000    0.000    0.000    0.000    0.000 
#
# Total GULP energy -144790.847544 kJ/mol
# GULP energy per Si atom -5568.878752 kJ/mol
# Density = 2.183935 g / cm^3
# Si number density = 21.889169 Si / 1000 Ang^3
#
#
#
# Elastic Constant Matrix: (Units=GPa)
#
#
# Indices 1 2 3 4 5 6 
#
# 1 90.6643 46.7857 19.8148 0.0000 -15.8702 0.0000
# 2 46.7857 119.8987 1.4581 0.0000 4.6469 0.0000
# 3 19.8148 1.4581 26.8456 0.0000 -9.7029 0.0000
# 4 0.0000 0.0000 0.0000 24.5923 0.0000 0.7950
# 5 -15.8702 4.6469 -9.7029 0.0000 42.7800 0.0000
# 6 0.0000 0.0000 0.0000 0.7950 0.0000 32.9481
#
#
#
# Elastic Compliance Matrix: (Units=1/GPa)
#
#
# Indices 1 2 3 4 5 6 
#
# 1 0.017960 -0.007064 -0.011097 0.000000 0.004913 0.000000
# 2 -0.007064 0.011172 0.003509 0.000000 -0.003038 0.000000
# 3 -0.011097 0.003509 0.047520 0.000000 0.006280 0.000000
# 4 0.000000 0.000000 0.000000 0.040695 0.000000 -0.000982
# 5 0.004913 -0.003038 0.006280 0.000000 0.026952 0.000000
# 6 0.000000 0.000000 0.000000 -0.000982 0.000000 0.030374
#
#
# Mechanical properties :
#
#
# Convention : Reuss Voigt Hill
#
# Bulk Modulus (GPa) = 21.12009 41.50287 31.31148
# Shear Modulus (GPa) = 22.75211 31.35407 27.05309
#
# Velocity S-wave (km/s) = 3.22751 3.78881 3.51937
# Velocity P-wave (km/s) = 4.85373 6.17590 5.55430
#
# Compressibility (1/GPa) = 0.04734828
#
# Stress axis : x y z
#
# Youngs Moduli (GPa) = 55.67924 89.51149 21.04377
#
# Poissons Ratio (x) = 0.63228 0.23352
# Poissons Ratio (y) = 0.39330 -0.07384
# Poissons Ratio (z) = 0.61787 -0.31408
#
# Static dielectric constant tensor:
#      x y z
#    x 1.814170 0.000000 -0.033760 
#    y 0.000000 2.006180 0.000000 
#    z -0.033760 0.000000 1.809520 
# 
# From -- ./inp_files/77927.got.cif
#   From: 2010.05.17/outbox.cif.g08.bks.cpg/sg12_39_cif.got.tgz:77927.got - 2010.06.03 13:09:07.
