data_PCOD9207312
_publ_section_title
;
Structure prediction by ZEFSAII (Michael W. Deem and Ramdas Pophale) SiO2 
 PCOD9207312
Probable space group: C 2/M
;
_chemical_formula_sum "Si O2"
_cell_formula_units_Z 56
_cell_length_a 17.030016
_cell_length_b 11.364084
_cell_length_c 22.104383
_cell_angle_alpha 90.000000
_cell_angle_beta 39.083360
_cell_angle_gamma 90.000000
_cell_volume 2696.986747
_symmetry_space_group_name_H-M "C 2/M"
_symmetry_group_IT_number 12
_symmetry_cell_setting 'monoclinic'
loop_
_space_group_symop_operation_xyz
x,y,z
-x,y,-z
-x,-y,-z
x,-y,z
1/2+x,1/2+y,z
1/2-x,1/2+y,-z
1/2-x,1/2-y,-z
1/2+x,1/2-y,z
loop_
_atom_site_type_symbol
_atom_site_label
_atom_site_fract_x
_atom_site_fract_y
_atom_site_fract_z
Si Si1 0.933527 0.867367 0.280216
Si Si2 0.712763 0.359424 0.134002
Si Si3 0.224263 0.627048 0.650352
Si Si4 0.374416 0.314159 0.447568
Si Si5 0.523224 0.135068 0.058412
Si Si6 0.234235 0.268796 0.763697
Si Si7 0.450618 0.868240 0.597746
O O1 0.853521 0.749757 0.311847
O O2 0.919576 0.879834 0.361260
O O3 0.079462 0.840014 0.183098
O O4 0.902057 0.000000 0.274477
O O5 0.724515 0.500000 0.137946
O O6 0.725018 0.298379 0.192366
O O7 0.833515 0.326959 0.021685
O O8 0.157380 0.500000 0.683582
O O9 0.331686 0.627276 0.535560
O O10 0.275743 0.637245 0.687798
O O11 0.250000 0.250000 0.500000
O O12 0.478212 0.220516 0.402197
O O13 0.415803 0.220169 0.147203
O O14 0.506018 0.000000 0.091141
O O15 0.500000 0.130338 0.000000
O O16 0.304807 0.153707 0.697063
O O17 0.500000 0.848097 0.500000
O O18 0.486049 0.000000 0.592214
#
# Coordination Sequence:
#
# PCOD9207312 Si02
#       7
#     8   8   8   8   8   8   8
#     4  10  21  37  58  81 113 153 196 239 282 345
#     4   9  17  33  58  86 110 141 190 239 286 338
#     4  11  23  36  54  83 119 153 189 239 293 340
#     4  10  21  38  55  80 107 147 190 229 277 336
#     4   8  15  29  54  83 111 142 180 233 287 339
#     4  11  19  35  57  84 111 147 188 233 285 337
#     4  11  23  39  58  83 117 152 189 234 289 346
#
# _framework density 20.763912999999999
#
# number of rings (size 3 to 8) (size 9 to 14) (size 15 to 20)
#    0.000    2.000    2.857    2.571    0.000    5.143 
#    0.000    1.429    0.000    4.714    0.000    0.000 
#    0.000    0.000    0.000    0.000    0.000    0.000 
#
# Total GULP energy -155875.733094 kJ/mol
# GULP energy per Si atom -5566.990468 kJ/mol
# Density = 2.071665 g / cm^3
# Si number density = 20.763913 Si / 1000 Ang^3
#
#
#
# Elastic Constant Matrix: (Units=GPa)
#
#
# Indices 1 2 3 4 5 6 
#
# 1 37.2869 31.2329 9.2550 0.0000 -5.2190 0.0000
# 2 31.2329 112.5701 17.6728 0.0000 -11.7111 0.0000
# 3 9.2550 17.6728 100.7636 0.0000 -11.6356 0.0000
# 4 0.0000 0.0000 0.0000 8.9727 0.0000 -6.5072
# 5 -5.2190 -11.7111 -11.6356 0.0000 33.2451 0.0000
# 6 0.0000 0.0000 0.0000 -6.5072 0.0000 14.8358
#
#
#
# Elastic Compliance Matrix: (Units=1/GPa)
#
#
# Indices 1 2 3 4 5 6 
#
# 1 0.035271 -0.009386 -0.001392 0.000000 0.001743 0.000000
# 2 -0.009386 0.011884 -0.000947 0.000000 0.002381 0.000000
# 3 -0.001392 -0.000947 0.010582 0.000000 0.003151 0.000000
# 4 0.000000 0.000000 0.000000 0.163438 0.000000 0.071686
# 5 0.001743 0.002381 0.003151 0.000000 0.032295 0.000000
# 6 0.000000 0.000000 0.000000 0.071686 0.000000 0.098847
#
#
# Mechanical properties :
#
#
# Convention : Reuss Voigt Hill
#
# Bulk Modulus (GPa) = 29.16627 40.77135 34.96881
# Shear Modulus (GPa) = 12.91333 24.24137 18.57735
#
# Velocity S-wave (km/s) = 2.49652 3.42054 2.99439
# Velocity P-wave (km/s) = 4.73152 5.93957 5.36962
#
# Compressibility (1/GPa) = 0.03428618
#
# Stress axis : x y z
#
# Youngs Moduli (GPa) = 28.35206 84.14676 94.49894
#
# Poissons Ratio (x) = 0.78981 0.13155
# Poissons Ratio (y) = 0.26611 0.08951
# Poissons Ratio (z) = 0.03947 0.07971
#
# Static dielectric constant tensor:
#      x y z
#    x 1.698190 0.000000 -0.000510 
#    y 0.000000 1.748720 0.000000 
#    z -0.000510 0.000000 1.803650 
# 
# From -- ./inp_files/343006.got.cif
#   From: 2010.05.17/outbox.cif.g08.bks.cpg/sg12_172_cif.got.tgz:343006.got - 2010.06.03 13:09:07.
