data_PCOD9207924
_publ_section_title
;
Structure prediction by ZEFSAII (Michael W. Deem and Ramdas Pophale) SiO2 
 PCOD9207924
Probable space group: C 2/M
;
_chemical_formula_sum "Si O2"
_cell_formula_units_Z 56
_cell_length_a 19.266952
_cell_length_b 8.026454
_cell_length_c 27.047207
_cell_angle_alpha 90.000000
_cell_angle_beta 41.827837
_cell_angle_gamma 90.000000
_cell_volume 2789.435660
_symmetry_space_group_name_H-M "C 2/M"
_symmetry_group_IT_number 12
_symmetry_cell_setting 'monoclinic'
loop_
_space_group_symop_operation_xyz
x,y,z
-x,y,-z
-x,-y,-z
x,-y,z
1/2+x,1/2+y,z
1/2-x,1/2+y,-z
1/2-x,1/2-y,-z
1/2+x,1/2-y,z
loop_
_atom_site_type_symbol
_atom_site_label
_atom_site_fract_x
_atom_site_fract_y
_atom_site_fract_z
Si Si1 0.088482 0.699767 0.493093
Si Si2 0.056891 0.000000 0.893827
Si Si3 0.229022 0.803616 0.674320
Si Si4 0.706959 0.311157 0.150545
Si Si5 0.189025 0.312617 0.798108
Si Si6 0.632517 0.308235 0.573915
Si Si7 0.973461 0.693447 0.271653
Si Si8 0.661778 0.500000 0.947360
O O1 0.091844 0.500000 0.500262
O O2 0.196239 0.752013 0.409874
O O3 0.073638 0.786628 0.553270
O O4 0.000000 0.733293 0.500000
O O5 0.103150 0.166774 0.844942
O O6 0.105318 0.000000 0.923542
O O7 0.932721 0.000000 0.963831
O O8 0.250459 0.712837 0.714481
O O9 0.111434 0.769803 0.720182
O O10 0.247503 0.000000 0.671553
O O11 0.735158 0.500000 0.120730
O O12 0.740053 0.292332 0.190786
O O13 0.584076 0.283595 0.211299
O O14 0.768501 0.166448 0.088940
O O15 0.145161 0.500000 0.822863
O O16 0.635937 0.500000 0.588021
O O17 0.750000 0.250000 0.500000
O O18 0.576403 0.209724 0.647283
O O19 0.988851 0.500000 0.251625
#
# Coordination Sequence:
#
# PCOD9207924 Si02
#       8
#     8   4   8   8   8   8   8   4
#     4  10  23  41  59  84 114 153 197 248 309 356
#     4   9  18  36  62  92 126 159 195 240 298 351
#     4  11  22  38  60  85 119 158 202 251 298 360
#     4  10  21  38  60  93 125 156 200 248 298 353
#     4  10  21  37  60  91 124 159 201 246 296 358
#     4  12  24  40  59  83 115 152 202 252 300 356
#     4  12  24  39  61  86 117 160 202 250 305 356
#     4   9  18  36  62  94 125 158 195 241 297 359
#
# _framework density 20.075744
#
# number of rings (size 3 to 8) (size 9 to 14) (size 15 to 20)
#    0.000    1.429    2.857    3.000    2.000    1.429 
#    0.000    2.857    0.000    0.857    0.000    0.000 
#    0.000    0.000    0.000    0.000    0.000    0.000 
#
# Total GULP energy -156460.555118 kJ/mol
# GULP energy per Si atom -5587.876968 kJ/mol
# Density = 2.003005 g / cm^3
# Si number density = 20.075744 Si / 1000 Ang^3
#
#
#
# Elastic Constant Matrix: (Units=GPa)
#
#
# Indices 1 2 3 4 5 6 
#
# 1 41.1726 8.9231 2.6044 0.0000 -13.0057 0.0001
# 2 8.9231 99.8487 13.3310 0.0000 -9.7316 0.0008
# 3 2.6044 13.3310 35.5480 -0.0001 -17.9023 0.0003
# 4 0.0000 0.0000 -0.0001 15.3998 0.0000 -1.9066
# 5 -13.0057 -9.7316 -17.9023 0.0000 27.7160 0.0000
# 6 0.0001 0.0008 0.0003 -1.9066 0.0000 24.3466
#
#
#
# Elastic Compliance Matrix: (Units=1/GPa)
#
#
# Indices 1 2 3 4 5 6 
#
# 1 0.030048 -0.001929 0.007828 0.000000 0.018479 0.000000
# 2 -0.001929 0.010721 -0.003616 0.000000 0.000524 0.000000
# 3 0.007828 -0.003616 0.044647 0.000000 0.031243 0.000000
# 4 0.000000 0.000000 0.000000 0.065571 0.000000 0.005135
# 5 0.018479 0.000524 0.031243 0.000000 0.065116 0.000000
# 6 0.000000 0.000000 0.000000 0.005135 0.000000 0.041476
#
#
# Mechanical properties :
#
#
# Convention : Reuss Voigt Hill
#
# Bulk Modulus (GPa) = 11.11309 25.14291 18.12800
# Shear Modulus (GPa) = 17.66737 23.60655 20.63696
#
# Velocity S-wave (km/s) = 2.96976 3.43282 3.20965
# Velocity P-wave (km/s) = 4.16015 5.31635 4.77339
#
# Compressibility (1/GPa) = 0.08998393
#
# Stress axis : x y z
#
# Youngs Moduli (GPa) = 33.27981 93.27190 22.39769
#
# Poissons Ratio (x) = 0.17996 -0.17534
# Poissons Ratio (y) = 0.06421 0.08098
# Poissons Ratio (z) = -0.26053 0.33723
#
# Static dielectric constant tensor:
#      x y z
#    x 1.705050 0.000000 -0.001640 
#    y 0.000000 1.714730 0.000000 
#    z -0.001640 0.000000 1.690330 
# 
# From -- ./inp_files/363060.got.cif
#   From: 2010.05.17/outbox.cif.g08.bks.cpg/sg12_182_cif.got.tgz:363060.got - 2010.06.03 13:09:07.
