data_PCOD9207926
_publ_section_title
;
Structure prediction by ZEFSAII (Michael W. Deem and Ramdas Pophale) SiO2 
 PCOD9207926
Probable space group: C 2/M
;
_chemical_formula_sum "Si O2"
_cell_formula_units_Z 42
_cell_length_a 14.507438
_cell_length_b 7.716796
_cell_length_c 20.995828
_cell_angle_alpha 90.000000
_cell_angle_beta 131.091670
_cell_angle_gamma 90.000000
_cell_volume 1771.477392
_symmetry_space_group_name_H-M "C 2/M"
_symmetry_group_IT_number 12
_symmetry_cell_setting 'monoclinic'
loop_
_space_group_symop_operation_xyz
x,y,z
-x,y,-z
-x,-y,-z
x,-y,z
1/2+x,1/2+y,z
1/2-x,1/2+y,-z
1/2-x,1/2-y,-z
1/2+x,1/2-y,z
loop_
_atom_site_type_symbol
_atom_site_label
_atom_site_fract_x
_atom_site_fract_y
_atom_site_fract_z
Si Si1 0.302113 0.293115 0.868293
Si Si2 0.133333 0.301144 0.905420
Si Si3 0.340722 0.200973 0.615308
Si Si4 0.000000 0.500000 0.000000
Si Si5 0.374560 0.306790 0.769092
Si Si6 0.567168 0.802169 0.469756
O O1 0.339032 0.500000 0.888796
O O2 0.179458 0.283466 0.854227
O O3 0.396728 0.154584 0.939619
O O4 0.288725 0.248133 0.787614
O O5 0.101566 0.500000 0.907113
O O6 0.010654 0.196549 0.860754
O O7 0.250000 0.250000 0.000000
O O8 0.381811 0.205958 0.706801
O O9 0.433173 0.269291 0.602788
O O10 0.211170 0.296255 0.551522
O O11 0.318156 0.000000 0.588670
O O12 0.338535 0.500000 0.735022
O O13 0.500000 0.718450 0.500000
O O14 0.519778 0.000000 0.444286
#
# Coordination Sequence:
#
# PCOD9207926 Si02
#       6
#     8   8   8   2   8   8
#     4  10  25  42  59  89 122 159 205 259 321 380
#     4  11  24  41  61  88 120 155 207 262 315 375
#     4  10  21  37  60  91 124 159 204 253 304 369
#     4  12  22  36  72  82 116 158 206 264 310 382
#     4  11  24  42  62  86 125 166 207 259 318 373
#     4   9  19  38  63  90 123 164 202 242 304 371
#
# _framework density 23.709023999999999
#
# number of rings (size 3 to 8) (size 9 to 14) (size 15 to 20)
#    0.000    1.714    0.000    3.143    8.000    5.714 
#    0.000    7.619    0.000    0.000    0.000    0.000 
#    0.000    0.000    0.000    0.000    0.000    0.000 
#
# Total GULP energy -116997.271241 kJ/mol
# GULP energy per Si atom -5571.298631 kJ/mol
# Density = 2.365506 g / cm^3
# Si number density = 23.709024 Si / 1000 Ang^3
#
#
#
# Elastic Constant Matrix: (Units=GPa)
#
#
# Indices 1 2 3 4 5 6 
#
# 1 108.3017 10.4347 30.8868 0.0000 -48.5886 0.0000
# 2 10.4347 79.0278 -3.9479 0.0000 -7.5703 0.0000
# 3 30.8868 -3.9479 65.5110 0.0000 -29.5607 0.0000
# 4 0.0000 0.0000 0.0000 30.4685 0.0000 0.3544
# 5 -48.5886 -7.5703 -29.5607 0.0000 39.4266 0.0000
# 6 0.0000 0.0000 0.0000 0.3544 0.0000 17.5442
#
#
#
# Elastic Compliance Matrix: (Units=1/GPa)
#
#
# Indices 1 2 3 4 5 6 
#
# 1 0.020959 0.000035 0.002688 0.000000 0.027851 0.000000
# 2 0.000035 0.013256 0.002948 0.000000 0.004798 0.000000
# 3 0.002688 0.002948 0.024068 0.000000 0.021924 0.000000
# 4 0.000000 0.000000 0.000000 0.032829 0.000000 -0.000663
# 5 0.027851 0.004798 0.021924 0.000000 0.077046 0.000000
# 6 0.000000 0.000000 0.000000 -0.000663 0.000000 0.057012
#
#
# Mechanical properties :
#
#
# Convention : Reuss Voigt Hill
#
# Bulk Modulus (GPa) = 14.36307 36.39865 25.38086
# Shear Modulus (GPa) = 21.09385 31.85230 26.47308
#
# Velocity S-wave (km/s) = 2.98601 3.66931 3.34516
# Velocity P-wave (km/s) = 4.23788 5.77385 5.06443
#
# Compressibility (1/GPa) = 0.06962300
#
# Stress axis : x y z
#
# Youngs Moduli (GPa) = 47.71281 75.43725 41.54967
#
# Poissons Ratio (x) = -0.00263 -0.11168
# Poissons Ratio (y) = -0.00166 -0.12247
# Poissons Ratio (z) = -0.12825 -0.22235
#
# Static dielectric constant tensor:
#      x y z
#    x 1.903860 0.000000 -0.095990 
#    y 0.000000 1.927240 0.000000 
#    z -0.095990 0.000000 1.969110 
# 
# From -- ./inp_files/267795.got.cif
#   From: 2010.05.17/outbox.cif.g08.bks.cpg/sg12_134_cif.got.tgz:267795.got - 2010.06.03 13:09:07.
