data_PCOD9207481
_publ_section_title
;
Structure prediction by ZEFSAII (Michael W. Deem and Ramdas Pophale) SiO2 
 PCOD9207481
Probable space group: C 2/M
;
_chemical_formula_sum "Si O2"
_cell_formula_units_Z 56
_cell_length_a 18.329944
_cell_length_b 26.566110
_cell_length_c 8.336444
_cell_angle_alpha 90.000000
_cell_angle_beta 44.639401
_cell_angle_gamma 90.000000
_cell_volume 2852.360253
_symmetry_space_group_name_H-M "C 2/M"
_symmetry_group_IT_number 12
_symmetry_cell_setting 'monoclinic'
loop_
_space_group_symop_operation_xyz
x,y,z
-x,y,-z
-x,-y,-z
x,-y,z
1/2+x,1/2+y,z
1/2-x,1/2+y,-z
1/2-x,1/2-y,-z
1/2+x,1/2-y,z
loop_
_atom_site_type_symbol
_atom_site_label
_atom_site_fract_x
_atom_site_fract_y
_atom_site_fract_z
Si Si1 0.516452 0.622362 0.665313
Si Si2 0.781208 0.114748 0.046594
Si Si3 0.087941 0.222630 0.735773
Si Si4 0.408779 0.943668 0.541654
Si Si5 0.293945 0.192042 0.604368
Si Si6 0.785048 0.060297 0.700608
Si Si7 0.105028 0.601098 0.754761
O O1 0.500000 0.632099 0.500000
O O2 0.553162 0.671966 0.700191
O O3 0.603993 0.579176 0.543758
O O4 0.401165 0.609410 0.907274
O O5 0.704861 0.077936 0.258603
O O6 0.737115 0.169226 0.172853
O O7 0.772012 0.095663 0.878529
O O8 0.188255 0.210306 0.686767
O O9 0.123160 0.263279 0.547279
O O10 0.000000 0.239601 0.000000
O O11 0.500000 0.916849 0.500000
O O12 0.434049 0.938653 0.316635
O O13 0.402748 0.000000 0.611244
O O14 0.340086 0.146881 0.424218
O O15 0.689466 0.074933 0.736036
O O16 0.786712 0.000000 0.730844
O O17 0.000000 0.620236 0.000000
#
# Coordination Sequence:
#
# PCOD9207481 Si02
#       7
#     8   8   8   8   8   8   8
#     4  10  22  40  62  91 128 165 209 261 314 374
#     4  10  21  39  61  89 123 165 208 256 317 373
#     4  11  20  40  67  90 124 163 205 257 323 377
#     4  10  21  37  58  86 122 165 215 267 320 373
#     4  10  22  38  63  93 119 163 207 258 318 380
#     4  11  23  39  62  91 127 170 215 263 311 370
#     4  11  22  38  58  89 124 161 212 263 316 376
#
# _framework density 19.632864000000001
#
# number of rings (size 3 to 8) (size 9 to 14) (size 15 to 20)
#    0.000    1.571    2.857    2.143    0.000    5.429 
#    0.000    8.571    0.000    3.000    0.000    0.000 
#    0.000    0.000    0.000    0.000    0.000    0.000 
#
# Total GULP energy -156004.236577 kJ/mol
# GULP energy per Si atom -5571.579878 kJ/mol
# Density = 1.958818 g / cm^3
# Si number density = 19.632864 Si / 1000 Ang^3
#
#
#
# Elastic Constant Matrix: (Units=GPa)
#
#
# Indices 1 2 3 4 5 6 
#
# 1 95.1315 41.5924 37.8057 0.0000 -9.3366 0.0000
# 2 41.5924 90.2706 43.7137 0.0000 -8.2931 0.0000
# 3 37.8057 43.7137 130.2858 0.0000 -23.6336 0.0000
# 4 0.0000 0.0000 0.0000 4.4888 0.0000 -11.8254
# 5 -9.3366 -8.2931 -23.6336 0.0000 22.1564 0.0000
# 6 0.0000 0.0000 0.0000 -11.8254 0.0000 15.6312
#
#
#
# Elastic Compliance Matrix: (Units=1/GPa)
#
#
# Indices 1 2 3 4 5 6 
#
# 1 0.013736 -0.005243 -0.001900 0.000000 0.001799 0.000000
# 2 -0.005243 0.015230 -0.003664 0.000000 -0.000417 0.000000
# 3 -0.001900 -0.003664 0.011236 0.000000 0.009813 0.000000
# 4 0.000000 0.000000 0.000000 -0.224342 0.000000 -0.169721
# 5 0.001799 -0.000417 0.009813 0.000000 0.056203 0.000000
# 6 0.000000 0.000000 0.000000 -0.169721 0.000000 -0.064424
#
#
# Mechanical properties :
#
#
# Convention : Reuss Voigt Hill
#
# Bulk Modulus (GPa) = 53.80283 62.43460 58.11872
# Shear Modulus (GPa) = -30.38594 21.29368 -4.54613
#
# Velocity S-wave (km/s) = -3.93836 3.29689 -1.52335
# Velocity P-wave (km/s) = 2.60443 6.80902 5.15489
#
# Compressibility (1/GPa) = 0.01858638
#
# Stress axis : x y z
#
# Youngs Moduli (GPa) = 72.80167 65.66114 88.99705
#
# Poissons Ratio (x) = 0.34429 0.16912
# Poissons Ratio (y) = 0.38173 0.32610
# Poissons Ratio (z) = 0.13834 0.24059
#
# Static dielectric constant tensor:
#      x y z
#    x 1.703830 0.000000 0.041100 
#    y 0.000000 1.716460 0.000000 
#    z 0.041100 0.000000 1.770330 
# 
# From -- ./inp_files/80000.got.cif
#   From: 2010.05.17/outbox.cif.g08.bks.cpg/sg12_40_cif.got.tgz:80000.got - 2010.06.03 13:09:07.
