data_PCOD9207470
_publ_section_title
;
Structure prediction by ZEFSAII (Michael W. Deem and Ramdas Pophale) SiO2 
 PCOD9207470
Probable space group: C 2/M
;
_chemical_formula_sum "Si O2"
_cell_formula_units_Z 64
_cell_length_a 29.902647
_cell_length_b 7.860631
_cell_length_c 15.579915
_cell_angle_alpha 90.000000
_cell_angle_beta 52.143613
_cell_angle_gamma 90.000000
_cell_volume 2891.429183
_symmetry_space_group_name_H-M "C 2/M"
_symmetry_group_IT_number 12
_symmetry_cell_setting 'monoclinic'
loop_
_space_group_symop_operation_xyz
x,y,z
-x,y,-z
-x,-y,-z
x,-y,z
1/2+x,1/2+y,z
1/2-x,1/2+y,-z
1/2-x,1/2-y,-z
1/2+x,1/2-y,z
loop_
_atom_site_type_symbol
_atom_site_label
_atom_site_fract_x
_atom_site_fract_y
_atom_site_fract_z
Si Si1 0.131607 0.798672 0.015627
Si Si2 0.662081 0.304761 0.330884
Si Si3 0.988356 0.793998 0.917411
Si Si4 0.309086 0.194207 0.888213
Si Si5 0.311338 0.795226 0.391684
Si Si6 0.573320 0.203431 0.667723
Si Si7 0.959648 0.696546 0.474450
Si Si8 0.715026 0.206271 0.765209
O O1 0.181111 0.767507 0.888150
O O2 0.128085 0.000000 0.035926
O O3 0.072972 0.737558 0.043805
O O4 0.145793 0.711646 0.088779
O O5 0.652740 0.500000 0.368707
O O6 0.675108 0.299575 0.214138
O O7 0.605195 0.203883 0.417650
O O8 0.719333 0.238612 0.308411
O O9 0.035848 0.735604 0.795277
O O10 0.988266 0.000000 0.918837
O O11 0.000000 0.733389 0.000000
O O12 0.304171 0.000000 0.865580
O O13 0.250000 0.250000 0.000000
O O14 0.250000 0.750000 0.500000
O O15 0.363493 0.729524 0.387305
O O16 0.313724 0.736704 0.289659
O O17 0.315604 0.000000 0.384784
O O18 0.543163 0.273837 0.617757
O O19 0.578388 0.000000 0.648482
O O20 0.978643 0.500000 0.442745
O O21 0.000000 0.775094 0.500000
O O22 0.715419 0.000000 0.767610
#
# Coordination Sequence:
#
# PCOD9207470 Si02
#       8
#     8   8   8   8   8   8   8   8
#     4  11  23  38  60  90 121 159 205 248 302 369
#     4  11  23  39  61  89 121 158 203 253 307 367
#     4  10  23  42  63  91 127 164 206 256 309 367
#     4  12  24  40  62  90 125 163 202 253 309 366
#     4  10  21  37  59  88 118 152 199 249 305 368
#     4  10  22  40  62  89 122 161 209 258 306 366
#     4  10  23  42  61  86 120 162 210 259 310 365
#     4  10  21  37  58  86 120 155 193 247 306 368
#
# _framework density 22.134383
#
# number of rings (size 3 to 8) (size 9 to 14) (size 15 to 20)
#    0.000    1.500    1.250    3.375    1.750    3.500 
#    0.000    0.000    0.000    0.000    0.000    0.000 
#    0.000    0.000    0.000    0.000    0.000    0.000 
#
# Total GULP energy -178959.868892 kJ/mol
# GULP energy per Si atom -5592.495903 kJ/mol
# Density = 2.208400 g / cm^3
# Si number density = 22.134383 Si / 1000 Ang^3
#
#
#
# Elastic Constant Matrix: (Units=GPa)
#
#
# Indices 1 2 3 4 5 6 
#
# 1 173.3630 6.9977 36.6377 0.0000 13.8348 -0.0003
# 2 6.9977 36.5284 -13.5686 0.0002 2.3953 -0.0009
# 3 36.6377 -13.5686 82.6288 0.0000 13.3298 0.0001
# 4 0.0000 0.0002 0.0000 22.1310 0.0001 -6.3916
# 5 13.8348 2.3953 13.3298 0.0001 42.5205 0.0000
# 6 -0.0003 -0.0009 0.0001 -6.3916 0.0000 11.8858
#
#
#
# Elastic Compliance Matrix: (Units=1/GPa)
#
#
# Indices 1 2 3 4 5 6 
#
# 1 0.006613 -0.002372 -0.003156 0.000000 -0.001029 0.000000
# 2 -0.002372 0.030454 0.006535 0.000000 -0.002993 0.000003
# 3 -0.003156 0.006535 0.015239 0.000000 -0.004119 0.000000
# 4 0.000000 0.000000 0.000000 0.053494 0.000000 0.028766
# 5 -0.001029 -0.002993 -0.004119 0.000000 0.025313 0.000000
# 6 0.000000 0.000003 0.000000 0.028766 0.000000 0.099603
#
#
# Mechanical properties :
#
#
# Convention : Reuss Voigt Hill
#
# Bulk Modulus (GPa) = 18.40869 39.18376 28.79623
# Shear Modulus (GPa) = 20.25877 32.80435 26.53156
#
# Velocity S-wave (km/s) = 3.02861 3.85392 3.46592
# Velocity P-wave (km/s) = 4.53485 6.12737 5.39025
#
# Compressibility (1/GPa) = 0.05432216
#
# Stress axis : x y z
#
# Youngs Moduli (GPa) = 151.21788 32.83638 65.62042
#
# Poissons Ratio (x) = 0.07787 0.20708
# Poissons Ratio (y) = 0.35862 -0.42885
# Poissons Ratio (z) = 0.47720 -0.21459
#
# Static dielectric constant tensor:
#      x y z
#    x 1.841090 0.000000 0.026490 
#    y 0.000000 1.858800 0.000000 
#    z 0.026490 0.000000 1.780130 
# 
# From -- ./inp_files/249783.got.cif
#   From: 2010.05.17/outbox.cif.g08.bks.cpg/sg12_125_cif.got.tgz:249783.got - 2010.06.03 13:09:07.
