data_PCOD9207297
_publ_section_title
;
Structure prediction by ZEFSAII (Michael W. Deem and Ramdas Pophale) SiO2 
 PCOD9207297
Probable space group: C 2/M
;
_chemical_formula_sum "Si O2"
_cell_formula_units_Z 64
_cell_length_a 17.216593
_cell_length_b 17.895983
_cell_length_c 16.261510
_cell_angle_alpha 90.000000
_cell_angle_beta 135.671810
_cell_angle_gamma 90.000000
_cell_volume 3501.033226
_symmetry_space_group_name_H-M "C 2/M"
_symmetry_group_IT_number 12
_symmetry_cell_setting 'monoclinic'
loop_
_space_group_symop_operation_xyz
x,y,z
-x,y,-z
-x,-y,-z
x,-y,z
1/2+x,1/2+y,z
1/2-x,1/2+y,-z
1/2-x,1/2-y,-z
1/2+x,1/2-y,z
loop_
_atom_site_type_symbol
_atom_site_label
_atom_site_fract_x
_atom_site_fract_y
_atom_site_fract_z
Si Si1 0.544053 0.675628 0.115988
Si Si2 0.626366 0.221684 0.924234
Si Si3 0.937247 0.418146 0.538047
Si Si4 0.759829 0.295892 0.750196
Si Si5 0.181815 0.808130 0.506145
Si Si6 0.379854 0.088709 0.954173
Si Si7 0.181879 0.088248 0.356372
Si Si8 0.046469 0.727681 0.680235
O O1 0.437644 0.721133 0.066061
O O2 0.638263 0.737649 0.168368
O O3 0.597114 0.626158 0.228504
O O4 0.500000 0.635424 0.000000
O O5 0.565907 0.230358 0.791665
O O6 0.750000 0.250000 0.000000
O O7 0.621204 0.140338 0.964183
O O8 0.934026 0.500000 0.576147
O O9 0.809726 0.393932 0.427934
O O10 0.000000 0.424622 0.500000
O O11 0.008029 0.356884 0.637552
O O12 0.738240 0.314938 0.637958
O O13 0.793213 0.369125 0.827931
O O14 0.653408 0.255328 0.710638
O O15 0.250000 0.750000 0.500000
O O16 0.171912 0.880855 0.441371
O O17 0.058544 0.776874 0.425766
O O18 0.357202 0.000000 0.950360
O O19 0.500000 0.094130 0.000000
O O20 0.167355 0.000000 0.342485
#
# Coordination Sequence:
#
# PCOD9207297 Si02
#       8
#     8   8   8   8   8   8   8   8
#     4  12  21  40  65  88 125 166 216 262 311 387
#     4  12  22  40  64  95 124 168 212 265 316 381
#     4  10  21  37  57  89 129 161 200 261 320 369
#     4  12  22  40  65  95 124 168 218 261 320 387
#     4  12  22  38  63  92 124 167 212 264 318 390
#     4  11  24  43  67  99 135 171 216 275 332 381
#     4  11  24  40  61  94 130 166 209 268 325 379
#     4  12  22  37  65  93 122 163 219 260 311 383
#
# _framework density 18.280317
#
# number of rings (size 3 to 8) (size 9 to 14) (size 15 to 20)
#    0.000    0.500    7.500    1.875    0.000    1.250 
#    0.000    5.000    0.000    4.500    0.000    0.000 
#    0.000    0.000    0.000    0.000    0.000    0.000 
#
# Total GULP energy -178577.323637 kJ/mol
# GULP energy per Si atom -5580.541364 kJ/mol
# Density = 1.823871 g / cm^3
# Si number density = 18.280317 Si / 1000 Ang^3
#
#
#
# Elastic Constant Matrix: (Units=GPa)
#
#
# Indices 1 2 3 4 5 6 
#
# 1 87.8019 21.9485 21.0649 0.0000 12.3240 0.0000
# 2 21.9485 83.7619 21.5468 0.0000 0.8694 0.0000
# 3 21.0649 21.5468 93.8067 0.0000 -18.6116 0.0000
# 4 0.0000 0.0000 0.0000 43.5198 0.0000 -7.3463
# 5 12.3240 0.8694 -18.6116 0.0000 42.6998 0.0000
# 6 0.0000 0.0000 0.0000 -7.3463 0.0000 29.8999
#
#
#
# Elastic Compliance Matrix: (Units=1/GPa)
#
#
# Indices 1 2 3 4 5 6 
#
# 1 0.013655 -0.002610 -0.003545 0.000000 -0.005433 0.000000
# 2 -0.002610 0.013297 -0.002597 0.000000 -0.000650 0.000000
# 3 -0.003545 -0.002597 0.013427 0.000000 0.006929 0.000000
# 4 0.000000 0.000000 0.000000 0.023972 0.000000 0.005890
# 5 -0.005433 -0.000650 0.006929 0.000000 0.028021 0.000000
# 6 0.000000 0.000000 0.000000 0.005890 0.000000 0.034892
#
#
# Mechanical properties :
#
#
# Convention : Reuss Voigt Hill
#
# Bulk Modulus (GPa) = 43.71367 43.83232 43.77300
# Shear Modulus (GPa) = 32.80993 36.61125 34.71059
#
# Velocity S-wave (km/s) = 4.24113 4.48009 4.36225
# Velocity P-wave (km/s) = 6.92444 7.12681 7.02635
#
# Compressibility (1/GPa) = 0.02287614
#
# Stress axis : x y z
#
# Youngs Moduli (GPa) = 73.23508 75.20340 74.47448
#
# Poissons Ratio (x) = 0.19626 0.26399
# Poissons Ratio (y) = 0.19113 0.19342
# Poissons Ratio (z) = 0.25960 0.19531
#
# Static dielectric constant tensor:
#      x y z
#    x 1.617630 0.000000 0.016240 
#    y 0.000000 1.661780 0.000000 
#    z 0.016240 0.000000 1.517760 
# 
# From -- ./inp_files/216833.got.cif
#   From: 2010.05.17/outbox.cif.g08.bks.cpg/sg12_109_cif.got.tgz:216833.got - 2010.06.03 13:09:07.
