data_PCOD9207635
_publ_section_title
;
Structure prediction by ZEFSAII (Michael W. Deem and Ramdas Pophale) SiO2 
 PCOD9207635
Probable space group: C 2/M
;
_chemical_formula_sum "Si O2"
_cell_formula_units_Z 56
_cell_length_a 14.013317
_cell_length_b 19.898428
_cell_length_c 11.641973
_cell_angle_alpha 90.000000
_cell_angle_beta 57.044545
_cell_angle_gamma 90.000000
_cell_volume 2723.935297
_symmetry_space_group_name_H-M "C 2/M"
_symmetry_group_IT_number 12
_symmetry_cell_setting 'monoclinic'
loop_
_space_group_symop_operation_xyz
x,y,z
-x,y,-z
-x,-y,-z
x,-y,z
1/2+x,1/2+y,z
1/2-x,1/2+y,-z
1/2-x,1/2-y,-z
1/2+x,1/2-y,z
loop_
_atom_site_type_symbol
_atom_site_label
_atom_site_fract_x
_atom_site_fract_y
_atom_site_fract_z
Si Si1 0.808039 0.183900 0.793416
Si Si2 0.110416 0.192011 0.499648
Si Si3 0.398184 0.764811 0.139424
Si Si4 0.108564 0.079555 0.088219
Si Si5 0.854589 0.128583 0.280175
Si Si6 0.985830 0.696442 0.711048
Si Si7 0.312490 0.077907 0.775014
O O1 0.799204 0.186000 0.660495
O O2 0.678032 0.198087 0.905542
O O3 0.853444 0.117409 0.821241
O O4 0.891595 0.243666 0.776830
O O5 0.135143 0.145730 0.591957
O O6 0.000000 0.169015 0.500000
O O7 0.078926 0.267642 0.564422
O O8 0.336139 0.700962 0.234442
O O9 0.452391 0.808083 0.206920
O O10 0.500000 0.734115 0.000000
O O11 0.976495 0.100061 0.157739
O O12 0.110470 0.000000 0.097869
O O13 0.206490 0.096735 0.930259
O O14 0.748764 0.084549 0.308763
O O15 0.917467 0.629780 0.719547
O O16 0.343975 0.000000 0.775737
#
# Coordination Sequence:
#
# PCOD9207635 Si02
#       7
#     8   8   8   8   8   8   8
#     4  11  21  39  61  87 121 153 202 244 298 345
#     4   9  19  39  58  88 113 151 202 242 291 340
#     4  11  21  33  59  94 117 147 198 251 299 347
#     4  11  22  37  58  86 125 159 193 243 301 361
#     4  11  20  34  58  88 119 153 194 247 298 352
#     4  10  21  37  59  87 115 157 198 246 285 349
#     4  11  23  38  57  88 124 161 195 238 302 358
#
# _framework density 20.558491
#
# number of rings (size 3 to 8) (size 9 to 14) (size 15 to 20)
#    0.000    1.429    5.714    2.571    0.000    4.571 
#    2.571    2.857    0.000    6.429    0.000    0.000 
#    0.000    0.000    0.000    0.000    0.000    0.000 
#
# Total GULP energy -156110.606925 kJ/mol
# GULP energy per Si atom -5575.378819 kJ/mol
# Density = 2.051170 g / cm^3
# Si number density = 20.558491 Si / 1000 Ang^3
#
#
#
# Elastic Constant Matrix: (Units=GPa)
#
#
# Indices 1 2 3 4 5 6 
#
# 1 82.5871 36.2733 2.3970 0.0000 8.4187 0.0000
# 2 36.2733 89.3058 23.1755 0.0000 5.4192 0.0000
# 3 2.3970 23.1755 38.6902 0.0000 6.9623 0.0000
# 4 0.0000 0.0000 0.0000 15.8869 0.0000 -2.3567
# 5 8.4187 5.4192 6.9623 0.0000 21.2811 0.0000
# 6 0.0000 0.0000 0.0000 -2.3567 0.0000 30.3160
#
#
#
# Elastic Compliance Matrix: (Units=1/GPa)
#
#
# Indices 1 2 3 4 5 6 
#
# 1 0.015723 -0.007166 0.004366 0.000000 -0.005823 0.000000
# 2 -0.007166 0.016538 -0.009791 0.000000 0.001827 0.000000
# 3 0.004366 -0.009791 0.033261 0.000000 -0.010115 0.000000
# 4 0.000000 0.000000 0.000000 0.063679 0.000000 0.004950
# 5 -0.005823 0.001827 -0.010115 0.000000 0.052138 0.000000
# 6 0.000000 0.000000 0.000000 0.004950 0.000000 0.033371
#
#
# Mechanical properties :
#
#
# Convention : Reuss Voigt Hill
#
# Bulk Modulus (GPa) = 24.78910 37.14164 30.96537
# Shear Modulus (GPa) = 19.73650 23.41262 21.57456
#
# Velocity S-wave (km/s) = 3.10178 3.37832 3.24299
# Velocity P-wave (km/s) = 4.99120 5.77260 5.39606
#
# Compressibility (1/GPa) = 0.04034031
#
# Stress axis : x y z
#
# Youngs Moduli (GPa) = 63.60268 60.46681 30.06529
#
# Poissons Ratio (x) = 0.43329 -0.13127
# Poissons Ratio (y) = 0.45576 0.29437
# Poissons Ratio (z) = -0.27770 0.59203
#
# Static dielectric constant tensor:
#      x y z
#    x 1.818040 0.000000 -0.109690 
#    y 0.000000 1.684060 0.000000 
#    z -0.109690 0.000000 1.982460 
# 
# From -- ./inp_files/146063.got.cif
#   From: 2010.05.17/outbox.cif.g08.bks.cpg/sg12_74_cif.got.tgz:146063.got - 2010.06.03 13:09:07.
