data_PCOD9207290
_publ_section_title
;
Structure prediction by ZEFSAII (Michael W. Deem and Ramdas Pophale) SiO2 
 PCOD9207290
Probable space group: C 2/M
;
_chemical_formula_sum "Si O2"
_cell_formula_units_Z 64
_cell_length_a 17.562426
_cell_length_b 18.170762
_cell_length_c 15.289003
_cell_angle_alpha 90.000000
_cell_angle_beta 135.626988
_cell_angle_gamma 90.000000
_cell_volume 3412.062193
_symmetry_space_group_name_H-M "C 2/M"
_symmetry_group_IT_number 12
_symmetry_cell_setting 'monoclinic'
loop_
_space_group_symop_operation_xyz
x,y,z
-x,y,-z
-x,-y,-z
x,-y,z
1/2+x,1/2+y,z
1/2-x,1/2+y,-z
1/2-x,1/2-y,-z
1/2+x,1/2-y,z
loop_
_atom_site_type_symbol
_atom_site_label
_atom_site_fract_x
_atom_site_fract_y
_atom_site_fract_z
Si Si1 0.763124 0.586504 0.991230
Si Si2 0.171500 0.724330 0.651221
Si Si3 0.864107 0.415386 0.263828
Si Si4 0.944352 0.314612 0.618279
Si Si5 0.924847 0.914679 0.525183
Si Si6 0.003422 0.416395 0.898638
Si Si7 0.697951 0.171458 0.342214
Si Si8 0.590119 0.313186 0.753485
O O1 0.734352 0.500000 0.947943
O O2 0.675874 0.645166 0.884849
O O3 0.790097 0.591294 0.116243
O O4 0.876673 0.603320 0.035747
O O5 0.175013 0.643914 0.697223
O O6 0.084191 0.719388 0.500036
O O7 0.278198 0.753488 0.689859
O O8 0.144147 0.781006 0.707934
O O9 0.864177 0.500000 0.292658
O O10 0.986492 0.388654 0.338928
O O11 0.834734 0.320859 0.583395
O O12 0.026465 0.258845 0.735164
O O13 0.807936 0.875860 0.419875
O O14 0.000000 0.910882 0.500000
O O15 0.996526 0.871663 0.654338
O O16 0.908839 0.000000 0.533334
O O17 0.984183 0.500000 0.851874
O O18 0.906906 0.367422 0.783743
O O19 0.000000 0.415219 0.000000
#
# Coordination Sequence:
#
# PCOD9207290 Si02
#       8
#     8   8   8   8   8   8   8   8
#     4  10  21  39  64  91 123 161 204 256 302 360
#     4  11  23  38  61  88 123 165 196 254 308 361
#     4  10  22  42  64  89 118 158 215 259 303 364
#     4  11  23  38  64  88 127 157 201 262 315 356
#     4  11  22  35  58  88 119 162 200 239 300 373
#     4  10  21  37  57  88 126 162 196 249 314 369
#     4  12  22  40  59  89 128 161 202 259 307 370
#     4  11  20  39  60  90 122 155 203 244 302 374
#
# _framework density 18.756985
#
# number of rings (size 3 to 8) (size 9 to 14) (size 15 to 20)
#    0.000    1.250    3.750    3.375    0.000    3.500 
#    2.250    0.000    0.000    0.000    0.000    1.750 
#    0.000    0.000    0.000    0.000    0.000    0.000 
#
# Total GULP energy -178556.681505 kJ/mol
# GULP energy per Si atom -5579.896297 kJ/mol
# Density = 1.871429 g / cm^3
# Si number density = 18.756985 Si / 1000 Ang^3
#
#
#
# Elastic Constant Matrix: (Units=GPa)
#
#
# Indices 1 2 3 4 5 6 
#
# 1 74.3434 41.2297 11.0846 0.0000 6.1974 0.0000
# 2 41.2297 122.5170 42.0442 0.0000 9.8512 0.0000
# 3 11.0846 42.0442 66.2663 0.0000 10.1107 0.0000
# 4 0.0000 0.0000 0.0000 30.6772 0.0000 2.4966
# 5 6.1974 9.8512 10.1107 0.0000 19.8959 0.0000
# 6 0.0000 0.0000 0.0000 2.4966 0.0000 13.9710
#
#
#
# Elastic Compliance Matrix: (Units=1/GPa)
#
#
# Indices 1 2 3 4 5 6 
#
# 1 0.016751 -0.005869 0.001381 0.000000 -0.003014 0.000000
# 2 -0.005869 0.012561 -0.006849 0.000000 -0.000911 0.000000
# 3 0.001381 -0.006849 0.020329 0.000000 -0.007370 0.000000
# 4 0.000000 0.000000 0.000000 0.033079 0.000000 -0.005911
# 5 -0.003014 -0.000911 -0.007370 0.000000 0.055397 0.000000
# 6 0.000000 0.000000 0.000000 -0.005911 0.000000 0.072633
#
#
# Mechanical properties :
#
#
# Convention : Reuss Voigt Hill
#
# Bulk Modulus (GPa) = 37.07965 50.20485 43.64225
# Shear Modulus (GPa) = 20.62606 24.16003 22.39304
#
# Velocity S-wave (km/s) = 3.31969 3.59284 3.45896
# Velocity P-wave (km/s) = 5.87411 6.63592 6.26660
#
# Compressibility (1/GPa) = 0.02696897
#
# Stress axis : x y z
#
# Youngs Moduli (GPa) = 59.69738 79.61365 49.18974
#
# Poissons Ratio (x) = 0.46724 -0.06795
# Poissons Ratio (y) = 0.35036 0.33689
# Poissons Ratio (z) = -0.08247 0.54525
#
# Static dielectric constant tensor:
#      x y z
#    x 1.684370 0.000000 -0.019870 
#    y 0.000000 1.686880 0.000000 
#    z -0.019870 0.000000 1.648660 
# 
# From -- ./inp_files/226884.got.cif
#   From: 2010.05.17/outbox.cif.g08.bks.cpg/sg12_114_cif.got.tgz:226884.got - 2010.06.03 13:09:07.
