data_PCOD9207920
_publ_section_title
;
Structure prediction by ZEFSAII (Michael W. Deem and Ramdas Pophale) SiO2 
 PCOD9207920
Probable space group: C 2/M
;
_chemical_formula_sum "Si O2"
_cell_formula_units_Z 56
_cell_length_a 15.974686
_cell_length_b 22.066941
_cell_length_c 9.093861
_cell_angle_alpha 90.000000
_cell_angle_beta 109.057431
_cell_angle_gamma 90.000000
_cell_volume 3030.000532
_symmetry_space_group_name_H-M "C 2/M"
_symmetry_group_IT_number 12
_symmetry_cell_setting 'monoclinic'
loop_
_space_group_symop_operation_xyz
x,y,z
-x,y,-z
-x,-y,-z
x,-y,z
1/2+x,1/2+y,z
1/2-x,1/2+y,-z
1/2-x,1/2-y,-z
1/2+x,1/2-y,z
loop_
_atom_site_type_symbol
_atom_site_label
_atom_site_fract_x
_atom_site_fract_y
_atom_site_fract_z
Si Si1 0.910881 0.630212 0.118292
Si Si2 0.415312 0.389433 0.047088
Si Si3 0.147267 0.236269 0.910024
Si Si4 0.588704 0.351086 0.637356
Si Si5 0.222321 0.071527 0.520368
Si Si6 0.405227 0.071848 0.795725
Si Si7 0.743332 0.930550 0.795734
O O1 0.907188 0.702389 0.102147
O O2 0.835397 0.610301 0.188225
O O3 0.007270 0.604824 0.214377
O O4 0.888789 0.599740 0.947939
O O5 0.389074 0.318349 0.009169
O O6 0.433205 0.392524 0.231726
O O7 0.500000 0.406249 0.000000
O O8 0.328077 0.425284 0.950297
O O9 0.134180 0.207219 0.740207
O O10 0.250000 0.250000 0.000000
O O11 0.500000 0.335061 0.500000
O O12 0.654232 0.387072 0.569278
O O13 0.319438 0.080068 0.646268
O O14 0.226355 0.086699 0.350424
O O15 0.199573 0.000000 0.521698
O O16 0.422407 0.000000 0.819476
O O17 0.711906 0.000000 0.773131
#
# Coordination Sequence:
#
# PCOD9207920 Si02
#       7
#     8   8   8   8   8   8   8
#     4  11  20  37  61  86 119 156 203 248 298 357
#     4  10  22  38  62  87 119 155 194 248 293 352
#     4  10  21  40  61  87 119 159 200 240 298 355
#     4  10  22  41  62  86 122 154 203 246 294 355
#     4  10  22  40  60  86 121 157 197 247 309 362
#     4  10  21  37  60  91 120 156 201 247 300 363
#     4  11  22  38  61  88 118 156 200 250 305 359
#
# _framework density 18.481843999999999
#
# number of rings (size 3 to 8) (size 9 to 14) (size 15 to 20)
#    0.857    0.857    1.429    4.286    2.000    2.857 
#    2.571    2.857    0.000    0.000    0.000    0.000 
#    0.000    0.000    0.000    0.000    0.000    0.000 
#
# Total GULP energy -156195.065671 kJ/mol
# GULP energy per Si atom -5578.395203 kJ/mol
# Density = 1.843978 g / cm^3
# Si number density = 18.481844 Si / 1000 Ang^3
#
#
#
# Elastic Constant Matrix: (Units=GPa)
#
#
# Indices 1 2 3 4 5 6 
#
# 1 79.9857 26.9272 30.5677 0.0000 3.8065 0.0000
# 2 26.9272 73.0592 16.0920 0.0000 1.0932 0.0000
# 3 30.5677 16.0920 98.0762 0.0000 12.8884 0.0000
# 4 0.0000 0.0000 0.0000 17.9826 0.0000 2.8488
# 5 3.8065 1.0932 12.8884 0.0000 26.0703 0.0000
# 6 0.0000 0.0000 0.0000 2.8488 0.0000 33.5303
#
#
#
# Elastic Compliance Matrix: (Units=1/GPa)
#
#
# Indices 1 2 3 4 5 6 
#
# 1 0.015713 -0.004890 -0.004086 0.000000 -0.000069 0.000000
# 2 -0.004890 0.015731 -0.001138 0.000000 0.000617 0.000000
# 3 -0.004086 -0.001138 0.012376 0.000000 -0.005474 0.000000
# 4 0.000000 0.000000 0.000000 0.056368 0.000000 -0.004789
# 5 -0.000069 0.000617 -0.005474 0.000000 0.041048 0.000000
# 6 0.000000 0.000000 0.000000 -0.004789 0.000000 0.030231
#
#
# Mechanical properties :
#
#
# Convention : Reuss Voigt Hill
#
# Bulk Modulus (GPa) = 42.38776 44.25499 43.32137
# Shear Modulus (GPa) = 25.05514 27.35227 26.20370
#
# Velocity S-wave (km/s) = 3.68593 3.85119 3.76946
# Velocity P-wave (km/s) = 6.41088 6.61609 6.51429
#
# Compressibility (1/GPa) = 0.02359172
#
# Stress axis : x y z
#
# Youngs Moduli (GPa) = 63.63995 63.56704 80.80362
#
# Poissons Ratio (x) = 0.31087 0.33016
# Poissons Ratio (y) = 0.31123 0.09196
# Poissons Ratio (z) = 0.26003 0.07234
#
# Static dielectric constant tensor:
#      x y z
#    x 1.613640 0.000000 -0.000430 
#    y 0.000000 1.630950 0.000000 
#    z -0.000430 0.000000 1.631840 
# 
# From -- ./inp_files/65981.got.cif
#   From: 2010.05.17/outbox.cif.g08.bks.cpg/sg12_33_cif.got.tgz:65981.got - 2010.06.03 13:09:07.
