data_PCOD9207788
_publ_section_title
;
Structure prediction by ZEFSAII (Michael W. Deem and Ramdas Pophale) SiO2 
 PCOD9207788
Probable space group: C 2/M
;
_chemical_formula_sum "Si O2"
_cell_formula_units_Z 50
_cell_length_a 14.415334
_cell_length_b 7.777947
_cell_length_c 20.034088
_cell_angle_alpha 90.000000
_cell_angle_beta 92.858927
_cell_angle_gamma 90.000000
_cell_volume 2243.460321
_symmetry_space_group_name_H-M "C 2/M"
_symmetry_group_IT_number 12
_symmetry_cell_setting 'monoclinic'
loop_
_space_group_symop_operation_xyz
x,y,z
-x,y,-z
-x,-y,-z
x,-y,z
1/2+x,1/2+y,z
1/2-x,1/2+y,-z
1/2-x,1/2-y,-z
1/2+x,1/2-y,z
loop_
_atom_site_type_symbol
_atom_site_label
_atom_site_fract_x
_atom_site_fract_y
_atom_site_fract_z
Si Si1 0.383259 0.312044 0.949615
Si Si2 0.000000 0.500000 0.000000
Si Si3 0.191569 0.802541 0.900981
Si Si4 0.056742 0.792649 0.784188
Si Si5 0.601668 0.794379 0.310957
Si Si6 0.189529 0.206466 0.668872
Si Si7 0.970200 0.293057 0.426285
O O1 0.426269 0.500000 0.938292
O O2 0.290308 0.291310 0.902363
O O3 0.451152 0.151743 0.951762
O O4 0.343908 0.305127 0.024283
O O5 0.109378 0.731321 0.852193
O O6 0.209561 0.000000 0.881705
O O7 0.123701 0.731624 0.726496
O O8 0.953486 0.739456 0.759641
O O9 0.055133 0.000000 0.786064
O O10 0.706191 0.726809 0.319694
O O11 0.538554 0.727114 0.370086
O O12 0.606478 0.000000 0.318489
O O13 0.134511 0.249769 0.599417
O O14 0.192920 0.000000 0.674404
O O15 0.977684 0.500000 0.427242
O O16 0.000000 0.228936 0.500000
#
# Coordination Sequence:
#
# PCOD9207788 Si02
#       7
#     8   2   8   8   8   8   8
#     4  10  21  37  60  83 115 149 187 230 290 339
#     4  12  22  40  56  90 116 146 182 248 280 334
#     4   9  18  37  57  79 107 149 185 224 277 348
#     4   9  18  34  55  76 104 139 176 216 269 326
#     4   9  18  33  49  73 105 136 175 220 263 319
#     4   9  18  33  51  74 103 136 172 218 268 317
#     4   9  18  32  50  71 100 138 175 216 267 319
#
# _framework density 22.287001
#
# number of rings (size 3 to 8) (size 9 to 14) (size 15 to 20)
#    0.000    2.720    0.800    0.240    1.120    2.240 
#    2.880    0.000    0.000    0.000    0.000    0.000 
#    0.000    0.000    0.000    0.000    0.000    0.000 
#
# Total GULP energy -139279.345058 kJ/mol
# GULP energy per Si atom -5571.173802 kJ/mol
# Density = 2.223627 g / cm^3
# Si number density = 22.287001 Si / 1000 Ang^3
#
#
#
# Elastic Constant Matrix: (Units=GPa)
#
#
# Indices 1 2 3 4 5 6 
#
# 1 146.1859 24.9193 54.5675 0.0000 49.8409 0.0000
# 2 24.9193 86.0290 2.1677 0.0000 3.6222 0.0000
# 3 54.5675 2.1677 96.5622 0.0000 45.3192 0.0000
# 4 0.0000 0.0000 0.0000 14.5070 0.0000 14.4350
# 5 49.8409 3.6222 45.3192 0.0000 37.2728 0.0000
# 6 0.0000 0.0000 0.0000 14.4350 0.0000 9.6300
#
#
#
# Elastic Compliance Matrix: (Units=1/GPa)
#
#
# Indices 1 2 3 4 5 6 
#
# 1 0.013495 -0.003115 0.001796 0.000000 -0.019926 0.000000
# 2 -0.003115 0.012407 0.000216 0.000000 0.002697 0.000000
# 3 0.001796 0.000216 0.024393 0.000000 -0.032081 0.000000
# 4 0.000000 0.000000 0.000000 -0.140241 0.000000 0.210216
# 5 -0.019926 0.002697 -0.032081 0.000000 0.092218 0.000000
# 6 0.000000 0.000000 0.000000 0.210216 0.000000 -0.211264
#
#
# Mechanical properties :
#
#
# Convention : Reuss Voigt Hill
#
# Bulk Modulus (GPa) = 20.79530 54.67623 37.73576
# Shear Modulus (GPa) = -26.21158 28.75680 1.27261
#
# Velocity S-wave (km/s) = -3.43314 3.59596 0.75647
# Velocity P-wave (km/s) = 2.52276 6.46740 4.21088
#
# Compressibility (1/GPa) = 0.04808779
#
# Stress axis : x y z
#
# Youngs Moduli (GPa) = 74.10198 80.59738 40.99574
#
# Poissons Ratio (x) = 0.25108 -0.07361
# Poissons Ratio (y) = 0.23085 -0.00885
# Poissons Ratio (z) = -0.13306 -0.01741
#
# Static dielectric constant tensor:
#      x y z
#    x 1.835790 0.000000 -0.001160 
#    y 0.000000 2.014690 0.000000 
#    z -0.001160 0.000000 1.843880 
# 
# From -- ./inp_files/308355.got.cif
#   From: 2010.05.17/outbox.cif.g08.bks.cpg/sg12_155_cif.got.tgz:308355.got - 2010.06.03 13:09:07.
