data_PCOD9207456
_publ_section_title
;
Structure prediction by ZEFSAII (Michael W. Deem and Ramdas Pophale) SiO2 
 PCOD9207456
Probable space group: C 2/M
;
_chemical_formula_sum "Si O2"
_cell_formula_units_Z 42
_cell_length_a 13.704491
_cell_length_b 9.466946
_cell_length_c 15.236693
_cell_angle_alpha 90.000000
_cell_angle_beta 92.782170
_cell_angle_gamma 90.000000
_cell_volume 1974.473540
_symmetry_space_group_name_H-M "C 2/M"
_symmetry_group_IT_number 12
_symmetry_cell_setting 'monoclinic'
loop_
_space_group_symop_operation_xyz
x,y,z
-x,y,-z
-x,-y,-z
x,-y,z
1/2+x,1/2+y,z
1/2-x,1/2+y,-z
1/2-x,1/2-y,-z
1/2+x,1/2-y,z
loop_
_atom_site_type_symbol
_atom_site_label
_atom_site_fract_x
_atom_site_fract_y
_atom_site_fract_z
Si Si1 0.115808 0.159918 0.255966
Si Si2 0.733752 0.160974 0.585645
Si Si3 0.454099 0.156945 0.327113
Si Si4 0.250363 0.660930 0.132332
Si Si5 0.000000 0.500000 0.500000
Si Si6 0.398366 0.161440 0.038214
O O1 0.169892 0.151761 0.352361
O O2 0.188708 0.245532 0.197018
O O3 0.017413 0.246196 0.267752
O O4 0.100816 0.000000 0.223322
O O5 0.750000 0.250000 0.500000
O O6 0.648838 0.218908 0.645260
O O7 0.698533 0.000000 0.559940
O O8 0.436047 0.000000 0.286708
O O9 0.507901 0.121103 0.421780
O O10 0.265833 0.500000 0.163552
O O11 0.181272 0.654609 0.043192
O O12 0.350151 0.738549 0.108796
O O13 0.414027 0.000000 0.070334
O O14 0.500000 0.212224 0.000000
#
# Coordination Sequence:
#
# PCOD9207456 Si02
#       6
#     8   8   8   8   2   8
#     4  11  23  37  55  83 118 150 185 239 290 332
#     4  10  22  37  56  80 107 144 190 236 284 340
#     4   9  19  36  57  76 102 143 188 227 284 339
#     4  10  21  37  58  86 116 152 190 228 281 340
#     4   8  16  32  62  72  96 134 186 232 282 320
#     4   9  19  38  63  87 114 149 189 232 280 334
#
# _framework density 21.271494000000001
#
# number of rings (size 3 to 8) (size 9 to 14) (size 15 to 20)
#    0.571    1.714    0.000    2.286    0.000    4.190 
#    0.000   10.000    0.000    0.000    0.000    0.000 
#    0.000    0.000    0.000    0.000    0.000    0.000 
#
# Total GULP energy -116970.329638 kJ/mol
# GULP energy per Si atom -5570.015697 kJ/mol
# Density = 2.122308 g / cm^3
# Si number density = 21.271494 Si / 1000 Ang^3
#
#
#
# Elastic Constant Matrix: (Units=GPa)
#
#
# Indices 1 2 3 4 5 6 
#
# 1 92.4229 44.7414 35.9609 0.0000 -48.7209 0.0000
# 2 44.7414 133.8191 62.2202 0.0000 -44.0372 0.0000
# 3 35.9609 62.2202 79.8832 0.0000 -26.7034 0.0000
# 4 0.0000 0.0000 0.0000 31.3734 0.0000 -14.5366
# 5 -48.7209 -44.0372 -26.7034 0.0000 46.8974 0.0000
# 6 0.0000 0.0000 0.0000 -14.5366 0.0000 28.1367
#
#
#
# Elastic Compliance Matrix: (Units=1/GPa)
#
#
# Indices 1 2 3 4 5 6 
#
# 1 0.024813 0.001998 -0.004301 0.000000 0.025205 0.000000
# 2 0.001998 0.014219 -0.008420 0.000000 0.010633 0.000000
# 3 -0.004301 -0.008420 0.020843 0.000000 -0.000506 0.000000
# 4 0.000000 0.000000 0.000000 0.041906 0.000000 0.021650
# 5 0.025205 0.010633 -0.000506 0.000000 0.057204 0.000000
# 6 0.000000 0.000000 0.000000 0.021650 0.000000 0.046726
#
#
# Mechanical properties :
#
#
# Convention : Reuss Voigt Hill
#
# Bulk Modulus (GPa) = 26.02147 65.77447 45.89797
# Shear Modulus (GPa) = 20.83630 32.16168 26.49899
#
# Velocity S-wave (km/s) = 3.13316 3.89261 3.53335
# Velocity P-wave (km/s) = 5.03473 7.15484 6.18629
#
# Compressibility (1/GPa) = 0.03842980
#
# Stress axis : x y z
#
# Youngs Moduli (GPa) = 40.30189 70.32971 47.97706
#
# Poissons Ratio (x) = -0.14053 0.20634
# Poissons Ratio (y) = -0.08053 0.40396
# Poissons Ratio (z) = 0.17333 0.59217
#
# Static dielectric constant tensor:
#      x y z
#    x 1.896990 0.000000 0.058460 
#    y 0.000000 1.777480 0.000000 
#    z 0.058460 0.000000 1.755790 
# 
# From -- ./inp_files/267045.got.cif
#   From: 2010.05.17/outbox.cif.g08.bks.cpg/sg12_134_cif.got.tgz:267045.got - 2010.06.03 13:09:07.
