data_PCOD9207588
_publ_section_title
;
Structure prediction by ZEFSAII (Michael W. Deem and Ramdas Pophale) SiO2 
 PCOD9207588
Probable space group: C 2/M
;
_chemical_formula_sum "Si O2"
_cell_formula_units_Z 40
_cell_length_a 9.593735
_cell_length_b 17.388201
_cell_length_c 9.253261
_cell_angle_alpha 90.000000
_cell_angle_beta 75.734145
_cell_angle_gamma 90.000000
_cell_volume 1496.007940
_symmetry_space_group_name_H-M "C 2/M"
_symmetry_group_IT_number 12
_symmetry_cell_setting 'monoclinic'
loop_
_space_group_symop_operation_xyz
x,y,z
-x,y,-z
-x,-y,-z
x,-y,z
1/2+x,1/2+y,z
1/2-x,1/2+y,-z
1/2-x,1/2-y,-z
1/2+x,1/2-y,z
loop_
_atom_site_type_symbol
_atom_site_label
_atom_site_fract_x
_atom_site_fract_y
_atom_site_fract_z
Si Si1 0.135815 0.910058 0.627404
Si Si2 0.224178 0.344644 0.682187
Si Si3 0.104759 0.206373 0.864380
Si Si4 0.945838 0.416397 0.707638
Si Si5 0.758624 0.583326 0.020076
O O1 0.162081 0.871412 0.465208
O O2 0.048343 0.851528 0.753351
O O3 0.294985 0.910721 0.662187
O O4 0.089355 0.000000 0.633491
O O5 0.220076 0.260773 0.755658
O O6 0.225266 0.402762 0.815891
O O7 0.065206 0.352714 0.651507
O O8 0.171431 0.150689 0.966792
O O9 0.000000 0.253631 0.000000
O O10 0.011194 0.500000 0.656247
O O11 0.901920 0.416630 0.886733
O O12 0.689015 0.500000 0.011641
#
# Coordination Sequence:
#
# PCOD9207588 Si02
#       5
#     8   8   8   8   8
#     4  10  22  40  63  89 119 156 196 240 290 350
#     4  12  21  35  60  93 122 146 188 249 307 347
#     4  11  24  41  59  82 118 165 202 237 288 349
#     4   9  18  34  58  88 120 153 188 232 295 362
#     4  10  21  37  59  85 117 159 203 243 284 346
#
# _framework density 26.737828
#
# number of rings (size 3 to 8) (size 9 to 14) (size 15 to 20)
#    0.000    1.600    0.000    7.200    0.000    6.400 
#    0.000    3.000    0.000    2.400    0.000    0.000 
#    0.000    0.000    0.000    0.000    0.000    0.000 
#
# Total GULP energy -111894.259360 kJ/mol
# GULP energy per Si atom -5594.712968 kJ/mol
# Density = 2.667697 g / cm^3
# Si number density = 26.737828 Si / 1000 Ang^3
#
#
#
# Elastic Constant Matrix: (Units=GPa)
#
#
# Indices 1 2 3 4 5 6 
#
# 1 48.7502 7.6906 28.0468 0.0000 -1.8972 0.0000
# 2 7.6906 156.9709 55.5576 0.0000 -10.3318 0.0000
# 3 28.0468 55.5576 233.9383 0.0000 -23.4694 0.0000
# 4 0.0000 0.0000 0.0000 -81.7476 0.0000 -26.7586
# 5 -1.8972 -10.3318 -23.4694 0.0000 41.3903 0.0000
# 6 0.0000 0.0000 0.0000 -26.7586 0.0000 8.7916
#
#
#
# Elastic Compliance Matrix: (Units=1/GPa)
#
#
# Indices 1 2 3 4 5 6 
#
# 1 0.022047 -0.000176 -0.002656 0.000000 -0.000539 0.000000
# 2 -0.000176 0.006985 -0.001552 0.000000 0.000856 0.000000
# 3 -0.002656 -0.001552 0.005207 0.000000 0.002443 0.000000
# 4 0.000000 0.000000 0.000000 -0.006128 0.000000 -0.018651
# 5 -0.000539 0.000856 0.002443 0.000000 0.025734 0.000000
# 6 0.000000 0.000000 0.000000 -0.018651 0.000000 0.056978
#
#
# Mechanical properties :
#
#
# Convention : Reuss Voigt Hill
#
# Bulk Modulus (GPa) = 39.25837 69.13881 54.19859
# Shear Modulus (GPa) = 39.03779 16.91115 27.97447
#
# Velocity S-wave (km/s) = 3.82517 2.51764 3.23809
# Velocity P-wave (km/s) = 5.85011 5.86221 5.85617
#
# Compressibility (1/GPa) = 0.02547228
#
# Stress axis : x y z
#
# Youngs Moduli (GPa) = 45.35705 143.16789 192.06097
#
# Poissons Ratio (x) = 0.02516 0.51003
# Poissons Ratio (y) = 0.00797 0.29806
# Poissons Ratio (z) = 0.12045 0.22218
#
# Static dielectric constant tensor:
#      x y z
#    x 2.226910 0.000000 -0.020690 
#    y 0.000000 2.094120 0.000000 
#    z -0.020690 0.000000 2.082640 
# 
# From -- ./inp_files/46893.got.cif
#   From: 2010.05.17/outbox.cif.g08.bks.cpg/sg12_24_cif.got.tgz:46893.got - 2010.06.03 13:09:07.
