data_PCOD9207681
_publ_section_title
;
Structure prediction by ZEFSAII (Michael W. Deem and Ramdas Pophale) SiO2 
 PCOD9207681
Probable space group: C 2/M
;
_chemical_formula_sum "Si O2"
_cell_formula_units_Z 64
_cell_length_a 9.877246
_cell_length_b 16.532801
_cell_length_c 35.367884
_cell_angle_alpha 90.000000
_cell_angle_beta 35.218782
_cell_angle_gamma 90.000000
_cell_volume 3330.745515
_symmetry_space_group_name_H-M "C 2/M"
_symmetry_group_IT_number 12
_symmetry_cell_setting 'monoclinic'
loop_
_space_group_symop_operation_xyz
x,y,z
-x,y,-z
-x,-y,-z
x,-y,z
1/2+x,1/2+y,z
1/2-x,1/2+y,-z
1/2-x,1/2-y,-z
1/2+x,1/2-y,z
loop_
_atom_site_type_symbol
_atom_site_label
_atom_site_fract_x
_atom_site_fract_y
_atom_site_fract_z
Si Si1 0.409068 0.192705 0.437475
Si Si2 0.503204 0.091103 0.935047
Si Si3 0.126532 0.280337 0.641773
Si Si4 0.275506 0.094472 0.530557
Si Si5 0.242480 0.904414 0.328129
Si Si6 0.626149 0.233026 0.850297
Si Si7 0.892707 0.711084 0.232330
Si Si8 0.604804 0.591626 0.089013
O O1 0.250000 0.250000 0.500000
O O2 0.677551 0.219676 0.385049
O O3 0.337998 0.200557 0.410361
O O4 0.330902 0.108132 0.473882
O O5 0.519258 0.166315 0.902986
O O6 0.722988 0.095601 0.913882
O O7 0.507649 0.000000 0.916762
O O8 0.272583 0.096128 0.013969
O O9 0.137857 0.361730 0.663709
O O10 0.864474 0.248606 0.705695
O O11 0.500000 0.132255 0.500000
O O12 0.029897 0.123715 0.604050
O O13 0.270947 0.000000 0.539546
O O14 0.361787 0.871411 0.262932
O O15 0.252308 0.000000 0.327598
O O16 0.556457 0.207648 0.823771
O O17 0.548009 0.326504 0.875223
O O18 0.906528 0.236092 0.793185
O O19 0.496620 0.500000 0.113986
#
# Coordination Sequence:
#
# PCOD9207681 Si02
#       8
#     8   8   8   8   8   8   8   8
#     4  12  21  35  64  89 113 150 200 253 312 380
#     4   9  19  38  64  97 131 165 206 258 318 371
#     4  12  23  41  59  87 122 160 204 250 309 372
#     4  10  21  37  59  88 119 150 191 251 320 381
#     4  11  24  42  62  87 123 161 203 261 317 367
#     4  12  22  39  65  94 125 167 219 259 302 370
#     4  12  24  41  60  86 124 168 209 256 301 367
#     4   9  19  38  65  95 131 168 204 256 320 375
#
# _framework density 19.214917
#
# number of rings (size 3 to 8) (size 9 to 14) (size 15 to 20)
#    0.000    1.125    5.000    3.000    0.000    1.500 
#    0.000    1.875    0.000    4.500    0.000    0.000 
#    0.000    0.000    0.000    0.000    0.000    0.000 
#
# Total GULP energy -178412.585891 kJ/mol
# GULP energy per Si atom -5575.393309 kJ/mol
# Density = 1.917118 g / cm^3
# Si number density = 19.214917 Si / 1000 Ang^3
#
#
#
# Elastic Constant Matrix: (Units=GPa)
#
#
# Indices 1 2 3 4 5 6 
#
# 1 70.3631 32.5883 23.6160 -0.0052 13.3117 0.0079
# 2 32.5883 111.9861 47.8192 0.0021 16.2081 0.0032
# 3 23.6160 47.8192 62.1173 -0.0201 14.5012 0.0144
# 4 -0.0052 0.0021 -0.0201 33.9170 0.0048 4.4560
# 5 13.3117 16.2081 14.5012 0.0048 36.0085 -0.0066
# 6 0.0079 0.0032 0.0144 4.4560 -0.0066 24.1130
#
#
#
# Elastic Compliance Matrix: (Units=1/GPa)
#
#
# Indices 1 2 3 4 5 6 
#
# 1 0.017489 -0.003104 -0.003396 0.000002 -0.003701 -0.000005
# 2 -0.003104 0.013993 -0.009260 -0.000007 -0.001422 0.000006
# 3 -0.003396 -0.009260 0.025665 0.000018 -0.004912 -0.000018
# 4 0.000002 -0.000007 0.000018 0.030217 -0.000010 -0.005584
# 5 -0.003701 -0.001422 -0.004912 -0.000010 0.031758 0.000015
# 6 -0.000005 0.000006 -0.000018 -0.005584 0.000015 0.042503
#
#
# Mechanical properties :
#
#
# Convention : Reuss Voigt Hill
#
# Bulk Modulus (GPa) = 39.02009 50.27929 44.64969
# Shear Modulus (GPa) = 24.79082 28.17055 26.48069
#
# Velocity S-wave (km/s) = 3.59581 3.83309 3.71635
# Velocity P-wave (km/s) = 6.13116 6.76858 6.45774
#
# Compressibility (1/GPa) = 0.02562782
#
# Stress axis : x y z
#
# Youngs Moduli (GPa) = 57.17748 71.46530 38.96359
#
# Poissons Ratio (x) = 0.22181 0.13232
# Poissons Ratio (y) = 0.17746 0.36080
# Poissons Ratio (z) = 0.19417 0.66177
#
# Static dielectric constant tensor:
#      x y z
#    x 1.721570 -0.000010 -0.007650 
#    y -0.000010 1.758560 0.000000 
#    z -0.007650 0.000000 1.690990 
# 
# From -- ./inp_files/372891.got.cif
#   From: 2010.05.17/outbox.cif.g08.bks.cpg/sg12_187_cif.got.tgz:372891.got - 2010.06.03 13:09:07.
