data_PCOD9207769
_publ_section_title
;
Structure prediction by ZEFSAII (Michael W. Deem and Ramdas Pophale) SiO2 
 PCOD9207769
Probable space group: C 2/M
;
_chemical_formula_sum "Si O2"
_cell_formula_units_Z 44
_cell_length_a 26.972384
_cell_length_b 7.904364
_cell_length_c 11.151330
_cell_angle_alpha 90.000000
_cell_angle_beta 101.620095
_cell_angle_gamma 90.000000
_cell_volume 2328.731635
_symmetry_space_group_name_H-M "C 2/M"
_symmetry_group_IT_number 12
_symmetry_cell_setting 'monoclinic'
loop_
_space_group_symop_operation_xyz
x,y,z
-x,y,-z
-x,-y,-z
x,-y,z
1/2+x,1/2+y,z
1/2-x,1/2+y,-z
1/2-x,1/2-y,-z
1/2+x,1/2-y,z
loop_
_atom_site_type_symbol
_atom_site_label
_atom_site_fract_x
_atom_site_fract_y
_atom_site_fract_z
Si Si1 0.439690 0.500000 0.717819
Si Si2 0.947922 0.000000 0.290005
Si Si3 0.769853 0.187289 0.382465
Si Si4 0.283892 0.295112 0.130641
Si Si5 0.131041 0.000000 0.535463
Si Si6 0.602576 0.807472 0.872337
Si Si7 0.553549 0.806454 0.095164
O O1 0.491922 0.500000 0.668180
O O2 0.392026 0.500000 0.607135
O O3 0.440255 0.665388 0.801779
O O4 0.914311 0.000000 0.392756
O O5 0.931340 0.166234 0.207924
O O6 0.750000 0.250000 0.500000
O O7 0.762438 0.270470 0.248600
O O8 0.830482 0.156106 0.424149
O O9 0.746568 0.000000 0.359244
O O10 0.288486 0.500000 0.141707
O O11 0.339744 0.222410 0.136961
O O12 0.250000 0.250000 0.000000
O O13 0.586779 0.000000 0.835507
O O14 0.595419 0.787235 0.011599
O O15 0.554781 0.000000 0.141333
O O16 0.500000 0.783503 0.000000
#
# Coordination Sequence:
#
# PCOD9207769 Si02
#       7
#     4   4   8   8   4   8   8
#     4  12  23  36  69  92 122 177 214 248 324 367
#     4  12  20  42  62  87 128 169 208 262 302 377
#     4   9  20  41  63  84 122 162 201 256 319 372
#     4  11  22  39  61  91 125 156 210 268 317 382
#     4  10  23  43  60  92 127 160 216 264 301 386
#     4  11  21  37  63  89 122 166 199 250 324 371
#     4  10  21  37  59  92 127 158 206 260 308 373
#
# _framework density 18.894406
#
# number of rings (size 3 to 8) (size 9 to 14) (size 15 to 20)
#    0.545    0.909    4.545    1.636    0.000    2.909 
#    0.000    3.636    0.000    2.182    0.000    0.000 
#    0.000    0.000    0.000    0.000    0.000    0.000 
#
# Total GULP energy -122659.388133 kJ/mol
# GULP energy per Si atom -5575.426733 kJ/mol
# Density = 1.885140 g / cm^3
# Si number density = 18.894406 Si / 1000 Ang^3
#
#
#
# Elastic Constant Matrix: (Units=GPa)
#
#
# Indices 1 2 3 4 5 6 
#
# 1 49.6430 9.9505 46.2805 0.0000 -19.8100 0.0000
# 2 9.9505 88.3596 50.1794 0.0000 -4.3058 0.0000
# 3 46.2805 50.1794 143.2267 0.0000 -13.7052 0.0000
# 4 0.0000 0.0000 0.0000 12.7694 0.0000 -4.7867
# 5 -19.8100 -4.3058 -13.7052 0.0000 42.7006 0.0000
# 6 0.0000 0.0000 0.0000 -4.7867 0.0000 19.3499
#
#
#
# Elastic Compliance Matrix: (Units=1/GPa)
#
#
# Indices 1 2 3 4 5 6 
#
# 1 0.035149 0.003019 -0.011169 0.000000 0.013026 0.000000
# 2 0.003019 0.014389 -0.005926 0.000000 0.000950 0.000000
# 3 -0.011169 -0.005926 0.012498 0.000000 -0.001768 0.000000
# 4 0.000000 0.000000 0.000000 0.086317 0.000000 0.021353
# 5 0.013026 0.000950 -0.001768 0.000000 0.028991 0.000000
# 6 0.000000 0.000000 0.000000 0.021353 0.000000 0.056962
#
#
# Mechanical properties :
#
#
# Convention : Reuss Voigt Hill
#
# Bulk Modulus (GPa) = 29.51155 54.89445 42.20300
# Shear Modulus (GPa) = 18.26472 26.61857 22.44165
#
# Velocity S-wave (km/s) = 3.11251 3.75748 3.45010
# Velocity P-wave (km/s) = 5.34510 6.92396 6.18511
#
# Compressibility (1/GPa) = 0.03388504
#
# Stress axis : x y z
#
# Youngs Moduli (GPa) = 28.45004 69.49759 80.01314
#
# Poissons Ratio (x) = -0.20984 0.89367
# Poissons Ratio (y) = -0.08590 0.47415
# Poissons Ratio (z) = 0.31776 0.41184
#
# Static dielectric constant tensor:
#      x y z
#    x 1.661770 0.000000 -0.028290 
#    y 0.000000 1.675390 0.000000 
#    z -0.028290 0.000000 1.661390 
# 
# From -- ./inp_files/108266.got.cif
#   From: 2010.05.17/outbox.cif.g08.bks.cpg/sg12_55_cif.got.tgz:108266.got - 2010.06.03 13:09:07.
