data_PCOD9207929
_publ_section_title
;
Structure prediction by ZEFSAII (Michael W. Deem and Ramdas Pophale) SiO2 
 PCOD9207929
Probable space group: C 2/M
;
_chemical_formula_sum "Si O2"
_cell_formula_units_Z 48
_cell_length_a 9.511757
_cell_length_b 18.027565
_cell_length_c 19.180972
_cell_angle_alpha 90.000000
_cell_angle_beta 45.605407
_cell_angle_gamma 90.000000
_cell_volume 2350.142443
_symmetry_space_group_name_H-M "C 2/M"
_symmetry_group_IT_number 12
_symmetry_cell_setting 'monoclinic'
loop_
_space_group_symop_operation_xyz
x,y,z
-x,y,-z
-x,-y,-z
x,-y,z
1/2+x,1/2+y,z
1/2-x,1/2+y,-z
1/2-x,1/2-y,-z
1/2+x,1/2-y,z
loop_
_atom_site_type_symbol
_atom_site_label
_atom_site_fract_x
_atom_site_fract_y
_atom_site_fract_z
Si Si1 0.451554 0.326656 0.204567
Si Si2 0.543588 0.089380 0.801128
Si Si3 0.128895 0.912570 0.892453
Si Si4 0.456080 0.410364 0.592568
Si Si5 0.725212 0.088236 0.398400
Si Si6 0.882078 0.299686 0.112377
O O1 0.473593 0.395257 0.144192
O O2 0.287922 0.355168 0.315705
O O3 0.653627 0.309111 0.173054
O O4 0.404009 0.261566 0.165803
O O5 0.353577 0.114037 0.822636
O O6 0.745924 0.114937 0.694850
O O7 0.535720 0.125845 0.879792
O O8 0.547126 0.000000 0.804472
O O9 0.140826 0.000000 0.897057
O O10 0.000000 0.881296 0.000000
O O11 0.500000 0.381355 0.500000
O O12 0.442440 0.500000 0.592181
O O13 0.629235 0.395897 0.587349
O O14 0.500000 0.096724 0.500000
O O15 0.752150 0.000000 0.369402
O O16 0.000000 0.284567 0.000000
#
# Coordination Sequence:
#
# PCOD9207929 Si02
#       6
#     8   8   8   8   8   8
#     4  12  24  42  62  90 128 170 218 263 315 383
#     4  10  21  39  63  94 126 162 212 266 322 379
#     4  10  21  37  60  91 125 163 209 261 316 375
#     4   9  18  35  61  92 123 155 196 252 315 377
#     4  10  22  41  67  99 128 162 209 262 322 381
#     4  12  25  42  65  90 127 175 218 266 318 379
#
# _framework density 20.424292999999999
#
# number of rings (size 3 to 8) (size 9 to 14) (size 15 to 20)
#    0.000    1.500    1.667    3.500    2.333    1.000 
#    0.000    1.667    0.000    0.000    0.000    0.000 
#    0.000    0.000    0.000    0.000    0.000    0.000 
#
# Total GULP energy -133956.470618 kJ/mol
# GULP energy per Si atom -5581.519609 kJ/mol
# Density = 2.037781 g / cm^3
# Si number density = 20.424293 Si / 1000 Ang^3
#
#
#
# Elastic Constant Matrix: (Units=GPa)
#
#
# Indices 1 2 3 4 5 6 
#
# 1 80.0187 24.9596 16.6133 -0.0004 -4.8220 0.0003
# 2 24.9596 43.8112 41.3596 0.0005 0.9099 -0.0002
# 3 16.6133 41.3596 100.8212 0.0002 6.7885 0.0002
# 4 -0.0004 0.0005 0.0002 23.8078 -0.0001 20.7171
# 5 -4.8220 0.9099 6.7885 -0.0001 38.5136 0.0000
# 6 0.0003 -0.0002 0.0002 20.7171 0.0000 8.7522
#
#
#
# Elastic Compliance Matrix: (Units=1/GPa)
#
#
# Indices 1 2 3 4 5 6 
#
# 1 0.015518 -0.010355 0.001562 -0.000001 0.001912 0.000002
# 2 -0.010355 0.044290 -0.016501 0.000002 0.000566 -0.000004
# 3 0.001562 -0.016501 0.016588 -0.000001 -0.002338 0.000001
# 4 -0.000001 0.000002 -0.000001 -0.039634 0.000000 0.093816
# 5 0.001912 0.000566 -0.002338 0.000000 0.026603 0.000000
# 6 0.000002 -0.000004 0.000001 0.093816 0.000000 -0.107813
#
#
# Mechanical properties :
#
#
# Convention : Reuss Voigt Hill
#
# Bulk Modulus (GPa) = 38.74725 43.39069 41.06897
# Shear Modulus (GPa) = 339.14256 23.66263 181.40260
#
# Velocity S-wave (km/s) = 12.89996 3.40745 9.43451
# Velocity P-wave (km/s) = 15.52067 6.06397 11.78267
#
# Compressibility (1/GPa) = 0.02580828
#
# Stress axis : x y z
#
# Youngs Moduli (GPa) = 64.44135 22.57823 60.28562
#
# Poissons Ratio (x) = 0.23380 -0.09418
# Poissons Ratio (y) = 0.66730 0.99477
# Poissons Ratio (z) = -0.10067 0.37256
#
# Static dielectric constant tensor:
#      x y z
#    x 1.676660 0.000000 0.006500 
#    y 0.000000 1.783490 0.000000 
#    z 0.006500 0.000000 1.724350 
# 
# From -- ./inp_files/196912.got.cif
#   From: 2010.05.17/outbox.cif.g08.bks.cpg/sg12_99_cif.got.tgz:196912.got - 2010.06.03 13:09:07.
