data_PCOD9207658
_publ_section_title
;
Structure prediction by ZEFSAII (Michael W. Deem and Ramdas Pophale) SiO2 
 PCOD9207658
Probable space group: C 2/M
;
_chemical_formula_sum "Si O2"
_cell_formula_units_Z 48
_cell_length_a 13.909926
_cell_length_b 15.661663
_cell_length_c 22.703808
_cell_angle_alpha 90.000000
_cell_angle_beta 152.603540
_cell_angle_gamma 90.000000
_cell_volume 2275.915018
_symmetry_space_group_name_H-M "C 2/M"
_symmetry_group_IT_number 12
_symmetry_cell_setting 'monoclinic'
loop_
_space_group_symop_operation_xyz
x,y,z
-x,y,-z
-x,-y,-z
x,-y,z
1/2+x,1/2+y,z
1/2-x,1/2+y,-z
1/2-x,1/2-y,-z
1/2+x,1/2-y,z
loop_
_atom_site_type_symbol
_atom_site_label
_atom_site_fract_x
_atom_site_fract_y
_atom_site_fract_z
Si Si1 0.574280 0.908374 0.736111
Si Si2 0.947197 0.731393 0.370910
Si Si3 0.019072 0.185052 0.190887
Si Si4 0.420699 0.594808 0.522588
Si Si5 0.164573 0.816159 0.037828
Si Si6 0.710453 0.907108 0.575708
O O1 0.615105 0.826145 0.718283
O O2 0.329221 0.906696 0.615755
O O3 0.710821 0.896467 0.868304
O O4 0.625404 0.000000 0.735015
O O5 0.591989 0.611065 0.275148
O O6 0.743232 0.731098 0.301921
O O7 0.006051 0.829426 0.395323
O O8 0.839698 0.243541 0.121710
O O9 0.355317 0.177142 0.496637
O O10 0.938132 0.163129 0.081232
O O11 0.500000 0.614397 0.500000
O O12 0.496979 0.500000 0.579866
O O13 0.000000 0.791925 0.000000
O O14 0.500000 0.915442 0.500000
O O15 0.735240 0.000000 0.558327
#
# Coordination Sequence:
#
# PCOD9207658 Si02
#       6
#     8   8   8   8   8   8
#     4  11  23  37  59  94 126 158 203 252 305 366
#     4  11  19  37  61  91 126 160 194 251 309 364
#     4  10  22  38  62  87 117 165 214 246 306 363
#     4  10  21  37  59  87 121 159 200 244 302 368
#     4  11  22  41  59  85 117 166 209 259 297 356
#     4   9  18  33  58  90 122 155 195 243 301 365
#
# _framework density 21.090418
#
# number of rings (size 3 to 8) (size 9 to 14) (size 15 to 20)
#    0.000    1.667    1.667    4.500    0.000    1.667 
#    0.000    0.000    0.000    1.500    0.000    0.000 
#    0.000    0.000    0.000    0.000    0.000    0.000 
#
# Total GULP energy -133833.586587 kJ/mol
# GULP energy per Si atom -5576.399441 kJ/mol
# Density = 2.104242 g / cm^3
# Si number density = 21.090418 Si / 1000 Ang^3
#
#
#
# Elastic Constant Matrix: (Units=GPa)
#
#
# Indices 1 2 3 4 5 6 
#
# 1 70.2457 10.2904 25.2396 -0.0007 1.5789 -0.0001
# 2 10.2904 142.9130 60.2125 0.0044 -16.0821 0.0037
# 3 25.2396 60.2125 119.6755 0.0089 -14.4318 0.0060
# 4 -0.0007 0.0044 0.0089 9.5507 -0.0002 -14.4559
# 5 1.5789 -16.0821 -14.4318 -0.0002 35.2002 0.0003
# 6 -0.0001 0.0037 0.0060 -14.4559 0.0003 -85.6503
#
#
#
# Elastic Compliance Matrix: (Units=1/GPa)
#
#
# Indices 1 2 3 4 5 6 
#
# 1 0.015559 0.000168 -0.003620 0.000003 -0.002105 -0.000001
# 2 0.000168 0.009069 -0.004313 0.000000 0.002368 0.000000
# 3 -0.003620 -0.004313 0.011647 -0.000006 0.002967 0.000002
# 4 0.000003 0.000000 -0.000006 0.083399 -0.000002 -0.014076
# 5 -0.002105 0.002368 0.002967 -0.000002 0.030802 0.000001
# 6 -0.000001 0.000000 0.000002 -0.014076 0.000001 -0.009300
#
#
# Mechanical properties :
#
#
# Convention : Reuss Voigt Hill
#
# Bulk Modulus (GPa) = 48.20285 58.25768 53.23027
# Shear Modulus (GPa) = 30.55873 7.62625 19.09249
#
# Velocity S-wave (km/s) = 3.81062 1.90364 3.01203
# Velocity P-wave (km/s) = 6.50124 5.70215 6.11476
#
# Compressibility (1/GPa) = 0.02074566
#
# Stress axis : x y z
#
# Youngs Moduli (GPa) = 64.27118 110.27070 85.85941
#
# Poissons Ratio (x) = -0.01851 0.31079
# Poissons Ratio (y) = -0.01079 0.37028
# Poissons Ratio (z) = 0.23265 0.47555
#
# Static dielectric constant tensor:
#      x y z
#    x 1.820040 0.000000 -0.039630 
#    y 0.000000 1.809540 0.000000 
#    z -0.039630 0.000000 1.771120 
# 
# From -- ./inp_files/340218.got.cif
#   From: 2010.05.17/outbox.cif.g08.bks.cpg/sg12_171_cif.got.tgz:340218.got - 2010.06.03 13:09:07.
