data_PCOD9207831
_publ_section_title
;
Structure prediction by ZEFSAII (Michael W. Deem and Ramdas Pophale) SiO2 
 PCOD9207831
Probable space group: C 2/M
;
_chemical_formula_sum "Si O2"
_cell_formula_units_Z 56
_cell_length_a 19.638913
_cell_length_b 12.467761
_cell_length_c 11.435774
_cell_angle_alpha 90.000000
_cell_angle_beta 97.394313
_cell_angle_gamma 90.000000
_cell_volume 2776.801015
_symmetry_space_group_name_H-M "C 2/M"
_symmetry_group_IT_number 12
_symmetry_cell_setting 'monoclinic'
loop_
_space_group_symop_operation_xyz
x,y,z
-x,y,-z
-x,-y,-z
x,-y,z
1/2+x,1/2+y,z
1/2-x,1/2+y,-z
1/2-x,1/2-y,-z
1/2+x,1/2-y,z
loop_
_atom_site_type_symbol
_atom_site_label
_atom_site_fract_x
_atom_site_fract_y
_atom_site_fract_z
Si Si1 0.330111 0.126212 0.466537
Si Si2 0.824824 0.184283 0.635610
Si Si3 0.075905 0.381426 0.963669
Si Si4 0.697549 0.377199 0.864077
Si Si5 0.417342 0.765750 0.276851
Si Si6 0.468553 0.614231 0.620996
Si Si7 0.676587 0.284013 0.104765
O O1 0.251611 0.141925 0.404523
O O2 0.330719 0.194198 0.587228
O O3 0.382045 0.180300 0.383219
O O4 0.344811 0.000000 0.483340
O O5 0.887357 0.125833 0.586419
O O6 0.842120 0.169135 0.775054
O O7 0.105995 0.500000 0.985468
O O8 0.078004 0.350250 0.827881
O O9 0.119535 0.294992 0.042472
O O10 0.000000 0.380740 0.000000
O O11 0.711985 0.500000 0.834561
O O12 0.632127 0.329999 0.780564
O O13 0.757216 0.290415 0.855007
O O14 0.688818 0.367460 0.002911
O O15 0.492315 0.714122 0.312457
O O16 0.500000 0.610878 0.500000
O O17 0.483207 0.500000 0.684837
#
# Coordination Sequence:
#
# PCOD9207831 Si02
#       7
#     8   8   8   8   8   8   8
#     4  11  24  41  64  92 126 168 205 256 318 366
#     4  11  23  44  61  93 126 159 211 261 304 375
#     4  10  21  37  60  87 120 163 201 247 310 368
#     4  10  21  37  60  89 121 157 198 251 312 365
#     4  11  21  42  61  91 125 160 204 258 303 376
#     4  11  23  40  64  89 121 165 204 252 309 365
#     4  10  21  38  59  89 119 156 203 255 302 363
#
# _framework density 20.167093000000001
#
# number of rings (size 3 to 8) (size 9 to 14) (size 15 to 20)
#    0.000    1.429    2.857    2.571    0.000    2.286 
#    0.000    2.143    0.000    4.714    0.000    0.000 
#    0.000    0.000    0.000    0.000    0.000    0.000 
#
# Total GULP energy -156247.629529 kJ/mol
# GULP energy per Si atom -5580.272483 kJ/mol
# Density = 2.012119 g / cm^3
# Si number density = 20.167093 Si / 1000 Ang^3
#
#
#
# Elastic Constant Matrix: (Units=GPa)
#
#
# Indices 1 2 3 4 5 6 
#
# 1 59.5356 3.2666 -16.4622 0.0000 -4.6817 0.0000
# 2 3.2666 72.3926 -17.6660 0.0000 0.7589 0.0000
# 3 -16.4622 -17.6660 29.4798 0.0000 -12.5339 0.0000
# 4 0.0000 0.0000 0.0000 15.1831 0.0000 -7.1943
# 5 -4.6817 0.7589 -12.5339 0.0000 28.8379 0.0000
# 6 0.0000 0.0000 0.0000 -7.1943 0.0000 14.3912
#
#
#
# Elastic Compliance Matrix: (Units=1/GPa)
#
#
# Indices 1 2 3 4 5 6 
#
# 1 0.023319 0.003877 0.020745 0.000000 0.012700 0.000000
# 2 0.003877 0.017348 0.015499 0.000000 0.006909 0.000000
# 3 0.020745 0.015499 0.068758 0.000000 0.032844 0.000000
# 4 0.000000 0.000000 0.000000 0.086307 0.000000 0.043145
# 5 0.012700 0.006909 0.032844 0.000000 0.050832 0.000000
# 6 0.000000 0.000000 0.000000 0.043145 0.000000 0.091056
#
#
# Mechanical properties :
#
#
# Convention : Reuss Voigt Hill
#
# Bulk Modulus (GPa) = 5.27243 11.07609 8.17426
# Shear Modulus (GPa) = 15.59573 24.50041 20.04807
#
# Velocity S-wave (km/s) = 2.78389 3.48928 3.15635
# Velocity P-wave (km/s) = 3.59909 4.66235 4.16479
#
# Compressibility (1/GPa) = 0.18966574
#
# Stress axis : x y z
#
# Youngs Moduli (GPa) = 42.88395 57.64234 14.54377
#
# Poissons Ratio (x) = -0.22348 -0.30171
# Poissons Ratio (y) = -0.16626 -0.22541
# Poissons Ratio (z) = -0.88961 -0.89338
#
# Static dielectric constant tensor:
#      x y z
#    x 1.757890 0.000000 -0.001550 
#    y 0.000000 1.711900 0.000000 
#    z -0.001550 0.000000 1.704030 
# 
# From -- ./inp_files/165028.got.cif
#   From: 2010.05.17/outbox.cif.g08.bks.cpg/sg12_83_cif.got.tgz:165028.got - 2010.06.03 13:09:07.
