data_PCOD9207232
_publ_section_title
;
Structure prediction by ZEFSAII (Michael W. Deem and Ramdas Pophale) SiO2 
 PCOD9207232
Probable space group: C 2/M
;
_chemical_formula_sum "Si O2"
_cell_formula_units_Z 64
_cell_length_a 33.102738
_cell_length_b 8.763009
_cell_length_c 25.187560
_cell_angle_alpha 90.000000
_cell_angle_beta 26.454631
_cell_angle_gamma 90.000000
_cell_volume 3254.919758
_symmetry_space_group_name_H-M "C 2/M"
_symmetry_group_IT_number 12
_symmetry_cell_setting 'monoclinic'
loop_
_space_group_symop_operation_xyz
x,y,z
-x,y,-z
-x,-y,-z
x,-y,z
1/2+x,1/2+y,z
1/2-x,1/2+y,-z
1/2-x,1/2-y,-z
1/2+x,1/2-y,z
loop_
_atom_site_type_symbol
_atom_site_label
_atom_site_fract_x
_atom_site_fract_y
_atom_site_fract_z
Si Si1 0.134576 0.682911 0.491946
Si Si2 0.426433 0.816429 0.749752
Si Si3 0.931510 0.678827 0.031871
Si Si4 0.384275 0.316427 0.910299
Si Si5 0.967258 0.819784 0.183062
Si Si6 0.792148 0.684413 0.814464
Si Si7 0.271996 0.181294 0.416545
Si Si8 0.778703 0.818533 0.713917
O O1 0.138817 0.500000 0.490489
O O2 0.203164 0.753362 0.453998
O O3 0.164503 0.735751 0.398348
O O4 0.031240 0.732176 0.624634
O O5 0.379386 0.751063 0.857548
O O6 0.373026 0.772985 0.759298
O O7 0.423610 0.000000 0.756231
O O8 0.935294 0.500000 0.010872
O O9 0.828435 0.712374 0.169172
O O10 0.000000 0.698760 0.000000
O O11 0.964565 0.783872 0.945127
O O12 0.381816 0.500000 0.910108
O O13 0.479095 0.272569 0.826818
O O14 0.301167 0.269795 0.046051
O O15 0.874858 0.729543 0.282701
O O16 0.947816 0.000000 0.208731
O O17 0.791108 0.500000 0.809440
O O18 0.800112 0.760082 0.747757
O O19 0.250000 0.250000 0.500000
O O20 0.264036 0.000000 0.427386
O O21 0.792636 0.000000 0.693891
#
# Coordination Sequence:
#
# PCOD9207232 Si02
#       8
#     8   8   8   8   8   8   8   8
#     4  11  24  43  64  90 123 165 212 261 313 370
#     4  10  23  40  63  90 119 161 210 257 314 372
#     4  10  21  37  57  84 118 155 198 248 303 359
#     4  10  21  37  61  92 126 159 199 253 312 370
#     4  11  22  37  60  91 121 158 201 245 305 367
#     4  10  21  41  63  89 125 164 205 255 312 373
#     4  12  25  42  63  90 125 166 209 256 307 366
#     4  11  23  39  62  92 125 165 208 257 312 367
#
# _framework density 19.662542999999999
#
# number of rings (size 3 to 8) (size 9 to 14) (size 15 to 20)
#    0.000    1.375    1.250    4.125    0.000    7.250 
#    0.000    2.500    0.000    0.000    0.000    0.000 
#    0.000    0.000    0.000    0.000    0.000    0.000 
#
# Total GULP energy -178962.133283 kJ/mol
# GULP energy per Si atom -5592.566665 kJ/mol
# Density = 1.961779 g / cm^3
# Si number density = 19.662543 Si / 1000 Ang^3
#
#
#
# Elastic Constant Matrix: (Units=GPa)
#
#
# Indices 1 2 3 4 5 6 
#
# 1 121.0571 32.6333 32.7862 -0.0141 0.0994 -0.0016
# 2 32.6333 50.1040 25.9541 -0.0282 -0.8311 0.0038
# 3 32.7862 25.9541 77.2518 -0.0257 4.3152 -0.0009
# 4 -0.0141 -0.0282 -0.0257 26.4121 0.0084 10.8901
# 5 0.0994 -0.8311 4.3152 0.0084 35.9611 0.0004
# 6 -0.0016 0.0038 -0.0009 10.8901 0.0004 29.4349
#
#
#
# Elastic Compliance Matrix: (Units=1/GPa)
#
#
# Indices 1 2 3 4 5 6 
#
# 1 0.010434 -0.005442 -0.002609 -0.000004 0.000158 0.000003
# 2 -0.005442 0.027087 -0.006873 0.000024 0.001466 -0.000013
# 3 -0.002609 -0.006873 0.016480 0.000009 -0.002129 -0.000002
# 4 -0.000004 0.000024 0.000009 0.044677 -0.000011 -0.016529
# 5 0.000158 0.001466 -0.002129 -0.000011 0.028097 0.000003
# 6 0.000003 -0.000013 -0.000002 -0.016529 0.000003 0.040089
#
#
# Mechanical properties :
#
#
# Convention : Reuss Voigt Hill
#
# Bulk Modulus (GPa) = 41.40050 47.90667 44.65359
# Shear Modulus (GPa) = 24.41870 28.83090 26.62480
#
# Velocity S-wave (km/s) = 3.52787 3.83336 3.68378
# Velocity P-wave (km/s) = 6.13968 6.63402 6.39163
#
# Compressibility (1/GPa) = 0.02415430
#
# Stress axis : x y z
#
# Youngs Moduli (GPa) = 95.84141 36.91780 60.68018
#
# Poissons Ratio (x) = 0.20090 0.15830
# Poissons Ratio (y) = 0.52154 0.41704
# Poissons Ratio (z) = 0.25003 0.25373
#
# Static dielectric constant tensor:
#      x y z
#    x 1.668670 0.000000 -0.014000 
#    y 0.000000 1.670630 0.000000 
#    z -0.014000 0.000000 1.693360 
# 
# From -- ./inp_files/353362.got.cif
#   From: 2010.05.17/outbox.cif.g08.bks.cpg/sg12_177_cif.got.tgz:353362.got - 2010.06.03 13:09:07.
