data_PCOD9207723
_publ_section_title
;
Structure prediction by ZEFSAII (Michael W. Deem and Ramdas Pophale) SiO2 
 PCOD9207723
Probable space group: C 2/M
;
_chemical_formula_sum "Si O2"
_cell_formula_units_Z 56
_cell_length_a 28.119557
_cell_length_b 17.129230
_cell_length_c 18.983556
_cell_angle_alpha 90.000000
_cell_angle_beta 17.996370
_cell_angle_gamma 90.000000
_cell_volume 2825.020188
_symmetry_space_group_name_H-M "C 2/M"
_symmetry_group_IT_number 12
_symmetry_cell_setting 'monoclinic'
loop_
_space_group_symop_operation_xyz
x,y,z
-x,y,-z
-x,-y,-z
x,-y,z
1/2+x,1/2+y,z
1/2-x,1/2+y,-z
1/2-x,1/2-y,-z
1/2+x,1/2-y,z
loop_
_atom_site_type_symbol
_atom_site_label
_atom_site_fract_x
_atom_site_fract_y
_atom_site_fract_z
Si Si1 0.995655 0.657540 0.678095
Si Si2 0.887633 0.307758 0.093321
Si Si3 0.076088 0.164030 0.603501
Si Si4 0.241557 0.091550 0.937082
Si Si5 0.702327 0.638778 0.829547
Si Si6 0.541214 0.909153 0.757366
Si Si7 0.881754 0.089896 0.306881
O O1 0.026124 0.747495 0.655987
O O2 0.152107 0.622196 0.424466
O O3 0.956519 0.614041 0.805363
O O4 0.862599 0.643788 0.808916
O O5 0.735326 0.349600 0.338397
O O6 0.831692 0.230494 0.131758
O O7 0.000000 0.286649 0.000000
O O8 0.980223 0.360707 0.908836
O O9 0.107467 0.148371 0.641993
O O10 0.930402 0.109318 0.792590
O O11 0.278398 0.000000 0.891843
O O12 0.240846 0.114901 0.855503
O O13 0.539453 0.598490 0.041824
O O14 0.723565 0.892710 0.490153
O O15 0.523512 0.000000 0.796858
O O16 0.874227 0.000000 0.343632
#
# Coordination Sequence:
#
# PCOD9207723 Si02
#       7
#     8   8   8   8   8   8   8
#     4  11  24  40  62  91 123 163 203 253 300 359
#     4  11  23  40  63  91 124 162 202 252 306 361
#     4  10  21  39  64  90 118 158 211 252 297 355
#     4  11  23  43  67  89 123 162 204 253 306 361
#     4  10  23  38  64  92 118 160 205 247 302 366
#     4  11  24  38  58  90 127 164 203 248 304 365
#     4  10  21  37  59  89 125 161 199 250 305 362
#
# _framework density 19.822868
#
# number of rings (size 3 to 8) (size 9 to 14) (size 15 to 20)
#    0.000    1.429    1.429    4.714    4.000    5.429 
#    0.000    3.571    0.000    1.714    0.000    0.000 
#    0.000    0.000    0.000    0.000    0.000    0.000 
#
# Total GULP energy -156396.625176 kJ/mol
# GULP energy per Si atom -5585.593756 kJ/mol
# Density = 1.977775 g / cm^3
# Si number density = 19.822868 Si / 1000 Ang^3
#
#
#
# Elastic Constant Matrix: (Units=GPa)
#
#
# Indices 1 2 3 4 5 6 
#
# 1 53.9412 21.8339 16.5998 -0.0004 -3.3558 -0.0013
# 2 21.8339 50.1838 1.0893 -0.0027 4.0576 -0.0060
# 3 16.5998 1.0893 68.5120 -0.0014 -1.3716 -0.0035
# 4 -0.0004 -0.0027 -0.0014 33.0900 -0.0021 20.7942
# 5 -3.3558 4.0576 -1.3716 -0.0021 12.7257 -0.0045
# 6 -0.0013 -0.0060 -0.0035 20.7942 -0.0045 105.2336
#
#
#
# Elastic Compliance Matrix: (Units=1/GPa)
#
#
# Indices 1 2 3 4 5 6 
#
# 1 0.025774 -0.011892 -0.005856 0.000000 0.009957 0.000000
# 2 -0.011892 0.025955 0.002245 0.000001 -0.011170 0.000001
# 3 -0.005856 0.002245 0.015968 0.000000 -0.000539 0.000000
# 4 0.000000 0.000001 0.000000 0.034505 0.000003 -0.006818
# 5 0.009957 -0.011170 -0.000539 0.000003 0.084710 0.000002
# 6 0.000000 0.000001 0.000000 -0.006818 0.000002 0.010850
#
#
# Mechanical properties :
#
#
# Convention : Reuss Voigt Hill
#
# Bulk Modulus (GPa) = 27.25454 27.96480 27.60967
# Shear Modulus (GPa) = 20.74697 39.08414 29.91555
#
# Velocity S-wave (km/s) = 3.23866 4.44517 3.88898
# Velocity P-wave (km/s) = 5.26916 6.36270 5.84158
#
# Compressibility (1/GPa) = 0.03669114
#
# Stress axis : x y z
#
# Youngs Moduli (GPa) = 38.79909 38.52831 62.62357
#
# Poissons Ratio (x) = 0.45816 0.36675
# Poissons Ratio (y) = 0.46138 -0.14059
# Poissons Ratio (z) = 0.22722 -0.08649
#
# Static dielectric constant tensor:
#      x y z
#    x 1.661530 0.000000 -0.009490 
#    y 0.000000 1.688350 0.000000 
#    z -0.009490 0.000000 1.715440 
# 
# From -- ./inp_files/293831.got.cif
#   From: 2010.05.17/outbox.cif.g08.bks.cpg/sg12_147_cif.got.tgz:293831.got - 2010.06.03 13:09:07.
