data_PCOD9207526
_publ_section_title
;
Structure prediction by ZEFSAII (Michael W. Deem and Ramdas Pophale) SiO2 
 PCOD9207526
Probable space group: C 2/M
;
_chemical_formula_sum "Si O2"
_cell_formula_units_Z 42
_cell_length_a 18.909636
_cell_length_b 7.587857
_cell_length_c 14.343643
_cell_angle_alpha 90.000000
_cell_angle_beta 53.104555
_cell_angle_gamma 90.000000
_cell_volume 1645.911423
_symmetry_space_group_name_H-M "C 2/M"
_symmetry_group_IT_number 12
_symmetry_cell_setting 'monoclinic'
loop_
_space_group_symop_operation_xyz
x,y,z
-x,y,-z
-x,-y,-z
x,-y,z
1/2+x,1/2+y,z
1/2-x,1/2+y,-z
1/2-x,1/2-y,-z
1/2+x,1/2-y,z
loop_
_atom_site_type_symbol
_atom_site_label
_atom_site_fract_x
_atom_site_fract_y
_atom_site_fract_z
Si Si1 0.736042 0.297969 0.351706
Si Si2 0.500000 0.500000 0.500000
Si Si3 0.569857 0.795153 0.803213
Si Si4 0.119196 0.285333 0.052271
Si Si5 0.194909 0.294505 0.186718
Si Si6 0.568591 0.807272 0.581366
O O1 0.747345 0.500000 0.374199
O O2 0.832994 0.218905 0.256115
O O3 0.685703 0.300408 0.292246
O O4 0.672782 0.201920 0.473331
O O5 0.524029 0.653582 0.558876
O O6 0.475308 0.723091 0.910685
O O7 0.560531 0.791821 0.698598
O O8 0.574105 0.000000 0.832855
O O9 0.118686 0.500000 0.052998
O O10 0.137605 0.229024 0.144637
O O11 0.203834 0.226697 0.927282
O O12 0.176460 0.500000 0.215990
O O13 0.533679 0.000000 0.582888
#
# Coordination Sequence:
#
# PCOD9207526 Si02
#       6
#     8   2   8   8   8   8
#     4  11  22  40  63  92 126 169 216 259 318 389
#     4  12  26  44  64 106 124 168 224 256 320 388
#     4   9  21  40  65  90 124 170 213 261 321 382
#     4   9  19  39  61  84 116 161 210 264 325 382
#     4  10  21  37  58  89 122 161 208 266 329 378
#     4  11  24  44  66  96 135 168 208 266 319 376
#
# _framework density 25.517776999999999
#
# number of rings (size 3 to 8) (size 9 to 14) (size 15 to 20)
#    0.000    1.905    0.952    2.000    2.667    1.524 
#    5.143    3.810    0.000    0.000    0.000    0.000 
#    0.000    0.000    0.000    0.000    0.000    0.000 
#
# Total GULP energy -117313.949679 kJ/mol
# GULP energy per Si atom -5586.378556 kJ/mol
# Density = 2.545970 g / cm^3
# Si number density = 25.517777 Si / 1000 Ang^3
#
#
#
# Elastic Constant Matrix: (Units=GPa)
#
#
# Indices 1 2 3 4 5 6 
#
# 1 102.9599 21.0852 41.1073 -0.0001 -22.3897 0.0000
# 2 21.0852 122.9695 -13.6572 -0.0005 8.3828 0.0000
# 3 41.1073 -13.6572 72.5204 -0.0003 -31.1523 0.0000
# 4 -0.0001 -0.0005 -0.0003 -10.1272 0.0002 3.5385
# 5 -22.3897 8.3828 -31.1523 0.0002 58.7302 0.0000
# 6 0.0000 0.0000 0.0000 3.5385 0.0000 15.5806
#
#
#
# Elastic Compliance Matrix: (Units=1/GPa)
#
#
# Indices 1 2 3 4 5 6 
#
# 1 0.013864 -0.003354 -0.007789 0.000000 0.001633 0.000000
# 2 -0.003354 0.009127 0.003252 0.000000 -0.000856 0.000000
# 3 -0.007789 0.003252 0.022459 -0.000001 0.008480 0.000000
# 4 0.000000 0.000000 -0.000001 -0.091485 0.000000 0.020777
# 5 0.001633 -0.000856 0.008480 0.000000 0.022269 0.000000
# 6 0.000000 0.000000 0.000000 0.020777 0.000000 0.059464
#
#
# Mechanical properties :
#
#
# Convention : Reuss Voigt Hill
#
# Bulk Modulus (GPa) = 33.70563 43.94672 38.82617
# Shear Modulus (GPa) = 81.47405 29.49769 55.48587
#
# Velocity S-wave (km/s) = 5.65665 3.40364 4.66811
# Velocity P-wave (km/s) = 7.47669 5.71889 6.65607
#
# Compressibility (1/GPa) = 0.02966864
#
# Stress axis : x y z
#
# Youngs Moduli (GPa) = 72.12881 109.56918 44.52514
#
# Poissons Ratio (x) = 0.36745 0.34680
# Poissons Ratio (y) = 0.24189 -0.14479
# Poissons Ratio (z) = 0.56181 -0.35630
#
# Static dielectric constant tensor:
#      x y z
#    x 2.014730 0.000000 -0.069600 
#    y 0.000000 2.019360 0.000000 
#    z -0.069600 0.000000 2.013700 
# 
# From -- ./inp_files/280018.got.cif
#   From: 2010.05.17/outbox.cif.g08.bks.cpg/sg12_141_cif.got.tgz:280018.got - 2010.06.03 13:09:07.
