data_PCOD9207345
_publ_section_title
;
Structure prediction by ZEFSAII (Michael W. Deem and Ramdas Pophale) SiO2 
 PCOD9207345
Probable space group: C 2/M
;
_chemical_formula_sum "Si O2"
_cell_formula_units_Z 56
_cell_length_a 8.428170
_cell_length_b 16.886371
_cell_length_c 22.658261
_cell_angle_alpha 90.000000
_cell_angle_beta 126.899015
_cell_angle_gamma 90.000000
_cell_volume 2578.817204
_symmetry_space_group_name_H-M "C 2/M"
_symmetry_group_IT_number 12
_symmetry_cell_setting 'monoclinic'
loop_
_space_group_symop_operation_xyz
x,y,z
-x,y,-z
-x,-y,-z
x,-y,z
1/2+x,1/2+y,z
1/2-x,1/2+y,-z
1/2-x,1/2-y,-z
1/2+x,1/2-y,z
loop_
_atom_site_type_symbol
_atom_site_label
_atom_site_fract_x
_atom_site_fract_y
_atom_site_fract_z
Si Si1 0.990397 0.090225 0.933265
Si Si2 0.109920 0.314163 0.583263
Si Si3 0.692531 0.906146 0.084262
Si Si4 0.874477 0.355870 0.213938
Si Si5 0.006006 0.907301 0.363923
Si Si6 0.188187 0.652298 0.374243
Si Si7 0.221120 0.688520 0.211384
O O1 0.779944 0.089790 0.854269
O O2 0.135822 0.127662 0.919040
O O3 0.064839 0.000000 0.957586
O O4 0.000000 0.127675 0.000000
O O5 0.265326 0.380661 0.595191
O O6 0.253394 0.241507 0.634266
O O7 0.000000 0.283803 0.500000
O O8 0.937396 0.337519 0.592294
O O9 0.698921 0.854167 0.143895
O O10 0.723598 0.000000 0.106553
O O11 0.500000 0.902425 0.000000
O O12 0.771469 0.280694 0.220625
O O13 0.025588 0.389994 0.295947
O O14 0.010744 0.319931 0.194356
O O15 0.899140 0.889370 0.403894
O O16 0.879025 0.858837 0.287035
O O17 0.989719 0.000000 0.349330
#
# Coordination Sequence:
#
# PCOD9207345 Si02
#       7
#     8   8   8   8   8   8   8
#     4  10  22  39  60  91 130 167 212 269 327 389
#     4  12  24  43  76 104 135 184 232 277 345 418
#     4  10  21  37  58  83 118 165 208 254 318 386
#     4  11  22  38  64  91 123 165 216 269 322 388
#     4  11  26  44  67 102 141 178 225 287 349 406
#     4  11  23  43  70 102 136 180 234 282 332 414
#     4  11  22  39  62  89 125 164 213 273 329 392
#
# _framework density 21.715382000000002
#
# number of rings (size 3 to 8) (size 9 to 14) (size 15 to 20)
#    0.000    1.143    2.857    3.429    2.000    5.429 
#    0.000    3.571    0.000    0.000    0.000    0.000 
#    0.000    0.000    0.000    0.000    0.000    0.000 
#
# Total GULP energy -156049.834322 kJ/mol
# GULP energy per Si atom -5573.208369 kJ/mol
# Density = 2.166596 g / cm^3
# Si number density = 21.715382 Si / 1000 Ang^3
#
#
#
# Elastic Constant Matrix: (Units=GPa)
#
#
# Indices 1 2 3 4 5 6 
#
# 1 150.3833 0.7362 14.5860 0.0000 -9.8757 0.0000
# 2 0.7362 54.4554 -6.7226 0.0000 6.0004 0.0000
# 3 14.5860 -6.7226 61.9009 0.0000 -12.5504 0.0000
# 4 0.0000 0.0000 0.0000 13.6588 0.0000 -6.5843
# 5 -9.8757 6.0004 -12.5504 0.0000 33.2169 0.0000
# 6 0.0000 0.0000 0.0000 -6.5843 0.0000 18.9996
#
#
#
# Elastic Compliance Matrix: (Units=1/GPa)
#
#
# Indices 1 2 3 4 5 6 
#
# 1 0.006888 -0.000437 -0.001342 0.000000 0.001620 0.000000
# 2 -0.000437 0.018887 0.001555 0.000000 -0.002954 0.000000
# 3 -0.001342 0.001555 0.017871 0.000000 0.006072 0.000000
# 4 0.000000 0.000000 0.000000 0.087897 0.000000 0.030461
# 5 0.001620 -0.002954 0.006072 0.000000 0.033415 0.000000
# 6 0.000000 0.000000 0.000000 0.030461 0.000000 0.063189
#
#
# Mechanical properties :
#
#
# Convention : Reuss Voigt Hill
#
# Bulk Modulus (GPa) = 23.14912 31.54873 27.34893
# Shear Modulus (GPa) = 20.57656 30.38438 25.48047
#
# Velocity S-wave (km/s) = 3.08158 3.74466 3.42918
# Velocity P-wave (km/s) = 4.83166 5.76684 5.31984
#
# Compressibility (1/GPa) = 0.04319818
#
# Stress axis : x y z
#
# Youngs Moduli (GPa) = 145.17214 52.94621 55.95600
#
# Poissons Ratio (x) = 0.02315 0.07510
# Poissons Ratio (y) = 0.06348 -0.08703
# Poissons Ratio (z) = 0.19485 -0.08235
#
# Static dielectric constant tensor:
#      x y z
#    x 1.853860 0.000000 -0.022960 
#    y 0.000000 1.761900 0.000000 
#    z -0.022960 0.000000 1.982800 
# 
# From -- ./inp_files/333385.got.cif
#   From: 2010.05.17/outbox.cif.g08.bks.cpg/sg12_167_cif.got.tgz:333385.got - 2010.06.03 13:09:07.
