data_PCOD9207724
_publ_section_title
;
Structure prediction by ZEFSAII (Michael W. Deem and Ramdas Pophale) SiO2 
 PCOD9207724
Probable space group: C 2/M
;
_chemical_formula_sum "Si O2"
_cell_formula_units_Z 48
_cell_length_a 7.812016
_cell_length_b 24.496195
_cell_length_c 10.460598
_cell_angle_alpha 90.000000
_cell_angle_beta 103.638430
_cell_angle_gamma 90.000000
_cell_volume 1945.344546
_symmetry_space_group_name_H-M "C 2/M"
_symmetry_group_IT_number 12
_symmetry_cell_setting 'monoclinic'
loop_
_space_group_symop_operation_xyz
x,y,z
-x,y,-z
-x,-y,-z
x,-y,z
1/2+x,1/2+y,z
1/2-x,1/2+y,-z
1/2-x,1/2-y,-z
1/2+x,1/2-y,z
loop_
_atom_site_type_symbol
_atom_site_label
_atom_site_fract_x
_atom_site_fract_y
_atom_site_fract_z
Si Si1 0.301278 0.676159 0.000403
Si Si2 0.032435 0.182184 0.721685
Si Si3 0.372279 0.796839 0.275816
Si Si4 0.909189 0.941216 0.347439
Si Si5 0.830463 0.559672 0.065962
Si Si6 0.517517 0.087207 0.353875
O O1 0.149093 0.700766 0.884179
O O2 0.289990 0.611184 0.981677
O O3 0.500000 0.693855 0.000000
O O4 0.302295 0.686029 0.150499
O O5 0.070700 0.239034 0.656121
O O6 0.032087 0.118292 0.688882
O O7 0.829106 0.190476 0.724056
O O8 0.495201 0.847049 0.339586
O O9 0.702296 0.934160 0.334774
O O10 0.000000 0.945448 0.500000
O O11 0.942719 0.000000 0.286031
O O12 0.755627 0.500000 0.027838
O O13 0.882035 0.564357 0.224767
O O14 0.000000 0.565623 0.000000
O O15 0.500000 0.071928 0.500000
#
# Coordination Sequence:
#
# PCOD9207724 Si02
#       6
#     8   8   8   8   8   8
#     4   9  20  36  56  88 126 162 206 259 315 376
#     4  11  21  40  65  92 128 168 212 262 321 381
#     4  10  22  39  64  96 128 165 211 265 320 380
#     4  11  25  43  63  89 123 165 212 261 315 378
#     4  10  21  37  59  89 125 167 214 261 311 372
#     4  11  23  42  65  94 128 167 213 265 323 380
#
# _framework density 24.674292999999999
#
# number of rings (size 3 to 8) (size 9 to 14) (size 15 to 20)
#    0.000    1.667    0.000    4.000    0.000    5.667 
#    0.000   15.000    0.000    0.000    0.000    0.000 
#    0.000    0.000    0.000    0.000    0.000    0.000 
#
# Total GULP energy -133853.629532 kJ/mol
# GULP energy per Si atom -5577.234564 kJ/mol
# Density = 2.461813 g / cm^3
# Si number density = 24.674293 Si / 1000 Ang^3
#
#
#
# Elastic Constant Matrix: (Units=GPa)
#
#
# Indices 1 2 3 4 5 6 
#
# 1 45.8262 34.8044 -10.3701 0.0000 2.9262 0.0000
# 2 34.8044 251.5541 29.5071 0.0000 -2.4041 0.0000
# 3 -10.3701 29.5071 93.3431 0.0000 0.9933 0.0000
# 4 0.0000 0.0000 0.0000 -8.0276 0.0000 -8.5270
# 5 2.9262 -2.4041 0.9933 0.0000 23.6809 0.0000
# 6 0.0000 0.0000 0.0000 -8.5270 0.0000 30.9112
#
#
#
# Elastic Compliance Matrix: (Units=1/GPa)
#
#
# Indices 1 2 3 4 5 6 
#
# 1 0.026192 -0.004161 0.004266 0.000000 -0.003838 0.000000
# 2 -0.004161 0.004795 -0.001989 0.000000 0.001084 0.000000
# 3 0.004266 -0.001989 0.011829 0.000000 -0.001225 0.000000
# 4 0.000000 0.000000 0.000000 -0.096341 0.000000 -0.026576
# 5 -0.003838 0.001084 -0.001225 0.000000 0.042864 0.000000
# 6 0.000000 0.000000 0.000000 -0.026576 0.000000 0.025020
#
#
# Mechanical properties :
#
#
# Convention : Reuss Voigt Hill
#
# Bulk Modulus (GPa) = 25.61005 55.40070 40.50537
# Shear Modulus (GPa) = 160.55035 31.76504 96.15769
#
# Velocity S-wave (km/s) = 8.07522 3.59189 6.24943
# Velocity P-wave (km/s) = 9.86647 6.30109 8.27801
#
# Compressibility (1/GPa) = 0.03904717
#
# Stress axis : x y z
#
# Youngs Moduli (GPa) = 38.17925 208.56281 84.53766
#
# Poissons Ratio (x) = 0.86783 -0.36064
# Poissons Ratio (y) = 0.15886 0.16819
# Poissons Ratio (z) = -0.16287 0.41493
#
# Static dielectric constant tensor:
#      x y z
#    x 1.944930 0.000000 -0.168230 
#    y 0.000000 2.057710 0.000000 
#    z -0.168230 0.000000 1.950460 
# 
# From -- ./inp_files/122548.got.cif
#   From: 2010.05.17/outbox.cif.g08.bks.cpg/sg12_62_cif.got.tgz:122548.got - 2010.06.03 13:09:07.
