data_PCOD9207531
_publ_section_title
;
Structure prediction by ZEFSAII (Michael W. Deem and Ramdas Pophale) SiO2 
 PCOD9207531
Probable space group: C 2/M
;
_chemical_formula_sum "Si O2"
_cell_formula_units_Z 64
_cell_length_a 8.722845
_cell_length_b 17.173203
_cell_length_c 19.063627
_cell_angle_alpha 90.000000
_cell_angle_beta 69.214325
_cell_angle_gamma 90.000000
_cell_volume 2669.849951
_symmetry_space_group_name_H-M "C 2/M"
_symmetry_group_IT_number 12
_symmetry_cell_setting 'monoclinic'
loop_
_space_group_symop_operation_xyz
x,y,z
-x,y,-z
-x,-y,-z
x,-y,z
1/2+x,1/2+y,z
1/2-x,1/2+y,-z
1/2-x,1/2-y,-z
1/2+x,1/2-y,z
loop_
_atom_site_type_symbol
_atom_site_label
_atom_site_fract_x
_atom_site_fract_y
_atom_site_fract_z
Si Si1 0.390462 0.403021 0.673519
Si Si2 0.618558 0.908184 0.600876
Si Si3 0.600178 0.710498 0.915803
Si Si4 0.199284 0.413791 0.299773
Si Si5 0.127880 0.606824 0.918450
Si Si6 0.850761 0.169838 0.469188
Si Si7 0.554358 0.364088 0.185614
Si Si8 0.129915 0.416599 0.154702
O O1 0.401878 0.500000 0.677352
O O2 0.243713 0.384505 0.642918
O O3 0.557197 0.361935 0.615694
O O4 0.356477 0.360667 0.753478
O O5 0.436363 0.869967 0.631256
O O6 0.717349 0.893260 0.514210
O O7 0.595733 0.000000 0.613060
O O8 0.641723 0.799908 0.920868
O O9 0.499689 0.702888 0.859624
O O10 0.755206 0.654380 0.884845
O O11 0.500000 0.684118 0.000000
O O12 0.226005 0.500000 0.324806
O O13 0.377492 0.391549 0.242496
O O14 0.099569 0.414755 0.242189
O O15 0.318935 0.584363 0.881325
O O16 0.033782 0.585366 0.863226
O O17 0.000000 0.583064 0.000000
O O18 0.750000 0.250000 0.500000
O O19 0.000000 0.171172 0.500000
O O20 0.215227 0.500000 0.126708
#
# Coordination Sequence:
#
# PCOD9207531 Si02
#       8
#     8   8   8   8   8   8   8   8
#     4  10  21  40  65  96 130 168 217 269 321 378
#     4   9  18  38  67  90 119 172 218 252 308 387
#     4  10  22  43  65  87 122 171 218 264 329 410
#     4   9  19  36  58  87 122 161 203 258 322 381
#     4  11  23  41  64  90 124 168 219 270 333 402
#     4  10  22  41  62  94 132 173 209 262 313 374
#     4  11  22  37  61  95 123 164 216 280 320 379
#     4  10  21  37  58  89 125 159 204 262 327 391
#
# _framework density 23.971384
#
# number of rings (size 3 to 8) (size 9 to 14) (size 15 to 20)
#    0.000    2.000    0.000    3.000    0.000    7.500 
#   11.250    3.750    0.000    3.000    0.000    0.000 
#    0.000    0.000    0.000    0.000    0.000    0.000 
#
# Total GULP energy -178198.555993 kJ/mol
# GULP energy per Si atom -5568.704875 kJ/mol
# Density = 2.391682 g / cm^3
# Si number density = 23.971384 Si / 1000 Ang^3
#
#
#
# Elastic Constant Matrix: (Units=GPa)
#
#
# Indices 1 2 3 4 5 6 
#
# 1 81.0134 10.7883 44.8765 0.0000 -32.2828 0.0000
# 2 10.7883 85.2181 23.9969 0.0000 -20.7378 0.0000
# 3 44.8765 23.9969 133.8246 0.0000 -31.0505 0.0000
# 4 0.0000 0.0000 0.0000 -25.4649 0.0000 17.5909
# 5 -32.2828 -20.7378 -31.0505 0.0000 45.9468 0.0000
# 6 0.0000 0.0000 0.0000 17.5909 0.0000 8.3609
#
#
#
# Elastic Compliance Matrix: (Units=1/GPa)
#
#
# Indices 1 2 3 4 5 6 
#
# 1 0.018809 0.001461 -0.003973 0.000000 0.011190 0.000000
# 2 0.001461 0.013451 -0.001488 0.000000 0.006091 0.000000
# 3 -0.003973 -0.001488 0.009806 0.000000 0.003163 0.000000
# 4 0.000000 0.000000 0.000000 -0.016006 0.000000 0.033677
# 5 0.011190 0.006091 0.003163 0.000000 0.034513 0.000000
# 6 0.000000 0.000000 0.000000 0.033677 0.000000 0.048751
#
#
# Mechanical properties :
#
#
# Convention : Reuss Voigt Hill
#
# Bulk Modulus (GPa) = 29.35644 51.04218 40.19931
# Shear Modulus (GPa) = 38.85612 20.46151 29.65881
#
# Velocity S-wave (km/s) = 4.03045 2.92478 3.52129
# Velocity P-wave (km/s) = 5.82516 5.72232 5.77397
#
# Compressibility (1/GPa) = 0.03406408
#
# Stress axis : x y z
#
# Youngs Moduli (GPa) = 53.16645 74.34291 101.98236
#
# Poissons Ratio (x) = -0.10859 0.40517
# Poissons Ratio (y) = -0.07766 0.15180
# Poissons Ratio (z) = 0.21123 0.11066
#
# Static dielectric constant tensor:
#      x y z
#    x 2.029100 0.000000 -0.069250 
#    y 0.000000 1.973010 0.000000 
#    z -0.069250 0.000000 1.978630 
# 
# From -- ./inp_files/301722.got.cif
#   From: 2010.05.17/outbox.cif.g08.bks.cpg/sg12_151_cif.got.tgz:301722.got - 2010.06.03 13:09:07.
