data_PCOD9207737
_publ_section_title
;
Structure prediction by ZEFSAII (Michael W. Deem and Ramdas Pophale) SiO2 
 PCOD9207737
Probable space group: C 2/M
;
_chemical_formula_sum "Si O2"
_cell_formula_units_Z 56
_cell_length_a 19.324850
_cell_length_b 8.370785
_cell_length_c 17.012369
_cell_angle_alpha 90.000000
_cell_angle_beta 121.159758
_cell_angle_gamma 90.000000
_cell_volume 2354.956010
_symmetry_space_group_name_H-M "C 2/M"
_symmetry_group_IT_number 12
_symmetry_cell_setting 'monoclinic'
loop_
_space_group_symop_operation_xyz
x,y,z
-x,y,-z
-x,-y,-z
x,-y,z
1/2+x,1/2+y,z
1/2-x,1/2+y,-z
1/2-x,1/2-y,-z
1/2+x,1/2-y,z
loop_
_atom_site_type_symbol
_atom_site_label
_atom_site_fract_x
_atom_site_fract_y
_atom_site_fract_z
Si Si1 0.333997 0.808262 0.223114
Si Si2 0.169688 0.315647 0.490912
Si Si3 0.096575 0.678405 0.064627
Si Si4 0.583392 0.317709 0.220132
Si Si5 0.997700 0.304933 0.407501
Si Si6 0.397003 0.308188 0.100861
Si Si7 0.248597 0.816550 0.680395
O O1 0.418736 0.756332 0.313771
O O2 0.340226 0.750973 0.137477
O O3 0.266052 0.728750 0.237465
O O4 0.326483 0.000000 0.221602
O O5 0.165754 0.500000 0.469571
O O6 0.250000 0.250000 0.500000
O O7 0.082052 0.244421 0.420241
O O8 0.187602 0.292355 0.594254
O O9 0.127102 0.500000 0.104483
O O10 0.100423 0.806524 0.136421
O O11 0.126233 0.735132 0.997078
O O12 0.000000 0.661668 0.000000
O O13 0.590081 0.500000 0.251045
O O14 0.491014 0.259336 0.176194
O O15 0.659730 0.216189 0.294489
O O16 0.998440 0.500000 0.407277
O O17 0.000000 0.255466 0.500000
O O18 0.397190 0.500000 0.095382
O O19 0.228224 0.000000 0.654663
#
# Coordination Sequence:
#
# PCOD9207737 Si02
#       7
#     8   8   8   8   8   8   8
#     4  11  22  39  62  86 117 157 198 244 296 352
#     4  11  23  41  62  88 119 154 195 245 298 351
#     4   9  17  33  58  88 119 154 195 238 288 350
#     4  10  21  38  61  88 120 158 196 244 297 347
#     4   9  18  37  62  84 110 151 196 237 288 349
#     4  10  21  37  59  90 122 153 195 244 291 347
#     4  12  25  41  59  85 120 159 199 245 297 352
#
# _framework density 23.779639
#
# number of rings (size 3 to 8) (size 9 to 14) (size 15 to 20)
#    0.000    1.714    1.429    3.429    2.000    3.429 
#    0.000    3.571    0.000    0.000    0.000    0.000 
#    0.000    0.000    0.000    0.000    0.000    0.000 
#
# Total GULP energy -156526.427284 kJ/mol
# GULP energy per Si atom -5590.229546 kJ/mol
# Density = 2.372552 g / cm^3
# Si number density = 23.779639 Si / 1000 Ang^3
#
#
#
# Elastic Constant Matrix: (Units=GPa)
#
#
# Indices 1 2 3 4 5 6 
#
# 1 114.8086 11.8357 -0.2128 0.0000 -9.3907 0.0000
# 2 11.8357 58.0114 -6.6467 0.0000 3.9563 0.0000
# 3 -0.2128 -6.6467 29.3772 0.0000 -16.8579 0.0000
# 4 0.0000 0.0000 0.0000 26.9070 0.0000 -5.7755
# 5 -9.3907 3.9563 -16.8579 0.0000 43.4499 0.0000
# 6 0.0000 0.0000 0.0000 -5.7755 0.0000 29.4164
#
#
#
# Elastic Compliance Matrix: (Units=1/GPa)
#
#
# Indices 1 2 3 4 5 6 
#
# 1 0.009120 -0.001909 0.001113 0.000000 0.002577 0.000000
# 2 -0.001909 0.018096 0.003728 0.000000 -0.000614 0.000000
# 3 0.001113 0.003728 0.044812 0.000000 0.017287 0.000000
# 4 0.000000 0.000000 0.000000 0.038800 0.000000 0.007618
# 5 0.002577 -0.000614 0.017287 0.000000 0.030335 0.000000
# 6 0.000000 0.000000 0.000000 0.007618 0.000000 0.035490
#
#
# Mechanical properties :
#
#
# Convention : Reuss Voigt Hill
#
# Bulk Modulus (GPa) = 12.83822 23.57217 18.20520
# Shear Modulus (GPa) = 25.41254 33.10273 29.25763
#
# Velocity S-wave (km/s) = 3.27260 3.73508 3.51146
# Velocity P-wave (km/s) = 4.43739 5.34185 4.91049
#
# Compressibility (1/GPa) = 0.07789243
#
# Stress axis : x y z
#
# Youngs Moduli (GPa) = 109.65219 55.25937 22.31554
#
# Poissons Ratio (x) = 0.10548 -0.02483
# Poissons Ratio (y) = 0.20931 -0.08320
# Poissons Ratio (z) = -0.12201 -0.20603
#
# Static dielectric constant tensor:
#      x y z
#    x 1.935550 0.000000 0.022720 
#    y 0.000000 1.828080 0.000000 
#    z 0.022720 0.000000 2.006460 
# 
# From -- ./inp_files/275481.got.cif
#   From: 2010.05.17/outbox.cif.g08.bks.cpg/sg12_138_cif.got.tgz:275481.got - 2010.06.03 13:09:07.
