data_PCOD9207239
_publ_section_title
;
Structure prediction by ZEFSAII (Michael W. Deem and Ramdas Pophale) SiO2 
 PCOD9207239
Probable space group: C 2/M
;
_chemical_formula_sum "Si O2"
_cell_formula_units_Z 56
_cell_length_a 30.524956
_cell_length_b 8.255682
_cell_length_c 11.448549
_cell_angle_alpha 90.000000
_cell_angle_beta 67.035027
_cell_angle_gamma 90.000000
_cell_volume 2656.422408
_symmetry_space_group_name_H-M "C 2/M"
_symmetry_group_IT_number 12
_symmetry_cell_setting 'monoclinic'
loop_
_space_group_symop_operation_xyz
x,y,z
-x,y,-z
-x,-y,-z
x,-y,z
1/2+x,1/2+y,z
1/2-x,1/2+y,-z
1/2-x,1/2-y,-z
1/2+x,1/2-y,z
loop_
_atom_site_type_symbol
_atom_site_label
_atom_site_fract_x
_atom_site_fract_y
_atom_site_fract_z
Si Si1 0.629802 0.185406 0.341092
Si Si2 0.300105 0.814717 0.297648
Si Si3 0.023818 0.689027 0.094386
Si Si4 0.802851 0.810903 0.549502
Si Si5 0.028452 0.697736 0.352935
Si Si6 0.374664 0.681521 0.050260
Si Si7 0.198521 0.812860 0.087369
O O1 0.648754 0.285572 0.430700
O O2 0.582870 0.245803 0.323977
O O3 0.673257 0.199486 0.206916
O O4 0.621301 0.000000 0.385688
O O5 0.245352 0.764648 0.329064
O O6 0.303639 0.795718 0.432920
O O7 0.342634 0.716189 0.196303
O O8 0.305738 0.000000 0.253534
O O9 0.009502 0.500000 0.113437
O O10 0.013755 0.754782 0.237249
O O11 0.080601 0.703294 0.016815
O O12 0.000000 0.758570 0.000000
O O13 0.796823 0.000000 0.524854
O O14 0.026568 0.500000 0.350266
O O15 0.000000 0.747097 0.500000
O O16 0.394501 0.500000 0.033108
O O17 0.336400 0.691884 0.986831
O O18 0.200750 0.000000 0.127629
O O19 0.250000 0.750000 0.000000
#
# Coordination Sequence:
#
# PCOD9207239 Si02
#       7
#     8   8   8   8   8   8   8
#     4  11  21  35  59  86 117 156 199 248 305 366
#     4  10  21  37  58  83 116 160 204 246 296 364
#     4  10  21  39  64  90 117 157 209 262 315 378
#     4  10  21  37  57  84 121 159 199 249 301 362
#     4   9  19  37  60  87 119 155 201 259 314 368
#     4  11  23  38  58  85 120 157 197 250 311 370
#     4  11  23  37  57  86 121 160 201 246 301 366
#
# _framework density 21.080984000000001
#
# number of rings (size 3 to 8) (size 9 to 14) (size 15 to 20)
#    0.000    1.714    1.429    3.000    0.000    7.143 
#    0.000    2.857    0.000    3.857    0.000    0.000 
#    0.000    0.000    0.000    0.000    0.000    0.000 
#
# Total GULP energy -156203.198165 kJ/mol
# GULP energy per Si atom -5578.685649 kJ/mol
# Density = 2.103300 g / cm^3
# Si number density = 21.080984 Si / 1000 Ang^3
#
#
#
# Elastic Constant Matrix: (Units=GPa)
#
#
# Indices 1 2 3 4 5 6 
#
# 1 106.3801 9.4728 42.6887 0.0000 17.8947 0.0000
# 2 9.4728 22.3405 -3.4067 0.0000 4.5334 0.0000
# 3 42.6887 -3.4067 97.9310 0.0000 7.5524 0.0000
# 4 0.0000 0.0000 0.0000 18.8966 0.0000 -0.2008
# 5 17.8947 4.5334 7.5524 0.0000 24.8138 0.0000
# 6 0.0000 0.0000 0.0000 -0.2008 0.0000 24.4044
#
#
#
# Elastic Compliance Matrix: (Units=1/GPa)
#
#
# Indices 1 2 3 4 5 6 
#
# 1 0.013173 -0.004996 -0.005380 0.000000 -0.006950 0.000000
# 2 -0.004996 0.048903 0.004393 0.000000 -0.006669 0.000000
# 3 -0.005380 0.004393 0.012772 0.000000 -0.000810 0.000000
# 4 0.000000 0.000000 0.000000 0.052924 0.000000 0.000436
# 5 -0.006950 -0.006669 -0.000810 0.000000 0.046777 0.000000
# 6 0.000000 0.000000 0.000000 0.000436 0.000000 0.040980
#
#
# Mechanical properties :
#
#
# Convention : Reuss Voigt Hill
#
# Bulk Modulus (GPa) = 15.90262 36.01792 25.96027
# Shear Modulus (GPa) = 20.12434 25.48273 22.80354
#
# Velocity S-wave (km/s) = 3.09305 3.48055 3.29251
# Velocity P-wave (km/s) = 4.50731 5.76844 5.17643
#
# Compressibility (1/GPa) = 0.06288270
#
# Stress axis : x y z
#
# Youngs Moduli (GPa) = 75.91235 20.44856 78.29778
#
# Poissons Ratio (x) = 0.10216 0.42125
# Poissons Ratio (y) = 0.37924 -0.34397
# Poissons Ratio (z) = 0.40841 -0.08983
#
# Static dielectric constant tensor:
#      x y z
#    x 1.770050 0.000000 0.052760 
#    y 0.000000 1.752320 0.000000 
#    z 0.052760 0.000000 1.794100 
# 
# From -- ./inp_files/180726.got.cif
#   From: 2010.05.17/outbox.cif.g08.bks.cpg/sg12_91_cif.got.tgz:180726.got - 2010.06.03 13:09:07.
