data_PCOD9207648
_publ_section_title
;
Structure prediction by ZEFSAII (Michael W. Deem and Ramdas Pophale) SiO2 
 PCOD9207648
Probable space group: C 2/M
;
_chemical_formula_sum "Si O2"
_cell_formula_units_Z 56
_cell_length_a 24.004533
_cell_length_b 8.880204
_cell_length_c 15.361901
_cell_angle_alpha 90.000000
_cell_angle_beta 61.285562
_cell_angle_gamma 90.000000
_cell_volume 2871.925705
_symmetry_space_group_name_H-M "C 2/M"
_symmetry_group_IT_number 12
_symmetry_cell_setting 'monoclinic'
loop_
_space_group_symop_operation_xyz
x,y,z
-x,y,-z
-x,-y,-z
x,-y,z
1/2+x,1/2+y,z
1/2-x,1/2+y,-z
1/2-x,1/2-y,-z
1/2+x,1/2-y,z
loop_
_atom_site_type_symbol
_atom_site_label
_atom_site_fract_x
_atom_site_fract_y
_atom_site_fract_z
Si Si1 0.237997 0.177145 0.787954
Si Si2 0.932601 0.174929 0.832669
Si Si3 0.135841 0.829101 0.293702
Si Si4 0.190354 0.678526 0.991610
Si Si5 0.286590 0.679634 0.389979
Si Si6 0.931606 0.669489 0.505848
Si Si7 0.932933 0.180368 0.318694
O O1 0.308956 0.211518 0.767408
O O2 0.194556 0.264315 0.888991
O O3 0.235651 0.230063 0.689316
O O4 0.223680 0.000000 0.800948
O O5 0.917366 0.181856 0.740611
O O6 0.006277 0.220226 0.786706
O O7 0.925318 0.000000 0.864825
O O8 0.877145 0.268987 0.919212
O O9 0.108737 0.786187 0.407524
O O10 0.160887 0.000000 0.272575
O O11 0.197030 0.500000 0.991219
O O12 0.250000 0.750000 0.000000
O O13 0.276506 0.500000 0.402787
O O14 0.250000 0.750000 0.500000
O O15 0.362270 0.707691 0.336523
O O16 0.903870 0.500000 0.530129
O O17 0.937381 0.726600 0.404045
O O18 0.000000 0.663911 0.500000
O O19 0.938616 0.000000 0.331622
#
# Coordination Sequence:
#
# PCOD9207648 Si02
#       7
#     8   8   8   8   8   8   8
#     4  11  23  40  62  89 122 158 202 251 300 356
#     4  10  21  37  59  87 119 154 196 247 302 358
#     4  11  21  34  56  85 117 155 197 241 298 360
#     4  12  24  39  62  91 124 161 201 249 305 362
#     4  10  23  42  65  91 120 160 206 251 297 353
#     4  11  22  33  50  81 120 155 192 239 298 361
#     4  10  21  40  62  84 116 158 204 250 301 359
#
# _framework density 19.499112
#
# number of rings (size 3 to 8) (size 9 to 14) (size 15 to 20)
#    0.000    1.286    2.857    3.429    0.000    5.714 
#    0.000    0.714    0.000    4.286    0.000    0.000 
#    0.000    0.000    0.000    0.000    0.000    0.000 
#
# Total GULP energy -156340.099260 kJ/mol
# GULP energy per Si atom -5583.574974 kJ/mol
# Density = 1.945473 g / cm^3
# Si number density = 19.499112 Si / 1000 Ang^3
#
#
#
# Elastic Constant Matrix: (Units=GPa)
#
#
# Indices 1 2 3 4 5 6 
#
# 1 78.4359 24.8801 31.5628 0.0000 -11.4582 0.0000
# 2 24.8801 72.7160 44.4236 0.0000 -4.6751 0.0000
# 3 31.5628 44.4236 115.9553 0.0000 -11.9572 0.0000
# 4 0.0000 0.0000 0.0000 32.0273 0.0000 -0.4350
# 5 -11.4582 -4.6751 -11.9572 0.0000 29.7079 0.0000
# 6 0.0000 0.0000 0.0000 -0.4350 0.0000 14.2507
#
#
#
# Elastic Compliance Matrix: (Units=1/GPa)
#
#
# Indices 1 2 3 4 5 6 
#
# 1 0.015490 -0.003549 -0.002398 0.000000 0.004451 0.000000
# 2 -0.003549 0.018768 -0.006323 0.000000 -0.000960 0.000000
# 3 -0.002398 -0.006323 0.011999 0.000000 0.002910 0.000000
# 4 0.000000 0.000000 0.000000 0.031236 0.000000 0.000953
# 5 0.004451 -0.000960 0.002910 0.000000 0.036398 0.000000
# 6 0.000000 0.000000 0.000000 0.000953 0.000000 0.070201
#
#
# Mechanical properties :
#
#
# Convention : Reuss Voigt Hill
#
# Bulk Modulus (GPa) = 46.04644 52.09335 49.06990
# Shear Modulus (GPa) = 23.16201 26.27988 24.72095
#
# Velocity S-wave (km/s) = 3.45026 3.67515 3.56448
# Velocity P-wave (km/s) = 6.28795 6.69199 6.49311
#
# Compressibility (1/GPa) = 0.02171721
#
# Stress axis : x y z
#
# Youngs Moduli (GPa) = 64.55738 53.28349 83.33944
#
# Poissons Ratio (x) = 0.18910 0.19983
# Poissons Ratio (y) = 0.22912 0.52696
# Poissons Ratio (z) = 0.15479 0.33691
#
# Static dielectric constant tensor:
#      x y z
#    x 1.694480 0.000000 -0.021510 
#    y 0.000000 1.670530 0.000000 
#    z -0.021510 0.000000 1.690640 
# 
# From -- ./inp_files/238403.got.cif
#   From: 2010.05.17/outbox.cif.g08.bks.cpg/sg12_120_cif.got.tgz:238403.got - 2010.06.03 13:09:07.
