data_PCOD9207495
_publ_section_title
;
Structure prediction by ZEFSAII (Michael W. Deem and Ramdas Pophale) SiO2 
 PCOD9207495
Probable space group: C 2/M
;
_chemical_formula_sum "Si O2"
_cell_formula_units_Z 64
_cell_length_a 14.719662
_cell_length_b 8.846821
_cell_length_c 28.861197
_cell_angle_alpha 90.000000
_cell_angle_beta 61.378561
_cell_angle_gamma 90.000000
_cell_volume 3299.110575
_symmetry_space_group_name_H-M "C 2/M"
_symmetry_group_IT_number 12
_symmetry_cell_setting 'monoclinic'
loop_
_space_group_symop_operation_xyz
x,y,z
-x,y,-z
-x,-y,-z
x,-y,z
1/2+x,1/2+y,z
1/2-x,1/2+y,-z
1/2-x,1/2-y,-z
1/2+x,1/2-y,z
loop_
_atom_site_type_symbol
_atom_site_label
_atom_site_fract_x
_atom_site_fract_y
_atom_site_fract_z
Si Si1 0.424199 0.679466 0.301247
Si Si2 0.335513 0.322453 0.226967
Si Si3 0.103998 0.825573 0.944784
Si Si4 0.890800 0.317896 0.504155
Si Si5 0.013281 0.323799 0.879391
Si Si6 0.326083 0.180691 0.416273
Si Si7 0.362927 0.180299 0.788101
Si Si8 0.690690 0.679068 0.098420
O O1 0.439509 0.500000 0.302355
O O2 0.340176 0.703405 0.280680
O O3 0.385469 0.749139 0.358462
O O4 0.530399 0.754103 0.257635
O O5 0.362132 0.500000 0.212532
O O6 0.423441 0.221778 0.181702
O O7 0.227698 0.293869 0.227506
O O8 0.085022 0.723975 0.904441
O O9 0.205720 0.760993 0.944202
O O10 0.121664 0.000000 0.926898
O O11 0.000000 0.817572 0.000000
O O12 0.882102 0.500000 0.510740
O O13 0.790834 0.243374 0.552267
O O14 0.881029 0.280623 0.451892
O O15 0.000000 0.271870 0.500000
O O16 0.989088 0.500000 0.885845
O O17 0.908935 0.227039 0.906586
O O18 0.324091 0.000000 0.412771
O O19 0.332576 0.259508 0.843876
O O20 0.371313 0.000000 0.793932
O O21 0.703383 0.500000 0.095793
#
# Coordination Sequence:
#
# PCOD9207495 Si02
#       8
#     8   8   8   8   8   8   8   8
#     4  11  23  39  59  86 124 165 203 248 302 363
#     4  10  22  39  60  85 120 160 201 247 300 362
#     4  11  25  45  67  92 124 160 202 256 312 367
#     4   9  19  38  63  86 114 157 204 246 301 367
#     4  12  24  39  65  93 122 160 202 250 304 365
#     4  10  21  37  58  87 121 155 197 254 305 354
#     4  11  22  38  61  88 119 157 202 250 301 359
#     4  12  24  40  64  92 124 160 202 249 304 369
#
# _framework density 19.399169000000001
#
# number of rings (size 3 to 8) (size 9 to 14) (size 15 to 20)
#    0.000    1.250    2.500    3.750    0.000    4.250 
#    0.000    5.000    0.000    0.000    0.000    0.000 
#    0.000    0.000    0.000    0.000    0.000    0.000 
#
# Total GULP energy -178916.282913 kJ/mol
# GULP energy per Si atom -5591.133841 kJ/mol
# Density = 1.935502 g / cm^3
# Si number density = 19.399169 Si / 1000 Ang^3
#
#
#
# Elastic Constant Matrix: (Units=GPa)
#
#
# Indices 1 2 3 4 5 6 
#
# 1 82.8448 10.6306 -7.8386 0.0000 -9.3880 0.0000
# 2 10.6306 58.4747 11.8237 0.0000 -2.7978 0.0000
# 3 -7.8386 11.8237 41.6118 0.0000 -5.4396 0.0000
# 4 0.0000 0.0000 0.0000 30.0157 0.0000 -7.4471
# 5 -9.3880 -2.7978 -5.4396 0.0000 17.6637 0.0000
# 6 0.0000 0.0000 0.0000 -7.4471 0.0000 28.2060
#
#
#
# Elastic Compliance Matrix: (Units=1/GPa)
#
#
# Indices 1 2 3 4 5 6 
#
# 1 0.013828 -0.003038 0.004549 0.000000 0.008269 0.000000
# 2 -0.003038 0.018842 -0.005988 0.000000 -0.000474 0.000000
# 3 0.004549 -0.005988 0.027905 0.000000 0.010063 0.000000
# 4 0.000000 0.000000 0.000000 0.035651 0.000000 0.009413
# 5 0.008269 -0.000474 0.010063 0.000000 0.064032 0.000000
# 6 0.000000 0.000000 0.000000 0.009413 0.000000 0.037939
#
#
# Mechanical properties :
#
#
# Convention : Reuss Voigt Hill
#
# Bulk Modulus (GPa) = 19.37187 23.57362 21.47274
# Shear Modulus (GPa) = 22.28575 26.39812 24.34194
#
# Velocity S-wave (km/s) = 3.39307 3.69289 3.54615
# Velocity P-wave (km/s) = 5.03569 5.51012 5.27824
#
# Compressibility (1/GPa) = 0.05162124
#
# Stress axis : x y z
#
# Youngs Moduli (GPa) = 72.31652 53.07341 35.83525
#
# Poissons Ratio (x) = 0.16124 -0.16302
# Poissons Ratio (y) = 0.21970 0.21458
# Poissons Ratio (z) = -0.32897 0.31781
#
# Static dielectric constant tensor:
#      x y z
#    x 1.675160 0.000000 0.013720 
#    y 0.000000 1.645830 0.000000 
#    z 0.013720 0.000000 1.652760 
# 
# From -- ./inp_files/338799.got.cif
#   From: 2010.05.17/outbox.cif.g08.bks.cpg/sg12_170_cif.got.tgz:338799.got - 2010.06.03 13:09:07.
