data_PCOD9207305
_publ_section_title
;
Structure prediction by ZEFSAII (Michael W. Deem and Ramdas Pophale) SiO2 
 PCOD9207305
Probable space group: C 2/M
;
_chemical_formula_sum "Si O2"
_cell_formula_units_Z 56
_cell_length_a 8.648783
_cell_length_b 25.364170
_cell_length_c 16.510681
_cell_angle_alpha 90.000000
_cell_angle_beta 43.739493
_cell_angle_gamma 90.000000
_cell_volume 2504.135451
_symmetry_space_group_name_H-M "C 2/M"
_symmetry_group_IT_number 12
_symmetry_cell_setting 'monoclinic'
loop_
_space_group_symop_operation_xyz
x,y,z
-x,y,-z
-x,-y,-z
x,-y,z
1/2+x,1/2+y,z
1/2-x,1/2+y,-z
1/2-x,1/2-y,-z
1/2+x,1/2-y,z
loop_
_atom_site_type_symbol
_atom_site_label
_atom_site_fract_x
_atom_site_fract_y
_atom_site_fract_z
Si Si1 0.297052 0.000000 0.779991
Si Si2 0.646829 0.811867 0.134784
Si Si3 0.981129 0.399143 0.092077
Si Si4 0.823798 0.189346 0.492378
Si Si5 0.026036 0.784946 0.860972
Si Si6 0.449392 0.903260 0.614027
Si Si7 0.522875 0.638768 0.259047
Si Si8 0.766111 0.000000 0.000271
O O1 0.423463 0.049924 0.690185
O O2 0.286235 0.000000 0.882519
O O3 0.023474 0.000000 0.872233
O O4 0.581112 0.869404 0.131487
O O5 0.743924 0.805008 0.187017
O O6 0.447183 0.773417 0.184678
O O7 0.845407 0.792715 0.000285
O O8 0.716576 0.403232 0.203170
O O9 0.137409 0.448757 0.019009
O O10 0.000000 0.367639 0.000000
O O11 0.750000 0.250000 0.500000
O O12 0.620588 0.144861 0.573708
O O13 0.956547 0.167571 0.365414
O O14 0.000000 0.189268 0.500000
O O15 0.919660 0.816544 0.827468
O O16 0.500000 0.919982 0.500000
O O17 0.195525 0.884824 0.699492
#
# Coordination Sequence:
#
# PCOD9207305 Si02
#       8
#     4   8   8   8   8   8   8   4
#     4  11  25  48  76 105 146 189 246 304 374 425
#     4  10  22  35  60  89 140 179 232 279 342 435
#     4  12  24  43  65  99 142 189 239 289 356 431
#     4  11  26  48  75 110 146 184 244 304 366 434
#     4  10  21  37  57  96 132 181 226 284 349 428
#     4  10  24  47  75 105 138 192 244 300 359 433
#     4  11  24  41  72 101 141 191 233 294 366 427
#     4  11  29  44  71 110 144 193 244 308 362 431
#
# _framework density 22.363007
#
# number of rings (size 3 to 8) (size 9 to 14) (size 15 to 20)
#    0.000    1.286    1.429    3.429    6.000    6.286 
#    0.000    1.071    0.000    0.000    0.000    0.000 
#    0.000    0.000    0.000    0.000    0.000    0.000 
#
# Total GULP energy -156047.093941 kJ/mol
# GULP energy per Si atom -5573.110498 kJ/mol
# Density = 2.231211 g / cm^3
# Si number density = 22.363007 Si / 1000 Ang^3
#
#
#
# Elastic Constant Matrix: (Units=GPa)
#
#
# Indices 1 2 3 4 5 6 
#
# 1 152.7028 56.9470 32.1901 0.0000 -9.7935 0.0000
# 2 56.9470 106.0423 45.7750 0.0000 -11.9212 0.0000
# 3 32.1901 45.7750 95.3759 0.0000 -7.1149 0.0000
# 4 0.0000 0.0000 0.0000 71.2107 0.0000 11.5299
# 5 -9.7935 -11.9212 -7.1149 0.0000 37.6904 0.0000
# 6 0.0000 0.0000 0.0000 11.5299 0.0000 37.3508
#
#
#
# Elastic Compliance Matrix: (Units=1/GPa)
#
#
# Indices 1 2 3 4 5 6 
#
# 1 0.008259 -0.004003 -0.000812 0.000000 0.000727 0.000000
# 2 -0.004003 0.014117 -0.005242 0.000000 0.002435 0.000000
# 3 -0.000812 -0.005242 0.013323 0.000000 0.000646 0.000000
# 4 0.000000 0.000000 0.000000 0.014782 0.000000 -0.004563
# 5 0.000727 0.002435 0.000646 0.000000 0.027613 0.000000
# 6 0.000000 0.000000 0.000000 -0.004563 0.000000 0.028182
#
#
# Mechanical properties :
#
#
# Convention : Reuss Voigt Hill
#
# Bulk Modulus (GPa) = 64.16923 69.32724 66.74823
# Shear Modulus (GPa) = 37.99802 43.86431 40.93117
#
# Velocity S-wave (km/s) = 4.12654 4.43365 4.28285
# Velocity P-wave (km/s) = 7.17364 7.56821 7.37357
#
# Compressibility (1/GPa) = 0.01558379
#
# Stress axis : x y z
#
# Youngs Moduli (GPa) = 121.07461 70.83760 75.05709
#
# Poissons Ratio (x) = 0.28358 0.06095
# Poissons Ratio (y) = 0.48469 0.39349
# Poissons Ratio (z) = 0.09832 0.37136
#
# Static dielectric constant tensor:
#      x y z
#    x 2.033550 0.000000 -0.119190 
#    y 0.000000 1.921890 0.000000 
#    z -0.119190 0.000000 2.005880 
# 
# From -- ./inp_files/259818.got.cif
#   From: 2010.05.17/outbox.cif.g08.bks.cpg/sg12_130_cif.got.tgz:259818.got - 2010.06.03 13:09:07.
