data_PCOD9207103
_publ_section_title
;
Structure prediction by ZEFSAII (Michael W. Deem and Ramdas Pophale) SiO2 
 PCOD9207103
Probable space group: C 2/M
;
_chemical_formula_sum "Si O2"
_cell_formula_units_Z 52
_cell_length_a 28.269263
_cell_length_b 9.104044
_cell_length_c 20.160994
_cell_angle_alpha 90.000000
_cell_angle_beta 150.087329
_cell_angle_gamma 90.000000
_cell_volume 2587.511209
_symmetry_space_group_name_H-M "C 2/M"
_symmetry_group_IT_number 12
_symmetry_cell_setting 'monoclinic'
loop_
_space_group_symop_operation_xyz
x,y,z
-x,y,-z
-x,-y,-z
x,-y,z
1/2+x,1/2+y,z
1/2-x,1/2+y,-z
1/2-x,1/2-y,-z
1/2+x,1/2-y,z
loop_
_atom_site_type_symbol
_atom_site_label
_atom_site_fract_x
_atom_site_fract_y
_atom_site_fract_z
Si Si1 0.259913 0.834585 0.908385
Si Si2 0.979747 0.667031 0.210711
Si Si3 0.014793 0.823312 0.118804
Si Si4 0.206606 0.337490 0.717063
Si Si5 0.858753 0.324325 0.833657
Si Si6 0.000000 0.749101 0.500000
Si Si7 0.558642 0.338640 0.715104
O O1 0.246759 0.711275 0.837192
O O2 0.172648 0.817052 0.852745
O O3 0.247333 0.000000 0.863314
O O4 0.365368 0.830791 0.063882
O O5 0.012565 0.500000 0.240913
O O6 0.994842 0.723474 0.303658
O O7 0.017128 0.771057 0.197666
O O8 0.103433 0.756158 0.186106
O O9 0.008716 0.000000 0.105069
O O10 0.925510 0.743926 0.973310
O O11 0.238952 0.500000 0.738056
O O12 0.251700 0.221672 0.721107
O O13 0.093887 0.334264 0.589887
O O14 0.871008 0.500000 0.845659
O O15 0.968816 0.832879 0.395600
O O16 0.539021 0.500000 0.718593
#
# Coordination Sequence:
#
# PCOD9207103 Si02
#       7
#     8   8   8   8   8   4   8
#     4   9  19  34  52  78 114 152 188 230 287 347
#     4  11  21  34  54  83 119 154 186 232 293 348
#     4  11  21  35  56  85 118 153 194 233 280 346
#     4  11  21  35  58  85 115 153 197 242 284 337
#     4  11  21  35  56  84 119 155 189 234 290 342
#     4  10  24  42  60  84 114 152 198 246 292 336
#     4  10  21  37  57  80 109 151 198 241 286 341
#
# _framework density 20.096530999999999
#
# number of rings (size 3 to 8) (size 9 to 14) (size 15 to 20)
#    0.000    1.538    1.538    5.538    0.000    5.538 
#    0.000    0.000    0.000    0.923    0.000    0.000 
#    0.000    0.000    0.000    0.000    0.000    0.000 
#
# Total GULP energy -145030.201169 kJ/mol
# GULP energy per Si atom -5578.084660 kJ/mol
# Density = 2.005079 g / cm^3
# Si number density = 20.096531 Si / 1000 Ang^3
#
#
#
# Elastic Constant Matrix: (Units=GPa)
#
#
# Indices 1 2 3 4 5 6 
#
# 1 108.1567 58.7633 21.7092 0.0000 -1.1006 0.0000
# 2 58.7633 151.2172 13.9302 0.0000 2.0704 0.0000
# 3 21.7092 13.9302 33.2218 0.0000 1.8725 0.0000
# 4 0.0000 0.0000 0.0000 -0.3934 0.0000 -0.4908
# 5 -1.1006 2.0704 1.8725 0.0000 26.0072 0.0000
# 6 0.0000 0.0000 0.0000 -0.4908 0.0000 34.3764
#
#
#
# Elastic Compliance Matrix: (Units=1/GPa)
#
#
# Indices 1 2 3 4 5 6 
#
# 1 0.013036 -0.004465 -0.006725 0.000000 0.001391 0.000000
# 2 -0.004465 0.008411 -0.000563 0.000000 -0.000818 0.000000
# 3 -0.006725 -0.000563 0.034886 0.000000 -0.002752 0.000000
# 4 0.000000 0.000000 0.000000 -2.497483 0.000000 -0.035657
# 5 0.001391 -0.000818 -0.002752 0.000000 0.038773 0.000000
# 6 0.000000 0.000000 0.000000 -0.035657 0.000000 0.028581
#
#
# Mechanical properties :
#
#
# Convention : Reuss Voigt Hill
#
# Bulk Modulus (GPa) = 30.46204 53.48903 41.97553
# Shear Modulus (GPa) = -2.13735 25.21089 11.53677
#
# Velocity S-wave (km/s) = -1.03240 3.54572 2.39857
# Velocity P-wave (km/s) = 3.71075 6.59065 5.34819
#
# Compressibility (1/GPa) = 0.03282774
#
# Stress axis : x y z
#
# Youngs Moduli (GPa) = 76.71156 118.88763 28.66471
#
# Poissons Ratio (x) = 0.53087 0.19276
# Poissons Ratio (y) = 0.34254 0.01614
# Poissons Ratio (z) = 0.51585 0.06692
#
# Static dielectric constant tensor:
#      x y z
#    x 1.730770 0.000000 0.011890 
#    y 0.000000 1.724450 0.000000 
#    z 0.011890 0.000000 1.731840 
# 
# From -- ./inp_files/329305.got.cif
#   From: 2010.05.17/outbox.cif.g08.bks.cpg/sg12_165_cif.got.tgz:329305.got - 2010.06.03 13:09:07.
