data_PCOD9207782
_publ_section_title
;
Structure prediction by ZEFSAII (Michael W. Deem and Ramdas Pophale) SiO2 
 PCOD9207782
Probable space group: C 2/M
;
_chemical_formula_sum "Si O2"
_cell_formula_units_Z 58
_cell_length_a 27.514268
_cell_length_b 14.284497
_cell_length_c 20.766140
_cell_angle_alpha 90.000000
_cell_angle_beta 160.328210
_cell_angle_gamma 90.000000
_cell_volume 2747.474525
_symmetry_space_group_name_H-M "C 2/M"
_symmetry_group_IT_number 12
_symmetry_cell_setting 'monoclinic'
loop_
_space_group_symop_operation_xyz
x,y,z
-x,y,-z
-x,-y,-z
x,-y,z
1/2+x,1/2+y,z
1/2-x,1/2+y,-z
1/2-x,1/2-y,-z
1/2+x,1/2-y,z
loop_
_atom_site_type_symbol
_atom_site_label
_atom_site_fract_x
_atom_site_fract_y
_atom_site_fract_z
Si Si1 0.175313 0.389973 0.437586
Si Si2 0.401602 0.895195 0.291716
Si Si3 0.967720 0.802460 0.765810
Si Si4 0.862195 0.889406 0.282572
Si Si5 0.723543 0.137904 0.647933
Si Si6 0.777110 0.230485 0.834261
Si Si7 0.500000 0.500000 0.000000
Si Si8 0.848571 0.111534 0.116702
O O1 0.133896 0.500000 0.380771
O O2 0.076871 0.306363 0.287891
O O3 0.331136 0.370318 0.600620
O O4 0.195258 0.362419 0.537232
O O5 0.570960 0.895524 0.488048
O O6 0.344721 0.823785 0.274882
O O7 0.359915 0.000000 0.261645
O O8 0.312194 0.876918 0.113876
O O9 0.051713 0.828236 0.805755
O O10 0.076080 0.818896 0.960275
O O11 0.730066 0.834913 0.148730
O O12 0.870920 0.860428 0.218583
O O13 0.000000 0.868158 0.500000
O O14 0.841885 0.000000 0.257535
O O15 0.751080 0.228674 0.726042
O O16 0.869024 0.078824 0.838788
O O17 0.881679 0.000000 0.152912
#
# Coordination Sequence:
#
# PCOD9207782 Si02
#       8
#     8   8   8   8   8   8   2   8
#     4  11  24  43  67  94 129 178 227 274 323 394
#     4  10  21  37  59  97 131 170 210 265 336 405
#     4  10  24  42  64  96 127 173 224 272 330 395
#     4  10  22  40  61  92 127 170 221 271 337 396
#     4  12  24  40  63  93 134 170 217 261 327 393
#     4  11  25  38  64  95 134 171 213 274 337 398
#     4  12  24  40  62  92 126 184 202 256 310 396
#     4   9  20  39  66  93 131 168 215 278 338 393
#
# _framework density 21.110296000000002
#
# number of rings (size 3 to 8) (size 9 to 14) (size 15 to 20)
#    0.000    1.517    1.379    2.483    6.759    2.759 
#    0.000    0.000    0.000    0.000    0.000    3.379 
#    0.000    0.000    0.000    0.000    0.000    0.000 
#
# Total GULP energy -161554.652386 kJ/mol
# GULP energy per Si atom -5570.850082 kJ/mol
# Density = 2.106225 g / cm^3
# Si number density = 21.110296 Si / 1000 Ang^3
#
#
#
# Elastic Constant Matrix: (Units=GPa)
#
#
# Indices 1 2 3 4 5 6 
#
# 1 52.4405 18.9372 17.7110 0.0000 -9.2717 0.0000
# 2 18.9372 45.7309 7.9246 0.0000 2.3163 0.0000
# 3 17.7110 7.9246 95.6536 0.0001 16.5082 0.0001
# 4 0.0000 0.0000 0.0001 15.2742 0.0000 -0.8948
# 5 -9.2717 2.3163 16.5082 0.0000 27.3987 0.0000
# 6 0.0000 0.0000 0.0001 -0.8948 0.0000 -2.3684
#
#
#
# Elastic Compliance Matrix: (Units=1/GPa)
#
#
# Indices 1 2 3 4 5 6 
#
# 1 0.027918 -0.011125 -0.006741 0.000000 0.014450 0.000000
# 2 -0.011125 0.026636 0.000995 0.000000 -0.006616 0.000000
# 3 -0.006741 0.000995 0.013424 0.000000 -0.010454 0.000000
# 4 0.000000 0.000000 0.000000 0.064052 0.000000 -0.024199
# 5 0.014450 -0.006616 -0.010454 0.000000 0.048246 0.000000
# 6 0.000000 0.000000 0.000000 -0.024199 0.000000 -0.413082
#
#
# Mechanical properties :
#
#
# Convention : Reuss Voigt Hill
#
# Bulk Modulus (GPa) = 29.20852 31.44117 30.32484
# Shear Modulus (GPa) = -26.64524 18.01105 -4.31710
#
# Velocity S-wave (km/s) = -3.55659 2.92411 -1.43159
# Velocity P-wave (km/s) = 1.73193 5.13095 3.41519
#
# Compressibility (1/GPa) = 0.03423659
#
# Stress axis : x y z
#
# Youngs Moduli (GPa) = 35.81914 37.54262 74.49165
#
# Poissons Ratio (x) = 0.41764 0.50217
# Poissons Ratio (y) = 0.39847 -0.07410
# Poissons Ratio (z) = 0.24147 -0.03735
#
# Static dielectric constant tensor:
#      x y z
#    x 1.761040 0.000000 -0.026070 
#    y 0.000000 1.773100 0.000000 
#    z -0.026070 0.000000 1.811270 
# 
# From -- ./inp_files/328411.got.cif
#   From: 2010.05.17/outbox.cif.g08.bks.cpg/sg12_165_cif.got.tgz:328411.got - 2010.06.03 13:09:07.
