data_PCOD9207553
_publ_section_title
;
Structure prediction by ZEFSAII (Michael W. Deem and Ramdas Pophale) SiO2 
 PCOD9207553
Probable space group: C 2/M
;
_chemical_formula_sum "Si O2"
_cell_formula_units_Z 56
_cell_length_a 24.346180
_cell_length_b 7.538324
_cell_length_c 13.909111
_cell_angle_alpha 90.000000
_cell_angle_beta 77.110928
_cell_angle_gamma 90.000000
_cell_volume 2488.411476
_symmetry_space_group_name_H-M "C 2/M"
_symmetry_group_IT_number 12
_symmetry_cell_setting 'monoclinic'
loop_
_space_group_symop_operation_xyz
x,y,z
-x,y,-z
-x,-y,-z
x,-y,z
1/2+x,1/2+y,z
1/2-x,1/2+y,-z
1/2-x,1/2-y,-z
1/2+x,1/2-y,z
loop_
_atom_site_type_symbol
_atom_site_label
_atom_site_fract_x
_atom_site_fract_y
_atom_site_fract_z
Si Si1 0.597928 0.704290 0.148869
Si Si2 0.016998 0.701885 0.891701
Si Si3 0.692890 0.211034 0.963971
Si Si4 0.344059 0.282843 0.676477
Si Si5 0.560864 0.709578 0.505452
Si Si6 0.398278 0.785184 0.299055
Si Si7 0.216847 0.283391 0.737117
O O1 0.582616 0.500000 0.173575
O O2 0.540004 0.800945 0.148205
O O3 0.640018 0.712848 0.042122
O O4 0.631627 0.770700 0.228923
O O5 0.035618 0.500000 0.907399
O O6 0.065832 0.780485 0.806538
O O7 0.000000 0.787169 0.000000
O O8 0.684687 0.000000 0.964459
O O9 0.750000 0.250000 0.000000
O O10 0.700892 0.272818 0.851693
O O11 0.342296 0.500000 0.677087
O O12 0.387388 0.220408 0.578403
O O13 0.279806 0.223085 0.688366
O O14 0.500000 0.784521 0.500000
O O15 0.558846 0.500000 0.484395
O O16 0.573753 0.730763 0.612366
O O17 0.333519 0.728117 0.313275
O O18 0.399889 0.000000 0.295668
O O19 0.217758 0.500000 0.737335
#
# Coordination Sequence:
#
# PCOD9207553 Si02
#       7
#     8   8   8   8   8   8   8
#     4  11  21  35  57  85 113 147 191 238 283 336
#     4  10  21  38  57  80 111 150 190 229 282 349
#     4  11  20  34  56  83 118 156 192 232 279 336
#     4   9  18  34  56  80 108 146 190 229 277 343
#     4  10  21  38  59  81 109 147 187 231 287 346
#     4  10  21  37  59  83 110 145 187 235 284 334
#     4   9  18  35  57  80 111 152 189 226 280 342
#
# _framework density 22.504315999999999
#
# number of rings (size 3 to 8) (size 9 to 14) (size 15 to 20)
#    0.000    2.000    1.429    2.571    0.000    5.143 
#    0.000    4.286    0.000    0.000    0.000    0.000 
#    0.000    0.000    0.000    0.000    0.000    0.000 
#
# Total GULP energy -156525.266119 kJ/mol
# GULP energy per Si atom -5590.188076 kJ/mol
# Density = 2.245310 g / cm^3
# Si number density = 22.504316 Si / 1000 Ang^3
#
#
#
# Elastic Constant Matrix: (Units=GPa)
#
#
# Indices 1 2 3 4 5 6 
#
# 1 174.1278 -3.7199 73.8241 0.0000 -6.1418 0.0000
# 2 -3.7199 56.8321 -3.7286 0.0000 -3.7405 0.0000
# 3 73.8241 -3.7286 138.5477 0.0000 -16.9490 0.0000
# 4 0.0000 0.0000 0.0000 9.0622 0.0000 7.0840
# 5 -6.1418 -3.7405 -16.9490 0.0000 37.2856 0.0000
# 6 0.0000 0.0000 0.0000 7.0840 0.0000 12.3479
#
#
#
# Elastic Compliance Matrix: (Units=1/GPa)
#
#
# Indices 1 2 3 4 5 6 
#
# 1 0.007434 0.000184 -0.004028 0.000000 -0.000588 0.000000
# 2 0.000184 0.017788 0.000638 0.000000 0.002105 0.000000
# 3 -0.004028 0.000638 0.009856 0.000000 0.003881 0.000000
# 4 0.000000 0.000000 0.000000 0.200075 0.000000 -0.114783
# 5 -0.000588 0.002105 0.003881 0.000000 0.028698 0.000000
# 6 0.000000 0.000000 0.000000 -0.114783 0.000000 0.146836
#
#
# Mechanical properties :
#
#
# Convention : Reuss Voigt Hill
#
# Bulk Modulus (GPa) = 34.88479 55.80654 45.34566
# Shear Modulus (GPa) = 11.71907 31.94793 21.83350
#
# Velocity S-wave (km/s) = 2.28446 3.77189 3.11817
# Velocity P-wave (km/s) = 4.74272 6.61978 5.75825
#
# Compressibility (1/GPa) = 0.02866579
#
# Stress axis : x y z
#
# Youngs Moduli (GPa) = 134.51981 56.21725 101.46115
#
# Poissons Ratio (x) = -0.01032 0.40869
# Poissons Ratio (y) = -0.02470 -0.06477
# Poissons Ratio (z) = 0.54186 -0.03589
#
# Static dielectric constant tensor:
#      x y z
#    x 1.796320 0.000000 -0.007580 
#    y 0.000000 1.854290 0.000000 
#    z -0.007580 0.000000 1.795780 
# 
# From -- ./inp_files/237488.got.cif
#   From: 2010.05.17/outbox.cif.g08.bks.cpg/sg12_119_cif.got.tgz:237488.got - 2010.06.03 13:09:07.
