data_PCOD9207030
_publ_section_title
;
Structure prediction by ZEFSAII (Michael W. Deem and Ramdas Pophale) SiO2 
 PCOD9207030
Probable space group: C 2/M
;
_chemical_formula_sum "Si O2"
_cell_formula_units_Z 56
_cell_length_a 31.096342
_cell_length_b 19.040297
_cell_length_c 5.428334
_cell_angle_alpha 90.000000
_cell_angle_beta 59.223324
_cell_angle_gamma 90.000000
_cell_volume 2761.390414
_symmetry_space_group_name_H-M "C 2/M"
_symmetry_group_IT_number 12
_symmetry_cell_setting 'monoclinic'
loop_
_space_group_symop_operation_xyz
x,y,z
-x,y,-z
-x,-y,-z
x,-y,z
1/2+x,1/2+y,z
1/2-x,1/2+y,-z
1/2-x,1/2-y,-z
1/2+x,1/2-y,z
loop_
_atom_site_type_symbol
_atom_site_label
_atom_site_fract_x
_atom_site_fract_y
_atom_site_fract_z
Si Si1 0.940817 0.346681 0.193448
Si Si2 0.852668 0.705789 0.162619
Si Si3 0.174277 0.916698 0.482418
Si Si4 0.059858 0.423954 0.304247
Si Si5 0.339507 0.345436 0.986204
Si Si6 0.729510 0.809438 0.241300
Si Si7 0.204693 0.583690 0.934965
O O1 0.900957 0.293180 0.195399
O O2 0.927365 0.370205 0.511017
O O3 0.933376 0.406588 0.004053
O O4 0.000000 0.327239 0.000000
O O5 0.858276 0.765028 0.938900
O O6 0.805235 0.728800 0.463105
O O7 0.832974 0.629301 0.126320
O O8 0.146841 0.885911 0.803954
O O9 0.235602 0.906384 0.297645
O O10 0.167573 0.000000 0.495023
O O11 0.152289 0.882160 0.298597
O O12 0.081532 0.500000 0.300799
O O13 0.000000 0.427459 0.500000
O O14 0.279520 0.344057 0.189359
O O15 0.750000 0.750000 0.000000
O O16 0.699066 0.873085 0.205839
O O17 0.195942 0.500000 0.965582
#
# Coordination Sequence:
#
# PCOD9207030 Si02
#       7
#     8   8   8   8   8   8   8
#     4  10  23  38  55  78 109 145 190 250 298 335
#     4  12  23  36  57  80 112 150 202 237 285 346
#     4  10  21  37  56  81 115 145 178 226 282 338
#     4   9  18  36  57  74  97 140 194 246 300 343
#     4  11  21  35  59  80 108 149 188 224 277 342
#     4  11  21  37  56  80 110 150 196 242 284 349
#     4  10  22  35  50  77 114 152 193 240 286 330
#
# _framework density 20.279640000000001
#
# number of rings (size 3 to 8) (size 9 to 14) (size 15 to 20)
#    0.000    1.571    2.857    3.000    2.000    4.000 
#    0.000    0.000    0.000    0.000    0.000    0.000 
#    0.000    3.429    0.000    0.000    0.000    0.000 
#
# Total GULP energy -155996.985129 kJ/mol
# GULP energy per Si atom -5571.320897 kJ/mol
# Density = 2.023348 g / cm^3
# Si number density = 20.279640 Si / 1000 Ang^3
#
#
#
# Elastic Constant Matrix: (Units=GPa)
#
#
# Indices 1 2 3 4 5 6 
#
# 1 91.3520 31.1112 12.0863 0.0000 18.8448 0.0000
# 2 31.1112 112.2535 28.7188 0.0000 24.0535 0.0000
# 3 12.0863 28.7188 52.6715 0.0000 27.1019 0.0000
# 4 0.0000 0.0000 0.0000 21.6395 0.0000 12.8251
# 5 18.8448 24.0535 27.1019 0.0000 32.2833 0.0000
# 6 0.0000 0.0000 0.0000 12.8251 0.0000 22.5612
#
#
#
# Elastic Compliance Matrix: (Units=1/GPa)
#
#
# Indices 1 2 3 4 5 6 
#
# 1 0.013105 -0.002586 0.002372 0.000000 -0.007715 0.000000
# 2 -0.002586 0.011391 -0.003569 0.000000 -0.003982 0.000000
# 3 0.002372 -0.003569 0.034736 0.000000 -0.027887 0.000000
# 4 0.000000 0.000000 0.000000 0.069692 0.000000 -0.039617
# 5 -0.007715 -0.003982 -0.027887 0.000000 0.061857 0.000000
# 6 0.000000 0.000000 0.000000 -0.039617 0.000000 0.066844
#
#
# Mechanical properties :
#
#
# Convention : Reuss Voigt Hill
#
# Bulk Modulus (GPa) = 19.35446 44.45664 31.90555
# Shear Modulus (GPa) = 17.70459 27.58749 22.64604
#
# Velocity S-wave (km/s) = 2.95790 3.69230 3.34531
# Velocity P-wave (km/s) = 4.60761 6.33615 5.53972
#
# Compressibility (1/GPa) = 0.05166769
#
# Stress axis : x y z
#
# Youngs Moduli (GPa) = 76.30731 87.78561 28.78848
#
# Poissons Ratio (x) = 0.22701 -0.06830
# Poissons Ratio (y) = 0.19732 0.10274
# Poissons Ratio (z) = -0.18103 0.31329
#
# Static dielectric constant tensor:
#      x y z
#    x 1.762610 0.000000 -0.000090 
#    y 0.000000 1.773070 0.000000 
#    z -0.000090 0.000000 1.817680 
# 
# From -- ./inp_files/31977.got.cif
#   From: 2010.05.17/outbox.cif.g08.bks.cpg/sg12_16_cif.got.tgz:31977.got - 2010.06.03 13:09:07.
