data_PCOD9207416
_publ_section_title
;
Structure prediction by ZEFSAII (Michael W. Deem and Ramdas Pophale) SiO2 
 PCOD9207416
Probable space group: C 2/M
;
_chemical_formula_sum "Si O2"
_cell_formula_units_Z 64
_cell_length_a 16.213705
_cell_length_b 9.272245
_cell_length_c 23.309306
_cell_angle_alpha 90.000000
_cell_angle_beta 89.115879
_cell_angle_gamma 90.000000
_cell_volume 3503.844319
_symmetry_space_group_name_H-M "C 2/M"
_symmetry_group_IT_number 12
_symmetry_cell_setting 'monoclinic'
loop_
_space_group_symop_operation_xyz
x,y,z
-x,y,-z
-x,-y,-z
x,-y,z
1/2+x,1/2+y,z
1/2-x,1/2+y,-z
1/2-x,1/2-y,-z
1/2+x,1/2-y,z
loop_
_atom_site_type_symbol
_atom_site_label
_atom_site_fract_x
_atom_site_fract_y
_atom_site_fract_z
Si Si1 0.725672 0.161588 0.555821
Si Si2 0.535643 0.672707 0.678225
Si Si3 0.712955 0.824925 0.683052
Si Si4 0.373912 0.672195 0.758190
Si Si5 0.167177 0.168150 0.013504
Si Si6 0.028277 0.335442 0.561755
Si Si7 0.595794 0.831856 0.124144
Si Si8 0.441310 0.155641 0.056943
O O1 0.750000 0.250000 0.500000
O O2 0.745525 0.219431 0.619146
O O3 0.626836 0.154360 0.557875
O O4 0.760274 0.000000 0.550646
O O5 0.548280 0.500000 0.675400
O O6 0.623570 0.749065 0.693831
O O7 0.457433 0.701093 0.720612
O O8 0.510078 0.736055 0.616312
O O9 0.787971 0.794967 0.725926
O O10 0.699808 0.000000 0.681640
O O11 0.373166 0.500000 0.770198
O O12 0.380139 0.763206 0.816148
O O13 0.132002 0.238892 0.071657
O O14 0.175805 0.000000 0.020478
O O15 0.250000 0.250000 0.000000
O O16 0.112065 0.207781 0.958708
O O17 0.995673 0.500000 0.569726
O O18 0.000000 0.280610 0.500000
O O19 0.497675 0.828591 0.111986
O O20 0.620742 0.000000 0.119160
O O21 0.396418 0.000000 0.060220
O O22 0.500000 0.144369 0.000000
#
# Coordination Sequence:
#
# PCOD9207416 Si02
#       8
#     8   8   8   8   8   8   8   8
#     4   9  18  31  50  76 105 138 178 226 281 343
#     4  10  21  37  58  85 113 144 191 246 294 342
#     4   9  20  40  59  77 112 155 191 233 292 355
#     4  10  22  40  61  84 115 157 197 240 293 348
#     4  11  21  35  58  87 120 155 190 232 283 333
#     4   9  19  35  53  76 108 144 182 228 288 355
#     4  10  21  38  59  86 116 149 193 235 278 341
#     4   8  16  33  55  79 111 145 179 224 273 324
#
# _framework density 18.265650999999998
#
# number of rings (size 3 to 8) (size 9 to 14) (size 15 to 20)
#    0.000    2.500    0.000    3.375    1.750    6.500 
#    2.250    0.000    0.000    0.000    0.000    0.000 
#    0.000    0.000    0.000    0.000    0.000    0.000 
#
# Total GULP energy -178192.012390 kJ/mol
# GULP energy per Si atom -5568.500387 kJ/mol
# Density = 1.822408 g / cm^3
# Si number density = 18.265651 Si / 1000 Ang^3
#
#
#
# Elastic Constant Matrix: (Units=GPa)
#
#
# Indices 1 2 3 4 5 6 
#
# 1 67.9164 51.5673 48.1525 0.0000 14.8434 0.0000
# 2 51.5673 115.1198 63.4202 0.0000 4.5518 0.0000
# 3 48.1525 63.4202 105.7648 0.0000 30.8526 0.0000
# 4 0.0000 0.0000 0.0000 30.0296 0.0000 1.2381
# 5 14.8434 4.5518 30.8526 0.0000 28.7894 0.0000
# 6 0.0000 0.0000 0.0000 1.2381 0.0000 23.8539
#
#
#
# Elastic Compliance Matrix: (Units=1/GPa)
#
#
# Indices 1 2 3 4 5 6 
#
# 1 0.026371 -0.009118 -0.004354 0.000000 -0.007489 0.000000
# 2 -0.009118 0.018020 -0.010467 0.000000 0.013069 0.000000
# 3 -0.004354 -0.010467 0.024114 0.000000 -0.021943 0.000000
# 4 0.000000 0.000000 0.000000 0.033372 0.000000 -0.001732
# 5 -0.007489 0.013069 -0.021943 0.000000 0.060045 0.000000
# 6 0.000000 0.000000 0.000000 -0.001732 0.000000 0.042012
#
#
# Mechanical properties :
#
#
# Convention : Reuss Voigt Hill
#
# Bulk Modulus (GPa) = 48.47775 68.34231 58.41003
# Shear Modulus (GPa) = 19.32832 24.91197 22.12015
#
# Velocity S-wave (km/s) = 3.25650 3.69707 3.48375
# Velocity P-wave (km/s) = 6.38261 7.46468 6.94475
#
# Compressibility (1/GPa) = 0.02062802
#
# Stress axis : x y z
#
# Youngs Moduli (GPa) = 37.92101 55.49295 41.46886
#
# Poissons Ratio (x) = 0.50597 0.18056
# Poissons Ratio (y) = 0.34575 0.43404
# Poissons Ratio (z) = 0.16512 0.58083
#
# Static dielectric constant tensor:
#      x y z
#    x 1.627690 0.000000 0.048450 
#    y 0.000000 1.255450 0.000000 
#    z 0.048450 0.000000 1.627750 
# 
# From -- ./inp_files/314029.got.cif
#   From: 2010.05.17/outbox.cif.g08.bks.cpg/sg12_158_cif.got.tgz:314029.got - 2010.06.03 13:09:07.
