data_PCOD9207217
_publ_section_title
;
Structure prediction by ZEFSAII (Michael W. Deem and Ramdas Pophale) SiO2 
 PCOD9207217
Probable space group: C 2/M
;
_chemical_formula_sum "Si O2"
_cell_formula_units_Z 56
_cell_length_a 18.395758
_cell_length_b 8.420026
_cell_length_c 19.121994
_cell_angle_alpha 90.000000
_cell_angle_beta 76.178684
_cell_angle_gamma 90.000000
_cell_volume 2876.099221
_symmetry_space_group_name_H-M "C 2/M"
_symmetry_group_IT_number 12
_symmetry_cell_setting 'monoclinic'
loop_
_space_group_symop_operation_xyz
x,y,z
-x,y,-z
-x,-y,-z
x,-y,z
1/2+x,1/2+y,z
1/2-x,1/2+y,-z
1/2-x,1/2-y,-z
1/2+x,1/2-y,z
loop_
_atom_site_type_symbol
_atom_site_label
_atom_site_fract_x
_atom_site_fract_y
_atom_site_fract_z
Si Si1 0.153674 0.809623 0.715246
Si Si2 0.011478 0.690522 0.284052
Si Si3 0.797394 0.307924 0.143923
Si Si4 0.940408 0.306111 0.572083
Si Si5 0.629913 0.690336 0.143032
Si Si6 0.727101 0.192054 0.428788
Si Si7 0.416178 0.192141 0.999218
O O1 0.071117 0.749351 0.715933
O O2 0.178728 0.751368 0.785578
O O3 0.212949 0.754404 0.642952
O O4 0.153286 0.000000 0.715187
O O5 0.011208 0.500000 0.283911
O O6 0.035350 0.745467 0.356113
O O7 0.070881 0.748676 0.213398
O O8 0.798013 0.500000 0.144647
O O9 0.713710 0.254680 0.143390
O O10 0.856808 0.255348 0.071544
O O11 0.940493 0.500000 0.572065
O O12 0.856553 0.254535 0.572182
O O13 0.000000 0.254353 0.500000
O O14 0.629475 0.500000 0.143768
O O15 0.607228 0.748353 0.071466
O O16 0.750000 0.250000 0.500000
O O17 0.726902 0.000000 0.429075
O O18 0.415979 0.000000 0.998020
O O19 0.500000 0.244350 0.000000
#
# Coordination Sequence:
#
# PCOD9207217 Si02
#       7
#     8   8   8   8   8   8   8
#     4  11  23  38  58  86 119 152 192 242 289 339
#     4  11  22  38  61  84 112 153 195 238 292 348
#     4  10  22  39  59  86 119 155 194 235 283 342
#     4   9  18  34  57  83 110 145 191 235 276 333
#     4  11  23  38  58  86 119 152 191 240 288 338
#     4  10  21  37  57  84 116 150 190 235 285 341
#     4  10  21  38  60  85 114 152 197 238 280 339
#
# _framework density 19.470817
#
# number of rings (size 3 to 8) (size 9 to 14) (size 15 to 20)
#    0.000    1.714    0.000    4.286    0.000    6.571 
#    0.000    1.429    0.000    3.857    0.000    0.000 
#    0.000    0.000    0.000    0.000    0.000    0.000 
#
# Total GULP energy -156550.547898 kJ/mol
# GULP energy per Si atom -5591.090996 kJ/mol
# Density = 1.942650 g / cm^3
# Si number density = 19.470817 Si / 1000 Ang^3
#
#
#
# Elastic Constant Matrix: (Units=GPa)
#
#
# Indices 1 2 3 4 5 6 
#
# 1 248.4682 32.1729 152.4721 0.0000 -0.8131 0.0000
# 2 32.1729 15.1363 30.2183 0.0000 -2.1325 0.0000
# 3 152.4721 30.2183 246.3770 0.0000 -1.2170 0.0000
# 4 0.0000 0.0000 0.0000 21.7526 0.0000 12.1330
# 5 -0.8131 -2.1325 -1.2170 0.0000 47.1092 0.0000
# 6 0.0000 0.0000 0.0000 12.1330 0.0000 5.9684
#
#
#
# Elastic Compliance Matrix: (Units=1/GPa)
#
#
# Indices 1 2 3 4 5 6 
#
# 1 0.007240 -0.008595 -0.003428 0.000000 -0.000353 0.000000
# 2 -0.008595 0.098336 -0.006722 0.000000 0.004129 -0.000001
# 3 -0.003428 -0.006722 0.007004 0.000000 -0.000183 0.000000
# 4 0.000000 0.000000 0.000000 -0.343345 0.000000 0.697983
# 5 -0.000353 0.004129 -0.000183 0.000000 0.021403 0.000000
# 6 0.000000 -0.000001 0.000000 0.697983 0.000000 -1.251371
#
#
# Mechanical properties :
#
#
# Convention : Reuss Voigt Hill
#
# Bulk Modulus (GPa) = 13.31726 104.41200 58.86463
# Shear Modulus (GPa) = -3.57599 34.64059 15.53230
#
# Velocity S-wave (km/s) = -1.35668 4.22252 2.82746
# Velocity P-wave (km/s) = 2.09770 8.80421 6.39979
#
# Compressibility (1/GPa) = 0.07509052
#
# Stress axis : x y z
#
# Youngs Moduli (GPa) = 138.11983 10.16925 142.77829
#
# Poissons Ratio (x) = 0.08740 0.48947
# Poissons Ratio (y) = 1.18711 0.95970
# Poissons Ratio (z) = 0.47350 0.06835
#
# Static dielectric constant tensor:
#      x y z
#    x 1.653940 0.000000 -0.015180 
#    y 0.000000 1.669720 0.000000 
#    z -0.015180 0.000000 1.639870 
# 
# From -- ./inp_files/275099.got.cif
#   From: 2010.05.17/outbox.cif.g08.bks.cpg/sg12_138_cif.got.tgz:275099.got - 2010.06.03 13:09:07.
