data_PCOD9207433
_publ_section_title
;
Structure prediction by ZEFSAII (Michael W. Deem and Ramdas Pophale) SiO2 
 PCOD9207433
Probable space group: C 2/M
;
_chemical_formula_sum "Si O2"
_cell_formula_units_Z 56
_cell_length_a 22.913592
_cell_length_b 8.844588
_cell_length_c 17.260190
_cell_angle_alpha 90.000000
_cell_angle_beta 124.442074
_cell_angle_gamma 90.000000
_cell_volume 2884.772100
_symmetry_space_group_name_H-M "C 2/M"
_symmetry_group_IT_number 12
_symmetry_cell_setting 'monoclinic'
loop_
_space_group_symop_operation_xyz
x,y,z
-x,y,-z
-x,-y,-z
x,-y,z
1/2+x,1/2+y,z
1/2-x,1/2+y,-z
1/2-x,1/2-y,-z
1/2+x,1/2-y,z
loop_
_atom_site_type_symbol
_atom_site_label
_atom_site_fract_x
_atom_site_fract_y
_atom_site_fract_z
Si Si1 0.532282 0.682738 0.770651
Si Si2 0.724987 0.320696 0.401178
Si Si3 0.694519 0.178431 0.694994
Si Si4 0.088382 0.680034 0.216297
Si Si5 0.654900 0.318016 0.118916
Si Si6 0.543161 0.681956 0.607070
Si Si7 0.673392 0.681366 0.957524
O O1 0.526576 0.500000 0.771691
O O2 0.481297 0.755353 0.795524
O O3 0.514012 0.730457 0.669199
O O4 0.613408 0.724569 0.850833
O O5 0.711993 0.500000 0.399246
O O6 0.750000 0.250000 0.500000
O O7 0.783680 0.299936 0.378283
O O8 0.654347 0.242149 0.316231
O O9 0.764593 0.222864 0.795772
O O10 0.624343 0.268063 0.662161
O O11 0.682584 0.000000 0.699362
O O12 0.088053 0.500000 0.215978
O O13 0.102215 0.741419 0.140060
O O14 0.648658 0.500000 0.122956
O O15 0.645985 0.276734 0.022790
O O16 0.500000 0.739172 0.500000
O O17 0.540215 0.500000 0.603869
O O18 0.680437 0.500000 0.961644
O O19 0.750000 0.750000 0.000000
#
# Coordination Sequence:
#
# PCOD9207433 Si02
#       7
#     8   8   8   8   8   8   8
#     4  10  22  40  58  82 118 156 194 242 298 356
#     4  10  21  37  58  85 116 152 194 241 291 347
#     4   9  19  35  55  80 109 142 183 233 284 338
#     4  11  23  38  58  86 117 154 198 243 295 349
#     4   9  19  38  60  84 116 153 191 236 296 357
#     4  10  22  37  54  79 110 150 193 234 288 347
#     4  10  21  37  62  90 117 154 198 243 297 358
#
# _framework density 19.412279000000002
#
# number of rings (size 3 to 8) (size 9 to 14) (size 15 to 20)
#    0.000    2.143    0.000    3.429    2.000    5.429 
#    0.000    2.857    0.000    0.000    0.000    0.000 
#    0.000    0.000    0.000    0.000    0.000    0.000 
#
# Total GULP energy -156386.323479 kJ/mol
# GULP energy per Si atom -5585.225839 kJ/mol
# Density = 1.936810 g / cm^3
# Si number density = 19.412279 Si / 1000 Ang^3
#
#
#
# Elastic Constant Matrix: (Units=GPa)
#
#
# Indices 1 2 3 4 5 6 
#
# 1 107.8610 36.4426 43.5112 0.0000 -0.3679 0.0000
# 2 36.4426 35.4971 28.2833 0.0000 -8.2149 0.0000
# 3 43.5112 28.2833 97.4703 0.0000 -25.5935 0.0000
# 4 0.0000 0.0000 0.0000 18.4767 0.0000 3.5484
# 5 -0.3679 -8.2149 -25.5935 0.0000 19.4323 0.0000
# 6 0.0000 0.0000 0.0000 3.5484 0.0000 36.9805
#
#
#
# Elastic Compliance Matrix: (Units=1/GPa)
#
#
# Indices 1 2 3 4 5 6 
#
# 1 0.017612 -0.015841 -0.007546 0.000000 -0.016302 0.000000
# 2 -0.015841 0.050958 -0.003267 0.000000 0.016939 0.000000
# 3 -0.007546 -0.003267 0.021670 0.000000 0.027017 0.000000
# 4 0.000000 0.000000 0.000000 0.055138 0.000000 -0.005291
# 5 -0.016302 0.016939 0.027017 0.000000 0.093896 0.000000
# 6 0.000000 0.000000 0.000000 -0.005291 0.000000 0.027549
#
#
# Mechanical properties :
#
#
# Convention : Reuss Voigt Hill
#
# Bulk Modulus (GPa) = 27.07711 50.81138 38.94425
# Shear Modulus (GPa) = 15.04026 23.81732 19.42879
#
# Velocity S-wave (km/s) = 2.78651 3.50654 3.16705
# Velocity P-wave (km/s) = 4.93270 6.52887 5.78609
#
# Compressibility (1/GPa) = 0.03693156
#
# Stress axis : x y z
#
# Youngs Moduli (GPa) = 56.78025 19.62403 46.14682
#
# Poissons Ratio (x) = 0.31087 0.34821
# Poissons Ratio (y) = 0.89947 0.15077
# Poissons Ratio (z) = 0.42845 0.06411
#
# Static dielectric constant tensor:
#      x y z
#    x 1.655860 0.000000 -0.018240 
#    y 0.000000 1.670400 0.000000 
#    z -0.018240 0.000000 1.691360 
# 
# From -- ./inp_files/281656.got.cif
#   From: 2010.05.17/outbox.cif.g08.bks.cpg/sg12_141_cif.got.tgz:281656.got - 2010.06.03 13:09:07.
