data_PCOD9207074
_publ_section_title
;
Structure prediction by ZEFSAII (Michael W. Deem and Ramdas Pophale) SiO2 
 PCOD9207074
Probable space group: C 2/M
;
_chemical_formula_sum "Si O2"
_cell_formula_units_Z 64
_cell_length_a 30.966713
_cell_length_b 8.931269
_cell_length_c 26.593486
_cell_angle_alpha 90.000000
_cell_angle_beta 27.957261
_cell_angle_gamma 90.000000
_cell_volume 3448.125142
_symmetry_space_group_name_H-M "C 2/M"
_symmetry_group_IT_number 12
_symmetry_cell_setting 'monoclinic'
loop_
_space_group_symop_operation_xyz
x,y,z
-x,y,-z
-x,-y,-z
x,-y,z
1/2+x,1/2+y,z
1/2-x,1/2+y,-z
1/2-x,1/2-y,-z
1/2+x,1/2-y,z
loop_
_atom_site_type_symbol
_atom_site_label
_atom_site_fract_x
_atom_site_fract_y
_atom_site_fract_z
Si Si1 0.567749 0.680325 0.384542
Si Si2 0.941950 0.319930 0.433132
Si Si3 0.724444 0.179003 0.800128
Si Si4 0.405774 0.320057 0.256207
Si Si5 0.608037 0.321858 0.006814
Si Si6 0.241319 0.180519 0.676362
Si Si7 0.030472 0.679412 0.710355
Si Si8 0.835729 0.821102 0.940152
O O1 0.500000 0.726293 0.500000
O O2 0.565341 0.500000 0.383945
O O3 0.526469 0.748064 0.376113
O O4 0.672482 0.726378 0.288341
O O5 0.949212 0.500000 0.429001
O O6 0.846451 0.273294 0.557530
O O7 0.938929 0.280428 0.377427
O O8 0.650917 0.235846 0.916133
O O9 0.707654 0.247633 0.762603
O O10 0.723228 0.000000 0.798478
O O11 0.405310 0.500000 0.264039
O O12 0.322602 0.278460 0.305115
O O13 0.406338 0.242414 0.309843
O O14 0.502644 0.282516 0.129125
O O15 0.611061 0.500000 0.993943
O O16 0.665485 0.291442 0.998711
O O17 0.238555 0.000000 0.683664
O O18 0.025607 0.500000 0.719043
O O19 0.929980 0.749872 0.822904
O O20 0.838221 0.000000 0.930777
O O21 0.750000 0.750000 0.000000
#
# Coordination Sequence:
#
# PCOD9207074 Si02
#       8
#     8   8   8   8   8   8   8   8
#     4  10  21  38  56  78 113 150 184 231 283 336
#     4  10  22  37  57  86 115 148 190 232 278 338
#     4  11  23  37  56  85 115 146 188 233 284 340
#     4   9  20  40  62  83 110 149 193 235 282 337
#     4   9  20  38  57  79 110 147 186 229 279 334
#     4  10  21  39  61  83 111 149 193 236 281 337
#     4  10  21  37  56  84 118 148 185 233 284 336
#     4  10  21  37  57  82 112 149 192 234 280 335
#
# _framework density 18.560811000000001
#
# number of rings (size 3 to 8) (size 9 to 14) (size 15 to 20)
#    0.000    2.125    1.250    1.875    1.750    6.250 
#    0.000    2.500    0.000    0.000    0.000    0.000 
#    0.000    0.000    0.000    0.000    0.000    0.000 
#
# Total GULP energy -178688.482455 kJ/mol
# GULP energy per Si atom -5584.015077 kJ/mol
# Density = 1.851857 g / cm^3
# Si number density = 18.560811 Si / 1000 Ang^3
#
#
#
# Elastic Constant Matrix: (Units=GPa)
#
#
# Indices 1 2 3 4 5 6 
#
# 1 105.3925 28.8317 9.6915 -0.0008 7.9470 -0.0042
# 2 28.8317 23.9123 11.3687 -0.0100 11.5975 0.0021
# 3 9.6915 11.3687 24.9022 -0.0071 24.3626 -0.0010
# 4 -0.0008 -0.0100 -0.0071 23.6026 0.0030 4.8751
# 5 7.9470 11.5975 24.3626 0.0030 32.7732 0.0001
# 6 -0.0042 0.0021 -0.0010 4.8751 0.0001 34.6375
#
#
#
# Elastic Compliance Matrix: (Units=1/GPa)
#
#
# Indices 1 2 3 4 5 6 
#
# 1 0.014434 -0.018905 -0.000394 -0.000009 0.003483 0.000004
# 2 -0.018905 0.078246 -0.021120 0.000030 -0.007405 -0.000012
# 3 -0.000394 -0.021120 0.156000 0.000052 -0.108396 -0.000002
# 4 -0.000009 0.000030 0.000052 0.043637 -0.000051 -0.006142
# 5 0.003483 -0.007405 -0.108396 -0.000051 0.112867 0.000005
# 6 0.000004 -0.000012 -0.000002 -0.006142 0.000005 0.029735
#
#
# Mechanical properties :
#
#
# Convention : Reuss Voigt Hill
#
# Bulk Modulus (GPa) = 5.95801 28.22122 17.08962
# Shear Modulus (GPa) = 8.74580 25.15702 16.95141
#
# Velocity S-wave (km/s) = 2.17306 3.68555 3.02535
# Velocity P-wave (km/s) = 3.08435 5.77484 4.62936
#
# Compressibility (1/GPa) = 0.16784126
#
# Stress axis : x y z
#
# Youngs Moduli (GPa) = 69.28256 12.78021 6.41027
#
# Poissons Ratio (x) = 0.24161 0.00253
# Poissons Ratio (y) = 1.30978 0.13539
# Poissons Ratio (z) = 0.02730 0.26992
#
# Static dielectric constant tensor:
#      x y z
#    x 1.627600 0.000000 -0.002740 
#    y 0.000000 1.618840 0.000000 
#    z -0.002740 0.000000 1.623110 
# 
# From -- ./inp_files/249113.got.cif
#   From: 2010.05.17/outbox.cif.g08.bks.cpg/sg12_125_cif.got.tgz:249113.got - 2010.06.03 13:09:07.
