data_PCOD9207605
_publ_section_title
;
Structure prediction by ZEFSAII (Michael W. Deem and Ramdas Pophale) SiO2 
 PCOD9207605
Probable space group: C 2/M
;
_chemical_formula_sum "Si O2"
_cell_formula_units_Z 36
_cell_length_a 18.132126
_cell_length_b 13.500657
_cell_length_c 16.976371
_cell_angle_alpha 90.000000
_cell_angle_beta 157.494013
_cell_angle_gamma 90.000000
_cell_volume 1590.734472
_symmetry_space_group_name_H-M "C 2/M"
_symmetry_group_IT_number 12
_symmetry_cell_setting 'monoclinic'
loop_
_space_group_symop_operation_xyz
x,y,z
-x,y,-z
-x,-y,-z
x,-y,z
1/2+x,1/2+y,z
1/2-x,1/2+y,-z
1/2-x,1/2-y,-z
1/2+x,1/2-y,z
loop_
_atom_site_type_symbol
_atom_site_label
_atom_site_fract_x
_atom_site_fract_y
_atom_site_fract_z
Si Si1 0.286213 0.889438 0.551318
Si Si2 0.500000 0.812400 0.500000
Si Si3 0.240988 0.824499 0.110230
Si Si4 0.671774 0.389948 0.866639
Si Si5 0.678980 0.268818 0.296990
O O1 0.381515 0.830909 0.717210
O O2 0.294039 0.828722 0.478336
O O3 0.059104 0.891493 0.348176
O O4 0.355794 0.000000 0.610689
O O5 0.382705 0.868251 0.315681
O O6 0.326823 0.753740 0.372252
O O7 0.290182 0.707371 0.147872
O O8 0.255574 0.870640 0.037356
O O9 0.016548 0.827623 0.914444
O O10 0.727143 0.500000 0.892324
#
# Coordination Sequence:
#
# PCOD9207605 Si02
#       5
#     8   4   8   8   8
#     4   9  18  37  62  86 114 151 195 242 284 338
#     4  12  22  40  58  86 128 154 184 244 300 344
#     4  10  21  37  59  86 116 153 195 235 287 348
#     4   9  18  37  62  86 114 151 195 242 284 338
#     4  10  21  37  59  86 116 153 195 235 287 348
#
# _framework density 22.631056000000001
#
# number of rings (size 3 to 8) (size 9 to 14) (size 15 to 20)
#    0.000    2.222    2.222    0.667    3.111    0.889 
#    0.000    4.444    0.000    8.000    0.000    0.000 
#    0.000    0.000    0.000    0.000    0.000    0.000 
#
# Total GULP energy -100496.202125 kJ/mol
# GULP energy per Si atom -5583.122340 kJ/mol
# Density = 2.257955 g / cm^3
# Si number density = 22.631056 Si / 1000 Ang^3
#
#
#
# Elastic Constant Matrix: (Units=GPa)
#
#
# Indices 1 2 3 4 5 6 
#
# 1 103.7480 0.8260 8.5072 0.0037 15.2199 0.0029
# 2 0.8260 73.2483 -28.4668 0.0225 13.9702 0.0169
# 3 8.5072 -28.4668 111.2693 0.0035 -3.9922 0.0064
# 4 0.0037 0.0225 0.0035 15.0584 0.0015 8.0691
# 5 15.2199 13.9702 -3.9922 0.0015 30.0183 0.0003
# 6 0.0029 0.0169 0.0064 8.0691 0.0003 7.3849
#
#
#
# Elastic Compliance Matrix: (Units=1/GPa)
#
#
# Indices 1 2 3 4 5 6 
#
# 1 0.010549 0.000651 -0.000847 -0.000001 -0.005764 -0.000004
# 2 0.000651 0.016609 0.003929 -0.000007 -0.007538 -0.000034
# 3 -0.000847 0.003929 0.010055 0.000003 -0.000062 -0.000021
# 4 -0.000001 -0.000007 0.000003 0.160211 -0.000002 -0.175053
# 5 -0.005764 -0.007538 -0.000062 -0.000002 0.039735 0.000021
# 6 -0.000004 -0.000034 -0.000021 -0.175053 0.000021 0.326681
#
#
# Mechanical properties :
#
#
# Convention : Reuss Voigt Hill
#
# Bulk Modulus (GPa) = 22.38119 27.77761 25.07940
# Shear Modulus (GPa) = 8.75249 30.98559 19.86904
#
# Velocity S-wave (km/s) = 1.96872 3.70423 2.96624
# Velocity P-wave (km/s) = 3.88315 5.53135 4.77885
#
# Compressibility (1/GPa) = 0.04468037
#
# Stress axis : x y z
#
# Youngs Moduli (GPa) = 94.79954 60.20680 99.45391
#
# Poissons Ratio (x) = -0.03922 0.08420
# Poissons Ratio (y) = -0.06175 -0.39076
# Poissons Ratio (z) = 0.08026 -0.23656
#
# Static dielectric constant tensor:
#      x y z
#    x 1.825970 0.000000 0.022200 
#    y 0.000000 1.822050 0.000000 
#    z 0.022200 0.000000 1.908940 
# 
# From -- ./inp_files/284335.got.cif
#   From: 2010.05.17/outbox.cif.g08.bks.cpg/sg12_143_cif.got.tgz:284335.got - 2010.06.03 13:09:07.
