data_PCOD9207853
_publ_section_title
;
Structure prediction by ZEFSAII (Michael W. Deem and Ramdas Pophale) SiO2 
 PCOD9207853
Probable space group: C 2/M
;
_chemical_formula_sum "Si O2"
_cell_formula_units_Z 34
_cell_length_a 16.784041
_cell_length_b 10.612818
_cell_length_c 12.597664
_cell_angle_alpha 90.000000
_cell_angle_beta 49.912813
_cell_angle_gamma 90.000000
_cell_volume 1716.784745
_symmetry_space_group_name_H-M "C 2/M"
_symmetry_group_IT_number 12
_symmetry_cell_setting 'monoclinic'
loop_
_space_group_symop_operation_xyz
x,y,z
-x,y,-z
-x,-y,-z
x,-y,z
1/2+x,1/2+y,z
1/2-x,1/2+y,-z
1/2-x,1/2-y,-z
1/2+x,1/2-y,z
loop_
_atom_site_type_symbol
_atom_site_label
_atom_site_fract_x
_atom_site_fract_y
_atom_site_fract_z
Si Si1 0.208292 0.142854 0.457300
Si Si2 0.500000 0.000000 0.500000
Si Si3 0.003169 0.734346 0.337270
Si Si4 0.052263 0.347746 0.065653
Si Si5 0.224801 0.851580 0.198078
O O1 0.250000 0.250000 0.500000
O O2 0.249221 0.161616 0.302537
O O3 0.083642 0.162807 0.559307
O O4 0.233685 0.000000 0.469418
O O5 0.482372 0.110692 0.424514
O O6 0.998687 0.705976 0.215907
O O7 0.120135 0.778262 0.261844
O O8 0.047632 0.500000 0.074751
O O9 0.173870 0.310853 0.954439
O O10 0.000000 0.308397 0.000000
O O11 0.207522 0.000000 0.193418
#
# Coordination Sequence:
#
# PCOD9207853 Si02
#       5
#     8   2   8   8   8
#     4  11  24  39  63  90 125 163 207 259 309 368
#     4  12  24  36  64  96 122 164 198 266 304 368
#     4  12  22  40  61  89 127 158 206 254 311 360
#     4  10  21  37  60  88 119 160 206 249 302 365
#     4  10  21  39  61  88 116 160 207 252 305 365
#
# _framework density 19.804463999999999
#
# number of rings (size 3 to 8) (size 9 to 14) (size 15 to 20)
#    0.000    1.176    3.529    2.824    1.647    3.765 
#    0.000    0.000    0.000    4.235    0.000    0.000 
#    0.000    0.000    0.000    0.000    0.000    0.000 
#
# Total GULP energy -94744.663691 kJ/mol
# GULP energy per Si atom -5573.215511 kJ/mol
# Density = 1.975939 g / cm^3
# Si number density = 19.804464 Si / 1000 Ang^3
#
#
#
# Elastic Constant Matrix: (Units=GPa)
#
#
# Indices 1 2 3 4 5 6 
#
# 1 56.7825 19.6987 2.4064 0.0000 9.6323 0.0000
# 2 19.6987 71.3665 14.5221 0.0000 12.3948 0.0000
# 3 2.4064 14.5221 96.9772 0.0000 16.7926 0.0000
# 4 0.0000 0.0000 0.0000 20.0993 0.0000 10.5330
# 5 9.6323 12.3948 16.7926 0.0000 37.5538 0.0000
# 6 0.0000 0.0000 0.0000 10.5330 0.0000 13.7893
#
#
#
# Elastic Compliance Matrix: (Units=1/GPa)
#
#
# Indices 1 2 3 4 5 6 
#
# 1 0.019974 -0.005029 0.000929 0.000000 -0.003879 0.000000
# 2 -0.005029 0.016332 -0.001746 0.000000 -0.003320 0.000000
# 3 0.000929 -0.001746 0.011372 0.000000 -0.004747 0.000000
# 4 0.000000 0.000000 0.000000 0.082962 0.000000 -0.063371
# 5 -0.003879 -0.003320 -0.004747 0.000000 0.030842 0.000000
# 6 0.000000 0.000000 0.000000 -0.063371 0.000000 0.120926
#
#
# Mechanical properties :
#
#
# Convention : Reuss Voigt Hill
#
# Bulk Modulus (GPa) = 27.78768 33.15339 30.47054
# Shear Modulus (GPa) = 16.33479 26.85507 21.59493
#
# Velocity S-wave (km/s) = 2.87506 3.68640 3.30571
# Velocity P-wave (km/s) = 5.00827 5.90729 5.47626
#
# Compressibility (1/GPa) = 0.03598717
#
# Stress axis : x y z
#
# Youngs Moduli (GPa) = 50.06451 61.22915 87.93423
#
# Poissons Ratio (x) = 0.30790 -0.08170
# Poissons Ratio (y) = 0.25176 0.15354
# Poissons Ratio (z) = -0.04651 0.10691
#
# Static dielectric constant tensor:
#      x y z
#    x 1.731080 0.000000 -0.014190 
#    y 0.000000 1.642640 0.000000 
#    z -0.014190 0.000000 1.686470 
# 
# From -- ./inp_files/140028.got.cif
#   From: 2010.05.17/outbox.cif.g08.bks.cpg/sg12_71_cif.got.tgz:140028.got - 2010.06.03 13:09:07.
