data_PCOD9207822
_publ_section_title
;
Structure prediction by ZEFSAII (Michael W. Deem and Ramdas Pophale) SiO2 
 PCOD9207822
Probable space group: C 2/M
;
_chemical_formula_sum "Si O2"
_cell_formula_units_Z 56
_cell_length_a 16.820765
_cell_length_b 8.055235
_cell_length_c 18.538171
_cell_angle_alpha 90.000000
_cell_angle_beta 67.141891
_cell_angle_gamma 90.000000
_cell_volume 2314.578333
_symmetry_space_group_name_H-M "C 2/M"
_symmetry_group_IT_number 12
_symmetry_cell_setting 'monoclinic'
loop_
_space_group_symop_operation_xyz
x,y,z
-x,y,-z
-x,-y,-z
x,-y,z
1/2+x,1/2+y,z
1/2-x,1/2+y,-z
1/2-x,1/2-y,-z
1/2+x,1/2-y,z
loop_
_atom_site_type_symbol
_atom_site_label
_atom_site_fract_x
_atom_site_fract_y
_atom_site_fract_z
Si Si1 0.767863 0.692197 0.262891
Si Si2 0.257767 0.194707 0.878743
Si Si3 0.883929 0.306470 0.595584
Si Si4 0.036369 0.701196 0.827652
Si Si5 0.847609 0.191265 0.454342
Si Si6 0.380681 0.302771 0.963654
Si Si7 0.998664 0.306611 0.684973
O O1 0.771050 0.500000 0.284047
O O2 0.722308 0.709616 0.201226
O O3 0.713622 0.790714 0.340813
O O4 0.864466 0.754114 0.213278
O O5 0.327766 0.220124 0.916706
O O6 0.253373 0.000000 0.862316
O O7 0.167206 0.252850 0.946499
O O8 0.905526 0.500000 0.576447
O O9 0.891602 0.216618 0.516955
O O10 0.941762 0.234276 0.640179
O O11 0.035375 0.500000 0.829291
O O12 0.993210 0.760950 0.767599
O O13 0.980115 0.763762 0.914179
O O14 0.750000 0.250000 0.500000
O O15 0.902676 0.292652 0.376713
O O16 0.849145 0.000000 0.432710
O O17 0.367319 0.500000 0.964497
O O18 0.973146 0.500000 0.698752
#
# Coordination Sequence:
#
# PCOD9207822 Si02
#       7
#     8   8   8   8   8   8   8
#     4  11  23  38  59  88 121 157 199 244 289 346
#     4  10  21  38  59  84 117 155 195 243 299 354
#     4  11  23  40  64  91 121 157 195 241 295 349
#     4  10  22  39  59  85 119 156 193 241 298 350
#     4  12  25  41  63  90 122 158 197 243 293 347
#     4  10  21  37  60  87 114 150 198 248 295 352
#     4  10  22  41  63  88 119 155 196 241 293 352
#
# _framework density 24.194472999999999
#
# number of rings (size 3 to 8) (size 9 to 14) (size 15 to 20)
#    0.000    1.429    0.000    5.143    0.000    9.143 
#    0.000    2.857    0.000    0.000    0.000    0.000 
#    0.000    0.000    0.000    0.000    0.000    0.000 
#
# Total GULP energy -156753.221489 kJ/mol
# GULP energy per Si atom -5598.329339 kJ/mol
# Density = 2.413940 g / cm^3
# Si number density = 24.194473 Si / 1000 Ang^3
#
#
#
# Elastic Constant Matrix: (Units=GPa)
#
#
# Indices 1 2 3 4 5 6 
#
# 1 63.4728 -6.9707 5.1746 0.0000 -13.5831 0.0000
# 2 -6.9707 39.6924 -3.9147 0.0000 4.3776 0.0000
# 3 5.1746 -3.9147 111.7407 0.0000 -18.7684 0.0000
# 4 0.0000 0.0000 0.0000 22.9133 0.0000 -5.6175
# 5 -13.5831 4.3776 -18.7684 0.0000 45.8842 0.0000
# 6 0.0000 0.0000 0.0000 -5.6175 0.0000 24.0978
#
#
#
# Elastic Compliance Matrix: (Units=1/GPa)
#
#
# Indices 1 2 3 4 5 6 
#
# 1 0.017057 0.002471 0.000113 0.000000 0.004860 0.000000
# 2 0.002471 0.025848 0.000537 0.000000 -0.001515 0.000000
# 3 0.000113 0.000537 0.009621 0.000000 0.003918 0.000000
# 4 0.000000 0.000000 0.000000 0.046288 0.000000 0.010790
# 5 0.004860 -0.001515 0.003918 0.000000 0.024980 0.000000
# 6 0.000000 0.000000 0.000000 0.010790 0.000000 0.044013
#
#
# Mechanical properties :
#
#
# Convention : Reuss Voigt Hill
#
# Bulk Modulus (GPa) = 17.01667 22.60938 19.81302
# Shear Modulus (GPa) = 27.60075 33.28683 30.44379
#
# Velocity S-wave (km/s) = 3.38122 3.71321 3.55109
# Velocity P-wave (km/s) = 4.72145 5.26773 5.00205
#
# Compressibility (1/GPa) = 0.05876591
#
# Stress axis : x y z
#
# Youngs Moduli (GPa) = 58.62731 38.68827 103.94067
#
# Poissons Ratio (x) = -0.09559 -0.01174
# Poissons Ratio (y) = -0.14485 -0.05578
# Poissons Ratio (z) = -0.00662 -0.02076
#
# Static dielectric constant tensor:
#      x y z
#    x 2.017470 0.000000 -0.002060 
#    y 0.000000 1.849400 0.000000 
#    z -0.002060 0.000000 1.881900 
# 
# From -- ./inp_files/275302.got.cif
#   From: 2010.05.17/outbox.cif.g08.bks.cpg/sg12_138_cif.got.tgz:275302.got - 2010.06.03 13:09:07.
