data_PCOD9207126
_publ_section_title
;
Structure prediction by ZEFSAII (Michael W. Deem and Ramdas Pophale) SiO2 
 PCOD9207126
Probable space group: C 2/M
;
_chemical_formula_sum "Si O2"
_cell_formula_units_Z 56
_cell_length_a 8.843314
_cell_length_b 19.181975
_cell_length_c 20.279457
_cell_angle_alpha 90.000000
_cell_angle_beta 64.146444
_cell_angle_gamma 90.000000
_cell_volume 3095.740273
_symmetry_space_group_name_H-M "C 2/M"
_symmetry_group_IT_number 12
_symmetry_cell_setting 'monoclinic'
loop_
_space_group_symop_operation_xyz
x,y,z
-x,y,-z
-x,-y,-z
x,-y,z
1/2+x,1/2+y,z
1/2-x,1/2+y,-z
1/2-x,1/2-y,-z
1/2+x,1/2-y,z
loop_
_atom_site_type_symbol
_atom_site_label
_atom_site_fract_x
_atom_site_fract_y
_atom_site_fract_z
Si Si1 0.449535 0.417763 0.869768
Si Si2 0.689070 0.082237 0.130232
Si Si3 0.764411 0.826984 0.416481
Si Si4 0.902627 0.673016 0.416481
Si Si5 0.819307 0.672678 1.000000
Si Si6 0.034634 0.082993 0.287591
Si Si7 0.390184 0.917007 0.287591
O O1 0.402114 0.500000 0.882673
O O2 0.625392 0.409316 0.874608
O O3 0.473222 0.399849 0.788412
O O4 0.309385 0.369987 0.929494
O O5 0.668374 0.130013 0.070506
O O6 0.550046 0.100151 0.211588
O O7 0.667461 0.000000 0.117327
O O8 0.842180 0.750000 0.407820
O O9 0.715149 0.850242 0.500000
O O10 0.591443 0.823873 0.408557
O O11 0.895547 0.876641 0.355568
O O12 0.893316 0.623358 0.355568
O O13 0.750000 0.750000 0.000000
O O14 0.000000 0.676575 0.000000
O O15 0.219207 0.099229 0.280793
O O16 0.007721 0.000000 0.298739
O O17 0.394801 0.000000 0.298739
#
# Coordination Sequence:
#
# PCOD9207126 Si02
#       7
#     8   8   8   8   8   8   8
#     4  10  21  39  62  86 114 148 186 228 277 333
#     4  10  21  39  62  86 114 148 186 228 277 333
#     4  10  21  37  57  81 111 148 189 232 280 335
#     4  10  21  37  57  81 111 148 189 232 280 335
#     4  12  25  40  59  85 117 149 187 232 277 328
#     4  10  21  37  58  85 115 147 186 231 278 329
#     4  10  21  37  58  85 115 147 186 231 278 329
#
# _framework density 18.089373999999999
#
# number of rings (size 3 to 8) (size 9 to 14) (size 15 to 20)
#    0.000    1.714    0.000    4.286    0.000    8.571 
#    0.000    8.571    0.000    0.000    0.000    0.000 
#    0.000    0.000    0.000    0.000    0.000    0.000 
#
# Total GULP energy -156485.886588 kJ/mol
# GULP energy per Si atom -5588.781664 kJ/mol
# Density = 1.804820 g / cm^3
# Si number density = 18.089374 Si / 1000 Ang^3
#
#
#
# Elastic Constant Matrix: (Units=GPa)
#
#
# Indices 1 2 3 4 5 6 
#
# 1 129.3239 76.4860 94.9335 0.0000 -3.5593 0.0000
# 2 76.4860 83.7094 100.7719 0.0000 -1.9587 0.0000
# 3 94.9335 100.7719 172.8436 0.0000 0.0495 0.0000
# 4 0.0000 0.0000 0.0000 77.5659 0.0000 -3.5359
# 5 -3.5593 -1.9587 0.0495 0.0000 38.9714 0.0000
# 6 0.0000 0.0000 0.0000 -3.5359 0.0000 33.7189
#
#
#
# Elastic Compliance Matrix: (Units=1/GPa)
#
#
# Indices 1 2 3 4 5 6 
#
# 1 0.016896 -0.014244 -0.000976 0.000000 0.000828 0.000000
# 2 -0.014244 0.052241 -0.022635 0.000000 0.001353 0.000000
# 3 -0.000976 -0.022635 0.019518 0.000000 -0.001251 0.000000
# 4 0.000000 0.000000 0.000000 0.012954 0.000000 0.001358
# 5 0.000828 0.001353 -0.001251 0.000000 0.025805 0.000000
# 6 0.000000 0.000000 0.000000 0.001358 0.000000 0.029799
#
#
# Mechanical properties :
#
#
# Convention : Reuss Voigt Hill
#
# Bulk Modulus (GPa) = 77.24065 103.36219 90.30142
# Shear Modulus (GPa) = 21.07591 37.63027 29.35309
#
# Velocity S-wave (km/s) = 3.41706 4.56591 4.03261
# Velocity P-wave (km/s) = 7.63941 9.22283 8.46821
#
# Compressibility (1/GPa) = 0.01294655
#
# Stress axis : x y z
#
# Youngs Moduli (GPa) = 59.18616 19.14207 51.23417
#
# Poissons Ratio (x) = 0.27266 0.04998
# Poissons Ratio (y) = 0.84306 1.15966
# Poissons Ratio (z) = 0.05774 0.43327
#
# Static dielectric constant tensor:
#      x y z
#    x 1.602270 0.000000 0.000680 
#    y 0.000000 1.590720 0.000000 
#    z 0.000680 0.000000 1.593890 
# 
# From -- ./inp_files/257039.got.cif
#   From: 2010.05.17/outbox.cif.g08.bks.cpg/sg12_129_cif.got.tgz:257039.got - 2010.06.03 13:09:07.
