data_PCOD9207208
_publ_section_title
;
Structure prediction by ZEFSAII (Michael W. Deem and Ramdas Pophale) SiO2 
 PCOD9207208
Probable space group: C 2/M
;
_chemical_formula_sum "Si O2"
_cell_formula_units_Z 64
_cell_length_a 24.320650
_cell_length_b 26.685658
_cell_length_c 9.689315
_cell_angle_alpha 90.000000
_cell_angle_beta 149.716805
_cell_angle_gamma 90.000000
_cell_volume 3171.122804
_symmetry_space_group_name_H-M "C 2/M"
_symmetry_group_IT_number 12
_symmetry_cell_setting 'monoclinic'
loop_
_space_group_symop_operation_xyz
x,y,z
-x,y,-z
-x,-y,-z
x,-y,z
1/2+x,1/2+y,z
1/2-x,1/2+y,-z
1/2-x,1/2-y,-z
1/2+x,1/2-y,z
loop_
_atom_site_type_symbol
_atom_site_label
_atom_site_fract_x
_atom_site_fract_y
_atom_site_fract_z
Si Si1 0.781979 0.818659 0.166707
Si Si2 0.671901 0.338488 0.180601
Si Si3 0.608940 0.609376 0.788037
Si Si4 0.061070 0.268518 0.986685
Si Si5 0.938109 0.559619 0.148311
Si Si6 0.158271 0.559178 0.751932
Si Si7 0.852862 0.705654 0.373445
Si Si8 0.282384 0.861555 0.691507
O O1 0.875174 0.839902 0.268263
O O2 0.805465 0.762207 0.263923
O O3 0.773574 0.853521 0.281514
O O4 0.674060 0.817463 0.835279
O O5 0.781903 0.324460 0.332769
O O6 0.701277 0.364727 0.387682
O O7 0.603282 0.374703 0.933844
O O8 0.608545 0.286356 0.062347
O O9 0.500000 0.583124 0.500000
O O10 0.722274 0.580961 0.009892
O O11 0.976614 0.287791 0.687883
O O12 0.155762 0.309151 0.199346
O O13 0.000000 0.267239 0.000000
O O14 0.936869 0.500000 0.112207
O O15 0.883234 0.565303 0.180962
O O16 0.062626 0.577975 0.441902
O O17 0.869231 0.593627 0.894767
O O18 0.162957 0.500000 0.737754
#
# Coordination Sequence:
#
# PCOD9207208 Si02
#       8
#     8   8   8   8   8   8   8   8
#     4  10  21  37  57  83 121 156 211 254 299 349
#     4  11  24  40  55  85 127 163 207 247 301 363
#     4  11  23  40  61  90 121 163 208 257 305 362
#     4  12  23  36  59  82 121 167 208 244 303 361
#     4   9  20  38  65  96 123 153 195 256 319 368
#     4   9  19  39  66  95 123 152 199 259 314 367
#     4  10  21  38  53  82 118 161 205 257 293 347
#     4  12  22  37  62  90 119 164 205 251 307 370
#
# _framework density 20.182126
#
# number of rings (size 3 to 8) (size 9 to 14) (size 15 to 20)
#    0.000    1.500    3.750    2.625    3.500    0.750 
#    0.000    0.625    0.000    1.875    0.000    1.750 
#    0.000    0.000    0.000    0.000    0.000    0.000 
#
# Total GULP energy -178782.302307 kJ/mol
# GULP energy per Si atom -5586.946947 kJ/mol
# Density = 2.013619 g / cm^3
# Si number density = 20.182126 Si / 1000 Ang^3
#
#
#
# Elastic Constant Matrix: (Units=GPa)
#
#
# Indices 1 2 3 4 5 6 
#
# 1 60.0338 7.1191 38.5760 0.0000 -14.5380 0.0000
# 2 7.1191 31.7457 17.2213 0.0000 -3.4580 0.0000
# 3 38.5760 17.2213 129.3886 0.0000 -15.5255 0.0000
# 4 0.0000 0.0000 0.0000 30.0005 0.0000 5.6478
# 5 -14.5380 -3.4580 -15.5255 0.0000 28.4848 0.0000
# 6 0.0000 0.0000 0.0000 5.6478 0.0000 5.8841
#
#
#
# Elastic Compliance Matrix: (Units=1/GPa)
#
#
# Indices 1 2 3 4 5 6 
#
# 1 0.022336 -0.001115 -0.005520 0.000000 0.008256 0.000000
# 2 -0.001115 0.034091 -0.004041 0.000000 0.001367 0.000000
# 3 -0.005520 -0.004041 0.010181 0.000000 0.002241 0.000000
# 4 0.000000 0.000000 0.000000 0.040684 0.000000 -0.039050
# 5 0.008256 0.001367 0.002241 0.000000 0.040707 0.000000
# 6 0.000000 0.000000 0.000000 -0.039050 0.000000 0.207431
#
#
# Mechanical properties :
#
#
# Convention : Reuss Voigt Hill
#
# Bulk Modulus (GPa) = 22.09649 38.55563 30.32606
# Shear Modulus (GPa) = 12.75936 23.42401 18.09168
#
# Velocity S-wave (km/s) = 2.51711 3.41050 2.99728
# Velocity P-wave (km/s) = 4.40682 5.88677 5.19972
#
# Compressibility (1/GPa) = 0.04525606
#
# Stress axis : x y z
#
# Youngs Moduli (GPa) = 44.77105 29.33286 98.21995
#
# Poissons Ratio (x) = 0.03271 0.54220
# Poissons Ratio (y) = 0.04992 0.39691
# Poissons Ratio (z) = 0.24715 0.11853
#
# Static dielectric constant tensor:
#      x y z
#    x 1.729430 0.000000 0.001260 
#    y 0.000000 1.709990 0.000000 
#    z 0.001260 0.000000 1.773250 
# 
# From -- ./inp_files/100205.got.cif
#   From: 2010.05.17/outbox.cif.g08.bks.cpg/sg12_51_cif.got.tgz:100205.got - 2010.06.03 13:09:07.
