data_PCOD9207308
_publ_section_title
;
Structure prediction by ZEFSAII (Michael W. Deem and Ramdas Pophale) SiO2 
 PCOD9207308
Probable space group: C 2/M
;
_chemical_formula_sum "Si O2"
_cell_formula_units_Z 64
_cell_length_a 25.839611
_cell_length_b 9.135735
_cell_length_c 15.194953
_cell_angle_alpha 90.000000
_cell_angle_beta 70.018687
_cell_angle_gamma 90.000000
_cell_volume 3371.057581
_symmetry_space_group_name_H-M "C 2/M"
_symmetry_group_IT_number 12
_symmetry_cell_setting 'monoclinic'
loop_
_space_group_symop_operation_xyz
x,y,z
-x,y,-z
-x,-y,-z
x,-y,z
1/2+x,1/2+y,z
1/2-x,1/2+y,-z
1/2-x,1/2-y,-z
1/2+x,1/2-y,z
loop_
_atom_site_type_symbol
_atom_site_label
_atom_site_fract_x
_atom_site_fract_y
_atom_site_fract_z
Si Si1 0.605036 0.825106 0.091734
Si Si2 0.594751 0.175305 0.585061
Si Si3 0.994054 0.174173 0.108345
Si Si4 0.015760 0.834188 0.387080
Si Si5 0.118129 0.676139 0.762349
Si Si6 0.186783 0.325687 0.885771
Si Si7 0.800572 0.675134 0.823882
Si Si8 0.124773 0.675824 0.371993
O O1 0.547672 0.740360 0.125060
O O2 0.649277 0.784338 0.140659
O O3 0.594592 0.000000 0.104238
O O4 0.637045 0.795143 0.981836
O O5 0.535108 0.250636 0.626887
O O6 0.627890 0.210431 0.654198
O O7 0.621968 0.219639 0.476236
O O8 0.586735 0.000000 0.586059
O O9 0.938543 0.249419 0.174679
O O10 0.991398 0.000000 0.122721
O O11 0.000000 0.203248 0.000000
O O12 0.072651 0.747024 0.353165
O O13 0.000000 0.839996 0.500000
O O14 0.021308 0.000000 0.351174
O O15 0.111802 0.500000 0.774313
O O16 0.166262 0.720650 0.801094
O O17 0.195738 0.500000 0.881981
O O18 0.243127 0.248958 0.879753
O O19 0.794302 0.500000 0.833673
O O20 0.820764 0.714856 0.713775
O O21 0.118671 0.500000 0.371219
#
# Coordination Sequence:
#
# PCOD9207308 Si02
#       8
#     8   8   8   8   8   8   8   8
#     4  10  21  38  59  82 110 146 184 221 271 333
#     4   9  18  33  54  76 104 145 186 222 263 321
#     4  11  23  37  56  86 118 146 177 223 278 328
#     4   9  17  29  47  73 106 140 173 218 274 322
#     4  10  21  37  58  81 109 149 189 222 267 330
#     4  10  21  38  58  79 106 142 185 231 276 324
#     4  10  22  37  57  82 108 142 185 231 275 322
#     4   9  18  34  52  75 107 142 184 227 268 318
#
# _framework density 18.985140000000001
#
# number of rings (size 3 to 8) (size 9 to 14) (size 15 to 20)
#    0.000    2.250    1.250    1.125    1.750    4.500 
#    0.000    0.625    0.000    0.000    0.000    0.000 
#    0.000    0.000    0.000    0.000    0.000    0.000 
#
# Total GULP energy -178608.612801 kJ/mol
# GULP energy per Si atom -5581.519150 kJ/mol
# Density = 1.894193 g / cm^3
# Si number density = 18.985140 Si / 1000 Ang^3
#
#
#
# Elastic Constant Matrix: (Units=GPa)
#
#
# Indices 1 2 3 4 5 6 
#
# 1 79.7567 17.0014 12.8062 0.0000 9.4335 0.0000
# 2 17.0014 9.9248 12.8806 0.0000 3.1300 0.0000
# 3 12.8062 12.8806 47.3905 0.0000 20.6569 0.0000
# 4 0.0000 0.0000 0.0000 14.1045 0.0000 -1.0561
# 5 9.4335 3.1300 20.6569 0.0000 28.0673 0.0000
# 6 0.0000 0.0000 0.0000 -1.0561 0.0000 20.8357
#
#
#
# Elastic Compliance Matrix: (Units=1/GPa)
#
#
# Indices 1 2 3 4 5 6 
#
# 1 0.023103 -0.053109 0.013243 0.000000 -0.011589 0.000000
# 2 -0.053109 0.286015 -0.084312 0.000000 0.048006 0.000000
# 3 0.013243 -0.084312 0.056361 0.000000 -0.036529 0.000000
# 4 0.000000 0.000000 0.000000 0.071170 0.000000 0.003607
# 5 -0.011589 0.048006 -0.036529 0.000000 0.061055 0.000000
# 6 0.000000 0.000000 0.000000 0.003607 0.000000 0.048177
#
#
# Mechanical properties :
#
#
# Convention : Reuss Voigt Hill
#
# Bulk Modulus (GPa) = 8.53790 24.71646 16.62718
# Shear Modulus (GPa) = 6.00040 18.89375 12.44708
#
# Velocity S-wave (km/s) = 1.77973 3.15808 2.56329
# Velocity P-wave (km/s) = 2.95468 5.13274 4.18779
#
# Compressibility (1/GPa) = 0.11712482
#
# Stress axis : x y z
#
# Youngs Moduli (GPa) = 43.28350 3.49632 17.74284
#
# Poissons Ratio (x) = 0.18569 -0.23497
# Poissons Ratio (y) = 2.29875 1.49593
# Poissons Ratio (z) = -0.57322 0.29478
#
# Static dielectric constant tensor:
#      x y z
#    x 1.616660 0.000000 0.033790 
#    y 0.000000 1.637360 0.000000 
#    z 0.033790 0.000000 1.709980 
# 
# From -- ./inp_files/243906.got.cif
#   From: 2010.05.17/outbox.cif.g08.bks.cpg/sg12_122_cif.got.tgz:243906.got - 2010.06.03 13:09:07.
