data_PCOD9207683
_publ_section_title
;
Structure prediction by ZEFSAII (Michael W. Deem and Ramdas Pophale) SiO2 
 PCOD9207683
Probable space group: C 2/M
;
_chemical_formula_sum "Si O2"
_cell_formula_units_Z 40
_cell_length_a 21.407408
_cell_length_b 12.795888
_cell_length_c 10.510873
_cell_angle_alpha 90.000000
_cell_angle_beta 144.135788
_cell_angle_gamma 90.000000
_cell_volume 1686.831895
_symmetry_space_group_name_H-M "C 2/M"
_symmetry_group_IT_number 12
_symmetry_cell_setting 'monoclinic'
loop_
_space_group_symop_operation_xyz
x,y,z
-x,y,-z
-x,-y,-z
x,-y,z
1/2+x,1/2+y,z
1/2-x,1/2+y,-z
1/2-x,1/2-y,-z
1/2+x,1/2-y,z
loop_
_atom_site_type_symbol
_atom_site_label
_atom_site_fract_x
_atom_site_fract_y
_atom_site_fract_z
Si Si1 0.372356 0.880198 0.805564
Si Si2 0.975569 0.883533 0.610914
Si Si3 0.578226 0.115575 0.746033
Si Si4 0.629876 0.825151 0.477123
Si Si5 0.679401 0.713169 0.060628
O O1 0.327494 0.854256 0.590813
O O2 0.340340 0.788031 0.849199
O O3 0.343634 0.000000 0.796156
O O4 0.500000 0.875575 0.000000
O O5 0.000000 0.869339 0.500000
O O6 0.898087 0.795956 0.540040
O O7 0.933747 0.000000 0.558251
O O8 0.084873 0.865338 0.868545
O O9 0.500000 0.140987 0.500000
O O10 0.485060 0.119122 0.699290
O O11 0.622054 0.000000 0.806805
O O12 0.666033 0.199947 0.927092
O O13 0.714359 0.849346 0.727769
#
# Coordination Sequence:
#
# PCOD9207683 Si02
#       5
#     8   8   8   8   8
#     4  11  21  38  64  87 115 151 190 242 302 351
#     4  10  23  41  58  82 120 160 192 231 287 344
#     4  10  21  37  59  88 119 152 195 245 294 345
#     4  11  22  38  60  88 116 151 196 241 288 345
#     4  11  22  38  60  88 116 151 196 241 288 345
#
# _framework density 23.713093000000001
#
# number of rings (size 3 to 8) (size 9 to 14) (size 15 to 20)
#    0.000    1.400    4.000    4.200    0.000    6.400 
#    0.000    6.000    0.000    0.000    0.000    0.000 
#    0.000    0.000    0.000    0.000    0.000    0.000 
#
# Total GULP energy -111685.766442 kJ/mol
# GULP energy per Si atom -5584.288322 kJ/mol
# Density = 2.365912 g / cm^3
# Si number density = 23.713093 Si / 1000 Ang^3
#
#
#
# Elastic Constant Matrix: (Units=GPa)
#
#
# Indices 1 2 3 4 5 6 
#
# 1 60.8098 22.0074 27.3388 0.0000 -17.0459 0.0000
# 2 22.0074 108.0209 -21.0818 0.0000 -2.4974 0.0000
# 3 27.3388 -21.0818 132.8414 0.0000 -6.0160 0.0000
# 4 0.0000 0.0000 0.0000 -15.1914 0.0000 -4.2929
# 5 -17.0459 -2.4974 -6.0160 0.0000 47.1171 0.0000
# 6 0.0000 0.0000 0.0000 -4.2929 0.0000 7.9172
#
#
#
# Elastic Compliance Matrix: (Units=1/GPa)
#
#
# Indices 1 2 3 4 5 6 
#
# 1 0.022843 -0.005509 -0.005245 0.000000 0.007303 0.000000
# 2 -0.005509 0.010905 0.002817 0.000000 -0.001055 0.000000
# 3 -0.005245 0.002817 0.009027 0.000000 -0.000596 0.000000
# 4 0.000000 0.000000 0.000000 -0.057081 0.000000 -0.030950
# 5 0.007303 -0.001055 -0.000596 0.000000 0.023734 0.000000
# 6 0.000000 0.000000 0.000000 -0.030950 0.000000 0.109526
#
#
# Mechanical properties :
#
#
# Convention : Reuss Voigt Hill
#
# Bulk Modulus (GPa) = 37.17221 39.80011 38.48616
# Shear Modulus (GPa) = 34.77174 26.19575 30.48374
#
# Velocity S-wave (km/s) = 3.83345 3.32730 3.58931
# Velocity P-wave (km/s) = 5.94169 5.61976 5.78296
#
# Compressibility (1/GPa) = 0.02690182
#
# Stress axis : x y z
#
# Youngs Moduli (GPa) = 43.77670 91.70071 110.77714
#
# Poissons Ratio (x) = 0.50515 0.58099
# Poissons Ratio (y) = 0.24115 -0.31200
# Poissons Ratio (z) = 0.22959 -0.25828
#
# Static dielectric constant tensor:
#      x y z
#    x 2.045100 0.000000 -0.045120 
#    y 0.000000 1.869960 0.000000 
#    z -0.045120 0.000000 1.910050 
# 
# From -- ./inp_files/183323.got.cif
#   From: 2010.05.17/outbox.cif.g08.bks.cpg/sg12_92_cif.got.tgz:183323.got - 2010.06.03 13:09:07.
