data_PCOD9207932
_publ_section_title
;
Structure prediction by ZEFSAII (Michael W. Deem and Ramdas Pophale) SiO2 
 PCOD9207932
Probable space group: C 2/M
;
_chemical_formula_sum "Si O2"
_cell_formula_units_Z 56
_cell_length_a 9.656912
_cell_length_b 22.089331
_cell_length_c 15.771581
_cell_angle_alpha 90.000000
_cell_angle_beta 119.581082
_cell_angle_gamma 90.000000
_cell_volume 2925.799425
_symmetry_space_group_name_H-M "C 2/M"
_symmetry_group_IT_number 12
_symmetry_cell_setting 'monoclinic'
loop_
_space_group_symop_operation_xyz
x,y,z
-x,y,-z
-x,-y,-z
x,-y,z
1/2+x,1/2+y,z
1/2-x,1/2+y,-z
1/2-x,1/2-y,-z
1/2+x,1/2-y,z
loop_
_atom_site_type_symbol
_atom_site_label
_atom_site_fract_x
_atom_site_fract_y
_atom_site_fract_z
Si Si1 0.677724 0.069907 0.753306
Si Si2 0.163539 0.426718 0.101629
Si Si3 0.174569 0.363730 0.587634
Si Si4 0.031375 0.072804 0.915413
Si Si5 0.686708 0.734084 0.575043
Si Si6 0.174918 0.933005 0.515482
Si Si7 0.866081 0.621806 0.718492
O O1 0.652375 0.082902 0.647344
O O2 0.556332 0.113997 0.765283
O O3 0.863878 0.083520 0.819878
O O4 0.650787 0.000000 0.770818
O O5 0.171755 0.500000 0.118170
O O6 0.314029 0.406934 0.089553
O O7 0.171319 0.394167 0.195493
O O8 0.000000 0.415296 0.000000
O O9 0.215426 0.297197 0.634602
O O10 0.286622 0.385162 0.545606
O O11 0.000000 0.352690 0.500000
O O12 0.053542 0.000000 0.929787
O O13 0.000000 0.097294 0.000000
O O14 0.500000 0.719232 0.500000
O O15 0.750000 0.750000 0.500000
O O16 0.783582 0.682113 0.654404
O O17 0.294541 0.926962 0.630545
O O18 0.000000 0.924944 0.500000
O O19 0.187527 0.000000 0.481917
#
# Coordination Sequence:
#
# PCOD9207932 Si02
#       7
#     8   8   8   8   8   8   8
#     4  11  22  36  58  87 119 155 199 248 309 370
#     4  10  21  37  60  91 126 162 203 254 317 379
#     4  11  22  39  58  82 115 162 206 253 299 358
#     4   9  19  36  58  85 118 156 198 245 299 372
#     4  11  23  41  60  83 117 162 219 256 297 360
#     4  11  23  35  53  85 125 160 196 249 312 371
#     4  12  22  37  58  86 121 165 202 253 301 365
#
# _framework density 19.140067999999999
#
# number of rings (size 3 to 8) (size 9 to 14) (size 15 to 20)
#    0.000    1.286    2.857    3.857    2.000    2.857 
#    0.000    0.000    0.000    0.857    0.000    5.000 
#    0.000    0.000    0.000    0.000    0.000    0.000 
#
# Total GULP energy -156070.901537 kJ/mol
# GULP energy per Si atom -5573.960769 kJ/mol
# Density = 1.909650 g / cm^3
# Si number density = 19.140068 Si / 1000 Ang^3
#
#
#
# Elastic Constant Matrix: (Units=GPa)
#
#
# Indices 1 2 3 4 5 6 
#
# 1 163.2477 46.4677 55.4790 0.0000 -5.5659 0.0000
# 2 46.4677 97.4249 32.0802 0.0000 8.8171 0.0000
# 3 55.4790 32.0802 65.6273 0.0000 -10.1336 0.0000
# 4 0.0000 0.0000 0.0000 24.2750 0.0000 1.8950
# 5 -5.5659 8.8171 -10.1336 0.0000 28.2396 0.0000
# 6 0.0000 0.0000 0.0000 1.8950 0.0000 20.0427
#
#
#
# Elastic Compliance Matrix: (Units=1/GPa)
#
#
# Indices 1 2 3 4 5 6 
#
# 1 0.008947 -0.002134 -0.006506 0.000000 0.000095 0.000000
# 2 -0.002134 0.013908 -0.006066 0.000000 -0.006940 0.000000
# 3 -0.006506 -0.006066 0.025193 0.000000 0.009652 0.000000
# 4 0.000000 0.000000 0.000000 0.041501 0.000000 -0.003924
# 5 0.000095 -0.006940 0.009652 0.000000 0.041060 0.000000
# 6 0.000000 0.000000 0.000000 -0.003924 0.000000 0.050265
#
#
# Mechanical properties :
#
#
# Convention : Reuss Voigt Hill
#
# Bulk Modulus (GPa) = 53.65883 66.03928 59.84906
# Shear Modulus (GPa) = 23.09494 27.32966 25.21230
#
# Velocity S-wave (km/s) = 3.47742 3.78283 3.63333
# Velocity P-wave (km/s) = 6.64974 7.32515 6.99560
#
# Compressibility (1/GPa) = 0.01863626
#
# Stress axis : x y z
#
# Youngs Moduli (GPa) = 111.76533 71.90342 39.69335
#
# Poissons Ratio (x) = 0.15343 0.25825
# Poissons Ratio (y) = 0.23849 0.24078
# Poissons Ratio (z) = 0.72715 0.43617
#
# Static dielectric constant tensor:
#      x y z
#    x 1.717250 0.000000 0.015590 
#    y 0.000000 1.716290 0.000000 
#    z 0.015590 0.000000 1.697710 
# 
# From -- ./inp_files/198981.got.cif
#   From: 2010.05.17/outbox.cif.g08.bks.cpg/sg12_100_cif.got.tgz:198981.got - 2010.06.03 13:09:07.
