data_PCOD9207698
_publ_section_title
;
Structure prediction by ZEFSAII (Michael W. Deem and Ramdas Pophale) SiO2 
 PCOD9207698
Probable space group: C 2/M
;
_chemical_formula_sum "Si O2"
_cell_formula_units_Z 32
_cell_length_a 15.413990
_cell_length_b 18.873444
_cell_length_c 9.786984
_cell_angle_alpha 90.000000
_cell_angle_beta 140.524920
_cell_angle_gamma 90.000000
_cell_volume 1810.074247
_symmetry_space_group_name_H-M "C 2/M"
_symmetry_group_IT_number 12
_symmetry_cell_setting 'monoclinic'
loop_
_space_group_symop_operation_xyz
x,y,z
-x,y,-z
-x,-y,-z
x,-y,z
1/2+x,1/2+y,z
1/2-x,1/2+y,-z
1/2-x,1/2-y,-z
1/2+x,1/2-y,z
loop_
_atom_site_type_symbol
_atom_site_label
_atom_site_fract_x
_atom_site_fract_y
_atom_site_fract_z
Si Si1 0.219710 0.726846 0.616190
Si Si2 0.082385 0.917065 0.858054
Si Si3 0.846084 0.422394 0.366634
Si Si4 0.000000 0.174433 0.000000
Si Si5 0.500000 0.326098 0.500000
O O1 0.250000 0.750000 0.500000
O O2 0.168660 0.645780 0.556866
O O3 0.368337 0.722193 0.866664
O O4 0.113174 0.776421 0.565082
O O5 0.067157 0.875263 0.698311
O O6 0.047611 0.000000 0.801735
O O7 0.234382 0.913555 0.109416
O O8 0.987357 0.877319 0.854227
O O9 0.817563 0.500000 0.394482
O O10 0.000000 0.422709 0.500000
#
# Coordination Sequence:
#
# PCOD9207698 Si02
#       5
#     8   8   8   4   4
#     4  11  22  38  56  89 120 149 194 240 296 345
#     4  10  21  37  59  89 119 154 197 241 292 349
#     4   9  19  37  61  84 113 154 200 240 282 343
#     4  10  21  38  62  84 117 156 202 240 285 346
#     4  12  23  38  61  88 124 156 188 246 301 350
#
# _framework density 17.678833000000001
#
# number of rings (size 3 to 8) (size 9 to 14) (size 15 to 20)
#    0.000    1.750    3.750    0.750    0.000    7.000 
#    0.000    0.000    0.000    0.000    0.000    7.875 
#    0.000    0.000    0.000    0.000    0.000    0.000 
#
# Total GULP energy -89166.632861 kJ/mol
# GULP energy per Si atom -5572.914554 kJ/mol
# Density = 1.763860 g / cm^3
# Si number density = 17.678833 Si / 1000 Ang^3
#
#
#
# Elastic Constant Matrix: (Units=GPa)
#
#
# Indices 1 2 3 4 5 6 
#
# 1 113.7429 72.2647 42.4045 0.0000 -6.1624 0.0000
# 2 72.2647 152.0104 62.5025 0.0000 -16.0769 0.0000
# 3 42.4045 62.5025 44.4574 0.0000 -0.1927 0.0000
# 4 0.0000 0.0000 0.0000 23.5953 0.0000 0.7182
# 5 -6.1624 -16.0769 -0.1927 0.0000 40.2796 0.0000
# 6 0.0000 0.0000 0.0000 0.7182 0.0000 19.9985
#
#
#
# Elastic Compliance Matrix: (Units=1/GPa)
#
#
# Indices 1 2 3 4 5 6 
#
# 1 0.014169 -0.002520 -0.009968 0.000000 0.001114 0.000000
# 2 -0.002520 0.017708 -0.022465 0.000000 0.006575 0.000000
# 3 -0.009968 -0.022465 0.063540 0.000000 -0.010187 0.000000
# 4 0.000000 0.000000 0.000000 0.042428 0.000000 -0.001524
# 5 0.001114 0.006575 -0.010187 0.000000 0.027573 0.000000
# 6 0.000000 0.000000 0.000000 -0.001524 0.000000 0.050059
#
#
# Mechanical properties :
#
#
# Convention : Reuss Voigt Hill
#
# Bulk Modulus (GPa) = 39.19502 73.83935 56.51718
# Shear Modulus (GPa) = 17.01353 25.64393 21.32873
#
# Velocity S-wave (km/s) = 3.10557 3.81273 3.47718
# Velocity P-wave (km/s) = 5.92268 7.82562 6.93969
#
# Compressibility (1/GPa) = 0.02551345
#
# Stress axis : x y z
#
# Youngs Moduli (GPa) = 70.57708 56.47009 15.73824
#
# Poissons Ratio (x) = 0.14228 0.15687
# Poissons Ratio (y) = 0.17782 0.35355
# Poissons Ratio (z) = 0.70348 1.26858
#
# Static dielectric constant tensor:
#      x y z
#    x 1.597690 0.000000 0.021850 
#    y 0.000000 1.631760 0.000000 
#    z 0.021850 0.000000 1.660050 
# 
# From -- ./inp_files/46457.got.cif
#   From: 2010.05.17/outbox.cif.g08.bks.cpg/sg12_24_cif.got.tgz:46457.got - 2010.06.03 13:09:07.
