data_PCOD9207836
_publ_section_title
;
Structure prediction by ZEFSAII (Michael W. Deem and Ramdas Pophale) SiO2 
 PCOD9207836
Probable space group: C 2/M
;
_chemical_formula_sum "Si O2"
_cell_formula_units_Z 64
_cell_length_a 24.368174
_cell_length_b 7.961255
_cell_length_c 15.497229
_cell_angle_alpha 90.000000
_cell_angle_beta 92.003548
_cell_angle_gamma 90.000000
_cell_volume 3004.643782
_symmetry_space_group_name_H-M "C 2/M"
_symmetry_group_IT_number 12
_symmetry_cell_setting 'monoclinic'
loop_
_space_group_symop_operation_xyz
x,y,z
-x,y,-z
-x,-y,-z
x,-y,z
1/2+x,1/2+y,z
1/2-x,1/2+y,-z
1/2-x,1/2-y,-z
1/2+x,1/2-y,z
loop_
_atom_site_type_symbol
_atom_site_label
_atom_site_fract_x
_atom_site_fract_y
_atom_site_fract_z
Si Si1 0.957762 0.201269 0.923988
Si Si2 0.584582 0.205904 0.425935
Si Si3 0.006450 0.296610 0.265855
Si Si4 0.207187 0.692454 0.425612
Si Si5 0.166917 0.203509 0.050792
Si Si6 0.911340 0.704970 0.382241
Si Si7 0.781683 0.198280 0.128967
Si Si8 0.795012 0.693628 0.314722
O O1 0.979781 0.236591 0.829121
O O2 0.894715 0.262985 0.931469
O O3 0.954939 0.000000 0.934722
O O4 0.000000 0.265334 0.000000
O O5 0.549773 0.260175 0.341506
O O6 0.647039 0.270198 0.420605
O O7 0.566628 0.253874 0.522095
O O8 0.582030 0.000000 0.423793
O O9 0.006985 0.500000 0.263133
O O10 0.948555 0.241354 0.304083
O O11 0.196538 0.500000 0.444070
O O12 0.250000 0.750000 0.500000
O O13 0.239927 0.712734 0.338804
O O14 0.216766 0.267595 0.112811
O O15 0.167780 0.000000 0.055594
O O16 0.186165 0.252430 0.955417
O O17 0.910552 0.500000 0.380825
O O18 0.848715 0.760967 0.366250
O O19 0.803466 0.291369 0.213864
O O20 0.790124 0.000000 0.140558
O O21 0.787444 0.500000 0.339164
#
# Coordination Sequence:
#
# PCOD9207836 Si02
#       8
#     8   8   8   8   8   8   8   8
#     4  10  23  42  61  82 116 157 190 231 293 355
#     4   9  18  35  59  85 115 147 187 237 286 337
#     4  10  21  37  62  90 111 145 197 246 287 334
#     4  11  21  36  56  83 117 154 193 235 286 343
#     4   9  20  40  61  83 113 152 192 233 293 355
#     4   9  18  35  58  85 116 152 193 236 287 340
#     4  10  21  37  60  88 114 146 192 242 288 343
#     4  11  22  36  56  84 119 155 191 234 288 350
#
# _framework density 21.300360999999999
#
# number of rings (size 3 to 8) (size 9 to 14) (size 15 to 20)
#    0.000    2.125    1.250    1.500    3.500    2.750 
#    0.000    1.250    0.000    0.750    0.000    0.000 
#    0.000    0.000    0.000    0.000    0.000    0.000 
#
# Total GULP energy -178615.967843 kJ/mol
# GULP energy per Si atom -5581.748995 kJ/mol
# Density = 2.125188 g / cm^3
# Si number density = 21.300361 Si / 1000 Ang^3
#
#
#
# Elastic Constant Matrix: (Units=GPa)
#
#
# Indices 1 2 3 4 5 6 
#
# 1 110.3967 -0.0290 42.3882 0.0000 -18.6531 0.0000
# 2 -0.0290 14.8682 -3.2790 0.0000 2.0788 0.0000
# 3 42.3882 -3.2790 126.0495 0.0000 -3.4155 0.0000
# 4 0.0000 0.0000 0.0000 25.5932 0.0000 -2.1510
# 5 -18.6531 2.0788 -3.4155 0.0000 26.5960 0.0000
# 6 0.0000 0.0000 0.0000 -2.1510 0.0000 17.1282
#
#
#
# Elastic Compliance Matrix: (Units=1/GPa)
#
#
# Indices 1 2 3 4 5 6 
#
# 1 0.011878 -0.001938 -0.003828 0.000000 0.007990 0.000000
# 2 -0.001938 0.068652 0.002263 0.000000 -0.006435 0.000000
# 3 -0.003828 0.002263 0.009234 0.000000 -0.001676 0.000000
# 4 0.000000 0.000000 0.000000 0.039490 0.000000 0.004959
# 5 0.007990 -0.006435 -0.001676 0.000000 0.043491 0.000000
# 6 0.000000 0.000000 0.000000 0.004959 0.000000 0.059006
#
#
# Mechanical properties :
#
#
# Convention : Reuss Voigt Hill
#
# Bulk Modulus (GPa) = 12.08340 36.60832 24.34586
# Shear Modulus (GPa) = 18.77274 28.01243 23.39259
#
# Velocity S-wave (km/s) = 2.97195 3.63039 3.31754
# Velocity P-wave (km/s) = 4.17873 5.89890 5.11169
#
# Compressibility (1/GPa) = 0.08275820
#
# Stress axis : x y z
#
# Youngs Moduli (GPa) = 84.19154 14.56612 108.29311
#
# Poissons Ratio (x) = 0.02823 0.41456
# Poissons Ratio (y) = 0.16318 -0.24510
# Poissons Ratio (z) = 0.32230 -0.03297
#
# Static dielectric constant tensor:
#      x y z
#    x 1.799490 0.000000 -0.010880 
#    y 0.000000 1.781570 0.000000 
#    z -0.010880 0.000000 1.763300 
# 
# From -- ./inp_files/238771.got.cif
#   From: 2010.05.17/outbox.cif.g08.bks.cpg/sg12_120_cif.got.tgz:238771.got - 2010.06.03 13:09:07.
