data_PCOD9207977
_publ_section_title
;
Structure prediction by ZEFSAII (Michael W. Deem and Ramdas Pophale) SiO2 
 PCOD9207977
Probable space group: C 2/M
;
_chemical_formula_sum "Si O2"
_cell_formula_units_Z 50
_cell_length_a 17.061845
_cell_length_b 14.431428
_cell_length_c 30.095691
_cell_angle_alpha 90.000000
_cell_angle_beta 163.870691
_cell_angle_gamma 90.000000
_cell_volume 2058.644633
_symmetry_space_group_name_H-M "C 2/M"
_symmetry_group_IT_number 12
_symmetry_cell_setting 'monoclinic'
loop_
_space_group_symop_operation_xyz
x,y,z
-x,y,-z
-x,-y,-z
x,-y,z
1/2+x,1/2+y,z
1/2-x,1/2+y,-z
1/2-x,1/2-y,-z
1/2+x,1/2-y,z
loop_
_atom_site_type_symbol
_atom_site_label
_atom_site_fract_x
_atom_site_fract_y
_atom_site_fract_z
Si Si1 0.036617 0.758966 0.567961
Si Si2 0.000000 0.500000 0.000000
Si Si3 0.751217 0.106817 0.033398
Si Si4 0.815319 0.863847 0.225819
Si Si5 0.127210 0.316557 0.873508
Si Si6 0.586400 0.834944 0.753085
Si Si7 0.971039 0.599298 0.598569
O O1 0.293974 0.828998 0.702096
O O2 0.000000 0.710894 0.500000
O O3 0.743041 0.808328 0.418633
O O4 0.092202 0.683958 0.636186
O O5 0.237980 0.420699 0.139883
O O6 0.421551 0.104404 0.868484
O O7 0.781879 0.132284 0.998107
O O8 0.849626 0.000000 0.096661
O O9 0.848003 0.203325 0.110080
O O10 0.778630 0.757699 0.193506
O O11 0.132142 0.883000 0.414211
O O12 0.199628 0.353723 0.864053
O O13 0.585411 0.901692 0.710791
O O14 0.023507 0.500000 0.605665
#
# Coordination Sequence:
#
# PCOD9207977 Si02
#       7
#     8   2   8   8   8   8   8
#     4   9  19  37  58  81 112 155 193 239 299 352
#     4  12  20  32  60  88 118 136 180 256 288 350
#     4  11  22  38  60  83 118 153 192 254 298 349
#     4  11  21  37  57  89 117 147 194 246 306 338
#     4  10  22  39  57  84 116 155 201 237 295 362
#     4  10  21  37  61  83 117 159 192 243 300 356
#     4  11  21  36  58  87 121 154 196 244 293 357
#
# _framework density 24.287824000000001
#
# number of rings (size 3 to 8) (size 9 to 14) (size 15 to 20)
#    0.000    1.600    1.600    4.800    0.000    1.600 
#    0.000    0.000    0.000    4.800    0.000    7.280 
#    0.000    0.000    0.000    0.000    0.000    0.000 
#
# Total GULP energy -139392.475162 kJ/mol
# GULP energy per Si atom -5575.699006 kJ/mol
# Density = 2.423254 g / cm^3
# Si number density = 24.287824 Si / 1000 Ang^3
#
#
#
# Elastic Constant Matrix: (Units=GPa)
#
#
# Indices 1 2 3 4 5 6 
#
# 1 107.7846 -3.2592 17.0795 0.0349 -9.0802 -0.0368
# 2 -3.2592 57.0164 -7.9057 0.0178 3.6818 -0.0694
# 3 17.0795 -7.9057 67.0984 0.1354 2.7375 -0.1679
# 4 0.0349 0.0178 0.1354 20.3632 -0.0216 -18.0281
# 5 -9.0802 3.6818 2.7375 -0.0216 41.6483 0.0096
# 6 -0.0368 -0.0694 -0.1679 -18.0281 0.0096 5.4592
#
#
#
# Elastic Compliance Matrix: (Units=1/GPa)
#
#
# Indices 1 2 3 4 5 6 
#
# 1 0.009888 0.000054 -0.002605 0.000006 0.002322 0.000004
# 2 0.000054 0.017954 0.002172 -0.000121 -0.001718 -0.000100
# 3 -0.002605 0.002172 0.015896 -0.000176 -0.001805 -0.000081
# 4 0.000006 -0.000121 -0.000176 -0.025526 0.000030 -0.084303
# 5 0.002322 -0.001718 -0.001805 0.000030 0.024787 -0.000007
# 6 0.000004 -0.000100 -0.000081 -0.084303 -0.000007 -0.095224
#
#
# Mechanical properties :
#
#
# Convention : Reuss Voigt Hill
#
# Bulk Modulus (GPa) = 23.26717 27.08095 25.17406
# Shear Modulus (GPa) = -134.62916 28.55978 -53.03469
#
# Velocity S-wave (km/s) = -7.45326 3.43284 -4.67796
# Velocity P-wave (km/s) = 8.02917 5.18525 4.33479
#
# Compressibility (1/GPa) = 0.04297901
#
# Stress axis : x y z
#
# Youngs Moduli (GPa) = 101.13409 55.69819 62.90767
#
# Poissons Ratio (x) = -0.00301 0.16389
# Poissons Ratio (y) = -0.00546 -0.13662
# Poissons Ratio (z) = 0.26348 -0.12096
#
# Static dielectric constant tensor:
#      x y z
#    x 2.017150 0.000000 -0.033750 
#    y 0.000000 1.874840 -0.000040 
#    z -0.033750 -0.000040 1.986370 
# 
# From -- ./inp_files/379470.got.cif
#   From: 2010.05.17/outbox.cif.g08.bks.cpg/sg12_190_cif.got.tgz:379470.got - 2010.06.03 13:09:07.
