data_PCOD9207886
_publ_section_title
;
Structure prediction by ZEFSAII (Michael W. Deem and Ramdas Pophale) SiO2 
 PCOD9207886
Probable space group: C 2/M
;
_chemical_formula_sum "Si O2"
_cell_formula_units_Z 56
_cell_length_a 19.063032
_cell_length_b 8.858942
_cell_length_c 18.707943
_cell_angle_alpha 90.000000
_cell_angle_beta 61.077398
_cell_angle_gamma 90.000000
_cell_volume 2765.309903
_symmetry_space_group_name_H-M "C 2/M"
_symmetry_group_IT_number 12
_symmetry_cell_setting 'monoclinic'
loop_
_space_group_symop_operation_xyz
x,y,z
-x,y,-z
-x,-y,-z
x,-y,z
1/2+x,1/2+y,z
1/2-x,1/2+y,-z
1/2-x,1/2-y,-z
1/2+x,1/2-y,z
loop_
_atom_site_type_symbol
_atom_site_label
_atom_site_fract_x
_atom_site_fract_y
_atom_site_fract_z
Si Si1 0.758398 0.828348 0.682283
Si Si2 0.994479 0.681545 0.312145
Si Si3 0.827285 0.680644 0.001981
Si Si4 0.578006 0.179383 0.415553
Si Si5 0.676739 0.828971 0.573758
Si Si6 0.846101 0.179467 0.148595
Si Si7 0.986754 0.181215 0.853560
O O1 0.841105 0.767908 0.608641
O O2 0.695041 0.829640 0.649044
O O3 0.723299 0.723905 0.761475
O O4 0.768392 0.000000 0.703248
O O5 0.987120 0.500000 0.303681
O O6 0.911635 0.736784 0.389176
O O7 0.060942 0.704188 0.339773
O O8 0.006816 0.762736 0.231187
O O9 0.824001 0.500000 0.999118
O O10 0.908861 0.741989 0.926036
O O11 0.750000 0.750000 0.000000
O O12 0.831047 0.734514 0.082242
O O13 0.500000 0.223836 0.500000
O O14 0.589207 0.000000 0.421740
O O15 0.750000 0.750000 0.500000
O O16 0.674047 0.000000 0.547871
O O17 0.931962 0.219776 0.142534
O O18 0.846175 0.000000 0.135592
O O19 0.978421 0.000000 0.859740
#
# Coordination Sequence:
#
# PCOD9207886 Si02
#       7
#     8   8   8   8   8   8   8
#     4  11  23  39  62  92 127 167 212 267 322 381
#     4  10  21  39  62  89 124 168 215 263 316 379
#     4  12  27  46  71 100 133 170 209 259 315 378
#     4  10  22  40  62  87 123 171 218 267 324 386
#     4  10  21  37  60  89 122 162 212 264 319 377
#     4  11  24  44  69  97 131 171 214 261 316 381
#     4  11  24  43  68  98 131 169 213 262 317 380
#
# _framework density 20.250895
#
# number of rings (size 3 to 8) (size 9 to 14) (size 15 to 20)
#    0.000    1.286    1.429    3.857    2.000    7.143 
#    0.000    0.000    0.000    0.000    0.000    0.000 
#    0.000    0.000    0.000    0.000    0.000    0.000 
#
# Total GULP energy -156527.567518 kJ/mol
# GULP energy per Si atom -5590.270268 kJ/mol
# Density = 2.020480 g / cm^3
# Si number density = 20.250895 Si / 1000 Ang^3
#
#
#
# Elastic Constant Matrix: (Units=GPa)
#
#
# Indices 1 2 3 4 5 6 
#
# 1 99.8654 36.4934 23.8679 0.0000 2.7223 0.0000
# 2 36.4934 73.7112 28.1808 0.0000 4.2120 -0.0001
# 3 23.8679 28.1808 95.7396 0.0000 1.6272 0.0000
# 4 0.0000 0.0000 0.0000 37.0486 0.0000 -2.1854
# 5 2.7223 4.2120 1.6272 0.0000 39.5646 0.0000
# 6 0.0000 -0.0001 0.0000 -2.1854 0.0000 30.0502
#
#
#
# Elastic Compliance Matrix: (Units=1/GPa)
#
#
# Indices 1 2 3 4 5 6 
#
# 1 0.012402 -0.005575 -0.001447 0.000000 -0.000200 0.000000
# 2 -0.005575 0.017876 -0.003849 0.000000 -0.001361 0.000000
# 3 -0.001447 -0.003849 0.011938 0.000000 0.000018 0.000000
# 4 0.000000 0.000000 0.000000 0.027108 0.000000 0.001971
# 5 -0.000200 -0.001361 0.000018 0.000000 0.025433 0.000000
# 6 0.000000 0.000000 0.000000 0.001971 0.000000 0.033421
#
#
# Mechanical properties :
#
#
# Convention : Reuss Voigt Hill
#
# Bulk Modulus (GPa) = 48.84318 49.60004 49.22161
# Shear Modulus (GPa) = 31.89875 33.38429 32.64152
#
# Velocity S-wave (km/s) = 3.97316 4.06462 4.01915
# Velocity P-wave (km/s) = 6.72453 6.82452 6.77471
#
# Compressibility (1/GPa) = 0.02047369
#
# Stress axis : x y z
#
# Youngs Moduli (GPa) = 80.63047 55.94112 83.76353
#
# Poissons Ratio (x) = 0.31189 0.12124
# Poissons Ratio (y) = 0.44955 0.32238
# Poissons Ratio (z) = 0.11670 0.21530
#
# Static dielectric constant tensor:
#      x y z
#    x 1.705320 0.000000 0.007900 
#    y 0.000000 1.695650 0.000000 
#    z 0.007900 0.000000 1.705940 
# 
# From -- ./inp_files/275260.got.cif
#   From: 2010.05.17/outbox.cif.g08.bks.cpg/sg12_138_cif.got.tgz:275260.got - 2010.06.03 13:09:07.
