data_PCOD9207774
_publ_section_title
;
Structure prediction by ZEFSAII (Michael W. Deem and Ramdas Pophale) SiO2 
 PCOD9207774
Probable space group: C 2/M
;
_chemical_formula_sum "Si O2"
_cell_formula_units_Z 32
_cell_length_a 24.747362
_cell_length_b 10.432562
_cell_length_c 5.076253
_cell_angle_alpha 90.000000
_cell_angle_beta 75.926931
_cell_angle_gamma 90.000000
_cell_volume 1271.243651
_symmetry_space_group_name_H-M "C 2/M"
_symmetry_group_IT_number 12
_symmetry_cell_setting 'monoclinic'
loop_
_space_group_symop_operation_xyz
x,y,z
-x,y,-z
-x,-y,-z
x,-y,z
1/2+x,1/2+y,z
1/2-x,1/2+y,-z
1/2-x,1/2-y,-z
1/2+x,1/2-y,z
loop_
_atom_site_type_symbol
_atom_site_label
_atom_site_fract_x
_atom_site_fract_y
_atom_site_fract_z
Si Si1 0.273896 0.855835 0.273076
Si Si2 0.434119 0.137521 0.028487
Si Si3 0.436411 0.709595 0.528362
Si Si4 0.832925 0.864604 0.973056
O O1 0.250000 0.750000 0.500000
O O2 0.225461 0.869646 0.114055
O O3 0.283936 0.000000 0.364751
O O4 0.327579 0.779385 0.099699
O O5 0.423707 0.256067 0.242422
O O6 0.408294 0.000000 0.127481
O O7 0.500000 0.125751 0.000000
O O8 0.432358 0.165106 0.719067
O O9 0.500000 0.660059 0.500000
O O10 0.385272 0.632940 0.715069
O O11 0.835190 0.000000 0.130307
#
# Coordination Sequence:
#
# PCOD9207774 Si02
#       4
#     8   8   8   8
#     4  10  22  42  67  94 124 163 215 273 331 387
#     4   9  18  34  55  83 125 171 215 263 316 377
#     4  10  21  37  59  92 129 171 216 263 321 389
#     4  10  23  42  63  91 128 169 215 269 326 389
#
# _framework density 25.1722
#
# number of rings (size 3 to 8) (size 9 to 14) (size 15 to 20)
#    0.000    2.250    0.000    1.500    3.500    6.500 
#    0.000    0.000    0.000    4.500    0.000    0.000 
#    0.000    0.000    0.000    0.000    0.000    0.000 
#
# Total GULP energy -89085.660543 kJ/mol
# GULP energy per Si atom -5567.853784 kJ/mol
# Density = 2.511491 g / cm^3
# Si number density = 25.172200 Si / 1000 Ang^3
#
#
#
# Elastic Constant Matrix: (Units=GPa)
#
#
# Indices 1 2 3 4 5 6 
#
# 1 103.0580 2.6791 5.6742 0.0000 -25.4631 0.0000
# 2 2.6791 214.3857 30.3178 0.0000 -18.4543 0.0000
# 3 5.6742 30.3178 76.3015 0.0000 -32.5124 0.0000
# 4 0.0000 0.0000 0.0000 44.2966 0.0000 -0.0044
# 5 -25.4631 -18.4543 -32.5124 0.0000 51.8194 0.0000
# 6 0.0000 0.0000 0.0000 -0.0044 0.0000 6.2315
#
#
#
# Elastic Compliance Matrix: (Units=1/GPa)
#
#
# Indices 1 2 3 4 5 6 
#
# 1 0.011286 0.000164 0.002025 0.000000 0.006875 0.000000
# 2 0.000164 0.004964 -0.001634 0.000000 0.000824 0.000000
# 3 0.002025 -0.001634 0.018809 0.000000 0.012214 0.000000
# 4 0.000000 0.000000 0.000000 0.022575 0.000000 0.000016
# 5 0.006875 0.000824 0.012214 0.000000 0.030633 0.000000
# 6 0.000000 0.000000 0.000000 0.000016 0.000000 0.160474
#
#
# Mechanical properties :
#
#
# Convention : Reuss Voigt Hill
#
# Bulk Modulus (GPa) = 27.64719 52.34305 39.99512
# Shear Modulus (GPa) = 19.25391 44.14111 31.69751
#
# Velocity S-wave (km/s) = 2.76866 4.19210 3.55241
# Velocity P-wave (km/s) = 4.60735 6.65363 5.72270
#
# Compressibility (1/GPa) = 0.03617004
#
# Stress axis : x y z
#
# Youngs Moduli (GPa) = 88.60479 201.43475 53.16596
#
# Poissons Ratio (x) = -0.03312 -0.10764
# Poissons Ratio (y) = -0.01457 0.08686
# Poissons Ratio (z) = -0.17940 0.32911
#
# Static dielectric constant tensor:
#      x y z
#    x 2.248200 0.000000 -0.231900 
#    y 0.000000 2.111860 0.000000 
#    z -0.231900 0.000000 2.102940 
# 
# From -- ./inp_files/27211.got.cif
#   From: 2010.05.17/outbox.cif.g08.bks.cpg/sg12_14_cif.got.tgz:27211.got - 2010.06.03 13:09:07.
