data_PCOD9207409
_publ_section_title
;
Structure prediction by ZEFSAII (Michael W. Deem and Ramdas Pophale) SiO2 
 PCOD9207409
Probable space group: C 2/M
;
_chemical_formula_sum "Si O2"
_cell_formula_units_Z 58
_cell_length_a 24.606755
_cell_length_b 8.473993
_cell_length_c 22.762101
_cell_angle_alpha 90.000000
_cell_angle_beta 37.721780
_cell_angle_gamma 90.000000
_cell_volume 2903.915497
_symmetry_space_group_name_H-M "C 2/M"
_symmetry_group_IT_number 12
_symmetry_cell_setting 'monoclinic'
loop_
_space_group_symop_operation_xyz
x,y,z
-x,y,-z
-x,-y,-z
x,-y,z
1/2+x,1/2+y,z
1/2-x,1/2+y,-z
1/2-x,1/2-y,-z
1/2+x,1/2-y,z
loop_
_atom_site_type_symbol
_atom_site_label
_atom_site_fract_x
_atom_site_fract_y
_atom_site_fract_z
Si Si1 0.306321 0.187172 0.369274
Si Si2 0.659297 0.322455 0.910391
Si Si3 0.613077 0.685901 0.584986
Si Si4 0.500000 0.500000 0.000000
Si Si5 0.425843 0.816462 0.708002
Si Si6 0.728373 0.313017 0.083023
Si Si7 0.599294 0.684138 0.395725
Si Si8 0.719220 0.315075 0.732588
O O1 0.367713 0.276827 0.363273
O O2 0.204308 0.229787 0.473458
O O3 0.322422 0.233051 0.288326
O O4 0.315812 0.000000 0.369980
O O5 0.701891 0.500000 0.878340
O O6 0.556188 0.364235 0.989101
O O7 0.693723 0.228908 0.936835
O O8 0.690420 0.252518 0.821153
O O9 0.597994 0.500000 0.588818
O O10 0.527376 0.777824 0.636385
O O11 0.360370 0.769957 0.816539
O O12 0.397039 0.712927 0.676826
O O13 0.417228 0.000000 0.700359
O O14 0.715089 0.500000 0.092879
O O15 0.750000 0.250000 0.000000
O O16 0.500000 0.726372 0.500000
O O17 0.614814 0.500000 0.397173
O O18 0.675267 0.787985 0.360356
O O19 0.694482 0.500000 0.753139
#
# Coordination Sequence:
#
# PCOD9207409 Si02
#       8
#     8   8   8   2   8   8   8   8
#     4  10  21  37  58  84 123 168 216 265 317 375
#     4   9  20  42  67  94 123 164 210 261 325 397
#     4  10  21  39  59  84 120 169 217 265 317 377
#     4   8  20  44  74  92 126 172 202 262 326 392
#     4  12  24  40  62  92 127 163 212 261 321 383
#     4  12  25  44  70  98 130 171 215 272 337 401
#     4  11  23  37  57  89 128 169 211 256 311 376
#     4  11  21  35  59  89 121 160 209 258 313 378
#
# _framework density 19.973032
#
# number of rings (size 3 to 8) (size 9 to 14) (size 15 to 20)
#    0.414    0.966    1.379    4.966    0.000    6.621 
#    2.483    0.345    0.000    0.000    0.000    0.000 
#    0.000    0.000    0.000    0.000    0.000    0.000 
#
# Total GULP energy -161686.038706 kJ/mol
# GULP energy per Si atom -5575.380645 kJ/mol
# Density = 1.992757 g / cm^3
# Si number density = 19.973032 Si / 1000 Ang^3
#
#
#
# Elastic Constant Matrix: (Units=GPa)
#
#
# Indices 1 2 3 4 5 6 
#
# 1 78.3750 3.6686 3.8578 0.0020 8.8461 -0.0023
# 2 3.6686 31.1522 -4.2178 0.0058 -1.9569 -0.0104
# 3 3.8578 -4.2178 29.8860 0.0025 22.4065 -0.0047
# 4 0.0020 0.0058 0.0025 23.6745 -0.0022 -1.0930
# 5 8.8461 -1.9569 22.4065 -0.0022 36.3675 0.0046
# 6 -0.0023 -0.0104 -0.0047 -1.0930 0.0046 33.4645
#
#
#
# Elastic Compliance Matrix: (Units=1/GPa)
#
#
# Indices 1 2 3 4 5 6 
#
# 1 0.013231 -0.001669 0.000997 -0.000001 -0.003923 0.000001
# 2 -0.001669 0.033016 0.006019 -0.000008 -0.001526 0.000011
# 3 0.000997 0.006019 0.063411 -0.000011 -0.038987 0.000016
# 4 -0.000001 -0.000008 -0.000011 0.042303 0.000009 0.001382
# 5 -0.003923 -0.001526 -0.038987 0.000009 0.052390 -0.000013
# 6 0.000001 0.000011 0.000016 0.001382 -0.000013 0.029928
#
#
# Mechanical properties :
#
#
# Convention : Reuss Voigt Hill
#
# Bulk Modulus (GPa) = 8.30898 16.22559 12.26729
# Shear Modulus (GPa) = 18.96080 27.77495 23.36788
#
# Velocity S-wave (km/s) = 3.08445 3.73315 3.42420
# Velocity P-wave (km/s) = 4.10539 5.16946 4.66784
#
# Compressibility (1/GPa) = 0.12035171
#
# Stress axis : x y z
#
# Youngs Moduli (GPa) = 75.58026 30.28825 15.77016
#
# Poissons Ratio (x) = 0.05057 -0.01573
# Poissons Ratio (y) = 0.12618 -0.09492
# Poissons Ratio (z) = -0.07539 -0.18230
#
# Static dielectric constant tensor:
#      x y z
#    x 1.689970 0.000050 -0.004680 
#    y 0.000050 1.863110 0.000010 
#    z -0.004680 0.000010 1.741390 
# 
# From -- ./inp_files/324507.got.cif
#   From: 2010.05.17/outbox.cif.g08.bks.cpg/sg12_163_cif.got.tgz:324507.got - 2010.06.03 13:09:07.
