data_PCOD9207823
_publ_section_title
;
Structure prediction by ZEFSAII (Michael W. Deem and Ramdas Pophale) SiO2 
 PCOD9207823
Probable space group: C 2/M
;
_chemical_formula_sum "Si O2"
_cell_formula_units_Z 64
_cell_length_a 17.904645
_cell_length_b 14.608795
_cell_length_c 14.593328
_cell_angle_alpha 90.000000
_cell_angle_beta 54.122953
_cell_angle_gamma 90.000000
_cell_volume 3092.912869
_symmetry_space_group_name_H-M "C 2/M"
_symmetry_group_IT_number 12
_symmetry_cell_setting 'monoclinic'
loop_
_space_group_symop_operation_xyz
x,y,z
-x,y,-z
-x,-y,-z
x,-y,z
1/2+x,1/2+y,z
1/2-x,1/2+y,-z
1/2-x,1/2-y,-z
1/2+x,1/2-y,z
loop_
_atom_site_type_symbol
_atom_site_label
_atom_site_fract_x
_atom_site_fract_y
_atom_site_fract_z
Si Si1 0.669116 0.177065 0.547254
Si Si2 0.786636 0.601718 0.298074
Si Si3 0.106132 0.704610 0.924521
Si Si4 0.459278 0.777018 0.706855
Si Si5 0.839974 0.392367 0.934816
Si Si6 0.646970 0.895035 0.359132
Si Si7 0.817464 0.897061 0.095464
Si Si8 0.582968 0.606774 0.369304
O O1 0.750000 0.250000 0.500000
O O2 0.691065 0.104953 0.611046
O O3 0.568595 0.219527 0.637543
O O4 0.666869 0.136747 0.447141
O O5 0.808698 0.500000 0.246053
O O6 0.846770 0.677889 0.204417
O O7 0.679799 0.620524 0.351872
O O8 0.115927 0.811754 0.939600
O O9 0.159370 0.647054 0.963970
O O10 0.000000 0.677016 0.000000
O O11 0.410065 0.829536 0.825717
O O12 0.427108 0.832896 0.639714
O O13 0.424875 0.674638 0.710878
O O14 0.866736 0.500000 0.912349
O O15 0.741417 0.385638 0.955562
O O16 0.739695 0.890156 0.231042
O O17 0.615566 0.000000 0.380505
O O18 0.856742 0.000000 0.069726
O O19 0.500000 0.626626 0.500000
O O20 0.576738 0.500000 0.347589
#
# Coordination Sequence:
#
# PCOD9207823 Si02
#       8
#     8   8   8   8   8   8   8   8
#     4  12  23  35  55  84 122 160 193 233 291 359
#     4  11  24  40  60  87 120 157 198 244 295 353
#     4  12  24  39  61  87 120 160 198 243 296 350
#     4  11  21  37  60  85 116 153 196 247 292 345
#     4  10  22  40  63  88 115 151 197 250 301 344
#     4  10  21  37  60  87 115 150 192 242 298 350
#     4   9  20  40  62  85 114 149 194 244 291 347
#     4  10  21  40  64  88 118 157 200 245 293 349
#
# _framework density 20.692468000000002
#
# number of rings (size 3 to 8) (size 9 to 14) (size 15 to 20)
#    0.000    1.375    0.000    7.875    0.000    4.750 
#    0.000    2.500    0.000    2.250    0.000    0.000 
#    0.000    0.000    0.000    0.000    0.000    0.000 
#
# Total GULP energy -178965.397928 kJ/mol
# GULP energy per Si atom -5592.668685 kJ/mol
# Density = 2.064537 g / cm^3
# Si number density = 20.692468 Si / 1000 Ang^3
#
#
#
# Elastic Constant Matrix: (Units=GPa)
#
#
# Indices 1 2 3 4 5 6 
#
# 1 69.4045 30.5147 18.2974 0.0000 1.1280 0.0000
# 2 30.5147 94.9625 10.7552 0.0000 1.9500 0.0000
# 3 18.2974 10.7552 33.3710 0.0000 10.6300 0.0000
# 4 0.0000 0.0000 0.0000 28.3576 0.0000 4.1847
# 5 1.1280 1.9500 10.6300 0.0000 31.8726 0.0000
# 6 0.0000 0.0000 0.0000 4.1847 0.0000 10.5666
#
#
#
# Elastic Compliance Matrix: (Units=1/GPa)
#
#
# Indices 1 2 3 4 5 6 
#
# 1 0.019195 -0.005118 -0.009800 0.000000 0.002902 0.000000
# 2 -0.005118 0.012303 -0.001093 0.000000 -0.000207 0.000000
# 3 -0.009800 -0.001093 0.039787 0.000000 -0.012856 0.000000
# 4 0.000000 0.000000 0.000000 0.037453 0.000000 -0.014833
# 5 0.002902 -0.000207 -0.012856 0.000000 0.035572 0.000000
# 6 0.000000 0.000000 0.000000 -0.014833 0.000000 0.100512
#
#
# Mechanical properties :
#
#
# Convention : Reuss Voigt Hill
#
# Bulk Modulus (GPa) = 25.46894 35.20808 30.33851
# Shear Modulus (GPa) = 17.24555 23.37074 20.30815
#
# Velocity S-wave (km/s) = 2.89004 3.36435 3.13617
# Velocity P-wave (km/s) = 4.84473 5.66954 5.27329
#
# Compressibility (1/GPa) = 0.03926351
#
# Stress axis : x y z
#
# Youngs Moduli (GPa) = 52.09786 81.28091 25.13410
#
# Poissons Ratio (x) = 0.41597 0.24630
# Poissons Ratio (y) = 0.26662 0.02748
# Poissons Ratio (z) = 0.51053 0.08886
#
# Static dielectric constant tensor:
#      x y z
#    x 1.694150 0.000000 0.008800 
#    y 0.000000 1.761340 0.000000 
#    z 0.008800 0.000000 1.726160 
# 
# From -- ./inp_files/225689.got.cif
#   From: 2010.05.17/outbox.cif.g08.bks.cpg/sg12_113_cif.got.tgz:225689.got - 2010.06.03 13:09:07.
