data_PCOD9207606
_publ_section_title
;
Structure prediction by ZEFSAII (Michael W. Deem and Ramdas Pophale) SiO2 
 PCOD9207606
Probable space group: C 2/M
;
_chemical_formula_sum "Si O2"
_cell_formula_units_Z 64
_cell_length_a 14.965987
_cell_length_b 8.838441
_cell_length_c 33.637050
_cell_angle_alpha 90.000000
_cell_angle_beta 48.337984
_cell_angle_gamma 90.000000
_cell_volume 3324.034156
_symmetry_space_group_name_H-M "C 2/M"
_symmetry_group_IT_number 12
_symmetry_cell_setting 'monoclinic'
loop_
_space_group_symop_operation_xyz
x,y,z
-x,y,-z
-x,-y,-z
x,-y,z
1/2+x,1/2+y,z
1/2-x,1/2+y,-z
1/2-x,1/2-y,-z
1/2+x,1/2-y,z
loop_
_atom_site_type_symbol
_atom_site_label
_atom_site_fract_x
_atom_site_fract_y
_atom_site_fract_z
Si Si1 0.770503 0.167505 0.889820
Si Si2 0.556839 0.832132 0.891849
Si Si3 0.784370 0.819761 0.217122
Si Si4 0.198461 0.318525 0.701899
Si Si5 0.073357 0.319066 0.218279
Si Si6 0.154200 0.820961 0.999094
Si Si7 0.384700 0.683449 0.577168
Si Si8 0.648485 0.183752 0.500048
O O1 0.677024 0.152289 0.881687
O O2 0.883676 0.244276 0.835635
O O3 0.798527 0.000000 0.897701
O O4 0.699634 0.263635 0.943197
O O5 0.599765 0.749763 0.839343
O O6 0.468771 0.742457 0.946855
O O7 0.507128 0.000000 0.898156
O O8 0.771731 0.757381 0.265026
O O9 0.666869 0.780478 0.225616
O O10 0.796064 0.000000 0.213872
O O11 0.201264 0.500000 0.706368
O O12 0.291131 0.281479 0.639722
O O13 0.062012 0.275680 0.731673
O O14 0.079358 0.500000 0.211364
O O15 0.151315 0.000000 0.000431
O O16 0.250000 0.750000 0.000000
O O17 0.395413 0.500000 0.569824
O O18 0.338442 0.754211 0.549166
O O19 0.514546 0.754118 0.549331
O O20 0.750000 0.250000 0.500000
O O21 0.650856 0.000000 0.500130
#
# Coordination Sequence:
#
# PCOD9207606 Si02
#       8
#     8   8   8   8   8   8   8   8
#     4  10  21  38  59  82 108 141 183 232 288 351
#     4  10  21  39  60  80 108 144 183 234 292 353
#     4  10  21  37  59  86 116 154 202 248 293 355
#     4  10  22  39  61  87 122 162 199 247 301 351
#     4   9  20  39  59  82 114 155 198 240 293 355
#     4  12  25  38  55  80 109 141 180 231 289 356
#     4  10  21  39  61  92 129 166 210 256 303 360
#     4  11  22  39  64  93 127 168 209 255 306 360
#
# _framework density 19.253713000000001
#
# number of rings (size 3 to 8) (size 9 to 14) (size 15 to 20)
#    0.000    1.750    0.000    4.875    1.750    6.000 
#    0.000    1.250    0.000    0.000    0.000    0.000 
#    0.000    0.000    0.000    0.000    0.000    0.000 
#
# Total GULP energy -178604.618611 kJ/mol
# GULP energy per Si atom -5581.394332 kJ/mol
# Density = 1.920989 g / cm^3
# Si number density = 19.253713 Si / 1000 Ang^3
#
#
#
# Elastic Constant Matrix: (Units=GPa)
#
#
# Indices 1 2 3 4 5 6 
#
# 1 119.7135 64.8346 76.6554 0.0000 0.0744 0.0001
# 2 64.8346 124.6188 93.8703 0.0004 -1.5067 0.0003
# 3 76.6554 93.8703 203.8436 0.0000 -5.5450 0.0000
# 4 0.0000 0.0004 0.0000 33.3149 0.0001 2.9035
# 5 0.0744 -1.5067 -5.5450 0.0001 22.9318 0.0001
# 6 0.0001 0.0003 0.0000 2.9035 0.0001 28.3055
#
#
#
# Elastic Compliance Matrix: (Units=1/GPa)
#
#
# Indices 1 2 3 4 5 6 
#
# 1 0.012495 -0.004522 -0.002643 0.000000 -0.000977 0.000000
# 2 -0.004522 0.013930 -0.004720 0.000000 -0.000211 0.000000
# 3 -0.002643 -0.004720 0.008118 0.000000 0.001662 0.000000
# 4 0.000000 0.000000 0.000000 0.030287 0.000000 -0.003107
# 5 -0.000977 -0.000211 0.001662 0.000000 0.043999 0.000000
# 6 0.000000 0.000000 0.000000 -0.003107 0.000000 0.035647
#
#
# Mechanical properties :
#
#
# Convention : Reuss Voigt Hill
#
# Bulk Modulus (GPa) = 92.81838 102.09961 97.45899
# Shear Modulus (GPa) = 29.09719 31.09815 30.09767
#
# Velocity S-wave (km/s) = 3.89170 4.02329 3.95804
# Velocity P-wave (km/s) = 8.27686 8.64443 8.46264
#
# Compressibility (1/GPa) = 0.01077373
#
# Stress axis : x y z
#
# Youngs Moduli (GPa) = 80.03076 71.78857 123.17548
#
# Poissons Ratio (x) = 0.32460 0.32558
# Poissons Ratio (y) = 0.36187 0.58140
# Poissons Ratio (z) = 0.21154 0.33885
#
# Static dielectric constant tensor:
#      x y z
#    x 1.678520 0.000000 -0.017640 
#    y 0.000000 1.683380 0.000000 
#    z -0.017640 0.000000 1.706900 
# 
# From -- ./inp_files/375430.got.cif
#   From: 2010.05.17/outbox.cif.g08.bks.cpg/sg12_188_cif.got.tgz:375430.got - 2010.06.03 13:09:07.
