data_PCOD9207245
_publ_section_title
;
Structure prediction by ZEFSAII (Michael W. Deem and Ramdas Pophale) SiO2 
 PCOD9207245
Probable space group: C 2/M
;
_chemical_formula_sum "Si O2"
_cell_formula_units_Z 40
_cell_length_a 14.269902
_cell_length_b 8.590357
_cell_length_c 14.351469
_cell_angle_alpha 90.000000
_cell_angle_beta 103.611310
_cell_angle_gamma 90.000000
_cell_volume 1709.844639
_symmetry_space_group_name_H-M "C 2/M"
_symmetry_group_IT_number 12
_symmetry_cell_setting 'monoclinic'
loop_
_space_group_symop_operation_xyz
x,y,z
-x,y,-z
-x,-y,-z
x,-y,z
1/2+x,1/2+y,z
1/2-x,1/2+y,-z
1/2-x,1/2-y,-z
1/2+x,1/2-y,z
loop_
_atom_site_type_symbol
_atom_site_label
_atom_site_fract_x
_atom_site_fract_y
_atom_site_fract_z
Si Si1 0.819192 0.319617 0.700074
Si Si2 0.359546 0.816732 0.439282
Si Si3 0.591006 0.322001 0.961357
Si Si4 0.228760 0.674454 0.854048
Si Si5 0.518054 0.318441 0.361982
O O1 0.836549 0.500000 0.686598
O O2 0.744331 0.250549 0.607955
O O3 0.766808 0.292024 0.785392
O O4 0.919500 0.228374 0.712883
O O5 0.412297 0.723908 0.534219
O O6 0.424604 0.783392 0.362779
O O7 0.358220 0.000000 0.459295
O O8 0.567354 0.500000 0.927078
O O9 0.631148 0.225558 0.883263
O O10 0.500000 0.261339 0.000000
O O11 0.683868 0.329286 0.050891
O O12 0.220136 0.500000 0.812153
O O13 0.493671 0.500000 0.356309
#
# Coordination Sequence:
#
# PCOD9207245 Si02
#       5
#     8   8   8   8   8
#     4  12  24  39  58  83 117 156 195 240 291 338
#     4  11  22  39  60  85 115 151 196 242 289 342
#     4   9  19  38  62  84 111 148 185 225 281 345
#     4  10  21  37  57  85 116 145 186 236 284 340
#     4  11  22  39  60  85 116 153 195 238 288 344
#
# _framework density 23.393937000000001
#
# number of rings (size 3 to 8) (size 9 to 14) (size 15 to 20)
#    0.000    1.400    0.000    7.800    0.000    2.800 
#    0.000    6.000    0.000    0.000    0.000    0.000 
#    0.000    0.000    0.000    0.000    0.000    0.000 
#
# Total GULP energy -111923.473396 kJ/mol
# GULP energy per Si atom -5596.173670 kJ/mol
# Density = 2.334069 g / cm^3
# Si number density = 23.393937 Si / 1000 Ang^3
#
#
#
# Elastic Constant Matrix: (Units=GPa)
#
#
# Indices 1 2 3 4 5 6 
#
# 1 110.5124 -1.9728 8.8286 0.0000 -30.4522 0.0000
# 2 -1.9728 100.1140 4.7120 0.0000 -4.2344 0.0000
# 3 8.8286 4.7120 42.1939 0.0000 -19.8049 0.0000
# 4 0.0000 0.0000 0.0000 27.5799 0.0000 -6.6239
# 5 -30.4522 -4.2344 -19.8049 0.0000 39.8434 0.0000
# 6 0.0000 0.0000 0.0000 -6.6239 0.0000 33.9679
#
#
#
# Elastic Compliance Matrix: (Units=1/GPa)
#
#
# Indices 1 2 3 4 5 6 
#
# 1 0.011657 0.000551 0.002229 0.000000 0.010076 0.000000
# 2 0.000551 0.010081 -0.000705 0.000000 0.001142 0.000000
# 3 0.002229 -0.000705 0.031404 0.000000 0.017238 0.000000
# 4 0.000000 0.000000 0.000000 0.038040 0.000000 0.007418
# 5 0.010076 0.001142 0.017238 0.000000 0.041489 0.000000
# 6 0.000000 0.000000 0.000000 0.007418 0.000000 0.030886
#
#
# Mechanical properties :
#
#
# Convention : Reuss Voigt Hill
#
# Bulk Modulus (GPa) = 17.45471 30.66178 24.05824
# Shear Modulus (GPa) = 28.01047 36.36174 32.18610
#
# Velocity S-wave (km/s) = 3.46401 3.94677 3.71324
# Velocity P-wave (km/s) = 4.84526 5.82275 5.35635
#
# Compressibility (1/GPa) = 0.05729113
#
# Stress axis : x y z
#
# Youngs Moduli (GPa) = 85.78556 99.19690 31.84321
#
# Poissons Ratio (x) = -0.05465 -0.07097
# Poissons Ratio (y) = -0.04727 0.02245
# Poissons Ratio (z) = -0.19119 0.06994
#
# Static dielectric constant tensor:
#      x y z
#    x 1.905050 0.000000 0.012960 
#    y 0.000000 1.811810 0.000000 
#    z 0.012960 0.000000 2.017080 
# 
# From -- ./inp_files/211361.got.cif
#   From: 2010.05.17/outbox.cif.g08.bks.cpg/sg12_106_cif.got.tgz:211361.got - 2010.06.03 13:09:07.
