data_PCOD9207221
_publ_section_title
;
Structure prediction by ZEFSAII (Michael W. Deem and Ramdas Pophale) SiO2 
 PCOD9207221
Probable space group: C 2/M
;
_chemical_formula_sum "Si O2"
_cell_formula_units_Z 64
_cell_length_a 18.141095
_cell_length_b 13.704163
_cell_length_c 20.500521
_cell_angle_alpha 90.000000
_cell_angle_beta 37.519803
_cell_angle_gamma 90.000000
_cell_volume 3104.013411
_symmetry_space_group_name_H-M "C 2/M"
_symmetry_group_IT_number 12
_symmetry_cell_setting 'monoclinic'
loop_
_space_group_symop_operation_xyz
x,y,z
-x,y,-z
-x,-y,-z
x,-y,z
1/2+x,1/2+y,z
1/2-x,1/2+y,-z
1/2-x,1/2-y,-z
1/2+x,1/2-y,z
loop_
_atom_site_type_symbol
_atom_site_label
_atom_site_fract_x
_atom_site_fract_y
_atom_site_fract_z
Si Si1 0.993850 0.113313 0.310870
Si Si2 0.817116 0.784003 0.019046
Si Si3 0.056000 0.800284 0.792380
Si Si4 0.126251 0.384994 0.249550
Si Si5 0.574120 0.889851 0.712479
Si Si6 0.142588 0.114595 0.465654
Si Si7 0.779030 0.613437 0.135330
Si Si8 0.711917 0.256017 0.299401
O O1 0.940265 0.159479 0.283531
O O2 0.943210 0.148683 0.415601
O O3 0.139070 0.120560 0.208813
O O4 0.960740 0.000000 0.332772
O O5 0.727592 0.848570 0.126402
O O6 0.848556 0.688391 0.040071
O O7 0.750000 0.750000 0.000000
O O8 0.939878 0.838755 0.912428
O O9 0.032843 0.685588 0.795926
O O10 0.181768 0.806437 0.741258
O O11 0.140195 0.500000 0.253528
O O12 0.140331 0.316974 0.302593
O O13 0.998304 0.369504 0.303017
O O14 0.718708 0.881112 0.605794
O O15 0.544188 0.000000 0.752581
O O16 0.140225 0.184327 0.404760
O O17 0.117695 0.000000 0.466865
O O18 0.814980 0.500000 0.109463
O O19 0.773873 0.660825 0.210551
#
# Coordination Sequence:
#
# PCOD9207221 Si02
#       8
#     8   8   8   8   8   8   8   8
#     4  10  21  37  59  85 112 144 187 234 277 329
#     4  11  20  36  59  85 112 144 190 233 277 327
#     4  11  21  37  57  84 113 145 189 232 277 324
#     4  10  21  37  57  84 116 151 187 226 275 333
#     4   9  18  34  57  80 106 142 187 232 271 320
#     4   9  19  37  61  86 109 141 185 234 286 328
#     4  10  21  37  57  85 117 146 183 231 280 333
#     4  10  22  37  56  81 117 150 181 228 277 338
#
# _framework density 20.618468
#
# number of rings (size 3 to 8) (size 9 to 14) (size 15 to 20)
#    0.000    2.000    2.500    1.125    0.000    7.000 
#    0.000    4.375    0.000    0.750    0.000   10.500 
#    0.000    0.000    0.000    0.000    0.000    0.000 
#
# Total GULP energy -178711.080928 kJ/mol
# GULP energy per Si atom -5584.721279 kJ/mol
# Density = 2.057154 g / cm^3
# Si number density = 20.618468 Si / 1000 Ang^3
#
#
#
# Elastic Constant Matrix: (Units=GPa)
#
#
# Indices 1 2 3 4 5 6 
#
# 1 101.9538 41.9032 34.5381 0.0000 14.8492 0.0000
# 2 41.9032 86.8624 32.3004 0.0000 16.0110 0.0000
# 3 34.5381 32.3004 86.3560 0.0000 18.7694 0.0000
# 4 0.0000 0.0000 0.0000 19.6941 0.0000 -1.3939
# 5 14.8492 16.0110 18.7694 0.0000 27.3450 0.0000
# 6 0.0000 0.0000 0.0000 -1.3939 0.0000 18.7759
#
#
#
# Elastic Compliance Matrix: (Units=1/GPa)
#
#
# Indices 1 2 3 4 5 6 
#
# 1 0.013117 -0.004810 -0.002951 0.000000 -0.002281 0.000000
# 2 -0.004810 0.015788 -0.002985 0.000000 -0.004583 0.000000
# 3 -0.002951 -0.002985 0.015454 0.000000 -0.007257 0.000000
# 4 0.000000 0.000000 0.000000 0.051045 0.000000 0.003790
# 5 -0.002281 -0.004583 -0.007257 0.000000 0.045473 0.000000
# 6 0.000000 0.000000 0.000000 0.003790 0.000000 0.053541
#
#
# Mechanical properties :
#
#
# Convention : Reuss Voigt Hill
#
# Bulk Modulus (GPa) = 43.73323 54.73953 49.23638
# Shear Modulus (GPa) = 22.36799 24.25836 23.31318
#
# Velocity S-wave (km/s) = 3.29728 3.43379 3.36623
# Velocity P-wave (km/s) = 5.97937 6.50597 6.24822
#
# Compressibility (1/GPa) = 0.02286591
#
# Stress axis : x y z
#
# Youngs Moduli (GPa) = 76.23516 63.34041 64.70681
#
# Poissons Ratio (x) = 0.30467 0.19098
# Poissons Ratio (y) = 0.36669 0.19317
# Poissons Ratio (z) = 0.22500 0.18909
#
# Static dielectric constant tensor:
#      x y z
#    x 1.756030 0.000000 -0.025250 
#    y 0.000000 1.749690 0.000000 
#    z -0.025250 0.000000 1.747190 
# 
# From -- ./inp_files/270631.got.cif
#   From: 2010.05.17/outbox.cif.g08.bks.cpg/sg12_136_cif.got.tgz:270631.got - 2010.06.03 13:09:07.
