data_PCOD9207581
_publ_section_title
;
Structure prediction by ZEFSAII (Michael W. Deem and Ramdas Pophale) SiO2 
 PCOD9207581
Probable space group: C 2/M
;
_chemical_formula_sum "Si O2"
_cell_formula_units_Z 50
_cell_length_a 34.505512
_cell_length_b 10.497182
_cell_length_c 12.727282
_cell_angle_alpha 90.000000
_cell_angle_beta 33.872147
_cell_angle_gamma 90.000000
_cell_volume 2569.320563
_symmetry_space_group_name_H-M "C 2/M"
_symmetry_group_IT_number 12
_symmetry_cell_setting 'monoclinic'
loop_
_space_group_symop_operation_xyz
x,y,z
-x,y,-z
-x,-y,-z
x,-y,z
1/2+x,1/2+y,z
1/2-x,1/2+y,-z
1/2-x,1/2-y,-z
1/2+x,1/2-y,z
loop_
_atom_site_type_symbol
_atom_site_label
_atom_site_fract_x
_atom_site_fract_y
_atom_site_fract_z
Si Si1 0.346822 0.351374 0.943595
Si Si2 0.808076 0.353197 0.639150
Si Si3 0.463878 0.152758 0.973868
Si Si4 0.689925 0.148455 0.611255
Si Si5 0.509578 0.767050 0.316551
Si Si6 0.870919 0.856002 0.650182
Si Si7 0.000000 0.500000 0.500000
O O1 0.364072 0.500000 0.919678
O O2 0.411188 0.269927 0.837874
O O3 0.338096 0.330887 0.838431
O O4 0.274365 0.326917 0.164421
O O5 0.820259 0.500000 0.646835
O O6 0.827747 0.344665 0.472951
O O7 0.846106 0.250841 0.625308
O O8 0.381204 0.177282 0.166975
O O9 0.472951 0.000000 0.949439
O O10 0.500000 0.198739 0.000000
O O11 0.495237 0.208289 0.796974
O O12 0.750000 0.250000 0.500000
O O13 0.710335 0.000000 0.586408
O O14 0.453933 0.660043 0.473589
O O15 0.492610 0.889015 0.425337
O O16 0.853147 0.000000 0.657718
#
# Coordination Sequence:
#
# PCOD9207581 Si02
#       7
#     8   8   8   8   8   8   2
#     4  10  21  39  59  85 115 158 194 238 296 355
#     4  10  22  39  62  85 117 155 198 245 293 354
#     4  10  21  37  59  85 115 154 197 242 292 343
#     4  10  21  39  60  87 113 152 197 242 297 351
#     4  12  22  39  60  87 123 152 201 249 291 354
#     4  11  23  38  58  88 122 157 193 239 302 358
#     4  12  24  36  56 100 116 156 202 244 302 340
#
# _framework density 19.460398999999999
#
# number of rings (size 3 to 8) (size 9 to 14) (size 15 to 20)
#    0.000    1.440    2.400    2.880    1.120    3.200 
#    1.440    0.800    0.000    3.360    0.000    0.000 
#    0.000    0.000    0.000    0.000    0.000    0.000 
#
# Total GULP energy -139390.966937 kJ/mol
# GULP energy per Si atom -5575.638677 kJ/mol
# Density = 1.941611 g / cm^3
# Si number density = 19.460399 Si / 1000 Ang^3
#
#
#
# Elastic Constant Matrix: (Units=GPa)
#
#
# Indices 1 2 3 4 5 6 
#
# 1 56.4309 28.2895 -6.5825 0.0000 6.6878 0.0000
# 2 28.2895 52.9364 -8.2765 0.0000 -5.8738 0.0000
# 3 -6.5825 -8.2765 52.0001 0.0000 17.5345 0.0000
# 4 0.0000 0.0000 0.0000 0.3779 0.0000 18.1617
# 5 6.6878 -5.8738 17.5345 0.0000 30.8924 0.0000
# 6 0.0000 0.0000 0.0000 18.1617 0.0000 13.8047
#
#
#
# Elastic Compliance Matrix: (Units=1/GPa)
#
#
# Indices 1 2 3 4 5 6 
#
# 1 0.027214 -0.015053 0.004948 0.000000 -0.011562 0.000000
# 2 -0.015053 0.027843 -0.000443 0.000000 0.008804 0.000000
# 3 0.004948 -0.000443 0.024952 0.000000 -0.015318 0.000000
# 4 0.000000 0.000000 0.000000 -0.042524 0.000000 0.055946
# 5 -0.011562 0.008804 -0.015318 0.000000 0.045242 0.000000
# 6 0.000000 0.000000 0.000000 0.055946 0.000000 -0.001164
#
#
# Mechanical properties :
#
#
# Convention : Reuss Voigt Hill
#
# Bulk Modulus (GPa) = 16.97407 20.91428 18.94417
# Shear Modulus (GPa) = 40.88473 18.87747 29.88110
#
# Velocity S-wave (km/s) = 4.58855 3.11793 3.92277
# Velocity P-wave (km/s) = 6.06748 4.87160 5.50213
#
# Compressibility (1/GPa) = 0.05891339
#
# Stress axis : x y z
#
# Youngs Moduli (GPa) = 36.74532 35.91623 40.07729
#
# Poissons Ratio (x) = 0.54064 -0.19830
# Poissons Ratio (y) = 0.55312 0.01774
# Poissons Ratio (z) = -0.18181 0.01590
#
# Static dielectric constant tensor:
#      x y z
#    x 1.681430 0.000000 -0.013660 
#    y 0.000000 1.638170 0.000000 
#    z -0.013660 0.000000 1.676160 
# 
# From -- ./inp_files/188627.got.cif
#   From: 2010.05.17/outbox.cif.g08.bks.cpg/sg12_95_cif.got.tgz:188627.got - 2010.06.03 13:09:07.
