data_PCOD9207494
_publ_section_title
;
Structure prediction by ZEFSAII (Michael W. Deem and Ramdas Pophale) SiO2 
 PCOD9207494
Probable space group: C 2/M
;
_chemical_formula_sum "Si O2"
_cell_formula_units_Z 64
_cell_length_a 15.721038
_cell_length_b 9.223136
_cell_length_c 21.022268
_cell_angle_alpha 90.000000
_cell_angle_beta 89.215056
_cell_angle_gamma 90.000000
_cell_volume 3047.885456
_symmetry_space_group_name_H-M "C 2/M"
_symmetry_group_IT_number 12
_symmetry_cell_setting 'monoclinic'
loop_
_space_group_symop_operation_xyz
x,y,z
-x,y,-z
-x,-y,-z
x,-y,z
1/2+x,1/2+y,z
1/2-x,1/2+y,-z
1/2-x,1/2-y,-z
1/2+x,1/2-y,z
loop_
_atom_site_type_symbol
_atom_site_label
_atom_site_fract_x
_atom_site_fract_y
_atom_site_fract_z
Si Si1 0.284555 0.671624 0.392284
Si Si2 0.833058 0.666744 0.019648
Si Si3 0.337772 0.837209 0.271344
Si Si4 0.149446 0.834503 0.218471
Si Si5 0.080074 0.169630 0.087313
Si Si6 0.944198 0.325807 0.439161
Si Si7 0.902081 0.674208 0.655115
Si Si8 0.571223 0.165564 0.857568
O O1 0.285913 0.500000 0.403813
O O2 0.327524 0.716434 0.324618
O O3 0.350847 0.752653 0.438373
O O4 0.184518 0.716509 0.384047
O O5 0.826788 0.500000 0.001699
O O6 0.850167 0.672396 0.094537
O O7 0.750000 0.750000 0.000000
O O8 0.905330 0.740805 0.976480
O O9 0.247831 0.839479 0.236225
O O10 0.406072 0.814003 0.215898
O O11 0.350618 0.000000 0.299439
O O12 0.139822 0.783662 0.146015
O O13 0.105501 0.742337 0.274676
O O14 0.115956 0.000000 0.220627
O O15 0.989744 0.210113 0.117223
O O16 0.091993 0.000000 0.074312
O O17 0.932775 0.500000 0.440436
O O18 0.000000 0.285200 0.500000
O O19 0.008983 0.288630 0.380337
O O20 0.898654 0.500000 0.660018
O O21 0.536226 0.000000 0.865302
#
# Coordination Sequence:
#
# PCOD9207494 Si02
#       8
#     8   8   8   8   8   8   8   8
#     4  10  21  37  58  87 121 151 191 246 296 340
#     4  11  23  40  60  80 107 146 191 238 289 345
#     4   9  18  36  59  80 108 148 189 228 280 342
#     4   9  19  36  57  82 112 147 188 234 282 337
#     4  11  23  37  55  83 116 147 186 236 287 341
#     4  10  22  40  61  86 118 158 200 237 284 353
#     4   9  20  38  59  85 118 155 195 243 293 347
#     4  10  22  38  56  80 111 147 187 232 284 345
#
# _framework density 20.998166000000001
#
# number of rings (size 3 to 8) (size 9 to 14) (size 15 to 20)
#    0.000    2.125    0.000    2.250    1.750    7.750 
#    0.000    2.500    0.000    0.000    0.000    0.000 
#    0.000    0.000    0.000    0.000    0.000    0.000 
#
# Total GULP energy -178533.122656 kJ/mol
# GULP energy per Si atom -5579.160083 kJ/mol
# Density = 2.095037 g / cm^3
# Si number density = 20.998166 Si / 1000 Ang^3
#
#
#
# Elastic Constant Matrix: (Units=GPa)
#
#
# Indices 1 2 3 4 5 6 
#
# 1 63.2932 14.1212 -12.1143 0.0000 11.0698 0.0000
# 2 14.1212 33.3390 -0.9647 0.0000 6.9734 0.0000
# 3 -12.1143 -0.9647 25.3138 0.0000 10.7748 0.0000
# 4 0.0000 0.0000 0.0000 25.3611 0.0000 4.9102
# 5 11.0698 6.9734 10.7748 0.0000 34.7313 0.0000
# 6 0.0000 0.0000 0.0000 4.9102 0.0000 27.9707
#
#
#
# Elastic Compliance Matrix: (Units=1/GPa)
#
#
# Indices 1 2 3 4 5 6 
#
# 1 0.021842 -0.006717 0.014501 0.000000 -0.010112 0.000000
# 2 -0.006717 0.033818 0.000061 0.000000 -0.004668 0.000000
# 3 0.014501 0.000061 0.055785 0.000000 -0.021941 0.000000
# 4 0.000000 0.000000 0.000000 0.040818 0.000000 -0.007166
# 5 -0.010112 -0.004668 -0.021941 0.000000 0.039759 0.000000
# 6 0.000000 0.000000 0.000000 -0.007166 0.000000 0.037010
#
#
# Mechanical properties :
#
#
# Convention : Reuss Voigt Hill
#
# Bulk Modulus (GPa) = 7.86560 13.78117 10.82338
# Shear Modulus (GPa) = 19.55263 25.67286 22.61274
#
# Velocity S-wave (km/s) = 3.05480 3.50040 3.28516
# Velocity P-wave (km/s) = 4.02447 4.78689 4.42214
#
# Compressibility (1/GPa) = 0.12713586
#
# Stress axis : x y z
#
# Youngs Moduli (GPa) = 45.78318 29.56985 17.92597
#
# Poissons Ratio (x) = 0.19862 -0.25994
# Poissons Ratio (y) = 0.30752 -0.00110
# Poissons Ratio (z) = -0.66390 -0.00181
#
# Static dielectric constant tensor:
#      x y z
#    x 1.810320 0.000000 0.067270 
#    y 0.000000 1.723010 0.000000 
#    z 0.067270 0.000000 1.699980 
# 
# From -- ./inp_files/314160.got.cif
#   From: 2010.05.17/outbox.cif.g08.bks.cpg/sg12_158_cif.got.tgz:314160.got - 2010.06.03 13:09:07.
