data_PCOD9207508
_publ_section_title
;
Structure prediction by ZEFSAII (Michael W. Deem and Ramdas Pophale) SiO2 
 PCOD9207508
Probable space group: C 2/M
;
_chemical_formula_sum "Si O2"
_cell_formula_units_Z 60
_cell_length_a 22.094953
_cell_length_b 15.309591
_cell_length_c 25.397775
_cell_angle_alpha 90.000000
_cell_angle_beta 158.689784
_cell_angle_gamma 90.000000
_cell_volume 3122.180427
_symmetry_space_group_name_H-M "C 2/M"
_symmetry_group_IT_number 12
_symmetry_cell_setting 'monoclinic'
loop_
_space_group_symop_operation_xyz
x,y,z
-x,y,-z
-x,-y,-z
x,-y,z
1/2+x,1/2+y,z
1/2-x,1/2+y,-z
1/2-x,1/2-y,-z
1/2+x,1/2-y,z
loop_
_atom_site_type_symbol
_atom_site_label
_atom_site_fract_x
_atom_site_fract_y
_atom_site_fract_z
Si Si1 0.837576 0.227180 0.724236
Si Si2 0.608239 0.824986 0.882843
Si Si3 0.357823 0.604286 0.644667
Si Si4 0.788765 0.900903 0.120972
Si Si5 0.530568 0.901452 0.330616
Si Si6 0.407742 0.755624 0.974123
Si Si7 0.500000 0.188716 0.500000
Si Si8 0.698815 0.098152 0.754579
O O1 0.848288 0.141931 0.695845
O O2 0.646357 0.240390 0.587259
O O3 0.928943 0.296376 0.760196
O O4 0.959411 0.225887 0.873745
O O5 0.583449 0.852322 0.803131
O O6 0.750000 0.750000 0.000000
O O7 0.674673 0.898062 0.976231
O O8 0.338591 0.500000 0.632518
O O9 0.529226 0.622182 0.753665
O O10 0.208211 0.639767 0.487551
O O11 0.717983 0.825035 0.101325
O O12 0.789953 0.000000 0.143707
O O13 0.440935 0.906908 0.313794
O O14 0.554239 0.000000 0.328929
O O15 0.322144 0.671330 0.877918
O O16 0.500000 0.801339 0.000000
O O17 0.607567 0.131075 0.627951
O O18 0.769414 0.000000 0.804771
#
# Coordination Sequence:
#
# PCOD9207508 Si02
#       8
#     8   8   8   8   8   8   4   8
#     4  11  23  39  58  86 120 164 200 251 303 365
#     4  11  21  38  61  91 122 155 200 255 316 364
#     4  10  21  37  58  89 120 154 200 248 305 369
#     4  10  22  40  65  92 121 159 204 261 318 364
#     4  10  21  37  58  88 121 153 196 246 303 370
#     4  11  24  43  61  88 122 159 214 257 301 369
#     4  12  23  42  58  84 127 170 205 244 298 378
#     4  11  24  39  60  90 124 163 201 246 305 369
#
# _framework density 19.217338999999999
#
# number of rings (size 3 to 8) (size 9 to 14) (size 15 to 20)
#    0.000    1.333    4.000    2.200    0.000    3.200 
#    0.000    0.000    0.000    0.000    0.000    2.800 
#    0.000    0.000    0.000    0.000    0.000    0.000 
#
# Total GULP energy -167289.632681 kJ/mol
# GULP energy per Si atom -5576.321089 kJ/mol
# Density = 1.917360 g / cm^3
# Si number density = 19.217339 Si / 1000 Ang^3
#
#
#
# Elastic Constant Matrix: (Units=GPa)
#
#
# Indices 1 2 3 4 5 6 
#
# 1 89.4808 24.3362 37.1803 0.0110 5.7331 0.0125
# 2 24.3362 62.8055 34.1917 0.0024 4.0091 -0.0103
# 3 37.1803 34.1917 81.0610 0.0146 5.0757 -0.0158
# 4 0.0110 0.0024 0.0146 21.6163 0.0035 -2.1371
# 5 5.7331 4.0091 5.0757 0.0035 48.0100 0.0022
# 6 0.0125 -0.0103 -0.0158 -2.1371 0.0022 17.8650
#
#
#
# Elastic Compliance Matrix: (Units=1/GPa)
#
#
# Indices 1 2 3 4 5 6 
#
# 1 0.014148 -0.002495 -0.005380 -0.000005 -0.000912 -0.000017
# 2 -0.002495 0.021140 -0.007732 0.000005 -0.000650 0.000008
# 3 -0.005380 -0.007732 0.018104 -0.000007 -0.000626 0.000015
# 4 -0.000005 0.000005 -0.000007 0.046815 -0.000003 0.005600
# 5 -0.000912 -0.000650 -0.000626 -0.000003 0.021058 -0.000003
# 6 -0.000017 0.000008 0.000015 0.005600 -0.000003 0.056645
#
#
# Mechanical properties :
#
#
# Convention : Reuss Voigt Hill
#
# Bulk Modulus (GPa) = 45.08761 47.19597 46.14179
# Shear Modulus (GPa) = 23.09291 26.67418 24.88355
#
# Velocity S-wave (km/s) = 3.47027 3.72966 3.60230
# Velocity P-wave (km/s) = 6.29046 6.56959 6.43154
#
# Compressibility (1/GPa) = 0.02217904
#
# Stress axis : x y z
#
# Youngs Moduli (GPa) = 70.68150 47.30450 55.23557
#
# Poissons Ratio (x) = 0.11803 0.29715
# Poissons Ratio (y) = 0.17636 0.42706
# Poissons Ratio (z) = 0.38024 0.36574
#
# Static dielectric constant tensor:
#      x y z
#    x 1.682850 0.000000 0.021010 
#    y 0.000000 1.712300 -0.000010 
#    z 0.021010 -0.000010 1.709420 
# 
# From -- ./inp_files/368166.got.cif
#   From: 2010.05.17/outbox.cif.g08.bks.cpg/sg12_185_cif.got.tgz:368166.got - 2010.06.03 13:09:07.
