data_PCOD9207163
_publ_section_title
;
Structure prediction by ZEFSAII (Michael W. Deem and Ramdas Pophale) SiO2 
 PCOD9207163
Probable space group: C 2/M
;
_chemical_formula_sum "Si O2"
_cell_formula_units_Z 48
_cell_length_a 31.047213
_cell_length_b 18.948931
_cell_length_c 8.935686
_cell_angle_alpha 90.000000
_cell_angle_beta 149.703826
_cell_angle_gamma 90.000000
_cell_volume 2651.981878
_symmetry_space_group_name_H-M "C 2/M"
_symmetry_group_IT_number 12
_symmetry_cell_setting 'monoclinic'
loop_
_space_group_symop_operation_xyz
x,y,z
-x,y,-z
-x,-y,-z
x,-y,z
1/2+x,1/2+y,z
1/2-x,1/2+y,-z
1/2-x,1/2-y,-z
1/2+x,1/2-y,z
loop_
_atom_site_type_symbol
_atom_site_label
_atom_site_fract_x
_atom_site_fract_y
_atom_site_fract_z
Si Si1 0.663761 0.082399 0.812251
Si Si2 0.500000 0.823749 0.680524
Si Si3 0.345476 0.416394 0.858617
Si Si4 0.163761 0.417601 0.170314
Si Si5 0.500000 0.669322 0.178371
Si Si6 0.654524 0.583606 0.785762
O O1 0.584229 0.131383 0.532736
O O2 0.644101 0.000000 0.721599
O O3 0.677538 0.088279 0.032615
O O4 0.750945 0.101267 0.989672
O O5 0.500000 0.814536 0.500000
O O6 0.500000 0.748521 0.758939
O O7 0.584229 0.868617 0.972639
O O8 0.359119 0.500000 0.870418
O O9 0.250945 0.398733 0.515998
O O10 0.417072 0.371336 0.991157
O O11 0.351071 0.405078 0.053213
O O12 0.144101 0.500000 0.143007
O O13 0.582928 0.628664 0.488724
O O14 0.500000 0.669190 0.000000
O O15 0.640881 0.500000 0.715702
#
# Coordination Sequence:
#
# PCOD9207163 Si02
#       6
#     8   8   8   8   8   8
#     4   9  18  35  60  87 112 142 183 227 271 322
#     4  10  21  37  57  82 115 151 183 222 272 324
#     4  10  21  38  60  84 110 142 181 227 278 329
#     4   9  18  35  60  87 112 142 183 227 271 322
#     4  12  25  38  55  80 111 148 187 228 274 326
#     4  10  21  38  60  84 110 142 181 227 278 329
#
# _framework density 18.09967
#
# number of rings (size 3 to 8) (size 9 to 14) (size 15 to 20)
#    0.000    2.000    0.000    3.500    0.000    8.667 
#    0.000    0.000    0.000    5.000    0.000    0.000 
#    0.000    0.000    0.000    0.000    0.000    0.000 
#
# Total GULP energy -134093.180873 kJ/mol
# GULP energy per Si atom -5587.215870 kJ/mol
# Density = 1.805847 g / cm^3
# Si number density = 18.099670 Si / 1000 Ang^3
#
#
#
# Elastic Constant Matrix: (Units=GPa)
#
#
# Indices 1 2 3 4 5 6 
#
# 1 108.4006 94.8012 93.3041 0.0000 25.7358 0.0000
# 2 94.8012 121.3890 119.8393 0.0000 18.7052 0.0000
# 3 93.3041 119.8393 170.4782 0.0000 20.6406 0.0000
# 4 0.0000 0.0000 0.0000 -0.7762 0.0000 -14.3258
# 5 25.7358 18.7052 20.6406 0.0000 20.9663 0.0000
# 6 0.0000 0.0000 0.0000 -14.3258 0.0000 18.4002
#
#
#
# Elastic Compliance Matrix: (Units=1/GPa)
#
#
# Indices 1 2 3 4 5 6 
#
# 1 0.036409 -0.026086 0.001140 0.000000 -0.022540 0.000000
# 2 -0.026086 0.046319 -0.019479 0.000000 0.009872 0.000000
# 3 0.001140 -0.019479 0.019301 0.000000 -0.003022 0.000000
# 4 0.000000 0.000000 0.000000 -0.083824 0.000000 -0.065263
# 5 -0.022540 0.009872 -0.003022 0.000000 0.069531 0.000000
# 6 0.000000 0.000000 0.000000 -0.065263 0.000000 0.003536
#
#
# Mechanical properties :
#
#
# Convention : Reuss Voigt Hill
#
# Bulk Modulus (GPa) = 75.88069 112.90632 94.39351
# Shear Modulus (GPa) = 27.09813 13.87294 20.48554
#
# Velocity S-wave (km/s) = 3.87352 2.77153 3.36790
# Velocity P-wave (km/s) = 7.87530 8.52981 8.20908
#
# Compressibility (1/GPa) = 0.01317858
#
# Stress axis : x y z
#
# Youngs Moduli (GPa) = 27.46583 21.58938 51.81146
#
# Poissons Ratio (x) = 0.56318 -0.05904
# Poissons Ratio (y) = 0.71647 1.00922
# Poissons Ratio (z) = -0.03130 0.42053
#
# Static dielectric constant tensor:
#      x y z
#    x 1.597880 0.000000 -0.004480 
#    y 0.000000 1.597510 0.000000 
#    z -0.004480 0.000000 1.591880 
# 
# From -- ./inp_files/75086.got.cif
#   From: 2010.05.17/outbox.cif.g08.bks.cpg/sg12_38_cif.got.tgz:75086.got - 2010.06.03 13:09:07.
