data_PCOD9207181
_publ_section_title
;
Structure prediction by ZEFSAII (Michael W. Deem and Ramdas Pophale) SiO2 
 PCOD9207181
Probable space group: C 2/M
;
_chemical_formula_sum "Si O2"
_cell_formula_units_Z 40
_cell_length_a 10.133799
_cell_length_b 9.032917
_cell_length_c 23.301434
_cell_angle_alpha 90.000000
_cell_angle_beta 109.410738
_cell_angle_gamma 90.000000
_cell_volume 2011.724513
_symmetry_space_group_name_H-M "C 2/M"
_symmetry_group_IT_number 12
_symmetry_cell_setting 'monoclinic'
loop_
_space_group_symop_operation_xyz
x,y,z
-x,y,-z
-x,-y,-z
x,-y,z
1/2+x,1/2+y,z
1/2-x,1/2+y,-z
1/2-x,1/2-y,-z
1/2+x,1/2-y,z
loop_
_atom_site_type_symbol
_atom_site_label
_atom_site_fract_x
_atom_site_fract_y
_atom_site_fract_z
Si Si1 0.007890 0.677688 0.264408
Si Si2 0.835753 0.827544 0.461829
Si Si3 0.205181 0.323237 0.666857
Si Si4 0.695866 0.821985 0.869202
Si Si5 0.992909 0.177538 0.066342
O O1 0.029493 0.500000 0.264692
O O2 0.927884 0.711566 0.312340
O O3 0.903560 0.721190 0.197941
O O4 0.154613 0.760710 0.283711
O O5 0.750000 0.750000 0.500000
O O6 0.808664 0.749431 0.397350
O O7 0.000000 0.818609 0.500000
O O8 0.795375 0.000000 0.452023
O O9 0.214989 0.500000 0.663335
O O10 0.857209 0.777272 0.885264
O O11 0.630831 0.755503 0.917490
O O12 0.694929 0.000000 0.873104
O O13 0.977023 0.000000 0.069123
O O14 0.000000 0.213607 0.000000
#
# Coordination Sequence:
#
# PCOD9207181 Si02
#       5
#     8   8   8   8   8
#     4  10  22  39  58  83 116 151 189 236 285 336
#     4  11  24  41  62  89 119 152 192 235 281 336
#     4  11  23  39  61  87 116 152 191 233 284 338
#     4  10  21  37  57  83 114 149 191 235 282 339
#     4  10  21  37  57  83 115 149 188 236 287 340
#
# _framework density 19.883437000000001
#
# number of rings (size 3 to 8) (size 9 to 14) (size 15 to 20)
#    0.000    1.600    0.000    4.200    0.000   10.000 
#    0.000    0.000    0.000    0.000    0.000    0.000 
#    0.000    0.000    0.000    0.000    0.000    0.000 
#
# Total GULP energy -111859.074934 kJ/mol
# GULP energy per Si atom -5592.953747 kJ/mol
# Density = 1.983818 g / cm^3
# Si number density = 19.883437 Si / 1000 Ang^3
#
#
#
# Elastic Constant Matrix: (Units=GPa)
#
#
# Indices 1 2 3 4 5 6 
#
# 1 56.6223 17.8851 -20.7114 0.0000 -5.1186 0.0000
# 2 17.8851 31.3434 5.7904 0.0000 -4.4454 0.0000
# 3 -20.7114 5.7904 51.8216 0.0000 -2.8360 0.0000
# 4 0.0000 0.0000 0.0000 26.7418 0.0000 -0.8805
# 5 -5.1186 -4.4454 -2.8360 0.0000 37.2779 0.0000
# 6 0.0000 0.0000 0.0000 -0.8805 0.0000 23.0688
#
#
#
# Elastic Compliance Matrix: (Units=1/GPa)
#
#
# Indices 1 2 3 4 5 6 
#
# 1 0.028809 -0.018583 0.013743 0.000000 0.002785 0.000000
# 2 -0.018583 0.045058 -0.012359 0.000000 0.001881 0.000000
# 3 0.013743 -0.012359 0.026303 0.000000 0.002414 0.000000
# 4 0.000000 0.000000 0.000000 0.037442 0.000000 0.001429
# 5 0.002785 0.001881 0.002414 0.000000 0.027616 0.000000
# 6 0.000000 0.000000 0.000000 0.001429 0.000000 0.043403
#
#
# Mechanical properties :
#
#
# Convention : Reuss Voigt Hill
#
# Bulk Modulus (GPa) = 15.20381 16.19060 15.69720
# Shear Modulus (GPa) = 18.87128 26.53924 22.70526
#
# Velocity S-wave (km/s) = 3.08408 3.65737 3.38289
# Velocity P-wave (km/s) = 4.51056 5.09859 4.81356
#
# Compressibility (1/GPa) = 0.06577301
#
# Stress axis : x y z
#
# Youngs Moduli (GPa) = 34.71102 22.19344 38.01898
#
# Poissons Ratio (x) = 0.41242 -0.52249
# Poissons Ratio (y) = 0.64503 0.46987
# Poissons Ratio (z) = -0.47703 0.27428
#
# Static dielectric constant tensor:
#      x y z
#    x 1.664260 0.000000 0.021070 
#    y 0.000000 1.659820 0.000000 
#    z 0.021070 0.000000 1.695800 
# 
# From -- ./inp_files/260980.got.cif
#   From: 2010.05.17/outbox.cif.g08.bks.cpg/sg12_131_cif.got.tgz:260980.got - 2010.06.03 13:09:07.
