data_PCOD9207666
_publ_section_title
;
Structure prediction by ZEFSAII (Michael W. Deem and Ramdas Pophale) SiO2 
 PCOD9207666
Probable space group: C 2/M
;
_chemical_formula_sum "Si O2"
_cell_formula_units_Z 42
_cell_length_a 13.787772
_cell_length_b 10.917801
_cell_length_c 14.958034
_cell_angle_alpha 90.000000
_cell_angle_beta 118.778972
_cell_angle_gamma 90.000000
_cell_volume 1973.547087
_symmetry_space_group_name_H-M "C 2/M"
_symmetry_group_IT_number 12
_symmetry_cell_setting 'monoclinic'
loop_
_space_group_symop_operation_xyz
x,y,z
-x,y,-z
-x,-y,-z
x,-y,z
1/2+x,1/2+y,z
1/2-x,1/2+y,-z
1/2-x,1/2-y,-z
1/2+x,1/2-y,z
loop_
_atom_site_type_symbol
_atom_site_label
_atom_site_fract_x
_atom_site_fract_y
_atom_site_fract_z
Si Si1 0.181499 0.364800 0.062142
Si Si2 0.086722 0.763210 0.855300
Si Si3 0.641724 0.258349 0.512947
Si Si4 0.000000 0.000000 0.500000
Si Si5 0.420590 0.856290 0.340797
Si Si6 0.905322 0.866184 0.880799
O O1 0.159224 0.500000 0.088213
O O2 0.308659 0.353662 0.087575
O O3 0.163746 0.252271 0.121718
O O4 0.104901 0.336043 0.942325
O O5 0.091063 0.701799 0.761622
O O6 0.973774 0.835528 0.822346
O O7 0.750000 0.250000 0.500000
O O8 0.585214 0.391364 0.500341
O O9 0.658715 0.206871 0.621028
O O10 0.545571 0.173889 0.427657
O O11 0.402748 0.000000 0.331349
O O12 0.850421 0.000000 0.853801
O O13 0.000000 0.872971 0.000000
#
# Coordination Sequence:
#
# PCOD9207666 Si02
#       6
#     8   8   8   2   8   8
#     4  10  21  37  59  88 120 167 209 253 317 368
#     4  10  21  37  59  87 125 161 202 262 306 373
#     4  10  22  42  68  93 125 171 203 268 333 391
#     4   8  20  40  62 102 132 160 220 262 310 414
#     4  10  22  40  61  95 122 156 211 263 319 394
#     4   9  19  36  56  81 115 159 206 249 306 372
#
# _framework density 21.281476999999999
#
# number of rings (size 3 to 8) (size 9 to 14) (size 15 to 20)
#    0.000    2.476    0.000    2.286    2.667   11.048 
#   13.714    0.000    0.000    0.000    0.000    0.000 
#    0.000    0.000    0.000    0.000    0.000    0.000 
#
# Total GULP energy -116967.531609 kJ/mol
# GULP energy per Si atom -5569.882458 kJ/mol
# Density = 2.123304 g / cm^3
# Si number density = 21.281477 Si / 1000 Ang^3
#
#
#
# Elastic Constant Matrix: (Units=GPa)
#
#
# Indices 1 2 3 4 5 6 
#
# 1 147.7569 56.2429 26.9467 0.0000 -23.9723 0.0000
# 2 56.2429 185.2930 37.8529 0.0000 -23.2958 0.0000
# 3 26.9467 37.8529 69.8952 0.0000 -21.5262 0.0000
# 4 0.0000 0.0000 0.0000 8.0189 0.0000 -8.0812
# 5 -23.9723 -23.2958 -21.5262 0.0000 31.1698 0.0000
# 6 0.0000 0.0000 0.0000 -8.0812 0.0000 17.8265
#
#
#
# Elastic Compliance Matrix: (Units=1/GPa)
#
#
# Indices 1 2 3 4 5 6 
#
# 1 0.008333 -0.001790 -0.000865 0.000000 0.004473 0.000000
# 2 -0.001790 0.006663 -0.002297 0.000000 0.002017 0.000000
# 3 -0.000865 -0.002297 0.019244 0.000000 0.010908 0.000000
# 4 0.000000 0.000000 0.000000 0.229598 0.000000 0.104083
# 5 0.004473 0.002017 0.010908 0.000000 0.044563 0.000000
# 6 0.000000 0.000000 0.000000 0.104083 0.000000 0.103279
#
#
# Mechanical properties :
#
#
# Convention : Reuss Voigt Hill
#
# Bulk Modulus (GPa) = 41.09417 71.67003 56.38210
# Shear Modulus (GPa) = 11.63610 30.19655 20.91632
#
# Velocity S-wave (km/s) = 2.34085 3.77093 3.13843
# Velocity P-wave (km/s) = 5.16313 7.26018 6.29953
#
# Compressibility (1/GPa) = 0.02433435
#
# Stress axis : x y z
#
# Youngs Moduli (GPa) = 120.00726 150.08111 51.96357
#
# Poissons Ratio (x) = 0.26866 0.04497
# Poissons Ratio (y) = 0.21483 0.11938
# Poissons Ratio (z) = 0.10386 0.34478
#
# Static dielectric constant tensor:
#      x y z
#    x 1.823450 0.000000 0.009250 
#    y 0.000000 1.753950 0.000000 
#    z 0.009250 0.000000 1.811340 
# 
# From -- ./inp_files/212999.got.cif
#   From: 2010.05.17/outbox.cif.g08.bks.cpg/sg12_107_cif.got.tgz:212999.got - 2010.06.03 13:09:07.
