data_PCOD9207520
_publ_section_title
;
Structure prediction by ZEFSAII (Michael W. Deem and Ramdas Pophale) SiO2 
 PCOD9207520
Probable space group: C 2/M
;
_chemical_formula_sum "Si O2"
_cell_formula_units_Z 48
_cell_length_a 18.858592
_cell_length_b 13.713972
_cell_length_c 19.351818
_cell_angle_alpha 90.000000
_cell_angle_beta 152.442563
_cell_angle_gamma 90.000000
_cell_volume 2315.448895
_symmetry_space_group_name_H-M "C 2/M"
_symmetry_group_IT_number 12
_symmetry_cell_setting 'monoclinic'
loop_
_space_group_symop_operation_xyz
x,y,z
-x,y,-z
-x,-y,-z
x,-y,z
1/2+x,1/2+y,z
1/2-x,1/2+y,-z
1/2-x,1/2-y,-z
1/2+x,1/2-y,z
loop_
_atom_site_type_symbol
_atom_site_label
_atom_site_fract_x
_atom_site_fract_y
_atom_site_fract_z
Si Si1 0.513668 0.609265 0.094281
Si Si2 0.766699 0.114902 0.474955
Si Si3 0.482862 0.288121 0.407310
Si Si4 0.685022 0.886238 0.559127
Si Si5 0.759389 0.264259 0.906049
Si Si6 0.584611 0.113894 0.848754
O O1 0.467236 0.500000 0.078431
O O2 0.683977 0.625043 0.270132
O O3 0.500000 0.609775 0.000000
O O4 0.404775 0.693776 0.026904
O O5 0.898607 0.160921 0.542673
O O6 0.752890 0.147366 0.543321
O O7 0.596921 0.127267 0.296080
O O8 0.798766 0.000000 0.506025
O O9 0.500000 0.325218 0.500000
O O10 0.539167 0.176224 0.454022
O O11 0.313823 0.294713 0.229684
O O12 0.645787 0.000000 0.518076
O O13 0.634238 0.194993 0.835573
O O14 0.810177 0.356326 0.995441
O O15 0.606724 0.000000 0.847895
#
# Coordination Sequence:
#
# PCOD9207520 Si02
#       6
#     8   8   8   8   8   8
#     4  10  21  37  58  88 127 164 198 243 305 370
#     4  10  22  42  64  85 119 163 208 251 295 358
#     4  12  25  39  61  92 127 160 199 252 306 366
#     4  10  21  38  63  88 118 164 205 246 301 360
#     4  11  23  36  61  92 121 156 196 252 305 360
#     4  10  22  40  62  89 117 153 203 256 301 351
#
# _framework density 20.730321
#
# number of rings (size 3 to 8) (size 9 to 14) (size 15 to 20)
#    0.000    1.500    1.667    3.000    4.667    2.000 
#    0.000    0.000    0.000    2.500    0.000    0.000 
#    0.000    0.000    0.000    0.000    0.000    0.000 
#
# Total GULP energy -134088.793770 kJ/mol
# GULP energy per Si atom -5587.033074 kJ/mol
# Density = 2.068314 g / cm^3
# Si number density = 20.730321 Si / 1000 Ang^3
#
#
#
# Elastic Constant Matrix: (Units=GPa)
#
#
# Indices 1 2 3 4 5 6 
#
# 1 34.2021 3.5838 7.1962 0.0000 -19.6515 0.0000
# 2 3.5838 47.0290 17.3423 0.0000 -0.5073 -0.0001
# 3 7.1962 17.3423 108.6574 0.0000 -32.3267 0.0000
# 4 0.0000 0.0000 0.0000 29.6765 0.0000 3.1463
# 5 -19.6515 -0.5073 -32.3267 0.0000 35.1223 -0.0001
# 6 0.0000 -0.0001 0.0000 3.1463 -0.0001 15.6220
#
#
#
# Elastic Compliance Matrix: (Units=1/GPa)
#
#
# Indices 1 2 3 4 5 6 
#
# 1 0.047679 -0.006183 0.007904 0.000000 0.033863 0.000000
# 2 -0.006183 0.023837 -0.005951 0.000000 -0.008593 0.000000
# 3 0.007904 -0.005951 0.015037 0.000000 0.018177 0.000000
# 4 0.000000 0.000000 0.000000 0.034432 0.000000 -0.006935
# 5 0.033863 -0.008593 0.018177 0.000000 0.064024 0.000000
# 6 0.000000 0.000000 0.000000 -0.006935 0.000000 0.065409
#
#
# Mechanical properties :
#
#
# Convention : Reuss Voigt Hill
#
# Bulk Modulus (GPa) = 12.80532 27.34812 20.07672
# Shear Modulus (GPa) = 17.54938 26.86857 22.20898
#
# Velocity S-wave (km/s) = 2.91272 3.60404 3.27667
# Velocity P-wave (km/s) = 4.18359 5.52628 4.90113
#
# Compressibility (1/GPa) = 0.07809252
#
# Stress axis : x y z
#
# Youngs Moduli (GPa) = 20.97343 41.95240 66.50068
#
# Poissons Ratio (x) = 0.25937 -0.52559
# Poissons Ratio (y) = 0.12967 0.39577
# Poissons Ratio (z) = -0.16576 0.24967
#
# Static dielectric constant tensor:
#      x y z
#    x 1.749010 0.000000 -0.017690 
#    y 0.000000 1.750010 0.000000 
#    z -0.017690 0.000000 1.736590 
# 
# From -- ./inp_files/73626.got.cif
#   From: 2010.05.17/outbox.cif.g08.bks.cpg/sg12_37_cif.got.tgz:73626.got - 2010.06.03 13:09:07.
