data_PCOD9207188
_publ_section_title
;
Structure prediction by ZEFSAII (Michael W. Deem and Ramdas Pophale) SiO2 
 PCOD9207188
Probable space group: C 2/M
;
_chemical_formula_sum "Si O2"
_cell_formula_units_Z 48
_cell_length_a 17.438751
_cell_length_b 33.202297
_cell_length_c 8.556431
_cell_angle_alpha 90.000000
_cell_angle_beta 150.634029
_cell_angle_gamma 90.000000
_cell_volume 2429.486178
_symmetry_space_group_name_H-M "C 2/M"
_symmetry_group_IT_number 12
_symmetry_cell_setting 'monoclinic'
loop_
_space_group_symop_operation_xyz
x,y,z
-x,y,-z
-x,-y,-z
x,-y,z
1/2+x,1/2+y,z
1/2-x,1/2+y,-z
1/2-x,1/2-y,-z
1/2+x,1/2-y,z
loop_
_atom_site_type_symbol
_atom_site_label
_atom_site_fract_x
_atom_site_fract_y
_atom_site_fract_z
Si Si1 0.681690 0.288724 0.789384
Si Si2 0.833616 0.208261 0.615188
Si Si3 0.311380 0.043554 0.161714
Si Si4 0.813172 0.625571 0.664783
Si Si5 0.815599 0.124328 0.213209
Si Si6 0.684710 0.455546 0.289429
O O1 0.500000 0.287797 0.500000
O O2 0.680989 0.290925 0.599803
O O3 0.746501 0.332355 0.960176
O O4 0.750000 0.250000 0.000000
O O5 0.750000 0.250000 0.500000
O O6 0.750870 0.166983 0.524262
O O7 0.000000 0.208957 0.000000
O O8 0.500000 0.044369 0.500000
O O9 0.230270 0.044001 0.187741
O O10 0.267533 0.000000 0.009886
O O11 0.257130 0.083918 0.983046
O O12 0.728394 0.623709 0.682499
O O13 0.768121 0.583797 0.503779
O O14 0.000000 0.628601 0.000000
O O15 0.000000 0.123428 0.500000
O O16 0.734023 0.500000 0.439363
O O17 0.500000 0.451845 0.000000
#
# Coordination Sequence:
#
# PCOD9207188 Si02
#       6
#     8   8   8   8   8   8
#     4  10  22  39  59  87 118 152 198 247 295 353
#     4  11  23  40  62  88 121 161 202 249 306 368
#     4  10  21  37  57  83 115 152 194 240 294 356
#     4  11  23  38  59  89 120 154 199 251 305 362
#     4  10  22  39  58  84 115 151 196 241 293 354
#     4  10  21  37  58  85 117 156 200 246 302 366
#
# _framework density 19.757262999999998
#
# number of rings (size 3 to 8) (size 9 to 14) (size 15 to 20)
#    0.000    1.667    0.000    4.000    0.000    7.333 
#    0.000    0.000    0.000    0.000    0.000    0.000 
#    0.000    0.000    0.000    0.000    0.000    0.000 
#
# Total GULP energy -133672.635411 kJ/mol
# GULP energy per Si atom -5569.693142 kJ/mol
# Density = 1.971229 g / cm^3
# Si number density = 19.757263 Si / 1000 Ang^3
#
#
#
# Elastic Constant Matrix: (Units=GPa)
#
#
# Indices 1 2 3 4 5 6 
#
# 1 66.8449 20.2834 9.9531 0.0000 7.9420 0.0000
# 2 20.2834 256.6579 85.5983 0.0000 -11.6986 0.0000
# 3 9.9531 85.5983 85.9443 0.0000 9.4532 0.0000
# 4 0.0000 0.0000 0.0000 51.6422 0.0000 -2.9919
# 5 7.9420 -11.6986 9.4532 0.0000 25.0872 0.0000
# 6 0.0000 0.0000 0.0000 -2.9919 0.0000 26.3847
#
#
#
# Elastic Compliance Matrix: (Units=1/GPa)
#
#
# Indices 1 2 3 4 5 6 
#
# 1 0.016132 -0.001729 0.000526 0.000000 -0.006111 0.000000
# 2 -0.001729 0.006727 -0.007203 0.000000 0.006399 0.000000
# 3 0.000526 -0.007203 0.019964 0.000000 -0.011048 0.000000
# 4 0.000000 0.000000 0.000000 0.019492 0.000000 0.002210
# 5 -0.006111 0.006399 -0.011048 0.000000 0.048943 0.000000
# 6 0.000000 0.000000 0.000000 0.002210 0.000000 0.038151
#
#
# Mechanical properties :
#
#
# Convention : Reuss Voigt Hill
#
# Bulk Modulus (GPa) = 38.44575 71.23520 54.84047
# Shear Modulus (GPa) = 28.58894 40.19698 34.39296
#
# Velocity S-wave (km/s) = 3.80808 4.51548 4.17679
# Velocity P-wave (km/s) = 6.23190 7.95736 7.14689
#
# Compressibility (1/GPa) = 0.02601068
#
# Stress axis : x y z
#
# Youngs Moduli (GPa) = 61.98694 148.65583 50.08961
#
# Poissons Ratio (x) = 0.25701 -0.02634
# Poissons Ratio (y) = 0.10717 0.36082
# Poissons Ratio (z) = -0.03260 1.07083
#
# Static dielectric constant tensor:
#      x y z
#    x 1.688180 0.000000 0.019000 
#    y 0.000000 1.741320 0.000000 
#    z 0.019000 0.000000 1.639880 
# 
# From -- ./inp_files/80807.got.cif
#   From: 2010.05.17/outbox.cif.g08.bks.cpg/sg12_41_cif.got.tgz:80807.got - 2010.06.03 13:09:07.
