data_PCOD9207547
_publ_section_title
;
Structure prediction by ZEFSAII (Michael W. Deem and Ramdas Pophale) SiO2 
 PCOD9207547
Probable space group: C 2/M
;
_chemical_formula_sum "Si O2"
_cell_formula_units_Z 40
_cell_length_a 20.474447
_cell_length_b 13.792876
_cell_length_c 11.339887
_cell_angle_alpha 90.000000
_cell_angle_beta 32.093262
_cell_angle_gamma 90.000000
_cell_volume 1701.432406
_symmetry_space_group_name_H-M "C 2/M"
_symmetry_group_IT_number 12
_symmetry_cell_setting 'monoclinic'
loop_
_space_group_symop_operation_xyz
x,y,z
-x,y,-z
-x,-y,-z
x,-y,z
1/2+x,1/2+y,z
1/2-x,1/2+y,-z
1/2-x,1/2-y,-z
1/2+x,1/2-y,z
loop_
_atom_site_type_symbol
_atom_site_label
_atom_site_fract_x
_atom_site_fract_y
_atom_site_fract_z
Si Si1 0.948802 0.681621 0.918975
Si Si2 0.117904 0.323902 0.253166
Si Si3 0.795091 0.648043 0.378706
Si Si4 0.980288 0.101462 0.210310
Si Si5 0.363664 0.393556 0.805815
O O1 0.910258 0.672387 0.843078
O O2 0.971089 0.796152 0.912107
O O3 0.078474 0.627048 0.743717
O O4 0.844919 0.648306 0.168625
O O5 0.135298 0.210037 0.262061
O O6 0.000000 0.363154 0.500000
O O7 0.244995 0.380349 0.072810
O O8 0.750000 0.750000 0.500000
O O9 0.665340 0.595617 0.582024
O O10 0.017968 0.106088 0.290740
O O11 0.036090 0.000000 0.079159
O O12 0.354752 0.500000 0.761330
#
# Coordination Sequence:
#
# PCOD9207547 Si02
#       5
#     8   8   8   8   8
#     4   9  19  36  56  79 107 142 183 220 264 324
#     4  10  21  37  59  82 109 147 184 222 273 327
#     4   9  18  35  57  77 105 144 178 216 267 320
#     4   9  18  34  57  82 109 138 177 226 270 315
#     4   9  20  36  54  81 113 144 183 227 269 322
#
# _framework density 23.509601
#
# number of rings (size 3 to 8) (size 9 to 14) (size 15 to 20)
#    0.000    2.800    0.000    0.000    0.000   15.200 
#    0.000   16.000    0.000    7.200    0.000    0.000 
#    0.000    0.000    0.000    0.000    0.000    0.000 
#
# Total GULP energy -111460.937230 kJ/mol
# GULP energy per Si atom -5573.046862 kJ/mol
# Density = 2.345609 g / cm^3
# Si number density = 23.509601 Si / 1000 Ang^3
#
#
#
# Elastic Constant Matrix: (Units=GPa)
#
#
# Indices 1 2 3 4 5 6 
#
# 1 86.6911 11.2481 17.9944 0.0000 -7.1435 0.0000
# 2 11.2481 85.2532 -13.2426 0.0000 -13.3003 0.0000
# 3 17.9944 -13.2426 81.7233 0.0000 -7.9833 0.0000
# 4 0.0000 0.0000 0.0000 1.8377 0.0000 0.9911
# 5 -7.1435 -13.3003 -7.9833 0.0000 32.7890 0.0000
# 6 0.0000 0.0000 0.0000 0.9911 0.0000 -7.6367
#
#
#
# Elastic Compliance Matrix: (Units=1/GPa)
#
#
# Indices 1 2 3 4 5 6 
#
# 1 0.012495 -0.001914 -0.002941 0.000000 0.001230 0.000000
# 2 -0.001914 0.013373 0.003152 0.000000 0.005775 0.000000
# 3 -0.002941 0.003152 0.013785 0.000000 0.003994 0.000000
# 4 0.000000 0.000000 0.000000 0.508563 0.000000 0.066004
# 5 0.001230 0.005775 0.003994 0.000000 0.034081 0.000000
# 6 0.000000 0.000000 0.000000 0.066004 0.000000 -0.122380
#
#
# Mechanical properties :
#
#
# Convention : Reuss Voigt Hill
#
# Bulk Modulus (GPa) = 27.58731 31.74083 29.66407
# Shear Modulus (GPa) = 10.51735 21.24250 15.87993
#
# Velocity S-wave (km/s) = 2.11739 3.00920 2.60179
# Velocity P-wave (km/s) = 4.21162 5.06006 4.65521
#
# Compressibility (1/GPa) = 0.03624855
#
# Stress axis : x y z
#
# Youngs Moduli (GPa) = 80.02973 74.77815 72.54233
#
# Poissons Ratio (x) = 0.14310 0.21336
# Poissons Ratio (y) = 0.15314 -0.22869
# Poissons Ratio (z) = 0.23539 -0.23574
#
# Static dielectric constant tensor:
#      x y z
#    x 1.921470 0.000000 -0.019340 
#    y 0.000000 2.003630 0.000000 
#    z -0.019340 0.000000 1.874200 
# 
# From -- ./inp_files/246474.got.cif
#   From: 2010.05.17/outbox.cif.g08.bks.cpg/sg12_124_cif.got.tgz:246474.got - 2010.06.03 13:09:07.
