data_PCOD9207186
_publ_section_title
;
Structure prediction by ZEFSAII (Michael W. Deem and Ramdas Pophale) SiO2 
 PCOD9207186
Probable space group: C 2/M
;
_chemical_formula_sum "Si O2"
_cell_formula_units_Z 64
_cell_length_a 15.248026
_cell_length_b 8.276065
_cell_length_c 29.502641
_cell_angle_alpha 90.000000
_cell_angle_beta 129.720200
_cell_angle_gamma 90.000000
_cell_volume 2863.671382
_symmetry_space_group_name_H-M "C 2/M"
_symmetry_group_IT_number 12
_symmetry_cell_setting 'monoclinic'
loop_
_space_group_symop_operation_xyz
x,y,z
-x,y,-z
-x,-y,-z
x,-y,z
1/2+x,1/2+y,z
1/2-x,1/2+y,-z
1/2-x,1/2-y,-z
1/2+x,1/2-y,z
loop_
_atom_site_type_symbol
_atom_site_label
_atom_site_fract_x
_atom_site_fract_y
_atom_site_fract_z
Si Si1 0.107323 0.811924 0.101425
Si Si2 0.297447 0.190851 0.772887
Si Si3 0.090818 0.197307 0.645805
Si Si4 0.874756 0.691386 0.054360
Si Si5 0.553663 0.307848 0.261118
Si Si6 0.375402 0.305429 0.443462
Si Si7 0.860725 0.194092 0.610850
Si Si8 0.658170 0.196386 0.856176
O O1 0.155343 0.783593 0.168137
O O2 0.210560 0.748491 0.104460
O O3 0.980770 0.741502 0.058465
O O4 0.095859 0.000000 0.087994
O O5 0.173740 0.245882 0.714031
O O6 0.378442 0.217225 0.756159
O O7 0.295138 0.000000 0.783297
O O8 0.138877 0.251341 0.613272
O O9 0.960573 0.249409 0.610121
O O10 0.092381 0.000000 0.646273
O O11 0.872755 0.500000 0.055000
O O12 0.892582 0.748044 0.112172
O O13 0.750000 0.750000 0.000000
O O14 0.571667 0.500000 0.262599
O O15 0.596909 0.257010 0.324818
O O16 0.421042 0.269011 0.208925
O O17 0.500000 0.249066 0.500000
O O18 0.377374 0.500000 0.444224
O O19 0.267637 0.253520 0.437411
O O20 0.858999 0.000000 0.608722
O O21 0.655503 0.000000 0.852104
#
# Coordination Sequence:
#
# PCOD9207186 Si02
#       8
#     8   8   8   8   8   8   8   8
#     4  11  23  40  62  91 122 154 194 244 292 344
#     4  11  20  35  60  86 118 158 191 229 294 357
#     4   9  19  36  57  81 114 153 187 230 290 348
#     4  11  24  43  64  87 118 159 201 245 292 342
#     4  11  21  34  58  89 119 151 192 240 289 347
#     4  10  21  38  58  80 109 149 196 240 285 342
#     4  10  21  37  57  83 115 149 188 235 289 344
#     4  10  23  41  62  88 122 159 193 235 295 351
#
# _framework density 22.348935000000001
#
# number of rings (size 3 to 8) (size 9 to 14) (size 15 to 20)
#    0.000    1.625    2.500    2.250    0.000    4.250 
#    0.000    4.375    0.000    0.000    0.000    0.000 
#    0.000    0.000    0.000    0.000    0.000    0.000 
#
# Total GULP energy -178865.647767 kJ/mol
# GULP energy per Si atom -5589.551493 kJ/mol
# Density = 2.229807 g / cm^3
# Si number density = 22.348935 Si / 1000 Ang^3
#
#
#
# Elastic Constant Matrix: (Units=GPa)
#
#
# Indices 1 2 3 4 5 6 
#
# 1 116.2234 6.5371 4.7153 0.0000 38.9056 0.0000
# 2 6.5371 8.5142 2.0116 0.0000 5.5927 0.0000
# 3 4.7153 2.0116 52.6734 0.0000 34.7063 0.0000
# 4 0.0000 0.0000 0.0000 21.6763 0.0000 9.8159
# 5 38.9056 5.5927 34.7063 0.0000 42.5022 0.0000
# 6 0.0000 0.0000 0.0000 9.8159 0.0000 26.0681
#
#
#
# Elastic Compliance Matrix: (Units=1/GPa)
#
#
# Indices 1 2 3 4 5 6 
#
# 1 0.019896 0.003771 0.022517 0.000000 -0.037096 0.000000
# 2 0.003771 0.133872 0.018251 0.000000 -0.035970 0.000000
# 3 0.022517 0.018251 0.068048 0.000000 -0.078579 0.000000
# 4 0.000000 0.000000 0.000000 0.055617 0.000000 -0.020942
# 5 -0.037096 -0.035970 -0.078579 0.000000 0.126384 0.000000
# 6 0.000000 0.000000 0.000000 -0.020942 0.000000 0.046247
#
#
# Mechanical properties :
#
#
# Convention : Reuss Voigt Hill
#
# Bulk Modulus (GPa) = 3.21654 22.65989 12.93821
# Shear Modulus (GPa) = 10.76154 28.99244 19.87699
#
# Velocity S-wave (km/s) = 2.19675 3.60566 2.98550
# Velocity P-wave (km/s) = 2.80653 5.24362 4.20548
#
# Compressibility (1/GPa) = 0.31089278
#
# Stress axis : x y z
#
# Youngs Moduli (GPa) = 50.26097 7.46981 14.69557
#
# Poissons Ratio (x) = -0.02817 -0.33090
# Poissons Ratio (y) = -0.18953 -0.26820
# Poissons Ratio (z) = -1.13173 -0.13633
#
# Static dielectric constant tensor:
#      x y z
#    x 1.834450 0.000000 0.006310 
#    y 0.000000 1.772560 0.000000 
#    z 0.006310 0.000000 1.831560 
# 
# From -- ./inp_files/360001.got.cif
#   From: 2010.05.17/outbox.cif.g08.bks.cpg/sg12_181_cif.got.tgz:360001.got - 2010.06.03 13:09:07.
