data_PCOD9207461
_publ_section_title
;
Structure prediction by ZEFSAII (Michael W. Deem and Ramdas Pophale) SiO2 
 PCOD9207461
Probable space group: C 2/M
;
_chemical_formula_sum "Si O2"
_cell_formula_units_Z 64
_cell_length_a 18.922340
_cell_length_b 8.648089
_cell_length_c 34.000223
_cell_angle_alpha 90.000000
_cell_angle_beta 28.851623
_cell_angle_gamma 90.000000
_cell_volume 2684.805312
_symmetry_space_group_name_H-M "C 2/M"
_symmetry_group_IT_number 12
_symmetry_cell_setting 'monoclinic'
loop_
_space_group_symop_operation_xyz
x,y,z
-x,y,-z
-x,-y,-z
x,-y,z
1/2+x,1/2+y,z
1/2-x,1/2+y,-z
1/2-x,1/2-y,-z
1/2+x,1/2-y,z
loop_
_atom_site_type_symbol
_atom_site_label
_atom_site_fract_x
_atom_site_fract_y
_atom_site_fract_z
Si Si1 0.841510 0.316495 0.918312
Si Si2 0.219173 0.683875 0.646553
Si Si3 0.447728 0.828969 0.383213
Si Si4 0.832171 0.817852 0.248255
Si Si5 0.880612 0.174369 0.491733
Si Si6 0.067013 0.823534 0.252422
Si Si7 0.406569 0.818175 0.007717
Si Si8 0.665694 0.319888 0.841125
O O1 0.858405 0.500000 0.914052
O O2 0.998528 0.237163 0.836357
O O3 0.750000 0.250000 0.000000
O O4 0.739271 0.274409 0.930952
O O5 0.207114 0.500000 0.648406
O O6 0.246667 0.730259 0.677836
O O7 0.062200 0.756439 0.711272
O O8 0.339781 0.732401 0.555316
O O9 0.278349 0.841344 0.452061
O O10 0.460813 0.787810 0.422531
O O11 0.504805 0.694459 0.327088
O O12 0.511774 0.000000 0.342946
O O13 0.775231 0.792109 0.231760
O O14 0.827480 0.000000 0.258797
O O15 0.944025 0.000000 0.463239
O O16 0.215093 0.726344 0.184490
O O17 0.098779 0.000000 0.226829
O O18 0.523323 0.785132 0.916288
O O19 0.374222 0.000000 0.026349
O O20 0.500000 0.768373 0.000000
O O21 0.624200 0.500000 0.864321
#
# Coordination Sequence:
#
# PCOD9207461 Si02
#       8
#     8   8   8   8   8   8   8   8
#     4  12  24  41  65  89 117 152 194 240 285 341
#     4  10  21  37  58  86 118 153 193 239 288 341
#     4   9  16  28  49  78 112 149 189 233 286 342
#     4  11  24  41  62  87 116 152 194 238 288 346
#     4   8  15  28  48  77 112 147 187 232 282 338
#     4  11  22  36  57  84 118 154 194 241 289 342
#     4  11  25  43  64  90 120 151 191 239 289 344
#     4  11  24  42  62  84 116 154 194 237 289 348
#
# _framework density 23.837854
#
# number of rings (size 3 to 8) (size 9 to 14) (size 15 to 20)
#    0.000    1.625    1.250    4.875    1.750    6.000 
#    0.000    0.000    0.000    0.750    0.000    5.250 
#    0.000    0.000    0.000    0.000    0.000    0.000 
#
# Total GULP energy -179020.802127 kJ/mol
# GULP energy per Si atom -5594.400066 kJ/mol
# Density = 2.378360 g / cm^3
# Si number density = 23.837854 Si / 1000 Ang^3
#
#
#
# Elastic Constant Matrix: (Units=GPa)
#
#
# Indices 1 2 3 4 5 6 
#
# 1 110.3803 19.2983 17.2066 0.0018 5.1789 0.0061
# 2 19.2983 66.3570 4.4622 -0.0040 6.8802 0.0059
# 3 17.2066 4.4622 56.6561 -0.0014 25.7552 0.0004
# 4 0.0018 -0.0040 -0.0014 27.1652 -0.0016 3.2035
# 5 5.1789 6.8802 25.7552 -0.0016 42.7535 0.0004
# 6 0.0061 0.0059 0.0004 3.2035 0.0004 27.2062
#
#
#
# Elastic Compliance Matrix: (Units=1/GPa)
#
#
# Indices 1 2 3 4 5 6 
#
# 1 0.010024 -0.002820 -0.003410 -0.000001 0.001294 -0.000001
# 2 -0.002820 0.016120 0.000841 0.000003 -0.002759 -0.000003
# 3 -0.003410 0.000841 0.025468 0.000001 -0.015064 0.000000
# 4 -0.000001 0.000003 0.000001 0.037330 0.000001 -0.004396
# 5 0.001294 -0.002759 -0.015064 0.000001 0.032752 0.000000
# 6 -0.000001 -0.000003 0.000000 -0.004396 0.000000 0.037274
#
#
# Mechanical properties :
#
#
# Convention : Reuss Voigt Hill
#
# Bulk Modulus (GPa) = 24.49008 35.03640 29.76324
# Shear Modulus (GPa) = 27.26926 32.25338 29.76132
#
# Velocity S-wave (km/s) = 3.38590 3.68235 3.53723
# Velocity P-wave (km/s) = 5.05783 5.72794 5.40328
#
# Compressibility (1/GPa) = 0.04083287
#
# Stress axis : x y z
#
# Youngs Moduli (GPa) = 99.76540 62.03613 39.26504
#
# Poissons Ratio (x) = 0.17494 0.13391
# Poissons Ratio (y) = 0.28133 -0.03303
# Poissons Ratio (z) = 0.34023 -0.05218
#
# Static dielectric constant tensor:
#      x y z
#    x 1.940470 0.000000 0.001850 
#    y 0.000000 1.807220 0.000000 
#    z 0.001850 0.000000 1.991370 
# 
# From -- ./inp_files/378190.got.cif
#   From: 2010.05.17/outbox.cif.g08.bks.cpg/sg12_190_cif.got.tgz:378190.got - 2010.06.03 13:09:07.
