data_PCOD9207772
_publ_section_title
;
Structure prediction by ZEFSAII (Michael W. Deem and Ramdas Pophale) SiO2 
 PCOD9207772
Probable space group: C 2/M
;
_chemical_formula_sum "Si O2"
_cell_formula_units_Z 42
_cell_length_a 8.711523
_cell_length_b 15.342866
_cell_length_c 17.102133
_cell_angle_alpha 90.000000
_cell_angle_beta 113.837277
_cell_angle_gamma 90.000000
_cell_volume 2090.875040
_symmetry_space_group_name_H-M "C 2/M"
_symmetry_group_IT_number 12
_symmetry_cell_setting 'monoclinic'
loop_
_space_group_symop_operation_xyz
x,y,z
-x,y,-z
-x,-y,-z
x,-y,z
1/2+x,1/2+y,z
1/2-x,1/2+y,-z
1/2-x,1/2-y,-z
1/2+x,1/2-y,z
loop_
_atom_site_type_symbol
_atom_site_label
_atom_site_fract_x
_atom_site_fract_y
_atom_site_fract_z
Si Si1 0.133662 0.500000 0.802052
Si Si2 0.765458 0.000000 0.301084
Si Si3 0.697404 0.819130 0.052345
Si Si4 0.315163 0.000000 0.001562
Si Si5 0.000000 0.000000 0.500000
Si Si6 0.748099 0.147125 0.710913
Si Si7 0.807399 0.500000 0.430281
Si Si8 0.872231 0.816605 0.247196
O O1 0.160344 0.500000 0.900410
O O2 0.211164 0.585677 0.777707
O O3 0.936186 0.500000 0.740406
O O4 0.821214 0.910668 0.270339
O O5 0.856130 0.000000 0.402987
O O6 0.748938 0.795181 0.150103
O O7 0.500000 0.826570 0.000000
O O8 0.750000 0.750000 0.000000
O O9 0.774145 0.913257 0.046996
O O10 0.500000 0.000000 0.000000
O O11 0.844381 0.000000 0.537784
O O12 0.712357 0.085483 0.629028
O O13 0.642153 0.236319 0.695459
O O14 0.940501 0.175816 0.746090
O O15 0.000000 0.500000 0.500000
#
# Coordination Sequence:
#
# PCOD9207772 Si02
#       8
#     4   4   8   4   2   8   4   8
#     4  11  22  42  67  95 135 184 229 294 352 422
#     4  12  23  42  70  95 134 184 222 292 349 422
#     4  11  22  38  60  94 131 176 225 283 332 396
#     4  10  21  37  59  92 128 175 234 273 346 408
#     4  12  22  46  72 104 134 176 230 286 366 420
#     4  11  24  44  67 102 132 184 232 278 360 424
#     4  11  25  50  75 105 144 174 232 302 360 434
#     4  12  23  43  67  98 140 182 233 282 346 421
#
# _framework density 20.087284
#
# number of rings (size 3 to 8) (size 9 to 14) (size 15 to 20)
#    0.000    0.762    1.905    8.000    0.000    0.000 
#    1.714    3.333    0.000    0.000    0.000    0.000 
#    0.000    0.000    0.000    0.000    0.000    0.000 
#
# Total GULP energy -117083.824966 kJ/mol
# GULP energy per Si atom -5575.420236 kJ/mol
# Density = 2.004156 g / cm^3
# Si number density = 20.087284 Si / 1000 Ang^3
#
#
#
# Elastic Constant Matrix: (Units=GPa)
#
#
# Indices 1 2 3 4 5 6 
#
# 1 125.3861 48.9097 24.2234 0.0000 -11.3630 0.0000
# 2 48.9097 153.9393 5.8305 0.0000 -26.2185 0.0000
# 3 24.2234 5.8305 98.5708 0.0000 -19.1061 0.0000
# 4 0.0000 0.0000 0.0000 5.1330 0.0000 -2.8812
# 5 -11.3630 -26.2185 -19.1061 0.0000 39.9164 0.0000
# 6 0.0000 0.0000 0.0000 -2.8812 0.0000 33.9134
#
#
#
# Elastic Compliance Matrix: (Units=1/GPa)
#
#
# Indices 1 2 3 4 5 6 
#
# 1 0.009549 -0.003005 -0.002232 0.000000 -0.000323 0.000000
# 2 -0.003005 0.008287 0.001254 0.000000 0.005188 0.000000
# 3 -0.002232 0.001254 0.011745 0.000000 0.005810 0.000000
# 4 0.000000 0.000000 0.000000 0.204573 0.000000 0.017380
# 5 -0.000323 0.005188 0.005810 0.000000 0.031149 0.000000
# 6 0.000000 0.000000 0.000000 0.017380 0.000000 0.030963
#
#
# Mechanical properties :
#
#
# Convention : Reuss Voigt Hill
#
# Bulk Modulus (GPa) = 46.26068 59.53593 52.89830
# Shear Modulus (GPa) = 16.05459 35.72141 25.88800
#
# Velocity S-wave (km/s) = 2.83015 4.22158 3.59385
# Velocity P-wave (km/s) = 5.81029 7.31199 6.60397
#
# Compressibility (1/GPa) = 0.02161663
#
# Stress axis : x y z
#
# Youngs Moduli (GPa) = 104.72114 120.67448 85.13935
#
# Poissons Ratio (x) = 0.36257 0.19000
# Poissons Ratio (y) = 0.31464 -0.10674
# Poissons Ratio (z) = 0.23370 -0.15130
#
# Static dielectric constant tensor:
#      x y z
#    x 1.726870 0.000000 -0.014860 
#    y 0.000000 1.736520 0.000000 
#    z -0.014860 0.000000 1.677460 
# 
# From -- ./inp_files/255923.got.cif
#   From: 2010.05.17/outbox.cif.g08.bks.cpg/sg12_128_cif.got.tgz:255923.got - 2010.06.03 13:09:07.
