data_PCOD9207990
_publ_section_title
;
Structure prediction by ZEFSAII (Michael W. Deem and Ramdas Pophale) SiO2 
 PCOD9207990
Probable space group: C 2/M
;
_chemical_formula_sum "Si O2"
_cell_formula_units_Z 52
_cell_length_a 20.684711
_cell_length_b 22.538500
_cell_length_c 12.145601
_cell_angle_alpha 90.000000
_cell_angle_beta 28.953101
_cell_angle_gamma 90.000000
_cell_volume 2741.086673
_symmetry_space_group_name_H-M "C 2/M"
_symmetry_group_IT_number 12
_symmetry_cell_setting 'monoclinic'
loop_
_space_group_symop_operation_xyz
x,y,z
-x,y,-z
-x,-y,-z
x,-y,z
1/2+x,1/2+y,z
1/2-x,1/2+y,-z
1/2-x,1/2-y,-z
1/2+x,1/2-y,z
loop_
_atom_site_type_symbol
_atom_site_label
_atom_site_fract_x
_atom_site_fract_y
_atom_site_fract_z
Si Si1 0.158560 0.931909 0.285800
Si Si2 0.000000 0.649608 0.500000
Si Si3 0.960372 0.118141 0.943744
Si Si4 0.374391 0.250831 0.111566
Si Si5 0.401859 0.243644 0.815572
Si Si6 0.246705 0.431182 0.100527
Si Si7 0.130240 0.167769 0.504797
O O1 0.180955 0.883230 0.346755
O O2 0.000000 0.932899 0.500000
O O3 0.197230 0.000000 0.258164
O O4 0.225393 0.916287 0.069145
O O5 0.026681 0.692133 0.357600
O O6 0.129056 0.609203 0.320986
O O7 0.088790 0.141100 0.684309
O O8 0.876099 0.177433 0.101714
O O9 0.876035 0.080296 0.982911
O O10 0.000000 0.088763 0.000000
O O11 0.239253 0.219698 0.352309
O O12 0.500000 0.234192 0.000000
O O13 0.397385 0.231349 0.951624
O O14 0.492679 0.302455 0.664753
O O15 0.250000 0.250000 0.000000
O O16 0.210788 0.500000 0.158578
#
# Coordination Sequence:
#
# PCOD9207990 Si02
#       7
#     8   4   8   8   8   8   8
#     4  10  21  37  61  87 111 145 196 252 293 338
#     4  12  23  36  58  86 125 152 180 238 302 348
#     4  10  22  37  55  81 112 148 192 235 284 344
#     4  10  23  38  56  85 117 155 195 234 293 360
#     4  11  23  35  58  91 118 152 195 240 291 357
#     4  11  23  39  57  83 115 151 194 235 292 349
#     4  11  21  36  61  81 117 148 188 242 293 343
#
# _framework density 18.970578
#
# number of rings (size 3 to 8) (size 9 to 14) (size 15 to 20)
#    0.000    1.385    1.538    4.846    3.231    7.077 
#    0.000    0.000    0.000    0.462    0.000    0.000 
#    0.000    0.000    0.000    0.000    0.000    0.000 
#
# Total GULP energy -145260.319365 kJ/mol
# GULP energy per Si atom -5586.935360 kJ/mol
# Density = 1.892740 g / cm^3
# Si number density = 18.970578 Si / 1000 Ang^3
#
#
#
# Elastic Constant Matrix: (Units=GPa)
#
#
# Indices 1 2 3 4 5 6 
#
# 1 103.2959 26.0319 37.5963 0.0000 14.6122 0.0000
# 2 26.0319 62.1264 32.3318 -0.0002 8.2701 0.0001
# 3 37.5963 32.3318 85.8593 0.0008 6.8747 0.0000
# 4 0.0000 -0.0002 0.0008 48.3576 -0.0001 -2.2112
# 5 14.6122 8.2701 6.8747 -0.0001 26.1401 -0.0001
# 6 0.0000 0.0001 0.0000 -2.2112 -0.0001 17.6118
#
#
#
# Elastic Compliance Matrix: (Units=1/GPa)
#
#
# Indices 1 2 3 4 5 6 
#
# 1 0.012532 -0.002393 -0.004174 0.000000 -0.005150 0.000000
# 2 -0.002393 0.020995 -0.006572 0.000000 -0.003576 0.000000
# 3 -0.004174 -0.006572 0.015932 0.000000 0.000222 0.000000
# 4 0.000000 0.000000 0.000000 0.020799 0.000000 0.002611
# 5 -0.005150 -0.003576 0.000222 0.000000 0.042207 0.000000
# 6 0.000000 0.000000 0.000000 0.002611 0.000000 0.057108
#
#
# Mechanical properties :
#
#
# Convention : Reuss Voigt Hill
#
# Bulk Modulus (GPa) = 43.13936 49.24462 46.19199
# Shear Modulus (GPa) = 24.56073 28.77668 26.66870
#
# Velocity S-wave (km/s) = 3.60206 3.89898 3.75346
# Velocity P-wave (km/s) = 6.33161 6.80325 6.57166
#
# Compressibility (1/GPa) = 0.02318069
#
# Stress axis : x y z
#
# Youngs Moduli (GPa) = 79.79725 47.62997 62.76860
#
# Poissons Ratio (x) = 0.11399 0.26199
# Poissons Ratio (y) = 0.19098 0.41250
# Poissons Ratio (z) = 0.33306 0.31301
#
# Static dielectric constant tensor:
#      x y z
#    x 1.652330 0.000000 -0.002740 
#    y 0.000000 1.684000 0.000000 
#    z -0.002740 0.000000 1.654290 
# 
# From -- ./inp_files/169832.got.cif
#   From: 2010.05.17/outbox.cif.g08.bks.cpg/sg12_85_cif.got.tgz:169832.got - 2010.06.03 13:09:07.
