data_PCOD9207672
_publ_section_title
;
Structure prediction by ZEFSAII (Michael W. Deem and Ramdas Pophale) SiO2 
 PCOD9207672
Probable space group: C 2/M
;
_chemical_formula_sum "Si O2"
_cell_formula_units_Z 56
_cell_length_a 7.773890
_cell_length_b 34.091224
_cell_length_c 10.826164
_cell_angle_alpha 90.000000
_cell_angle_beta 61.462112
_cell_angle_gamma 90.000000
_cell_volume 2520.565803
_symmetry_space_group_name_H-M "C 2/M"
_symmetry_group_IT_number 12
_symmetry_cell_setting 'monoclinic'
loop_
_space_group_symop_operation_xyz
x,y,z
-x,y,-z
-x,-y,-z
x,-y,z
1/2+x,1/2+y,z
1/2-x,1/2+y,-z
1/2-x,1/2-y,-z
1/2+x,1/2-y,z
loop_
_atom_site_type_symbol
_atom_site_label
_atom_site_fract_x
_atom_site_fract_y
_atom_site_fract_z
Si Si1 0.630101 0.500000 0.337368
Si Si2 0.763263 0.159431 0.103983
Si Si3 0.792920 0.209146 0.320338
Si Si4 0.763578 0.799285 0.598938
Si Si5 0.367804 0.926536 0.846798
Si Si6 0.455306 0.000000 0.662994
Si Si7 0.204323 0.073955 0.168586
Si Si8 0.307701 0.661949 0.819843
O O1 0.500000 0.500000 0.500000
O O2 0.593528 0.538642 0.270386
O O3 0.848341 0.500000 0.319441
O O4 0.707495 0.192448 0.222285
O O5 0.698059 0.116651 0.172194
O O6 0.692514 0.165623 0.987780
O O7 0.000000 0.159083 0.000000
O O8 0.697354 0.194219 0.481201
O O9 0.788636 0.255809 0.336409
O O10 0.014397 0.192747 0.239084
O O11 0.704083 0.829504 0.725379
O O12 0.000000 0.800577 0.500000
O O13 0.586682 0.923591 0.830705
O O14 0.354110 0.959963 0.747332
O O15 0.240256 0.935872 0.012856
O O16 0.500000 0.000000 0.500000
O O17 0.115774 0.117251 0.209067
#
# Coordination Sequence:
#
# PCOD9207672 Si02
#       8
#     4   8   8   8   8   4   8   8
#     4  10  21  37  59  88 116 148 194 232 271 337
#     4   9  18  35  55  82 108 138 182 232 280 329
#     4   9  18  34  52  74 109 141 178 224 282 326
#     4   9  18  34  52  75 104 148 186 223 272 338
#     4   9  18  37  60  80 109 146 186 226 278 339
#     4  10  21  41  54  83 125 149 178 235 288 334
#     4   9  18  36  62  84 105 147 190 231 276 327
#     4   9  18  34  56  78 107 135 186 232 272 317
#
# _framework density 22.217233
#
# number of rings (size 3 to 8) (size 9 to 14) (size 15 to 20)
#    0.000    2.857    0.000    0.429    0.000    4.000 
#   20.571    0.357    6.286    0.000    0.000    0.000 
#    0.000    0.000    0.000    0.000    0.000    0.000 
#
# Total GULP energy -156250.086764 kJ/mol
# GULP energy per Si atom -5580.360242 kJ/mol
# Density = 2.216667 g / cm^3
# Si number density = 22.217233 Si / 1000 Ang^3
#
#
#
# Elastic Constant Matrix: (Units=GPa)
#
#
# Indices 1 2 3 4 5 6 
#
# 1 66.5895 11.1110 15.6339 0.0000 10.7306 0.0000
# 2 11.1110 106.1417 106.9849 0.0000 23.7394 0.0000
# 3 15.6339 106.9849 144.0924 0.0000 32.8516 0.0000
# 4 0.0000 0.0000 0.0000 809.6827 0.0000 -542.5298
# 5 10.7306 23.7394 32.8516 0.0000 32.2026 0.0000
# 6 0.0000 0.0000 0.0000 -542.5298 0.0000 403.7898
#
#
#
# Elastic Compliance Matrix: (Units=1/GPa)
#
#
# Indices 1 2 3 4 5 6 
#
# 1 0.015921 0.000184 -0.000812 0.000000 -0.004612 0.000000
# 2 0.000184 0.037468 -0.028052 0.000000 0.000935 0.000000
# 3 -0.000812 -0.028052 0.030074 0.000000 -0.009730 0.000000
# 4 0.000000 0.000000 0.000000 0.012385 0.000000 0.016641
# 5 -0.004612 0.000935 -0.009730 0.000000 0.041827 0.000000
# 6 0.000000 0.000000 0.000000 0.016641 0.000000 0.024835
#
#
# Mechanical properties :
#
#
# Convention : Reuss Voigt Hill
#
# Bulk Modulus (GPa) = 38.31207 64.92035 51.61621
# Shear Modulus (GPa) = 21.87498 261.34128 141.60813
#
# Velocity S-wave (km/s) = 3.14123 10.85750 7.99227
# Velocity P-wave (km/s) = 5.51708 13.65520 10.41400
#
# Compressibility (1/GPa) = 0.02610144
#
# Stress axis : x y z
#
# Youngs Moduli (GPa) = 62.81164 26.68952 33.25078
#
# Poissons Ratio (x) = -0.00490 0.02701
# Poissons Ratio (y) = -0.01153 0.93275
# Poissons Ratio (z) = 0.05102 0.74870
#
# Static dielectric constant tensor:
#      x y z
#    x 1.038600 0.000000 0.508570 
#    y 0.000000 1.767150 0.000000 
#    z 0.508570 0.000000 1.550750 
# 
# From -- ./inp_files/125658.got.cif
#   From: 2010.05.17/outbox.cif.g08.bks.cpg/sg12_63_cif.got.tgz:125658.got - 2010.06.03 13:09:07.
