data_PCOD9207293
_publ_section_title
;
Structure prediction by ZEFSAII (Michael W. Deem and Ramdas Pophale) SiO2 
 PCOD9207293
Probable space group: C 2/M
;
_chemical_formula_sum "Si O2"
_cell_formula_units_Z 50
_cell_length_a 23.584121
_cell_length_b 13.143337
_cell_length_c 7.426061
_cell_angle_alpha 90.000000
_cell_angle_beta 103.109514
_cell_angle_gamma 90.000000
_cell_volume 2241.895179
_symmetry_space_group_name_H-M "C 2/M"
_symmetry_group_IT_number 12
_symmetry_cell_setting 'monoclinic'
loop_
_space_group_symop_operation_xyz
x,y,z
-x,y,-z
-x,-y,-z
x,-y,z
1/2+x,1/2+y,z
1/2-x,1/2+y,-z
1/2-x,1/2-y,-z
1/2+x,1/2-y,z
loop_
_atom_site_type_symbol
_atom_site_label
_atom_site_fract_x
_atom_site_fract_y
_atom_site_fract_z
Si Si1 0.543797 0.113609 0.802501
Si Si2 0.318002 0.747056 0.730895
Si Si3 0.921718 0.675864 0.561997
Si Si4 0.780515 0.115816 0.377287
Si Si5 0.000000 0.000000 0.000000
Si Si6 0.583511 0.388902 0.588017
Si Si7 0.922618 0.825536 0.016862
O O1 0.476092 0.121882 0.695376
O O2 0.580847 0.131249 0.643312
O O3 0.556470 0.208919 0.941184
O O4 0.555533 0.000000 0.881385
O O5 0.363147 0.814114 0.638406
O O6 0.267006 0.819324 0.763729
O O7 0.287246 0.665130 0.579488
O O8 0.356801 0.689883 0.904783
O O9 0.938685 0.793906 0.540506
O O10 0.846386 0.120191 0.354689
O O11 0.761795 0.000000 0.372713
O O12 0.953580 0.907404 0.912848
O O13 0.567171 0.500000 0.508889
O O14 0.566400 0.377538 0.782635
#
# Coordination Sequence:
#
# PCOD9207293 Si02
#       7
#     8   8   8   8   2   8   8
#     4  10  21  39  57  84 117 162 199 240 289 368
#     4  10  21  37  57  89 116 151 192 255 298 362
#     4   9  18  35  58  82 117 156 202 235 298 345
#     4   9  20  37  60  81 114 151 204 243 305 354
#     4  12  24  40  58  94 124 160 200 244 300 376
#     4   9  18  37  57  84 117 162 196 253 294 363
#     4  11  23  38  60  86 126 157 198 248 306 356
#
# _framework density 22.302558999999999
#
# number of rings (size 3 to 8) (size 9 to 14) (size 15 to 20)
#    0.000    2.240    0.800    1.920    1.120    2.560 
#    7.200    4.400    0.000    0.000    0.000    0.000 
#    0.000    0.000    0.000    0.000    0.000    0.000 
#
# Total GULP energy -139284.791057 kJ/mol
# GULP energy per Si atom -5571.391642 kJ/mol
# Density = 2.225180 g / cm^3
# Si number density = 22.302559 Si / 1000 Ang^3
#
#
#
# Elastic Constant Matrix: (Units=GPa)
#
#
# Indices 1 2 3 4 5 6 
#
# 1 52.2803 28.0796 -1.9275 0.0000 6.1813 0.0000
# 2 28.0796 179.0949 30.3363 0.0000 12.0722 0.0000
# 3 -1.9275 30.3363 46.7297 0.0000 8.7100 0.0000
# 4 0.0000 0.0000 0.0000 18.7970 0.0000 32.0877
# 5 6.1813 12.0722 8.7100 0.0000 37.5418 0.0000
# 6 0.0000 0.0000 0.0000 32.0877 0.0000 98.7231
#
#
#
# Elastic Compliance Matrix: (Units=1/GPa)
#
#
# Indices 1 2 3 4 5 6 
#
# 1 0.021740 -0.003869 0.004017 0.000000 -0.003268 0.000000
# 2 -0.003869 0.007007 -0.004607 0.000000 -0.000548 0.000000
# 3 0.004017 -0.004607 0.025506 0.000000 -0.005098 0.000000
# 4 0.000000 0.000000 0.000000 0.119509 0.000000 -0.038844
# 5 -0.003268 -0.000548 -0.005098 0.000000 0.028534 0.000000
# 6 0.000000 0.000000 0.000000 -0.038844 0.000000 0.022755
#
#
# Mechanical properties :
#
#
# Convention : Reuss Voigt Hill
#
# Bulk Modulus (GPa) = 22.05684 43.45352 32.75518
# Shear Modulus (GPa) = 20.07392 45.78682 32.93037
#
# Velocity S-wave (km/s) = 3.00338 4.53590 3.84673
# Velocity P-wave (km/s) = 4.68384 6.85263 5.86928
#
# Compressibility (1/GPa) = 0.04533741
#
# Stress axis : x y z
#
# Youngs Moduli (GPa) = 45.99818 142.70604 39.20623
#
# Poissons Ratio (x) = 0.55209 -0.15750
# Poissons Ratio (y) = 0.17796 0.18061
# Poissons Ratio (z) = -0.18479 0.65740
#
# Static dielectric constant tensor:
#      x y z
#    x 1.931770 0.000000 -0.072100 
#    y 0.000000 1.758320 0.000000 
#    z -0.072100 0.000000 1.834820 
# 
# From -- ./inp_files/102484.got.cif
#   From: 2010.05.17/outbox.cif.g08.bks.cpg/sg12_52_cif.got.tgz:102484.got - 2010.06.03 13:09:07.
