data_PCOD9207448
_publ_section_title
;
Structure prediction by ZEFSAII (Michael W. Deem and Ramdas Pophale) SiO2 
 PCOD9207448
Probable space group: C 2/M
;
_chemical_formula_sum "Si O2"
_cell_formula_units_Z 48
_cell_length_a 8.390867
_cell_length_b 15.096572
_cell_length_c 17.896293
_cell_angle_alpha 90.000000
_cell_angle_beta 84.466883
_cell_angle_gamma 90.000000
_cell_volume 2256.420284
_symmetry_space_group_name_H-M "C 2/M"
_symmetry_group_IT_number 12
_symmetry_cell_setting 'monoclinic'
loop_
_space_group_symop_operation_xyz
x,y,z
-x,y,-z
-x,-y,-z
x,-y,z
1/2+x,1/2+y,z
1/2-x,1/2+y,-z
1/2-x,1/2-y,-z
1/2+x,1/2-y,z
loop_
_atom_site_type_symbol
_atom_site_label
_atom_site_fract_x
_atom_site_fract_y
_atom_site_fract_z
Si Si1 0.885996 0.703605 0.944866
Si Si2 0.676378 0.654285 0.408788
Si Si3 0.844491 0.780547 0.163098
Si Si4 0.207952 0.855191 0.569199
Si Si5 0.846326 0.396803 0.247857
Si Si6 0.286769 0.903678 0.723647
O O1 0.784678 0.665193 0.881055
O O2 0.000193 0.771925 0.895310
O O3 0.750000 0.750000 0.000000
O O4 0.000000 0.654887 0.000000
O O5 0.723719 0.756712 0.419084
O O6 0.484810 0.646055 0.415391
O O7 0.741155 0.612490 0.483453
O O8 0.748340 0.618602 0.328632
O O9 0.803311 0.678713 0.188535
O O10 0.841779 0.832991 0.240462
O O11 0.279454 0.907033 0.635061
O O12 0.829021 0.500000 0.224835
O O13 0.032516 0.380225 0.260724
O O14 0.246472 0.000000 0.756363
#
# Coordination Sequence:
#
# PCOD9207448 Si02
#       6
#     8   8   8   8   8   8
#     4   9  20  38  68  96 117 157 200 234 299 373
#     4  10  21  37  58  85 121 165 213 259 309 356
#     4  11  20  40  65  90 126 159 195 248 302 357
#     4  10  21  37  58  85 121 165 212 261 308 355
#     4  11  24  39  60  92 125 166 210 250 308 363
#     4  11  24  39  60  92 126 165 209 253 308 359
#
# _framework density 21.272632000000002
#
# number of rings (size 3 to 8) (size 9 to 14) (size 15 to 20)
#    0.000    1.667    3.333    1.000    2.333    3.333 
#    0.000    3.333    0.000   20.000    0.000    0.000 
#    0.000    0.000    0.000    0.000    0.000    0.000 
#
# Total GULP energy -133666.132372 kJ/mol
# GULP energy per Si atom -5569.422182 kJ/mol
# Density = 2.122421 g / cm^3
# Si number density = 21.272632 Si / 1000 Ang^3
#
#
#
# Elastic Constant Matrix: (Units=GPa)
#
#
# Indices 1 2 3 4 5 6 
#
# 1 44.1362 5.9680 28.1664 0.0000 -10.4672 0.0000
# 2 5.9680 76.3454 22.7488 0.0000 -3.2939 0.0000
# 3 28.1664 22.7488 115.0657 0.0000 -6.2234 0.0000
# 4 0.0000 0.0000 0.0000 0.7403 0.0000 4.7629
# 5 -10.4672 -3.2939 -6.2234 0.0000 44.9820 0.0000
# 6 0.0000 0.0000 0.0000 4.7629 0.0000 14.8053
#
#
#
# Elastic Compliance Matrix: (Units=1/GPa)
#
#
# Indices 1 2 3 4 5 6 
#
# 1 0.028209 0.000005 -0.006601 0.000000 0.005651 0.000000
# 2 0.000005 0.013937 -0.002722 0.000000 0.000645 0.000000
# 3 -0.006601 -0.002722 0.010832 0.000000 -0.000237 0.000000
# 4 0.000000 0.000000 0.000000 -1.262681 0.000000 0.406209
# 5 0.005651 0.000645 -0.000237 0.000000 0.023561 0.000000
# 6 0.000000 0.000000 0.000000 0.406209 0.000000 -0.063136
#
#
# Mechanical properties :
#
#
# Convention : Reuss Voigt Hill
#
# Bulk Modulus (GPa) = 29.11743 38.81264 33.96503
# Shear Modulus (GPa) = -4.10106 24.01646 9.95770
#
# Velocity S-wave (km/s) = -1.38998 3.36368 2.16591
# Velocity P-wave (km/s) = 3.33787 5.77674 4.71763
#
# Compressibility (1/GPa) = 0.03434369
#
# Stress axis : x y z
#
# Youngs Moduli (GPa) = 35.44978 71.75251 92.32152
#
# Poissons Ratio (x) = -0.00039 0.60937
# Poissons Ratio (y) = -0.00019 0.25128
# Poissons Ratio (z) = 0.23399 0.19529
#
# Static dielectric constant tensor:
#      x y z
#    x 1.801410 0.000000 0.037040 
#    y 0.000000 2.767190 0.000000 
#    z 0.037040 0.000000 1.819060 
# 
# From -- ./inp_files/255758.got.cif
#   From: 2010.05.17/outbox.cif.g08.bks.cpg/sg12_128_cif.got.tgz:255758.got - 2010.06.03 13:09:07.
