data_PCOD9207377
_publ_section_title
;
Structure prediction by ZEFSAII (Michael W. Deem and Ramdas Pophale) SiO2 
 PCOD9207377
Probable space group: C 2/M
;
_chemical_formula_sum "Si O2"
_cell_formula_units_Z 64
_cell_length_a 20.035639
_cell_length_b 8.347553
_cell_length_c 20.185026
_cell_angle_alpha 90.000000
_cell_angle_beta 59.924585
_cell_angle_gamma 90.000000
_cell_volume 2921.405160
_symmetry_space_group_name_H-M "C 2/M"
_symmetry_group_IT_number 12
_symmetry_cell_setting 'monoclinic'
loop_
_space_group_symop_operation_xyz
x,y,z
-x,y,-z
-x,-y,-z
x,-y,z
1/2+x,1/2+y,z
1/2-x,1/2+y,-z
1/2-x,1/2-y,-z
1/2+x,1/2-y,z
loop_
_atom_site_type_symbol
_atom_site_label
_atom_site_fract_x
_atom_site_fract_y
_atom_site_fract_z
Si Si1 0.170268 0.192036 0.259246
Si Si2 0.417167 0.806687 0.073361
Si Si3 0.669310 0.689618 0.512960
Si Si4 0.168633 0.306533 0.012540
Si Si5 0.168815 0.188740 0.760626
Si Si6 0.081715 0.309274 0.679853
Si Si7 0.080130 0.692056 0.182142
Si Si8 0.582259 0.695628 0.430601
O O1 0.252689 0.243681 0.246775
O O2 0.147316 0.264303 0.200261
O O3 0.106485 0.245879 0.345227
O O4 0.169225 0.000000 0.254204
O O5 0.397911 0.728043 0.152757
O O6 0.413707 0.000000 0.084108
O O7 0.500000 0.770268 0.000000
O O8 0.353681 0.755905 0.050306
O O9 0.673951 0.500000 0.505710
O O10 0.750000 0.750000 0.500000
O O11 0.604320 0.733887 0.598752
O O12 0.645807 0.751068 0.452243
O O13 0.168347 0.500000 0.011978
O O14 0.103958 0.251412 0.097385
O O15 0.250000 0.250000 0.000000
O O16 0.146406 0.269886 0.702471
O O17 0.175751 0.000000 0.747249
O O18 0.077354 0.500000 0.673689
O O19 0.000671 0.246042 0.748998
O O20 0.073153 0.500000 0.181943
O O21 0.500000 0.748112 0.500000
O O22 0.581442 0.500000 0.430126
#
# Coordination Sequence:
#
# PCOD9207377 Si02
#       8
#     8   8   8   8   8   8   8   8
#     4  11  22  38  62  89 119 158 201 244 298 362
#     4  10  21  40  64  87 114 153 199 245 299 360
#     4  11  22  38  61  88 119 156 199 248 301 358
#     4  10  21  37  58  84 114 151 192 236 291 354
#     4  12  25  40  60  88 122 158 201 251 299 355
#     4  11  23  41  63  87 119 159 202 250 305 361
#     4  10  22  40  61  87 120 156 196 246 302 358
#     4   9  19  36  58  84 114 149 191 239 290 347
#
# _framework density 21.907267000000001
#
# number of rings (size 3 to 8) (size 9 to 14) (size 15 to 20)
#    0.000    1.500    0.000    5.250    0.000    8.250 
#    0.000    3.125    0.000    4.500    0.000    0.000 
#    0.000    0.000    0.000    0.000    0.000    0.000 
#
# Total GULP energy -179028.667340 kJ/mol
# GULP energy per Si atom -5594.645854 kJ/mol
# Density = 2.185740 g / cm^3
# Si number density = 21.907267 Si / 1000 Ang^3
#
#
#
# Elastic Constant Matrix: (Units=GPa)
#
#
# Indices 1 2 3 4 5 6 
#
# 1 52.5557 -12.8592 -19.7499 -0.0001 1.9384 -0.0002
# 2 -12.8592 8.3001 -2.6905 -0.0003 -2.5903 -0.0003
# 3 -19.7499 -2.6905 62.3795 -0.0001 4.4112 0.0001
# 4 -0.0001 -0.0003 -0.0001 29.7112 0.0000 0.0440
# 5 1.9384 -2.5903 4.4112 0.0000 42.2758 -0.0001
# 6 -0.0002 -0.0003 0.0001 0.0440 -0.0001 21.4167
#
#
#
# Elastic Compliance Matrix: (Units=1/GPa)
#
#
# Indices 1 2 3 4 5 6 
#
# 1 0.042880 0.072048 0.016633 0.000001 0.000713 0.000002
# 2 0.072048 0.245330 0.032805 0.000003 0.008305 0.000005
# 3 0.016633 0.032805 0.022792 0.000000 -0.001131 0.000001
# 4 0.000001 0.000003 0.000000 0.033657 0.000000 -0.000069
# 5 0.000713 0.008305 -0.001131 0.000000 0.024248 0.000000
# 6 0.000002 0.000005 0.000001 -0.000069 0.000000 0.046693
#
#
# Mechanical properties :
#
#
# Convention : Reuss Voigt Hill
#
# Bulk Modulus (GPa) = 1.80513 5.84847 3.82680
# Shear Modulus (GPa) = 13.99437 29.24974 21.62205
#
# Velocity S-wave (km/s) = 2.53019 3.65795 3.14503
# Velocity P-wave (km/s) = 3.05967 4.52949 3.86509
#
# Compressibility (1/GPa) = 0.55397616
#
# Stress axis : x y z
#
# Youngs Moduli (GPa) = 23.32067 4.07614 43.87503
#
# Poissons Ratio (x) = -0.29368 -0.72979
# Poissons Ratio (y) = -1.68022 -1.43932
# Poissons Ratio (z) = -0.38790 -0.13372
#
# Static dielectric constant tensor:
#      x y z
#    x 1.641800 0.000000 -0.136380 
#    y 0.000000 1.758390 0.000000 
#    z -0.136380 0.000000 1.724400 
# 
# From -- ./inp_files/319943.got.cif
#   From: 2010.05.17/outbox.cif.g08.bks.cpg/sg12_160_cif.got.tgz:319943.got - 2010.06.03 13:09:07.
