data_PCOD9207153
_publ_section_title
;
Structure prediction by ZEFSAII (Michael W. Deem and Ramdas Pophale) SiO2 
 PCOD9207153
Probable space group: C 2/M
;
_chemical_formula_sum "Si O2"
_cell_formula_units_Z 40
_cell_length_a 10.374111
_cell_length_b 8.771125
_cell_length_c 23.745214
_cell_angle_alpha 90.000000
_cell_angle_beta 70.765128
_cell_angle_gamma 90.000000
_cell_volume 2040.023887
_symmetry_space_group_name_H-M "C 2/M"
_symmetry_group_IT_number 12
_symmetry_cell_setting 'monoclinic'
loop_
_space_group_symop_operation_xyz
x,y,z
-x,y,-z
-x,-y,-z
x,-y,z
1/2+x,1/2+y,z
1/2-x,1/2+y,-z
1/2-x,1/2-y,-z
1/2+x,1/2-y,z
loop_
_atom_site_type_symbol
_atom_site_label
_atom_site_fract_x
_atom_site_fract_y
_atom_site_fract_z
Si Si1 0.594433 0.816275 0.933367
Si Si2 0.885399 0.683743 0.868869
Si Si3 0.089820 0.316029 0.264858
Si Si4 0.721916 0.817503 0.666941
Si Si5 0.343726 0.182694 0.535488
O O1 0.743775 0.744897 0.913948
O O2 0.513336 0.767636 0.888693
O O3 0.607777 0.000000 0.931075
O O4 0.500000 0.774480 0.000000
O O5 0.882850 0.500000 0.870680
O O6 0.897792 0.731486 0.802083
O O7 0.103643 0.500000 0.265689
O O8 0.202800 0.240456 0.287913
O O9 0.938104 0.276169 0.308205
O O10 0.794668 0.745785 0.602399
O O11 0.731021 0.000000 0.662783
O O12 0.500000 0.224696 0.500000
O O13 0.250000 0.250000 0.500000
O O14 0.333705 0.000000 0.537203
#
# Coordination Sequence:
#
# PCOD9207153 Si02
#       5
#     8   8   8   8   8
#     4  10  21  37  57  83 115 149 188 236 286 337
#     4  10  21  37  57  82 113 149 189 233 282 338
#     4  10  22  39  57  82 116 149 186 235 285 335
#     4  11  23  39  61  87 115 150 191 234 283 339
#     4  11  24  41  61  87 119 153 191 236 284 335
#
# _framework density 19.607614000000002
#
# number of rings (size 3 to 8) (size 9 to 14) (size 15 to 20)
#    0.000    1.600    0.000    4.200    0.000   11.600 
#    0.000    0.000    0.000    0.000    0.000    0.000 
#    0.000    0.000    0.000    0.000    0.000    0.000 
#
# Total GULP energy -111849.553246 kJ/mol
# GULP energy per Si atom -5592.477662 kJ/mol
# Density = 1.956299 g / cm^3
# Si number density = 19.607614 Si / 1000 Ang^3
#
#
#
# Elastic Constant Matrix: (Units=GPa)
#
#
# Indices 1 2 3 4 5 6 
#
# 1 66.1634 11.5343 -26.9537 0.0000 2.6131 0.0000
# 2 11.5343 10.9069 3.1442 0.0000 -2.5566 0.0000
# 3 -26.9537 3.1442 50.7511 0.0000 1.4985 0.0000
# 4 0.0000 0.0000 0.0000 27.0394 0.0000 4.3725
# 5 2.6131 -2.5566 1.4985 0.0000 42.4964 0.0000
# 6 0.0000 0.0000 0.0000 4.3725 0.0000 19.5476
#
#
#
# Elastic Compliance Matrix: (Units=1/GPa)
#
#
# Indices 1 2 3 4 5 6 
#
# 1 0.028980 -0.036866 0.017812 0.000000 -0.004628 0.000000
# 2 -0.036866 0.141715 -0.028708 0.000000 0.011805 0.000000
# 3 0.017812 -0.028708 0.031058 0.000000 -0.003917 0.000000
# 4 0.000000 0.000000 0.000000 0.038371 0.000000 -0.008583
# 5 -0.004628 0.011805 -0.003917 0.000000 0.024664 0.000000
# 6 0.000000 0.000000 0.000000 -0.008583 0.000000 0.053077
#
#
# Mechanical properties :
#
#
# Convention : Reuss Voigt Hill
#
# Bulk Modulus (GPa) = 9.41372 11.47455 10.44414
# Shear Modulus (GPa) = 11.14084 27.15645 19.14865
#
# Velocity S-wave (km/s) = 2.38626 3.72559 3.12844
# Velocity P-wave (km/s) = 3.52190 4.93675 4.28808
#
# Compressibility (1/GPa) = 0.10622794
#
# Stress axis : x y z
#
# Youngs Moduli (GPa) = 34.50664 7.05642 32.19791
#
# Poissons Ratio (x) = 0.26014 -0.57350
# Poissons Ratio (y) = 1.27213 0.92433
# Poissons Ratio (z) = -0.61462 0.20257
#
# Static dielectric constant tensor:
#      x y z
#    x 1.648050 0.000000 0.005040 
#    y 0.000000 1.662360 0.000000 
#    z 0.005040 0.000000 1.673700 
# 
# From -- ./inp_files/260971.got.cif
#   From: 2010.05.17/outbox.cif.g08.bks.cpg/sg12_131_cif.got.tgz:260971.got - 2010.06.03 13:09:07.
