data_PCOD9207007
_publ_section_title
;
Structure prediction by ZEFSAII (Michael W. Deem and Ramdas Pophale) SiO2 
 PCOD9207007
Probable space group: C 2/M
;
_chemical_formula_sum "Si O2"
_cell_formula_units_Z 56
_cell_length_a 20.505220
_cell_length_b 7.560267
_cell_length_c 22.410666
_cell_angle_alpha 90.000000
_cell_angle_beta 38.415373
_cell_angle_gamma 90.000000
_cell_volume 2158.729593
_symmetry_space_group_name_H-M "C 2/M"
_symmetry_group_IT_number 12
_symmetry_cell_setting 'monoclinic'
loop_
_space_group_symop_operation_xyz
x,y,z
-x,y,-z
-x,-y,-z
x,-y,z
1/2+x,1/2+y,z
1/2-x,1/2+y,-z
1/2-x,1/2-y,-z
1/2+x,1/2-y,z
loop_
_atom_site_type_symbol
_atom_site_label
_atom_site_fract_x
_atom_site_fract_y
_atom_site_fract_z
Si Si1 0.407952 0.199241 0.414451
Si Si2 0.731552 0.801445 0.945271
Si Si3 0.660179 0.785808 0.876182
Si Si4 0.390834 0.712034 0.653691
Si Si5 0.433720 0.783756 0.175254
Si Si6 0.786111 0.792178 0.613422
Si Si7 0.459646 0.783797 0.785627
O O1 0.514771 0.203373 0.377422
O O2 0.319735 0.273368 0.521230
O O3 0.444972 0.277145 0.324903
O O4 0.375773 0.000000 0.424628
O O5 0.664468 0.713951 0.940552
O O6 0.852292 0.791820 0.836692
O O7 0.691866 0.000000 0.977176
O O8 0.750000 0.750000 0.000000
O O9 0.776217 0.756798 0.765049
O O10 0.578205 0.724912 0.884615
O O11 0.647355 0.000000 0.889294
O O12 0.412345 0.500000 0.639237
O O13 0.373797 0.773496 0.597488
O O14 0.326866 0.724237 0.285321
O O15 0.523422 0.730537 0.157546
O O16 0.436097 0.000000 0.172234
O O17 0.780078 0.000000 0.630144
O O18 0.454174 0.000000 0.786805
#
# Coordination Sequence:
#
# PCOD9207007 Si02
#       7
#     8   8   8   8   8   8   8
#     4  11  21  29  43  73 112 144 174 217 272 321
#     4  11  22  38  62  88 111 134 169 217 269 324
#     4   8  15  31  57  82 101 133 181 225 258 300
#     4   9  16  30  50  72  98 134 185 231 260 299
#     4   8  16  34  57  78 104 141 188 229 256 297
#     4   9  18  31  50  73  99 140 190 231 259 294
#     4  10  21  37  56  80 110 143 177 219 271 320
#
# _framework density 25.941182999999999
#
# number of rings (size 3 to 8) (size 9 to 14) (size 15 to 20)
#    0.000    2.571    1.429    3.000    0.000    3.429 
#    0.000    1.429    0.000    6.857    0.000    0.000 
#    0.000    0.000    0.000    0.000    0.000    0.000 
#
# Total GULP energy -156386.721945 kJ/mol
# GULP energy per Si atom -5585.240069 kJ/mol
# Density = 2.588214 g / cm^3
# Si number density = 25.941183 Si / 1000 Ang^3
#
#
#
# Elastic Constant Matrix: (Units=GPa)
#
#
# Indices 1 2 3 4 5 6 
#
# 1 173.3084 -5.6620 65.4850 -0.0020 26.9418 0.0022
# 2 -5.6620 49.3081 3.4892 -0.0038 1.9135 0.0046
# 3 65.4850 3.4892 111.6473 -0.0010 31.7743 0.0014
# 4 -0.0020 -0.0038 -0.0010 13.2488 0.0005 6.5481
# 5 26.9418 1.9135 31.7743 0.0005 55.8202 -0.0007
# 6 0.0022 0.0046 0.0014 6.5481 -0.0007 8.3185
#
#
#
# Elastic Compliance Matrix: (Units=1/GPa)
#
#
# Indices 1 2 3 4 5 6 
#
# 1 0.007566 0.001211 -0.004087 0.000004 -0.001367 -0.000005
# 2 0.001211 0.020527 -0.001176 0.000019 -0.000619 -0.000027
# 3 -0.004087 -0.001176 0.012909 0.000001 -0.005335 -0.000002
# 4 0.000004 0.000019 0.000001 0.123542 -0.000005 -0.097247
# 5 -0.001367 -0.000619 -0.005335 -0.000005 0.021633 0.000007
# 6 -0.000005 -0.000027 -0.000002 -0.097247 0.000007 0.196763
#
#
# Mechanical properties :
#
#
# Convention : Reuss Voigt Hill
#
# Bulk Modulus (GPa) = 30.39552 51.20980 40.80266
# Shear Modulus (GPa) = 12.43755 33.54095 22.98925
#
# Velocity S-wave (km/s) = 2.19201 3.59968 2.98015
# Velocity P-wave (km/s) = 4.26018 6.08773 5.25403
#
# Compressibility (1/GPa) = 0.03289959
#
# Stress axis : x y z
#
# Youngs Moduli (GPa) = 132.16463 48.71650 77.46586
#
# Poissons Ratio (x) = -0.05900 0.31658
# Poissons Ratio (y) = -0.16006 0.09108
# Poissons Ratio (z) = 0.54011 0.05728
#
# Static dielectric constant tensor:
#      x y z
#    x 2.045910 0.000000 0.015690 
#    y 0.000000 2.015420 0.000000 
#    z 0.015690 0.000000 2.101280 
# 
# From -- ./inp_files/319656.got.cif
#   From: 2010.05.17/outbox.cif.g08.bks.cpg/sg12_160_cif.got.tgz:319656.got - 2010.06.03 13:09:07.
