data_PCOD9207430
_publ_section_title
;
Structure prediction by ZEFSAII (Michael W. Deem and Ramdas Pophale) SiO2 
 PCOD9207430
Probable space group: C 2/M
;
_chemical_formula_sum "Si O2"
_cell_formula_units_Z 32
_cell_length_a 10.530195
_cell_length_b 8.771814
_cell_length_c 19.019935
_cell_angle_alpha 90.000000
_cell_angle_beta 73.857886
_cell_angle_gamma 90.000000
_cell_volume 1687.586968
_symmetry_space_group_name_H-M "C 2/M"
_symmetry_group_IT_number 12
_symmetry_cell_setting 'monoclinic'
loop_
_space_group_symop_operation_xyz
x,y,z
-x,y,-z
-x,-y,-z
x,-y,z
1/2+x,1/2+y,z
1/2-x,1/2+y,-z
1/2-x,1/2-y,-z
1/2+x,1/2-y,z
loop_
_atom_site_type_symbol
_atom_site_label
_atom_site_fract_x
_atom_site_fract_y
_atom_site_fract_z
Si Si1 0.779313 0.317228 0.205125
Si Si2 0.849056 0.817239 0.042547
Si Si3 0.496203 0.183987 0.289076
Si Si4 0.608001 0.183882 0.541167
O O1 0.776541 0.500000 0.200028
O O2 0.813046 0.246861 0.124466
O O3 0.637442 0.258013 0.252505
O O4 0.891754 0.274680 0.244433
O O5 0.837758 0.000000 0.044750
O O6 0.750000 0.750000 0.000000
O O7 0.000000 0.776664 0.000000
O O8 0.439415 0.229993 0.373805
O O9 0.510821 0.000000 0.286543
O O10 0.500000 0.231473 0.500000
O O11 0.750000 0.250000 0.500000
O O12 0.616037 0.000000 0.538879
#
# Coordination Sequence:
#
# PCOD9207430 Si02
#       4
#     8   8   8   8
#     4  11  23  38  59  86 115 151 193 236 286 341
#     4  11  24  41  62  88 117 151 191 234 284 341
#     4  10  22  39  58  84 118 153 192 239 288 340
#     4  10  21  37  58  85 116 152 194 239 288 341
#
# _framework density 18.961986
#
# number of rings (size 3 to 8) (size 9 to 14) (size 15 to 20)
#    0.000    1.500    0.000    4.500    0.000    9.500 
#    0.000    0.000    0.000    0.000    0.000    0.000 
#    0.000    0.000    0.000    0.000    0.000    0.000 
#
# Total GULP energy -89492.710465 kJ/mol
# GULP energy per Si atom -5593.294404 kJ/mol
# Density = 1.891883 g / cm^3
# Si number density = 18.961986 Si / 1000 Ang^3
#
#
#
# Elastic Constant Matrix: (Units=GPa)
#
#
# Indices 1 2 3 4 5 6 
#
# 1 143.2047 43.7069 52.4495 0.0000 0.1668 0.0000
# 2 43.7069 27.8759 34.5858 0.0000 -0.5782 0.0000
# 3 52.4495 34.5858 143.2624 0.0000 1.5410 0.0000
# 4 0.0000 0.0000 0.0000 30.7757 0.0000 -8.5287
# 5 0.1668 -0.5782 1.5410 0.0000 44.1040 0.0000
# 6 0.0000 0.0000 0.0000 -8.5287 0.0000 32.5125
#
#
#
# Elastic Compliance Matrix: (Units=1/GPa)
#
#
# Indices 1 2 3 4 5 6 
#
# 1 0.013402 -0.021324 0.000245 0.000000 -0.000339 0.000000
# 2 -0.021324 0.085195 -0.012778 0.000000 0.001644 0.000000
# 3 0.000245 -0.012778 0.009981 0.000000 -0.000517 0.000000
# 4 0.000000 0.000000 0.000000 0.035040 0.000000 0.009192
# 5 -0.000339 0.001644 -0.000517 0.000000 0.022715 0.000000
# 6 0.000000 0.000000 0.000000 0.009192 0.000000 0.033169
#
#
# Mechanical properties :
#
#
# Convention : Reuss Voigt Hill
#
# Bulk Modulus (GPa) = 24.47154 63.98083 44.22619
# Shear Modulus (GPa) = 17.80390 33.71850 25.76120
#
# Velocity S-wave (km/s) = 3.06751 4.22146 3.68988
# Velocity P-wave (km/s) = 5.04775 7.58788 6.44421
#
# Compressibility (1/GPa) = 0.04086380
#
# Stress axis : x y z
#
# Youngs Moduli (GPa) = 74.61675 11.73772 100.19089
#
# Poissons Ratio (x) = 0.25029 -0.02455
# Poissons Ratio (y) = 1.59112 1.28028
# Poissons Ratio (z) = -0.01829 0.14999
#
# Static dielectric constant tensor:
#      x y z
#    x 1.618640 0.000000 0.014290 
#    y 0.000000 1.642120 0.000000 
#    z 0.014290 0.000000 1.626870 
# 
# From -- ./inp_files/202049.got.cif
#   From: 2010.05.17/outbox.cif.g08.bks.cpg/sg12_102_cif.got.tgz:202049.got - 2010.06.03 13:09:07.
