data_PCOD9207987
_publ_section_title
;
Structure prediction by ZEFSAII (Michael W. Deem and Ramdas Pophale) SiO2 
 PCOD9207987
Probable space group: C 2/M
;
_chemical_formula_sum "Si O2"
_cell_formula_units_Z 58
_cell_length_a 23.308216
_cell_length_b 9.829534
_cell_length_c 25.345886
_cell_angle_alpha 90.000000
_cell_angle_beta 147.654647
_cell_angle_gamma 90.000000
_cell_volume 3106.851372
_symmetry_space_group_name_H-M "C 2/M"
_symmetry_group_IT_number 12
_symmetry_cell_setting 'monoclinic'
loop_
_space_group_symop_operation_xyz
x,y,z
-x,y,-z
-x,-y,-z
x,-y,z
1/2+x,1/2+y,z
1/2-x,1/2+y,-z
1/2-x,1/2-y,-z
1/2+x,1/2-y,z
loop_
_atom_site_type_symbol
_atom_site_label
_atom_site_fract_x
_atom_site_fract_y
_atom_site_fract_z
Si Si1 0.365706 0.350099 0.487608
Si Si2 0.058322 0.343845 0.988910
Si Si3 0.500000 0.000000 0.500000
Si Si4 0.080796 0.158720 0.194726
Si Si5 0.503978 0.840885 0.663827
Si Si6 0.318680 0.767448 0.341037
Si Si7 0.878847 0.345395 0.675947
Si Si8 0.304034 0.659141 0.210852
O O1 0.410195 0.500000 0.534151
O O2 0.439989 0.230723 0.566699
O O3 0.345582 0.334875 0.409840
O O4 0.250130 0.336403 0.425897
O O5 0.044094 0.500000 0.958765
O O6 0.002820 0.238127 0.906927
O O7 0.183607 0.319157 0.096602
O O8 0.000000 0.334585 0.000000
O O9 0.590288 0.118102 0.585220
O O10 0.200388 0.175113 0.263199
O O11 0.082850 0.234265 0.252599
O O12 0.055902 0.000000 0.180123
O O13 0.432982 0.828381 0.661319
O O14 0.613507 0.758154 0.754389
O O15 0.521291 0.000000 0.665828
O O16 0.312142 0.697256 0.279067
O O17 0.903293 0.500000 0.713583
O O18 0.329976 0.500000 0.223989
#
# Coordination Sequence:
#
# PCOD9207987 Si02
#       8
#     8   8   2   8   8   8   8   8
#     4  10  21  37  61  86 117 159 213 256 298 359
#     4  10  21  40  65  91 120 159 202 252 308 372
#     4  12  24  36  50  82 132 164 194 228 300 360
#     4  11  22  38  63  96 122 153 200 257 308 356
#     4  11  24  39  59  86 123 161 203 255 314 361
#     4  11  23  37  58  87 125 165 201 242 301 363
#     4   9  21  41  62  86 117 163 209 254 302 362
#     4  11  24  41  63  88 122 163 209 250 306 370
#
# _framework density 18.668417000000002
#
# number of rings (size 3 to 8) (size 9 to 14) (size 15 to 20)
#    0.000    1.517    2.069    2.483    3.862    3.586 
#    0.000    2.759    0.000    0.000    0.000    0.000 
#    0.000    0.000    0.000    0.000    0.000    0.000 
#
# Total GULP energy -161780.877726 kJ/mol
# GULP energy per Si atom -5578.650956 kJ/mol
# Density = 1.862593 g / cm^3
# Si number density = 18.668417 Si / 1000 Ang^3
#
#
#
# Elastic Constant Matrix: (Units=GPa)
#
#
# Indices 1 2 3 4 5 6 
#
# 1 55.8859 37.7187 24.0573 0.0000 8.1420 0.0000
# 2 37.7187 158.7573 78.3223 0.0000 1.6784 0.0000
# 3 24.0573 78.3223 115.4669 0.0001 5.9374 0.0000
# 4 0.0000 0.0000 0.0001 23.5969 0.0000 4.2143
# 5 8.1420 1.6784 5.9374 0.0000 18.6584 0.0000
# 6 0.0000 0.0000 0.0000 4.2143 0.0000 12.2912
#
#
#
# Elastic Compliance Matrix: (Units=1/GPa)
#
#
# Indices 1 2 3 4 5 6 
#
# 1 0.022956 -0.004857 -0.001012 0.000000 -0.009258 0.000000
# 2 -0.004857 0.010521 -0.006288 0.000000 0.003174 0.000000
# 3 -0.001012 -0.006288 0.013303 0.000000 -0.003226 0.000000
# 4 0.000000 0.000000 0.000000 0.045143 0.000000 -0.015478
# 5 -0.009258 0.003174 -0.003226 0.000000 0.058376 0.000000
# 6 0.000000 0.000000 0.000000 -0.015478 0.000000 0.086666
#
#
# Mechanical properties :
#
#
# Convention : Reuss Voigt Hill
#
# Bulk Modulus (GPa) = 44.51239 67.81186 56.16212
# Shear Modulus (GPa) = 18.60334 23.57675 21.09005
#
# Velocity S-wave (km/s) = 3.16019 3.55762 3.36477
# Velocity P-wave (km/s) = 6.10009 7.29923 6.72644
#
# Compressibility (1/GPa) = 0.02246565
#
# Stress axis : x y z
#
# Youngs Moduli (GPa) = 43.56126 95.04353 75.17326
#
# Poissons Ratio (x) = 0.46160 0.07611
# Poissons Ratio (y) = 0.21157 0.47270
# Poissons Ratio (z) = 0.04410 0.59765
#
# Static dielectric constant tensor:
#      x y z
#    x 1.648860 0.000000 0.008820 
#    y 0.000000 1.633040 0.000000 
#    z 0.008820 0.000000 1.629760 
# 
# From -- ./inp_files/367499.got.cif
#   From: 2010.05.17/outbox.cif.g08.bks.cpg/sg12_184_cif.got.tgz:367499.got - 2010.06.03 13:09:07.
