data_PCOD9207814
_publ_section_title
;
Structure prediction by ZEFSAII (Michael W. Deem and Ramdas Pophale) SiO2 
 PCOD9207814
Probable space group: C 2/M
;
_chemical_formula_sum "Si O2"
_cell_formula_units_Z 48
_cell_length_a 9.088750
_cell_length_b 22.741771
_cell_length_c 11.382371
_cell_angle_alpha 90.000000
_cell_angle_beta 89.346839
_cell_angle_gamma 90.000000
_cell_volume 2352.518008
_symmetry_space_group_name_H-M "C 2/M"
_symmetry_group_IT_number 12
_symmetry_cell_setting 'monoclinic'
loop_
_space_group_symop_operation_xyz
x,y,z
-x,y,-z
-x,-y,-z
x,-y,z
1/2+x,1/2+y,z
1/2-x,1/2+y,-z
1/2-x,1/2-y,-z
1/2+x,1/2-y,z
loop_
_atom_site_type_symbol
_atom_site_label
_atom_site_fract_x
_atom_site_fract_y
_atom_site_fract_z
Si Si1 0.595328 0.142703 0.618591
Si Si2 0.076937 0.815601 0.126779
Si Si3 0.448274 0.565414 0.135072
Si Si4 0.831308 0.070103 0.492542
Si Si5 0.306410 0.877379 0.743001
Si Si6 0.820973 0.252524 0.235048
O O1 0.500000 0.149004 0.500000
O O2 0.724795 0.097423 0.590894
O O3 0.481249 0.120926 0.720187
O O4 0.666379 0.204516 0.654708
O O5 0.048811 0.880624 0.180055
O O6 0.241678 0.791824 0.135210
O O7 0.982644 0.768694 0.199954
O O8 0.000000 0.816041 0.000000
O O9 0.461974 0.500000 0.188941
O O10 0.280632 0.589556 0.150939
O O11 0.500000 0.560033 0.000000
O O12 0.767370 0.092512 0.369619
O O13 0.000000 0.089568 0.500000
O O14 0.825710 0.000000 0.497646
O O15 0.262804 0.808867 0.746462
#
# Coordination Sequence:
#
# PCOD9207814 Si02
#       6
#     8   8   8   8   8   8
#     4  10  23  39  58  87 122 163 201 248 303 361
#     4  10  21  37  61  88 120 159 202 255 303 360
#     4   9  19  36  61  89 117 154 201 247 304 363
#     4  10  23  39  59  87 118 159 208 253 300 358
#     4  10  21  37  60  86 121 157 199 247 307 356
#     4  11  21  38  58  90 121 158 203 247 308 366
#
# _framework density 20.403669000000001
#
# number of rings (size 3 to 8) (size 9 to 14) (size 15 to 20)
#    0.000    2.000    1.667    1.000    4.667    7.000 
#    0.000    0.000    0.000    0.000    0.000    3.500 
#    0.000    0.000    0.000    0.000    0.000    0.000 
#
# Total GULP energy -133790.132424 kJ/mol
# GULP energy per Si atom -5574.588851 kJ/mol
# Density = 2.035723 g / cm^3
# Si number density = 20.403669 Si / 1000 Ang^3
#
#
#
# Elastic Constant Matrix: (Units=GPa)
#
#
# Indices 1 2 3 4 5 6 
#
# 1 99.6368 52.2900 25.5784 0.0000 -18.2086 0.0000
# 2 52.2900 139.6203 21.6111 0.0000 -1.4178 0.0000
# 3 25.5784 21.6111 40.4974 0.0000 -9.4377 0.0000
# 4 0.0000 0.0000 0.0000 28.6077 0.0000 -5.5773
# 5 -18.2086 -1.4178 -9.4377 0.0000 34.9371 0.0000
# 6 0.0000 0.0000 0.0000 -5.5773 0.0000 24.5657
#
#
#
# Elastic Compliance Matrix: (Units=1/GPa)
#
#
# Indices 1 2 3 4 5 6 
#
# 1 0.015067 -0.004719 -0.005563 0.000000 0.006158 0.000000
# 2 -0.004719 0.009310 -0.002639 0.000000 -0.002795 0.000000
# 3 -0.005563 -0.002639 0.030856 0.000000 0.005329 0.000000
# 4 0.000000 0.000000 0.000000 0.036574 0.000000 0.008304
# 5 0.006158 -0.002795 0.005329 0.000000 0.033159 0.000000
# 6 0.000000 0.000000 0.000000 0.008304 0.000000 0.042592
#
#
# Mechanical properties :
#
#
# Convention : Reuss Voigt Hill
#
# Bulk Modulus (GPa) = 34.02319 53.19040 43.60680
# Shear Modulus (GPa) = 24.60676 29.64044 27.12360
#
# Velocity S-wave (km/s) = 3.47651 3.81557 3.64998
# Velocity P-wave (km/s) = 5.72941 6.74811 6.25952
#
# Compressibility (1/GPa) = 0.02939171
#
# Stress axis : x y z
#
# Youngs Moduli (GPa) = 66.37239 107.41477 32.40821
#
# Poissons Ratio (x) = 0.50690 0.18028
# Poissons Ratio (y) = 0.31322 0.08551
# Poissons Ratio (z) = 0.36921 0.28343
#
# Static dielectric constant tensor:
#      x y z
#    x 1.764170 0.000000 -0.030890 
#    y 0.000000 1.722530 0.000000 
#    z -0.030890 0.000000 1.778850 
# 
# From -- ./inp_files/122069.got.cif
#   From: 2010.05.17/outbox.cif.g08.bks.cpg/sg12_62_cif.got.tgz:122069.got - 2010.06.03 13:09:07.
