data_PCOD9207647
_publ_section_title
;
Structure prediction by ZEFSAII (Michael W. Deem and Ramdas Pophale) SiO2 
 PCOD9207647
Probable space group: C 2/M
;
_chemical_formula_sum "Si O2"
_cell_formula_units_Z 64
_cell_length_a 12.331825
_cell_length_b 12.935830
_cell_length_c 18.761143
_cell_angle_alpha 90.000000
_cell_angle_beta 103.023237
_cell_angle_gamma 90.000000
_cell_volume 2915.843280
_symmetry_space_group_name_H-M "C 2/M"
_symmetry_group_IT_number 12
_symmetry_cell_setting 'monoclinic'
loop_
_space_group_symop_operation_xyz
x,y,z
-x,y,-z
-x,-y,-z
x,-y,z
1/2+x,1/2+y,z
1/2-x,1/2+y,-z
1/2-x,1/2-y,-z
1/2+x,1/2-y,z
loop_
_atom_site_type_symbol
_atom_site_label
_atom_site_fract_x
_atom_site_fract_y
_atom_site_fract_z
Si Si1 0.318253 0.878500 0.943339
Si Si2 0.592615 0.721961 0.645274
Si Si3 0.161098 0.620777 0.550510
Si Si4 0.919508 0.189938 0.046387
Si Si5 0.472163 0.888402 0.273100
Si Si6 0.200132 0.382712 0.396371
Si Si7 0.620037 0.619220 0.317057
Si Si8 0.410575 0.228622 0.819993
O O1 0.191415 0.870312 0.950787
O O2 0.330525 0.820141 0.868365
O O3 0.352114 0.000000 0.945981
O O4 0.384421 0.802697 0.007968
O O5 0.576454 0.803479 0.578247
O O6 0.607640 0.796390 0.715736
O O7 0.702807 0.663010 0.637934
O O8 0.488174 0.651690 0.651823
O O9 0.125048 0.500000 0.545017
O O10 0.185282 0.657169 0.474140
O O11 0.273409 0.626168 0.615018
O O12 0.996137 0.206044 0.125730
O O13 0.000000 0.139297 0.000000
O O14 0.581557 0.881174 0.339631
O O15 0.523766 0.868069 0.204357
O O16 0.419249 0.000000 0.273990
O O17 0.234528 0.500000 0.412810
O O18 0.609557 0.500000 0.292088
O O19 0.628680 0.698370 0.251480
#
# Coordination Sequence:
#
# PCOD9207647 Si02
#       8
#     8   8   8   8   8   8   8   8
#     4  10  21  40  66  91 117 154 193 227 270 330
#     4  11  20  35  57  79 104 143 190 238 291 346
#     4  10  22  39  56  78 111 149 192 244 296 343
#     4   9  21  40  61  91 125 151 186 231 276 328
#     4  10  22  37  54  82 115 147 189 239 290 342
#     4  10  22  38  55  78 110 148 192 243 295 346
#     4  10  23  40  57  82 116 152 192 238 287 342
#     4  10  21  37  59  87 119 151 189 234 280 333
#
# _framework density 21.949055000000001
#
# number of rings (size 3 to 8) (size 9 to 14) (size 15 to 20)
#    0.000    2.000    0.000    3.000    0.000    9.500 
#    0.000    8.750    0.000    0.000    0.000    0.000 
#    0.000    0.000    0.000    0.000    0.000    0.000 
#
# Total GULP energy -178604.743136 kJ/mol
# GULP energy per Si atom -5581.398223 kJ/mol
# Density = 2.189910 g / cm^3
# Si number density = 21.949055 Si / 1000 Ang^3
#
#
#
# Elastic Constant Matrix: (Units=GPa)
#
#
# Indices 1 2 3 4 5 6 
#
# 1 108.5818 15.8305 31.5394 0.0000 -20.3547 0.0000
# 2 15.8305 101.2406 12.6405 0.0000 -12.1036 0.0000
# 3 31.5394 12.6405 99.0152 0.0000 -7.9376 0.0000
# 4 0.0000 0.0000 0.0000 11.4385 0.0000 -22.4146
# 5 -20.3547 -12.1036 -7.9376 0.0000 30.6840 0.0000
# 6 0.0000 0.0000 0.0000 -22.4146 0.0000 -31.3145
#
#
#
# Elastic Compliance Matrix: (Units=1/GPa)
#
#
# Indices 1 2 3 4 5 6 
#
# 1 0.011406 -0.000624 -0.003029 0.000000 0.006537 0.000000
# 2 -0.000624 0.010502 -0.000861 0.000000 0.003506 0.000000
# 3 -0.003029 -0.000861 0.011219 0.000000 0.000553 0.000000
# 4 0.000000 0.000000 0.000000 0.036387 0.000000 -0.026045
# 5 0.006537 0.003506 0.000553 0.000000 0.038452 0.000000
# 6 0.000000 0.000000 0.000000 -0.026045 0.000000 -0.013291
#
#
# Mechanical properties :
#
#
# Convention : Reuss Voigt Hill
#
# Bulk Modulus (GPa) = 41.49750 47.65093 44.57422
# Shear Modulus (GPa) = 44.74878 18.75008 31.74943
#
# Velocity S-wave (km/s) = 4.52016 2.92593 3.80742
# Velocity P-wave (km/s) = 6.79630 5.75949 6.29926
#
# Compressibility (1/GPa) = 0.02409784
#
# Stress axis : x y z
#
# Youngs Moduli (GPa) = 87.67401 95.22323 89.13704
#
# Poissons Ratio (x) = 0.05940 0.27004
# Poissons Ratio (y) = 0.05469 0.07674
# Poissons Ratio (z) = 0.26561 0.08198
#
# Static dielectric constant tensor:
#      x y z
#    x 1.818110 0.000000 -0.022170 
#    y 0.000000 1.861510 0.000000 
#    z -0.022170 0.000000 1.821990 
# 
# From -- ./inp_files/263336.got.cif
#   From: 2010.05.17/outbox.cif.g08.bks.cpg/sg12_132_cif.got.tgz:263336.got - 2010.06.03 13:09:07.
