data_PCOD9207222
_publ_section_title
;
Structure prediction by ZEFSAII (Michael W. Deem and Ramdas Pophale) SiO2 
 PCOD9207222
Probable space group: C 2/M
;
_chemical_formula_sum "Si O2"
_cell_formula_units_Z 48
_cell_length_a 17.947529
_cell_length_b 11.073240
_cell_length_c 12.671476
_cell_angle_alpha 90.000000
_cell_angle_beta 73.013917
_cell_angle_gamma 90.000000
_cell_volume 2408.436137
_symmetry_space_group_name_H-M "C 2/M"
_symmetry_group_IT_number 12
_symmetry_cell_setting 'monoclinic'
loop_
_space_group_symop_operation_xyz
x,y,z
-x,y,-z
-x,-y,-z
x,-y,z
1/2+x,1/2+y,z
1/2-x,1/2+y,-z
1/2-x,1/2-y,-z
1/2+x,1/2-y,z
loop_
_atom_site_type_symbol
_atom_site_label
_atom_site_fract_x
_atom_site_fract_y
_atom_site_fract_z
Si Si1 0.719953 0.362828 0.212696
Si Si2 0.536744 0.865135 0.587116
Si Si3 0.077652 0.864379 0.814754
Si Si4 0.691997 0.242738 0.622580
Si Si5 0.116999 0.362147 0.949348
Si Si6 0.430523 0.772406 0.803925
O O1 0.691754 0.500000 0.229850
O O2 0.762109 0.329037 0.305101
O O3 0.789384 0.356111 0.098233
O O4 0.649070 0.277767 0.211550
O O5 0.500000 0.799942 0.500000
O O6 0.614987 0.816795 0.605989
O O7 0.471880 0.859671 0.703954
O O8 0.556795 0.000000 0.545275
O O9 0.150724 0.853407 0.703100
O O10 0.088108 0.750255 0.889753
O O11 0.994249 0.834385 0.796082
O O12 0.077116 0.000000 0.860747
O O13 0.750000 0.250000 0.500000
O O14 0.095413 0.500000 0.922976
O O15 0.087152 0.337687 0.078714
#
# Coordination Sequence:
#
# PCOD9207222 Si02
#       6
#     8   8   8   8   8   8
#     4  10  21  37  57  84 116 152 194 243 298 353
#     4  10  21  37  58  85 116 151 196 247 297 352
#     4  10  23  39  59  90 123 156 198 249 303 357
#     4  10  21  39  61  84 115 155 200 245 295 357
#     4  10  22  40  62  87 118 159 205 249 297 356
#     4  11  21  36  59  85 118 156 198 245 298 358
#
# _framework density 19.929946000000001
#
# number of rings (size 3 to 8) (size 9 to 14) (size 15 to 20)
#    0.000    1.833    0.000    3.500    0.000    8.667 
#    0.000   10.000    0.000    5.500    0.000    0.000 
#    0.000    0.000    0.000    0.000    0.000    0.000 
#
# Total GULP energy -133742.272133 kJ/mol
# GULP energy per Si atom -5572.594672 kJ/mol
# Density = 1.988458 g / cm^3
# Si number density = 19.929946 Si / 1000 Ang^3
#
#
#
# Elastic Constant Matrix: (Units=GPa)
#
#
# Indices 1 2 3 4 5 6 
#
# 1 117.8093 38.4892 32.8708 0.0000 -1.1266 0.0000
# 2 38.4892 105.1843 18.1931 0.0000 13.7607 0.0000
# 3 32.8708 18.1931 123.2258 0.0000 -17.5800 0.0000
# 4 0.0000 0.0000 0.0000 15.1507 0.0000 5.4443
# 5 -1.1266 13.7607 -17.5800 0.0000 35.4123 0.0000
# 6 0.0000 0.0000 0.0000 5.4443 0.0000 8.5763
#
#
#
# Elastic Compliance Matrix: (Units=1/GPa)
#
#
# Indices 1 2 3 4 5 6 
#
# 1 0.010215 -0.003449 -0.002129 0.000000 0.000609 0.000000
# 2 -0.003449 0.011762 -0.001597 0.000000 -0.005473 0.000000
# 3 -0.002129 -0.001597 0.009684 0.000000 0.005360 0.000000
# 4 0.000000 0.000000 0.000000 0.085509 0.000000 -0.054282
# 5 0.000609 -0.005473 0.005360 0.000000 0.033046 0.000000
# 6 0.000000 0.000000 0.000000 -0.054282 0.000000 0.151059
#
#
# Mechanical properties :
#
#
# Convention : Reuss Voigt Hill
#
# Bulk Modulus (GPa) = 57.77151 58.36949 58.07050
# Shear Modulus (GPa) = 15.55721 28.93894 22.24808
#
# Velocity S-wave (km/s) = 2.79694 3.81469 3.34475
# Velocity P-wave (km/s) = 6.28337 6.98236 6.64207
#
# Compressibility (1/GPa) = 0.01730957
#
# Stress axis : x y z
#
# Youngs Moduli (GPa) = 97.89527 85.02276 103.26767
#
# Poissons Ratio (x) = 0.29327 0.21984
# Poissons Ratio (y) = 0.33767 0.16494
# Poissons Ratio (z) = 0.20840 0.13580
#
# Static dielectric constant tensor:
#      x y z
#    x 1.712740 0.000000 0.016410 
#    y 0.000000 1.740100 0.000000 
#    z 0.016410 0.000000 1.755610 
# 
# From -- ./inp_files/153541.got.cif
#   From: 2010.05.17/outbox.cif.g08.bks.cpg/sg12_77_cif.got.tgz:153541.got - 2010.06.03 13:09:07.
