data_PCOD9207515
_publ_section_title
;
Structure prediction by ZEFSAII (Michael W. Deem and Ramdas Pophale) SiO2 
 PCOD9207515
Probable space group: C 2/M
;
_chemical_formula_sum "Si O2"
_cell_formula_units_Z 44
_cell_length_a 5.239605
_cell_length_b 21.331972
_cell_length_c 25.056935
_cell_angle_alpha 90.000000
_cell_angle_beta 125.468600
_cell_angle_gamma 90.000000
_cell_volume 2280.936545
_symmetry_space_group_name_H-M "C 2/M"
_symmetry_group_IT_number 12
_symmetry_cell_setting 'monoclinic'
loop_
_space_group_symop_operation_xyz
x,y,z
-x,y,-z
-x,-y,-z
x,-y,z
1/2+x,1/2+y,z
1/2-x,1/2+y,-z
1/2-x,1/2-y,-z
1/2+x,1/2-y,z
loop_
_atom_site_type_symbol
_atom_site_label
_atom_site_fract_x
_atom_site_fract_y
_atom_site_fract_z
Si Si1 0.286249 0.929248 0.426439
Si Si2 0.054414 0.790925 0.109882
Si Si3 0.500000 0.290582 0.500000
Si Si4 0.996490 0.287279 0.732655
Si Si5 0.641611 0.121073 0.374658
Si Si6 0.376078 0.429181 0.045436
O O1 0.500000 0.899997 0.500000
O O2 0.358403 0.899864 0.377911
O O3 0.922826 0.927197 0.397438
O O4 0.400635 0.000000 0.435367
O O5 0.249442 0.749866 0.090185
O O6 0.275318 0.794809 0.189146
O O7 0.985724 0.863067 0.084956
O O8 0.250000 0.250000 0.500000
O O9 0.678410 0.329215 0.566737
O O10 0.664307 0.263328 0.714355
O O11 0.964323 0.349000 0.693458
O O12 0.466561 0.500000 0.078035
O O13 0.500000 0.427626 0.000000
O O14 0.000000 0.427633 0.000000
#
# Coordination Sequence:
#
# PCOD9207515 Si02
#       6
#     8   8   4   8   8   8
#     4  11  22  38  55  75 102 136 179 227 281 339
#     4  10  21  37  60  87 117 158 204 239 282 341
#     4  12  22  32  49  78 103 126 168 216 268 332
#     4  10  21  38  57  80 112 149 182 229 285 338
#     4  12  21  37  56  78 105 141 176 225 286 335
#     4  10  21  37  58  88 125 159 190 237 298 341
#
# _framework density 19.290323000000001
#
# number of rings (size 3 to 8) (size 9 to 14) (size 15 to 20)
#    0.000    1.273    1.818    4.909    0.000    3.636 
#    0.000    1.818    0.000    2.182    0.000    0.000 
#    0.000    0.000    0.000    0.000    0.000    0.000 
#
# Total GULP energy -122698.582880 kJ/mol
# GULP energy per Si atom -5577.208313 kJ/mol
# Density = 1.924642 g / cm^3
# Si number density = 19.290323 Si / 1000 Ang^3
#
#
#
# Elastic Constant Matrix: (Units=GPa)
#
#
# Indices 1 2 3 4 5 6 
#
# 1 125.3871 34.0330 17.4211 0.0000 -10.3272 0.0000
# 2 34.0330 121.8051 30.5553 0.0000 -8.3797 0.0000
# 3 17.4211 30.5553 34.6409 0.0000 -7.5267 0.0000
# 4 0.0000 0.0000 0.0000 13.2270 0.0000 7.8388
# 5 -10.3272 -8.3797 -7.5267 0.0000 17.8769 0.0000
# 6 0.0000 0.0000 0.0000 7.8388 0.0000 35.7306
#
#
#
# Elastic Compliance Matrix: (Units=1/GPa)
#
#
# Indices 1 2 3 4 5 6 
#
# 1 0.009043 -0.001716 -0.002283 0.000000 0.003459 0.000000
# 2 -0.001716 0.010889 -0.008638 0.000000 0.000476 0.000000
# 3 -0.002283 -0.008638 0.040141 0.000000 0.011533 0.000000
# 4 0.000000 0.000000 0.000000 0.086902 0.000000 -0.019065
# 5 0.003459 0.000476 0.011533 0.000000 0.063015 0.000000
# 6 0.000000 0.000000 0.000000 -0.019065 0.000000 0.032170
#
#
# Mechanical properties :
#
#
# Convention : Reuss Voigt Hill
#
# Bulk Modulus (GPa) = 28.73655 49.53910 39.13783
# Shear Modulus (GPa) = 17.91901 26.68847 22.30374
#
# Velocity S-wave (km/s) = 3.05111 3.72360 3.40400
# Velocity P-wave (km/s) = 5.22892 6.65007 5.98185
#
# Compressibility (1/GPa) = 0.03479888
#
# Stress axis : x y z
#
# Youngs Moduli (GPa) = 110.58147 91.83553 24.91225
#
# Poissons Ratio (x) = 0.15760 0.05686
# Poissons Ratio (y) = 0.18978 0.21520
# Poissons Ratio (z) = 0.25241 0.79330
#
# Static dielectric constant tensor:
#      x y z
#    x 1.666910 0.000000 -0.012040 
#    y 0.000000 1.652300 0.000000 
#    z -0.012040 0.000000 1.650820 
# 
# From -- ./inp_files/354977.got.cif
#   From: 2010.05.17/outbox.cif.g08.bks.cpg/sg12_178_cif.got.tgz:354977.got - 2010.06.03 13:09:07.
