data_PCOD9207832
_publ_section_title
;
Structure prediction by ZEFSAII (Michael W. Deem and Ramdas Pophale) SiO2 
 PCOD9207832
Probable space group: C 2/M
;
_chemical_formula_sum "Si O2"
_cell_formula_units_Z 56
_cell_length_a 13.071831
_cell_length_b 27.732164
_cell_length_c 8.179324
_cell_angle_alpha 90.000000
_cell_angle_beta 65.146086
_cell_angle_gamma 90.000000
_cell_volume 2690.468667
_symmetry_space_group_name_H-M "C 2/M"
_symmetry_group_IT_number 12
_symmetry_cell_setting 'monoclinic'
loop_
_space_group_symop_operation_xyz
x,y,z
-x,y,-z
-x,-y,-z
x,-y,z
1/2+x,1/2+y,z
1/2-x,1/2+y,-z
1/2-x,1/2-y,-z
1/2+x,1/2-y,z
loop_
_atom_site_type_symbol
_atom_site_label
_atom_site_fract_x
_atom_site_fract_y
_atom_site_fract_z
Si Si1 0.173185 0.945172 0.818893
Si Si2 0.493031 0.192932 0.805025
Si Si3 0.728447 0.858248 0.036665
Si Si4 0.599650 0.946228 0.549705
Si Si5 0.700463 0.864102 0.669237
Si Si6 0.066368 0.798661 0.124987
Si Si7 0.944290 0.112665 0.371802
O O1 0.208657 0.904039 0.925412
O O2 0.285661 0.948506 0.631882
O O3 0.075388 0.924392 0.764950
O O4 0.149715 0.000000 0.893574
O O5 0.396721 0.154870 0.817404
O O6 0.619009 0.179133 0.666844
O O7 0.454900 0.246522 0.783761
O O8 0.500000 0.191364 0.000000
O O9 0.720659 0.864177 0.847756
O O10 0.805732 0.811060 0.006225
O O11 0.500000 0.928890 0.500000
O O12 0.626968 0.911109 0.677813
O O13 0.569018 0.000000 0.625529
O O14 0.819681 0.867447 0.498918
O O15 0.019919 0.842372 0.265501
O O16 0.000000 0.800177 0.000000
O O17 0.000000 0.091557 0.500000
#
# Coordination Sequence:
#
# PCOD9207832 Si02
#       7
#     8   8   8   8   8   8   8
#     4  10  22  38  60  88 117 156 201 243 296 354
#     4   9  21  37  59  90 117 154 200 239 295 356
#     4  11  20  38  62  86 122 154 195 249 290 353
#     4   9  18  35  58  84 118 157 194 238 299 354
#     4  10  21  37  60  87 121 152 195 247 295 347
#     4  11  21  39  62  84 116 162 198 241 296 347
#     4  11  22  40  60  82 120 158 195 248 296 349
#
# _framework density 20.814218
#
# number of rings (size 3 to 8) (size 9 to 14) (size 15 to 20)
#    0.000    1.857    2.857    1.286    0.000    1.429 
#    0.000    5.000    0.000    5.143    0.000    0.000 
#    0.000    0.000    0.000    0.000    0.000    0.000 
#
# Total GULP energy -156238.515692 kJ/mol
# GULP energy per Si atom -5579.946989 kJ/mol
# Density = 2.076684 g / cm^3
# Si number density = 20.814218 Si / 1000 Ang^3
#
#
#
# Elastic Constant Matrix: (Units=GPa)
#
#
# Indices 1 2 3 4 5 6 
#
# 1 119.5351 46.7551 14.3360 0.0000 -2.9834 0.0000
# 2 46.7551 112.9517 16.1493 0.0000 8.7922 0.0000
# 3 14.3360 16.1493 15.1493 0.0000 -0.3481 0.0000
# 4 0.0000 0.0000 0.0000 12.6425 0.0000 -20.8717
# 5 -2.9834 8.7922 -0.3481 0.0000 26.1229 0.0000
# 6 0.0000 0.0000 0.0000 -20.8717 0.0000 3.4620
#
#
#
# Elastic Compliance Matrix: (Units=1/GPa)
#
#
# Indices 1 2 3 4 5 6 
#
# 1 0.010599 -0.003712 -0.006018 0.000000 0.002380 0.000000
# 2 -0.003712 0.012108 -0.009501 0.000000 -0.004626 0.000000
# 3 -0.006018 -0.009501 0.081916 0.000000 0.003602 0.000000
# 4 0.000000 0.000000 0.000000 -0.008835 0.000000 -0.053263
# 5 0.002380 -0.004626 0.003602 0.000000 0.040157 0.000000
# 6 0.000000 0.000000 0.000000 -0.053263 0.000000 -0.032263
#
#
# Mechanical properties :
#
#
# Convention : Reuss Voigt Hill
#
# Bulk Modulus (GPa) = 15.11478 44.67966 29.89722
# Shear Modulus (GPa) = 30.45090 19.80519 25.12804
#
# Velocity S-wave (km/s) = 3.82905 3.08802 3.47833
# Velocity P-wave (km/s) = 5.17942 5.85039 5.52510
#
# Compressibility (1/GPa) = 0.06616039
#
# Stress axis : x y z
#
# Youngs Moduli (GPa) = 94.34995 82.58711 12.20766
#
# Poissons Ratio (x) = 0.30657 0.07347
# Poissons Ratio (y) = 0.35023 0.11599
# Poissons Ratio (z) = 0.56781 0.78468
#
# Static dielectric constant tensor:
#      x y z
#    x 4.034940 0.000000 -0.269820 
#    y 0.000000 1.765270 0.000000 
#    z -0.269820 0.000000 1.777820 
# 
# From -- ./inp_files/53149.got.cif
#   From: 2010.05.17/outbox.cif.g08.bks.cpg/sg12_27_cif.got.tgz:53149.got - 2010.06.03 13:09:07.
