data_PCOD9207206
_publ_section_title
;
Structure prediction by ZEFSAII (Michael W. Deem and Ramdas Pophale) SiO2 
 PCOD9207206
Probable space group: C 2/M
;
_chemical_formula_sum "Si O2"
_cell_formula_units_Z 56
_cell_length_a 12.383476
_cell_length_b 27.559768
_cell_length_c 9.579339
_cell_angle_alpha 90.000000
_cell_angle_beta 116.600591
_cell_angle_gamma 90.000000
_cell_volume 2923.235891
_symmetry_space_group_name_H-M "C 2/M"
_symmetry_group_IT_number 12
_symmetry_cell_setting 'monoclinic'
loop_
_space_group_symop_operation_xyz
x,y,z
-x,y,-z
-x,-y,-z
x,-y,z
1/2+x,1/2+y,z
1/2-x,1/2+y,-z
1/2-x,1/2-y,-z
1/2+x,1/2-y,z
loop_
_atom_site_type_symbol
_atom_site_label
_atom_site_fract_x
_atom_site_fract_y
_atom_site_fract_z
Si Si1 0.118624 0.295602 0.668154
Si Si2 0.182185 0.446001 0.048900
Si Si3 0.243373 0.615289 0.325942
Si Si4 0.162599 0.856098 0.322291
Si Si5 0.523203 0.145356 0.866045
Si Si6 0.070791 0.185651 0.688689
Si Si7 0.642205 0.446267 0.106828
O O1 0.236674 0.315304 0.655431
O O2 0.099678 0.327512 0.794985
O O3 0.121295 0.240104 0.722381
O O4 0.000000 0.300281 0.500000
O O5 0.131048 0.500000 0.009799
O O6 0.226475 0.434354 0.231217
O O7 0.089656 0.404461 0.947267
O O8 0.291401 0.442938 0.002842
O O9 0.309541 0.619060 0.511634
O O10 0.318188 0.648934 0.261608
O O11 0.108941 0.635192 0.271407
O O12 0.171981 0.899787 0.217750
O O13 0.029955 0.831277 0.257964
O O14 0.500000 0.172328 0.000000
O O15 0.000000 0.183871 0.500000
O O16 0.674915 0.500000 0.185969
O O17 0.500000 0.445809 0.000000
#
# Coordination Sequence:
#
# PCOD9207206 Si02
#       7
#     8   8   8   8   8   8   8
#     4  11  21  37  62  86 117 155 198 242 299 346
#     4  10  21  39  60  85 117 158 198 237 301 366
#     4  10  21  37  59  85 119 150 197 244 289 345
#     4  11  21  38  63  89 119 152 202 253 286 346
#     4  10  21  37  57  83 119 154 189 238 296 352
#     4   9  22  36  58  88 117 156 198 239 297 357
#     4  10  21  38  61  85 118 159 196 241 302 357
#
# _framework density 19.156853999999999
#
# number of rings (size 3 to 8) (size 9 to 14) (size 15 to 20)
#    0.000    1.857    2.857    0.857    2.000    4.857 
#    0.000    5.000    0.000    7.714    0.000    0.000 
#    0.000    0.000    0.000    0.000    0.000    0.000 
#
# Total GULP energy -156093.768750 kJ/mol
# GULP energy per Si atom -5574.777455 kJ/mol
# Density = 1.911325 g / cm^3
# Si number density = 19.156854 Si / 1000 Ang^3
#
#
#
# Elastic Constant Matrix: (Units=GPa)
#
#
# Indices 1 2 3 4 5 6 
#
# 1 108.9490 14.8248 -1.9372 0.0000 -8.2207 0.0000
# 2 14.8248 72.2713 14.1360 0.0000 -2.5901 0.0000
# 3 -1.9372 14.1360 40.8463 0.0000 -13.1977 0.0000
# 4 0.0000 0.0000 0.0000 48.5707 0.0000 18.5324
# 5 -8.2207 -2.5901 -13.1977 0.0000 28.6754 0.0000
# 6 0.0000 0.0000 0.0000 18.5324 0.0000 36.4534
#
#
#
# Elastic Compliance Matrix: (Units=1/GPa)
#
#
# Indices 1 2 3 4 5 6 
#
# 1 0.009829 -0.002371 0.002499 0.000000 0.003754 0.000000
# 2 -0.002371 0.015448 -0.006141 0.000000 -0.002110 0.000000
# 3 0.002499 -0.006141 0.031456 0.000000 0.014639 0.000000
# 4 0.000000 0.000000 0.000000 0.025543 0.000000 -0.012986
# 5 0.003754 -0.002110 0.014639 0.000000 0.042496 0.000000
# 6 0.000000 0.000000 0.000000 -0.012986 0.000000 0.034034
#
#
# Mechanical properties :
#
#
# Convention : Reuss Voigt Hill
#
# Bulk Modulus (GPa) = 22.36657 30.67931 26.52294
# Shear Modulus (GPa) = 26.92031 35.74277 31.33154
#
# Velocity S-wave (km/s) = 3.75274 4.32417 4.04855
# Velocity P-wave (km/s) = 5.52071 6.40163 5.97742
#
# Compressibility (1/GPa) = 0.04470957
#
# Stress axis : x y z
#
# Youngs Moduli (GPa) = 101.74117 64.73142 31.79076
#
# Poissons Ratio (x) = 0.15345 -0.07946
# Poissons Ratio (y) = 0.24118 0.19522
# Poissons Ratio (z) = -0.25430 0.39749
#
# Static dielectric constant tensor:
#      x y z
#    x 1.682640 0.000000 -0.006220 
#    y 0.000000 1.678700 0.000000 
#    z -0.006220 0.000000 1.668290 
# 
# From -- ./inp_files/53306.got.cif
#   From: 2010.05.17/outbox.cif.g08.bks.cpg/sg12_27_cif.got.tgz:53306.got - 2010.06.03 13:09:07.
