data_PCOD9207511
_publ_section_title
;
Structure prediction by ZEFSAII (Michael W. Deem and Ramdas Pophale) SiO2 
 PCOD9207511
Probable space group: C 2/M
;
_chemical_formula_sum "Si O2"
_cell_formula_units_Z 56
_cell_length_a 14.986425
_cell_length_b 7.826348
_cell_length_c 25.342113
_cell_angle_alpha 90.000000
_cell_angle_beta 116.546541
_cell_angle_gamma 90.000000
_cell_volume 2658.980425
_symmetry_space_group_name_H-M "C 2/M"
_symmetry_group_IT_number 12
_symmetry_cell_setting 'monoclinic'
loop_
_space_group_symop_operation_xyz
x,y,z
-x,y,-z
-x,-y,-z
x,-y,z
1/2+x,1/2+y,z
1/2-x,1/2+y,-z
1/2-x,1/2-y,-z
1/2+x,1/2-y,z
loop_
_atom_site_type_symbol
_atom_site_label
_atom_site_fract_x
_atom_site_fract_y
_atom_site_fract_z
Si Si1 0.408399 0.297739 0.720230
Si Si2 0.123206 0.793423 0.814870
Si Si3 0.595243 0.800131 0.494400
Si Si4 0.693965 0.799599 0.414399
Si Si5 0.746304 0.198371 0.938522
Si Si6 0.061236 0.307086 0.064243
Si Si7 0.674333 0.207090 0.190277
O O1 0.415165 0.500000 0.713181
O O2 0.519327 0.232247 0.763308
O O3 0.360322 0.220367 0.655407
O O4 0.343292 0.264234 0.755115
O O5 0.144493 0.728759 0.879796
O O6 0.218536 0.738725 0.804799
O O7 0.121334 0.000000 0.815751
O O8 0.500000 0.724945 0.500000
O O9 0.626548 0.729488 0.445050
O O10 0.696972 0.784784 0.554832
O O11 0.571886 0.000000 0.479404
O O12 0.711149 0.000000 0.429403
O O13 0.827794 0.312077 0.930360
O O14 0.773414 0.000000 0.940553
O O15 0.750000 0.250000 0.000000
O O16 0.019824 0.500000 0.060310
O O17 0.085012 0.229274 0.127738
O O18 0.000000 0.223041 0.000000
O O19 0.670805 0.000000 0.187111
#
# Coordination Sequence:
#
# PCOD9207511 Si02
#       7
#     8   8   8   8   8   8   8
#     4  11  23  38  59  84 116 154 195 241 288 337
#     4   9  21  41  58  78 110 149 189 237 294 351
#     4   9  19  38  63  90 122 156 191 236 284 327
#     4  10  21  37  58  88 122 155 195 234 278 341
#     4  11  22  35  54  79 107 140 183 234 289 350
#     4   9  19  36  56  79 107 139 177 228 294 355
#     4   9  19  37  57  79 111 146 187 234 289 353
#
# _framework density 21.060704000000001
#
# number of rings (size 3 to 8) (size 9 to 14) (size 15 to 20)
#    0.000    2.286    0.000    3.000    2.000    5.714 
#    0.000    2.857    0.000    0.000    0.000    0.000 
#    0.000    0.000    0.000    0.000    0.000    0.000 
#
# Total GULP energy -156211.459302 kJ/mol
# GULP energy per Si atom -5578.980689 kJ/mol
# Density = 2.101277 g / cm^3
# Si number density = 21.060704 Si / 1000 Ang^3
#
#
#
# Elastic Constant Matrix: (Units=GPa)
#
#
# Indices 1 2 3 4 5 6 
#
# 1 113.7853 -1.9223 56.4345 0.0000 -1.9189 0.0000
# 2 -1.9223 46.9794 -6.4935 0.0000 -2.7057 0.0000
# 3 56.4345 -6.4935 163.5237 0.0000 -6.0689 0.0000
# 4 0.0000 0.0000 0.0000 7.2469 0.0000 3.4603
# 5 -1.9189 -2.7057 -6.0689 0.0000 18.6672 0.0000
# 6 0.0000 0.0000 0.0000 3.4603 0.0000 12.9970
#
#
#
# Elastic Compliance Matrix: (Units=1/GPa)
#
#
# Indices 1 2 3 4 5 6 
#
# 1 0.010604 -0.000079 -0.003667 0.000000 -0.000114 0.000000
# 2 -0.000079 0.021622 0.001014 0.000000 0.003456 0.000000
# 3 -0.003667 0.001014 0.007503 0.000000 0.002209 0.000000
# 4 0.000000 0.000000 0.000000 0.158086 0.000000 -0.042089
# 5 -0.000114 0.003456 0.002209 0.000000 0.054777 0.000000
# 6 0.000000 0.000000 0.000000 -0.042089 0.000000 0.088146
#
#
# Mechanical properties :
#
#
# Convention : Reuss Voigt Hill
#
# Bulk Modulus (GPa) = 29.18463 46.70285 37.94374
# Shear Modulus (GPa) = 13.98113 26.20021 20.09067
#
# Velocity S-wave (km/s) = 2.57932 3.53091 3.09194
# Velocity P-wave (km/s) = 4.77054 6.23270 5.54998
#
# Compressibility (1/GPa) = 0.03426461
#
# Stress axis : x y z
#
# Youngs Moduli (GPa) = 94.30466 46.24943 133.27795
#
# Poissons Ratio (x) = 0.00368 0.48872
# Poissons Ratio (y) = 0.00750 -0.13518
# Poissons Ratio (z) = 0.34581 -0.04691
#
# Static dielectric constant tensor:
#      x y z
#    x 1.768940 0.000000 0.009530 
#    y 0.000000 1.780140 0.000000 
#    z 0.009530 0.000000 1.774510 
# 
# From -- ./inp_files/339051.got.cif
#   From: 2010.05.17/outbox.cif.g08.bks.cpg/sg12_170_cif.got.tgz:339051.got - 2010.06.03 13:09:07.
