data_PCOD9207016
_publ_section_title
;
Structure prediction by ZEFSAII (Michael W. Deem and Ramdas Pophale) SiO2 
 PCOD9207016
Probable space group: C 2/M
;
_chemical_formula_sum "Si O2"
_cell_formula_units_Z 56
_cell_length_a 19.425603
_cell_length_b 7.877103
_cell_length_c 18.577853
_cell_angle_alpha 90.000000
_cell_angle_beta 63.556694
_cell_angle_gamma 90.000000
_cell_volume 2545.316134
_symmetry_space_group_name_H-M "C 2/M"
_symmetry_group_IT_number 12
_symmetry_cell_setting 'monoclinic'
loop_
_space_group_symop_operation_xyz
x,y,z
-x,y,-z
-x,-y,-z
x,-y,z
1/2+x,1/2+y,z
1/2-x,1/2+y,-z
1/2-x,1/2-y,-z
1/2+x,1/2-y,z
loop_
_atom_site_type_symbol
_atom_site_label
_atom_site_fract_x
_atom_site_fract_y
_atom_site_fract_z
Si Si1 0.853278 0.299538 0.801258
Si Si2 0.619241 0.303664 0.746105
Si Si3 0.340062 0.297338 0.963919
Si Si4 0.746674 0.694787 0.417760
Si Si5 0.419493 0.203879 0.498382
Si Si6 0.177875 0.791498 0.871047
Si Si7 0.009418 0.301657 0.677751
O O1 0.848706 0.500000 0.787918
O O2 0.874880 0.279502 0.875463
O O3 0.767183 0.231855 0.829223
O O4 0.924037 0.226271 0.722869
O O5 0.596529 0.500000 0.763373
O O6 0.696423 0.292791 0.661811
O O7 0.636843 0.235872 0.817401
O O8 0.552874 0.212896 0.732605
O O9 0.349020 0.500000 0.955526
O O10 0.250000 0.250000 0.000000
O O11 0.361068 0.241267 0.035043
O O12 0.771554 0.500000 0.403055
O O13 0.750000 0.750000 0.500000
O O14 0.658064 0.715473 0.435749
O O15 0.500000 0.237605 0.500000
O O16 0.435174 0.267882 0.409905
O O17 0.406208 0.000000 0.506090
O O18 0.179679 0.000000 0.870166
O O19 0.000008 0.500000 0.663490
#
# Coordination Sequence:
#
# PCOD9207016 Si02
#       7
#     8   8   8   8   8   8   8
#     4   9  18  34  56  81 110 145 183 226 274 329
#     4  11  22  37  59  82 110 147 187 231 277 334
#     4   9  16  31  54  80 109 141 181 228 272 325
#     4  12  24  40  60  83 112 149 189 233 279 332
#     4  10  22  39  62  86 111 148 189 229 278 334
#     4   8  17  33  56  82 106 139 185 226 267 324
#     4  10  21  37  56  80 114 148 183 228 276 330
#
# _framework density 22.001196
#
# number of rings (size 3 to 8) (size 9 to 14) (size 15 to 20)
#    0.000    2.143    1.429    3.000    2.000    0.857 
#    0.000    7.857    0.000    4.286    0.000    0.000 
#    0.000    0.000    0.000    0.000    0.000    0.000 
#
# Total GULP energy -156260.730453 kJ/mol
# GULP energy per Si atom -5580.740373 kJ/mol
# Density = 2.195112 g / cm^3
# Si number density = 22.001196 Si / 1000 Ang^3
#
#
#
# Elastic Constant Matrix: (Units=GPa)
#
#
# Indices 1 2 3 4 5 6 
#
# 1 41.6246 -5.3596 -3.7672 0.0000 8.5971 -0.0006
# 2 -5.3596 31.3134 -12.2675 0.0001 0.3664 -0.0012
# 3 -3.7672 -12.2675 16.1577 0.0000 9.8853 0.0000
# 4 0.0000 0.0001 0.0000 18.3312 0.0000 3.8982
# 5 8.5971 0.3664 9.8853 0.0000 41.4424 -0.0001
# 6 -0.0006 -0.0012 0.0000 3.8982 -0.0001 19.0828
#
#
#
# Elastic Compliance Matrix: (Units=1/GPa)
#
#
# Indices 1 2 3 4 5 6 
#
# 1 0.031454 0.016534 0.028064 0.000000 -0.013365 0.000002
# 2 0.016534 0.058077 0.058967 -0.000001 -0.018009 0.000004
# 3 0.028064 0.058967 0.137089 -0.000001 -0.039043 0.000004
# 4 0.000000 -0.000001 -0.000001 0.057029 0.000000 -0.011650
# 5 -0.013365 -0.018009 -0.039043 0.000000 0.036375 -0.000001
# 6 0.000002 0.000004 0.000004 -0.011650 -0.000001 0.054783
#
#
# Mechanical properties :
#
#
# Convention : Reuss Voigt Hill
#
# Bulk Modulus (GPa) = 2.30547 5.14523 3.72535
# Shear Modulus (GPa) = 16.01230 23.13729 19.57480
#
# Velocity S-wave (km/s) = 2.70069 3.24641 2.98605
# Velocity P-wave (km/s) = 3.28255 4.04919 3.68586
#
# Compressibility (1/GPa) = 0.43375073
#
# Stress axis : x y z
#
# Youngs Moduli (GPa) = 31.79293 17.21842 7.29451
#
# Poissons Ratio (x) = -0.28470 -0.20471
# Poissons Ratio (y) = -0.52568 -0.43014
# Poissons Ratio (z) = -0.89223 -1.01532
#
# Static dielectric constant tensor:
#      x y z
#    x 1.810610 0.000000 0.020840 
#    y 0.000000 1.811080 0.000000 
#    z 0.020840 0.000000 1.841790 
# 
# From -- ./inp_files/280993.got.cif
#   From: 2010.05.17/outbox.cif.g08.bks.cpg/sg12_141_cif.got.tgz:280993.got - 2010.06.03 13:09:07.
