data_PCOD9207369
_publ_section_title
;
Structure prediction by ZEFSAII (Michael W. Deem and Ramdas Pophale) SiO2 
 PCOD9207369
Probable space group: C 2/M
;
_chemical_formula_sum "Si O2"
_cell_formula_units_Z 40
_cell_length_a 13.151659
_cell_length_b 13.445395
_cell_length_c 11.837414
_cell_angle_alpha 90.000000
_cell_angle_beta 119.881178
_cell_angle_gamma 90.000000
_cell_volume 1814.931854
_symmetry_space_group_name_H-M "C 2/M"
_symmetry_group_IT_number 12
_symmetry_cell_setting 'monoclinic'
loop_
_space_group_symop_operation_xyz
x,y,z
-x,y,-z
-x,-y,-z
x,-y,z
1/2+x,1/2+y,z
1/2-x,1/2+y,-z
1/2-x,1/2-y,-z
1/2+x,1/2-y,z
loop_
_atom_site_type_symbol
_atom_site_label
_atom_site_fract_x
_atom_site_fract_y
_atom_site_fract_z
Si Si1 0.748312 0.209042 0.373143
Si Si2 0.780012 0.609988 0.227666
Si Si3 0.995491 0.307827 0.235542
Si Si4 0.195314 0.613681 0.007723
Si Si5 0.407255 0.615766 0.296746
O O1 0.750000 0.250000 0.500000
O O2 0.739878 0.304365 0.286892
O O3 0.625261 0.152584 0.291317
O O4 0.862214 0.147737 0.396153
O O5 0.755260 0.500000 0.255968
O O6 0.919193 0.627266 0.281905
O O7 0.734863 0.620484 0.073619
O O8 0.992060 0.196631 0.285930
O O9 0.916521 0.317253 0.078652
O O10 0.152570 0.500000 0.992790
O O11 0.286324 0.631051 0.157170
O O12 0.441120 0.500000 0.309172
#
# Coordination Sequence:
#
# PCOD9207369 Si02
#       5
#     8   8   8   8   8
#     4  11  24  37  52  80 113 147 189 226 263 318
#     4   8  18  37  57  76 106 142 178 224 270 319
#     4   9  19  36  57  80 110 142 182 222 276 322
#     4   8  16  36  61  84 109 137 178 228 279 330
#     4  10  21  37  58  84 114 142 176 228 281 327
#
# _framework density 22.039397000000001
#
# number of rings (size 3 to 8) (size 9 to 14) (size 15 to 20)
#    1.200    1.600    0.000    0.600    0.000    7.200 
#    0.000    4.000    0.000    3.600    0.000    0.000 
#    0.000    0.000    0.000    0.000    0.000    0.000 
#
# Total GULP energy -111410.898747 kJ/mol
# GULP energy per Si atom -5570.544937 kJ/mol
# Density = 2.198923 g / cm^3
# Si number density = 22.039397 Si / 1000 Ang^3
#
#
#
# Elastic Constant Matrix: (Units=GPa)
#
#
# Indices 1 2 3 4 5 6 
#
# 1 65.0589 -9.1657 9.1434 0.0000 -1.1047 0.0000
# 2 -9.1657 79.3061 21.1833 0.0000 -8.0741 0.0000
# 3 9.1434 21.1833 44.2907 0.0000 -13.1785 0.0000
# 4 0.0000 0.0000 0.0000 19.0943 0.0000 -4.0466
# 5 -1.1047 -8.0741 -13.1785 0.0000 26.2453 0.0000
# 6 0.0000 0.0000 0.0000 -4.0466 0.0000 1.2541
#
#
#
# Elastic Compliance Matrix: (Units=1/GPa)
#
#
# Indices 1 2 3 4 5 6 
#
# 1 0.016543 0.003214 -0.005233 0.000000 -0.000942 0.000000
# 2 0.003214 0.015110 -0.007603 0.000000 0.000966 0.000000
# 3 -0.005233 -0.007603 0.031194 0.000000 0.013104 0.000000
# 4 0.000000 0.000000 0.000000 0.165647 0.000000 0.534501
# 5 -0.000942 0.000966 0.013104 0.000000 0.044939 0.000000
# 6 0.000000 0.000000 0.000000 0.534501 0.000000 2.522099
#
#
# Mechanical properties :
#
#
# Convention : Reuss Voigt Hill
#
# Bulk Modulus (GPa) = 22.93416 25.66416 24.29916
# Shear Modulus (GPa) = 1.76722 20.48505 11.12613
#
# Velocity S-wave (km/s) = 0.89643 3.05204 2.24928
# Velocity P-wave (km/s) = 3.39117 4.90814 4.21840
#
# Compressibility (1/GPa) = 0.04360308
#
# Stress axis : x y z
#
# Youngs Moduli (GPa) = 60.44919 66.18187 32.05796
#
# Poissons Ratio (x) = -0.21268 0.16774
# Poissons Ratio (y) = -0.19426 0.24373
# Poissons Ratio (z) = 0.31630 0.50316
#
# Static dielectric constant tensor:
#      x y z
#    x 1.788070 0.000000 0.001520 
#    y 0.000000 1.854980 0.000000 
#    z 0.001520 0.000000 1.887580 
# 
# From -- ./inp_files/129298.got.cif
#   From: 2010.05.17/outbox.cif.g08.bks.cpg/sg12_65_cif.got.tgz:129298.got - 2010.06.03 13:09:07.
