data_PCOD9207744
_publ_section_title
;
Structure prediction by ZEFSAII (Michael W. Deem and Ramdas Pophale) SiO2 
 PCOD9207744
Probable space group: C 2/M
;
_chemical_formula_sum "Si O2"
_cell_formula_units_Z 52
_cell_length_a 21.069725
_cell_length_b 9.668748
_cell_length_c 12.414474
_cell_angle_alpha 90.000000
_cell_angle_beta 109.996033
_cell_angle_gamma 90.000000
_cell_volume 2376.589595
_symmetry_space_group_name_H-M "C 2/M"
_symmetry_group_IT_number 12
_symmetry_cell_setting 'monoclinic'
loop_
_space_group_symop_operation_xyz
x,y,z
-x,y,-z
-x,-y,-z
x,-y,z
1/2+x,1/2+y,z
1/2-x,1/2+y,-z
1/2-x,1/2-y,-z
1/2+x,1/2-y,z
loop_
_atom_site_type_symbol
_atom_site_label
_atom_site_fract_x
_atom_site_fract_y
_atom_site_fract_z
Si Si1 0.440634 0.343698 0.386693
Si Si2 0.766985 0.500000 0.470809
Si Si3 0.705494 0.159462 0.162516
Si Si4 0.833715 0.657792 0.222379
Si Si5 0.474716 0.655619 0.783352
Si Si6 0.080301 0.657986 0.949465
Si Si7 0.168873 0.737573 0.376079
O O1 0.500000 0.294634 0.500000
O O2 0.420114 0.500000 0.409200
O O3 0.377467 0.243603 0.333991
O O4 0.475606 0.354353 0.290576
O O5 0.822820 0.623384 0.527713
O O6 0.708830 0.377844 0.423554
O O7 0.764641 0.261187 0.161029
O O8 0.702234 0.168266 0.289248
O O9 0.717955 0.000000 0.136261
O O10 0.820219 0.500000 0.251359
O O11 0.876345 0.655083 0.136756
O O12 0.633736 0.796506 0.070939
O O13 0.460529 0.500000 0.814129
O O14 0.515985 0.747108 0.891860
O O15 0.407162 0.726277 0.700875
O O16 0.060448 0.500000 0.959757
#
# Coordination Sequence:
#
# PCOD9207744 Si02
#       7
#     8   4   8   8   8   8   8
#     4   9  19  37  59  86 115 158 205 242 294 360
#     4  10  24  42  62  82 124 156 198 246 304 352
#     4  11  23  40  62  89 120 162 209 248 293 368
#     4  10  21  37  59  90 125 155 195 252 307 352
#     4  10  21  39  61  88 123 160 196 248 304 360
#     4   9  21  40  63  89 122 160 200 247 307 358
#     4  11  23  43  61  91 119 162 202 249 300 361
#
# _framework density 21.880092000000001
#
# number of rings (size 3 to 8) (size 9 to 14) (size 15 to 20)
#    0.000    2.000    1.538    0.923    2.154    4.615 
#    2.769    2.308    0.000    0.000    0.000    0.000 
#    0.000    0.000    0.000    0.000    0.000    0.000 
#
# Total GULP energy -144840.622448 kJ/mol
# GULP energy per Si atom -5570.793171 kJ/mol
# Density = 2.183029 g / cm^3
# Si number density = 21.880092 Si / 1000 Ang^3
#
#
#
# Elastic Constant Matrix: (Units=GPa)
#
#
# Indices 1 2 3 4 5 6 
#
# 1 56.8650 36.2899 32.2259 0.0000 26.2543 0.0000
# 2 36.2899 157.9340 85.9111 0.0000 51.2048 0.0000
# 3 32.2259 85.9111 121.6915 0.0000 38.3083 0.0000
# 4 0.0000 0.0000 0.0000 28.7912 0.0000 5.0923
# 5 26.2543 51.2048 38.3083 0.0000 42.8167 0.0000
# 6 0.0000 0.0000 0.0000 5.0923 0.0000 4.5110
#
#
#
# Elastic Compliance Matrix: (Units=1/GPa)
#
#
# Indices 1 2 3 4 5 6 
#
# 1 0.025073 -0.000283 -0.002376 0.000000 -0.012910 0.000000
# 2 -0.000283 0.012774 -0.005831 0.000000 -0.009885 0.000000
# 3 -0.002376 -0.005831 0.014352 0.000000 -0.004410 0.000000
# 4 0.000000 0.000000 0.000000 0.043397 0.000000 -0.048989
# 5 -0.012910 -0.009885 -0.004410 0.000000 0.047040 0.000000
# 6 0.000000 0.000000 0.000000 -0.048989 0.000000 0.276980
#
#
# Mechanical properties :
#
#
# Convention : Reuss Voigt Hill
#
# Bulk Modulus (GPa) = 28.39432 71.70492 50.04962
# Shear Modulus (GPa) = 11.15238 27.36136 19.25687
#
# Velocity S-wave (km/s) = 2.26011 3.54010 2.96988
# Velocity P-wave (km/s) = 4.45154 7.03936 5.88935
#
# Compressibility (1/GPa) = 0.03521831
#
# Stress axis : x y z
#
# Youngs Moduli (GPa) = 39.88329 78.28534 69.67903
#
# Poissons Ratio (x) = 0.02218 0.16554
# Poissons Ratio (y) = 0.01130 0.40630
# Poissons Ratio (z) = 0.09475 0.45648
#
# Static dielectric constant tensor:
#      x y z
#    x 1.848310 0.000000 -0.076320 
#    y 0.000000 1.771710 0.000000 
#    z -0.076320 0.000000 1.823010 
# 
# From -- ./inp_files/282043.got.cif
#   From: 2010.05.17/outbox.cif.g08.bks.cpg/sg12_142_cif.got.tgz:282043.got - 2010.06.03 13:09:07.
