data_PCOD9207161
_publ_section_title
;
Structure prediction by ZEFSAII (Michael W. Deem and Ramdas Pophale) SiO2 
 PCOD9207161
Probable space group: C 2/M
;
_chemical_formula_sum "Si O2"
_cell_formula_units_Z 56
_cell_length_a 17.227066
_cell_length_b 14.309533
_cell_length_c 11.077156
_cell_angle_alpha 90.000000
_cell_angle_beta 90.708959
_cell_angle_gamma 90.000000
_cell_volume 2730.434749
_symmetry_space_group_name_H-M "C 2/M"
_symmetry_group_IT_number 12
_symmetry_cell_setting 'monoclinic'
loop_
_space_group_symop_operation_xyz
x,y,z
-x,y,-z
-x,-y,-z
x,-y,z
1/2+x,1/2+y,z
1/2-x,1/2+y,-z
1/2-x,1/2-y,-z
1/2+x,1/2-y,z
loop_
_atom_site_type_symbol
_atom_site_label
_atom_site_fract_x
_atom_site_fract_y
_atom_site_fract_z
Si Si1 0.301504 0.110576 0.141081
Si Si2 0.155465 0.892798 0.274372
Si Si3 0.407877 0.108477 0.644678
Si Si4 0.839411 0.788337 0.271315
Si Si5 0.749147 0.890508 0.478247
Si Si6 0.005408 0.209380 0.360656
Si Si7 0.293333 0.110429 0.868483
O O1 0.209457 0.128780 0.161237
O O2 0.342750 0.180039 0.234001
O O3 0.314572 0.000000 0.164994
O O4 0.321426 0.133034 0.003464
O O5 0.213778 0.883719 0.389620
O O6 0.081314 0.831449 0.298556
O O7 0.130595 0.000000 0.267040
O O8 0.342576 0.126803 0.540096
O O9 0.478292 0.179652 0.637356
O O10 0.358567 0.125447 0.767225
O O11 0.430669 0.000000 0.640901
O O12 0.794717 0.819265 0.392451
O O13 0.927489 0.819469 0.291161
O O14 0.784901 0.836047 0.169639
O O15 0.760416 0.000000 0.438164
O O16 0.000000 0.177350 0.500000
O O17 0.275873 0.000000 0.867594
#
# Coordination Sequence:
#
# PCOD9207161 Si02
#       7
#     8   8   8   8   8   8   8
#     4  10  22  39  62  87 110 145 193 242 281 324
#     4  10  21  37  57  82 115 149 189 235 281 332
#     4   9  20  38  60  81 109 149 193 237 278 328
#     4  11  21  35  58  84 117 150 187 230 281 338
#     4   9  18  35  60  83 104 146 197 240 278 323
#     4  12  25  36  51  85 125 157 181 221 285 348
#     4   9  19  41  67  86 105 140 196 246 283 324
#
# _framework density 20.509554999999999
#
# number of rings (size 3 to 8) (size 9 to 14) (size 15 to 20)
#    0.000    2.000    1.429    3.429    2.000    3.429 
#    0.000    2.857    0.000    5.143    0.000    0.000 
#    0.000    0.000    0.000    0.000    0.000    0.000 
#
# Total GULP energy -156367.849874 kJ/mol
# GULP energy per Si atom -5584.566067 kJ/mol
# Density = 2.046287 g / cm^3
# Si number density = 20.509555 Si / 1000 Ang^3
#
#
#
# Elastic Constant Matrix: (Units=GPa)
#
#
# Indices 1 2 3 4 5 6 
#
# 1 25.7509 12.2991 -2.9980 0.0000 6.6087 0.0000
# 2 12.2991 50.9622 15.9331 0.0000 3.3047 0.0000
# 3 -2.9980 15.9331 52.2025 0.0000 -0.2530 0.0000
# 4 0.0000 0.0000 0.0000 27.1722 0.0000 -2.7361
# 5 6.6087 3.3047 -0.2530 0.0000 13.5027 0.0000
# 6 0.0000 0.0000 0.0000 -2.7361 0.0000 18.3247
#
#
#
# Elastic Compliance Matrix: (Units=1/GPa)
#
#
# Indices 1 2 3 4 5 6 
#
# 1 0.051536 -0.013168 0.006873 0.000000 -0.021872 0.000000
# 2 -0.013168 0.025463 -0.008528 0.000000 0.000053 0.000000
# 3 0.006873 -0.008528 0.022150 0.000000 -0.000862 0.000000
# 4 0.000000 0.000000 0.000000 0.037364 0.000000 0.005579
# 5 -0.021872 0.000053 -0.000862 0.000000 0.084735 0.000000
# 6 0.000000 0.000000 0.000000 0.005579 0.000000 0.055404
#
#
# Mechanical properties :
#
#
# Convention : Reuss Voigt Hill
#
# Bulk Modulus (GPa) = 14.38790 19.93158 17.15974
# Shear Modulus (GPa) = 15.17608 18.71202 16.94405
#
# Velocity S-wave (km/s) = 2.72316 3.02380 2.87741
# Velocity P-wave (km/s) = 4.11314 4.68300 4.40729
#
# Compressibility (1/GPa) = 0.06950284
#
# Stress axis : x y z
#
# Youngs Moduli (GPa) = 19.40375 39.27252 45.14773
#
# Poissons Ratio (x) = 0.51715 -0.31029
# Poissons Ratio (y) = 0.25551 0.38501
# Poissons Ratio (z) = -0.13336 0.33491
#
# Static dielectric constant tensor:
#      x y z
#    x 1.681870 0.000000 -0.014220 
#    y 0.000000 1.788680 0.000000 
#    z -0.014220 0.000000 1.749310 
# 
# From -- ./inp_files/143718.got.cif
#   From: 2010.05.17/outbox.cif.g08.bks.cpg/sg12_72_cif.got.tgz:143718.got - 2010.06.03 13:09:07.
