data_PCOD9207639
_publ_section_title
;
Structure prediction by ZEFSAII (Michael W. Deem and Ramdas Pophale) SiO2 
 PCOD9207639
Probable space group: C 2/M
;
_chemical_formula_sum "Si O2"
_cell_formula_units_Z 56
_cell_length_a 24.402911
_cell_length_b 8.565718
_cell_length_c 15.925381
_cell_angle_alpha 90.000000
_cell_angle_beta 60.082798
_cell_angle_gamma 90.000000
_cell_volume 2885.277646
_symmetry_space_group_name_H-M "C 2/M"
_symmetry_group_IT_number 12
_symmetry_cell_setting 'monoclinic'
loop_
_space_group_symop_operation_xyz
x,y,z
-x,y,-z
-x,-y,-z
x,-y,z
1/2+x,1/2+y,z
1/2-x,1/2+y,-z
1/2-x,1/2-y,-z
1/2+x,1/2-y,z
loop_
_atom_site_type_symbol
_atom_site_label
_atom_site_fract_x
_atom_site_fract_y
_atom_site_fract_z
Si Si1 0.978941 0.688587 0.923717
Si Si2 0.208819 0.315612 0.158005
Si Si3 0.288620 0.686091 0.391070
Si Si4 0.565656 0.311217 0.707600
Si Si5 0.663929 0.812286 0.005845
Si Si6 0.814153 0.815324 0.648602
Si Si7 0.948342 0.190442 0.470989
O O1 0.981928 0.500000 0.919280
O O2 0.022823 0.751018 0.815865
O O3 0.906349 0.734347 0.964851
O O4 0.000000 0.741140 0.000000
O O5 0.202282 0.500000 0.177454
O O6 0.282089 0.270491 0.089423
O O7 0.180592 0.223498 0.257601
O O8 0.176394 0.275457 0.094115
O O9 0.290023 0.500000 0.395743
O O10 0.250000 0.750000 0.500000
O O11 0.361327 0.740902 0.336835
O O12 0.248334 0.736421 0.341166
O O13 0.565119 0.500000 0.709126
O O14 0.541589 0.261060 0.633333
O O15 0.671038 0.000000 0.990500
O O16 0.877811 0.761539 0.552883
O O17 0.808492 0.000000 0.639672
O O18 0.000000 0.243425 0.500000
O O19 0.949365 0.000000 0.471422
#
# Coordination Sequence:
#
# PCOD9207639 Si02
#       7
#     8   8   8   8   8   8   8
#     4  10  23  41  60  85 117 155 197 241 294 353
#     4  10  21  37  59  87 117 150 195 247 294 345
#     4  11  22  39  60  86 119 153 194 240 286 340
#     4  10  22  40  61  87 117 152 197 243 288 346
#     4   9  20  40  60  82 117 155 196 243 295 355
#     4  11  22  37  60  88 118 154 195 238 294 353
#     4   9  19  37  59  86 120 156 195 236 284 350
#
# _framework density 19.408877
#
# number of rings (size 3 to 8) (size 9 to 14) (size 15 to 20)
#    0.000    2.000    1.429    1.286    4.000    2.571 
#    0.000    0.000    0.000    2.143    0.000    0.000 
#    0.000    0.000    0.000    0.000    0.000    0.000 
#
# Total GULP energy -156387.855787 kJ/mol
# GULP energy per Si atom -5585.280564 kJ/mol
# Density = 1.936470 g / cm^3
# Si number density = 19.408877 Si / 1000 Ang^3
#
#
#
# Elastic Constant Matrix: (Units=GPa)
#
#
# Indices 1 2 3 4 5 6 
#
# 1 141.8176 17.9973 60.8147 0.0000 -2.5098 0.0000
# 2 17.9973 12.7229 12.3467 0.0000 1.0288 0.0000
# 3 60.8147 12.3467 121.3017 0.0000 8.4461 0.0000
# 4 0.0000 0.0000 0.0000 34.2022 0.0000 1.3478
# 5 -2.5098 1.0288 8.4461 0.0000 20.1921 0.0000
# 6 0.0000 0.0000 0.0000 1.3478 0.0000 22.1607
#
#
#
# Elastic Compliance Matrix: (Units=1/GPa)
#
#
# Indices 1 2 3 4 5 6 
#
# 1 0.010338 -0.010700 -0.004348 0.000000 0.003649 0.000000
# 2 -0.010700 0.098298 -0.004326 0.000000 -0.004529 0.000000
# 3 -0.004348 -0.004326 0.011213 0.000000 -0.005010 0.000000
# 4 0.000000 0.000000 0.000000 0.029308 0.000000 -0.001783
# 5 0.003649 -0.004529 -0.005010 0.000000 0.052304 0.000000
# 6 0.000000 0.000000 0.000000 -0.001783 0.000000 0.045233
#
#
# Mechanical properties :
#
#
# Convention : Reuss Voigt Hill
#
# Bulk Modulus (GPa) = 12.33013 50.90664 31.61838
# Shear Modulus (GPa) = 16.00125 27.62325 21.81225
#
# Velocity S-wave (km/s) = 2.87440 3.77666 3.35599
# Velocity P-wave (km/s) = 4.16928 6.73075 5.59848
#
# Compressibility (1/GPa) = 0.08110217
#
# Stress axis : x y z
#
# Youngs Moduli (GPa) = 96.72761 10.17317 89.18232
#
# Poissons Ratio (x) = 0.10885 0.38778
# Poissons Ratio (y) = 1.03496 0.38577
# Poissons Ratio (z) = 0.42058 0.04401
#
# Static dielectric constant tensor:
#      x y z
#    x 1.686890 0.000000 0.018480 
#    y 0.000000 1.666340 0.000000 
#    z 0.018480 0.000000 1.650100 
# 
# From -- ./inp_files/238329.got.cif
#   From: 2010.05.17/outbox.cif.g08.bks.cpg/sg12_120_cif.got.tgz:238329.got - 2010.06.03 13:09:07.
