data_PCOD9207839
_publ_section_title
;
Structure prediction by ZEFSAII (Michael W. Deem and Ramdas Pophale) SiO2 
 PCOD9207839
Probable space group: C 2/M
;
_chemical_formula_sum "Si O2"
_cell_formula_units_Z 56
_cell_length_a 20.848890
_cell_length_b 7.783352
_cell_length_c 26.254365
_cell_angle_alpha 90.000000
_cell_angle_beta 141.273864
_cell_angle_gamma 90.000000
_cell_volume 2665.304858
_symmetry_space_group_name_H-M "C 2/M"
_symmetry_group_IT_number 12
_symmetry_cell_setting 'monoclinic'
loop_
_space_group_symop_operation_xyz
x,y,z
-x,y,-z
-x,-y,-z
x,-y,z
1/2+x,1/2+y,z
1/2-x,1/2+y,-z
1/2-x,1/2-y,-z
1/2+x,1/2-y,z
loop_
_atom_site_type_symbol
_atom_site_label
_atom_site_fract_x
_atom_site_fract_y
_atom_site_fract_z
Si Si1 0.010344 0.791574 0.250149
Si Si2 0.542079 0.800674 0.471949
Si Si3 0.131249 0.206971 0.931682
Si Si4 0.759404 0.703615 0.637187
Si Si5 0.719201 0.790823 0.233100
Si Si6 0.584271 0.299153 0.703219
Si Si7 0.497280 0.296917 0.054914
O O1 0.127807 0.738506 0.314552
O O2 0.938945 0.732214 0.158980
O O3 0.964308 0.727183 0.275220
O O4 0.009625 0.000000 0.249884
O O5 0.500000 0.729560 0.500000
O O6 0.664649 0.785650 0.548803
O O7 0.492222 0.714374 0.391991
O O8 0.511530 0.000000 0.450776
O O9 0.084850 0.274831 0.956003
O O10 0.121820 0.000000 0.926143
O O11 0.250000 0.250000 0.000000
O O12 0.741692 0.500000 0.626004
O O13 0.756545 0.764162 0.694183
O O14 0.807298 0.727857 0.249319
O O15 0.608481 0.725557 0.148523
O O16 0.717630 0.000000 0.231887
O O17 0.602817 0.500000 0.725091
O O18 0.474685 0.500000 0.035784
O O19 0.500000 0.220963 0.000000
#
# Coordination Sequence:
#
# PCOD9207839 Si02
#       7
#     8   8   8   8   8   8   8
#     4  10  22  41  62  85 118 158 195 238 293 350
#     4  11  23  38  60  90 120 153 195 241 293 347
#     4  10  22  39  59  84 117 154 192 236 287 345
#     4  11  22  38  63  88 116 155 196 241 291 345
#     4  10  21  37  60  88 115 152 197 240 288 341
#     4  10  22  40  61  87 119 154 195 242 293 346
#     4  10  22  39  59  86 118 154 194 239 292 344
#
# _framework density 21.010729000000001
#
# number of rings (size 3 to 8) (size 9 to 14) (size 15 to 20)
#    0.000    1.714    2.857    0.857    2.000    4.286 
#    0.000    0.000    0.000    0.000    0.000    0.000 
#    0.000    0.000    0.000    0.000    0.000    0.000 
#
# Total GULP energy -156460.853933 kJ/mol
# GULP energy per Si atom -5587.887640 kJ/mol
# Density = 2.096291 g / cm^3
# Si number density = 21.010729 Si / 1000 Ang^3
#
#
#
# Elastic Constant Matrix: (Units=GPa)
#
#
# Indices 1 2 3 4 5 6 
#
# 1 192.0574 4.0467 54.9897 0.0000 11.7210 0.0000
# 2 4.0467 27.8825 -17.6645 0.0001 -5.1615 0.0001
# 3 54.9897 -17.6645 79.8316 0.0000 16.9189 0.0000
# 4 0.0000 0.0001 0.0000 23.5338 0.0000 8.4716
# 5 11.7210 -5.1615 16.9189 0.0000 37.2976 0.0000
# 6 0.0000 0.0001 0.0000 8.4716 0.0000 5.4968
#
#
#
# Elastic Compliance Matrix: (Units=1/GPa)
#
#
# Indices 1 2 3 4 5 6 
#
# 1 0.006984 -0.004736 -0.005814 0.000000 -0.000213 0.000000
# 2 -0.004736 0.045028 0.012823 0.000000 0.001903 -0.000001
# 3 -0.005814 0.012823 0.020584 0.000000 -0.005736 0.000000
# 4 0.000000 0.000000 0.000000 0.095442 0.000000 -0.147095
# 5 -0.000213 0.001903 -0.005736 0.000000 0.029744 0.000000
# 6 0.000000 -0.000001 0.000000 -0.147095 0.000000 0.408625
#
#
# Mechanical properties :
#
#
# Convention : Reuss Voigt Hill
#
# Bulk Modulus (GPa) = 12.96323 42.50169 27.73246
# Shear Modulus (GPa) = 7.96716 30.49228 19.22972
#
# Velocity S-wave (km/s) = 1.94941 3.81369 3.02856
# Velocity P-wave (km/s) = 3.35412 6.29800 5.04554
#
# Compressibility (1/GPa) = 0.07714129
#
# Stress axis : x y z
#
# Youngs Moduli (GPa) = 143.18153 22.20840 48.58177
#
# Poissons Ratio (x) = 0.10518 0.28244
# Poissons Ratio (y) = 0.67814 -0.62294
# Poissons Ratio (z) = 0.83241 -0.28477
#
# Static dielectric constant tensor:
#      x y z
#    x 1.770000 0.000000 -0.013640 
#    y 0.000000 1.771840 0.000000 
#    z -0.013640 0.000000 1.702900 
# 
# From -- ./inp_files/230943.got.cif
#   From: 2010.05.17/outbox.cif.g08.bks.cpg/sg12_116_cif.got.tgz:230943.got - 2010.06.03 13:09:07.
