data_PCOD9207125
_publ_section_title
;
Structure prediction by ZEFSAII (Michael W. Deem and Ramdas Pophale) SiO2 
 PCOD9207125
Probable space group: C 2/M
;
_chemical_formula_sum "Si O2"
_cell_formula_units_Z 48
_cell_length_a 17.028091
_cell_length_b 7.663192
_cell_length_c 14.990718
_cell_angle_alpha 90.000000
_cell_angle_beta 89.278787
_cell_angle_gamma 90.000000
_cell_volume 1955.976788
_symmetry_space_group_name_H-M "C 2/M"
_symmetry_group_IT_number 12
_symmetry_cell_setting 'monoclinic'
loop_
_space_group_symop_operation_xyz
x,y,z
-x,y,-z
-x,-y,-z
x,-y,z
1/2+x,1/2+y,z
1/2-x,1/2+y,-z
1/2-x,1/2-y,-z
1/2+x,1/2-y,z
loop_
_atom_site_type_symbol
_atom_site_label
_atom_site_fract_x
_atom_site_fract_y
_atom_site_fract_z
Si Si1 0.665204 0.790541 0.540053
Si Si2 0.158390 0.201535 0.216075
Si Si3 0.817512 0.200892 0.122799
Si Si4 0.071027 0.700039 0.378892
Si Si5 0.415562 0.788234 0.283268
Si Si6 0.917060 0.786127 0.960621
O O1 0.750000 0.750000 0.500000
O O2 0.599917 0.721059 0.471395
O O3 0.648537 0.735435 0.641117
O O4 0.657641 0.000000 0.540659
O O5 0.244793 0.209864 0.172584
O O6 0.143829 0.296600 0.309096
O O7 0.140410 0.000000 0.234395
O O8 0.100731 0.271065 0.139421
O O9 0.891392 0.212158 0.188942
O O10 0.847388 0.271763 0.027906
O O11 0.795126 0.000000 0.111279
O O12 0.048346 0.500000 0.398133
O O13 0.997692 0.772668 0.324633
O O14 0.416281 0.000000 0.273697
O O15 0.915914 0.000000 0.960455
O O16 0.000000 0.730447 0.000000
#
# Coordination Sequence:
#
# PCOD9207125 Si02
#       6
#     8   8   8   8   8   8
#     4  10  21  37  57  81 111 148 185 224 274 328
#     4  11  22  37  58  83 113 148 186 228 275 328
#     4  11  22  37  58  83 113 148 186 228 275 328
#     4  10  21  38  59  83 112 146 185 229 277 329
#     4  10  21  38  59  83 112 146 185 229 277 329
#     4   9  19  36  57  81 110 145 184 227 276 328
#
# _framework density 24.540167
#
# number of rings (size 3 to 8) (size 9 to 14) (size 15 to 20)
#    0.000    1.833    0.000    4.000    0.000    8.000 
#    0.000    2.500    0.000    9.000    0.000    0.000 
#    0.000    0.000    0.000    0.000    0.000    0.000 
#
# Total GULP energy -134282.409667 kJ/mol
# GULP energy per Si atom -5595.100403 kJ/mol
# Density = 2.448431 g / cm^3
# Si number density = 24.540167 Si / 1000 Ang^3
#
#
#
# Elastic Constant Matrix: (Units=GPa)
#
#
# Indices 1 2 3 4 5 6 
#
# 1 66.9574 -2.9163 -15.6205 0.0000 -0.2355 0.0000
# 2 -2.9163 57.9138 1.4845 0.0000 -2.6391 0.0000
# 3 -15.6205 1.4845 93.1684 0.0000 -0.7275 0.0000
# 4 0.0000 0.0000 0.0000 11.5274 0.0000 3.2176
# 5 -0.2355 -2.6391 -0.7275 0.0000 47.4508 0.0000
# 6 0.0000 0.0000 0.0000 3.2176 0.0000 11.8595
#
#
#
# Elastic Compliance Matrix: (Units=1/GPa)
#
#
# Indices 1 2 3 4 5 6 
#
# 1 0.015574 0.000725 0.002601 0.000000 0.000157 0.000000
# 2 0.000725 0.017351 -0.000147 0.000000 0.000966 0.000000
# 3 0.002601 -0.000147 0.011173 0.000000 0.000176 0.000000
# 4 0.000000 0.000000 0.000000 0.093857 0.000000 -0.025465
# 5 0.000157 0.000966 0.000176 0.000000 0.021132 0.000000
# 6 0.000000 0.000000 0.000000 -0.025465 0.000000 0.091230
#
#
# Mechanical properties :
#
#
# Convention : Reuss Voigt Hill
#
# Bulk Modulus (GPa) = 19.81993 20.43721 20.12857
# Shear Modulus (GPa) = 19.17333 29.84034 24.50683
#
# Velocity S-wave (km/s) = 2.79821 3.49087 3.16356
# Velocity P-wave (km/s) = 4.30512 4.95927 4.64373
#
# Compressibility (1/GPa) = 0.05045428
#
# Stress axis : x y z
#
# Youngs Moduli (GPa) = 64.21068 57.63239 89.50133
#
# Poissons Ratio (x) = -0.04177 -0.23277
# Poissons Ratio (y) = -0.04654 0.01319
# Poissons Ratio (z) = -0.16700 0.00850
#
# Static dielectric constant tensor:
#      x y z
#    x 1.979900 0.000000 0.002920 
#    y 0.000000 1.930470 0.000000 
#    z 0.002920 0.000000 1.903850 
# 
# From -- ./inp_files/195914.got.cif
#   From: 2010.05.17/outbox.cif.g08.bks.cpg/sg12_98_cif.got.tgz:195914.got - 2010.06.03 13:09:07.
