data_PCOD9207051
_publ_section_title
;
Structure prediction by ZEFSAII (Michael W. Deem and Ramdas Pophale) SiO2 
 PCOD9207051
Probable space group: C 2/M
;
_chemical_formula_sum "Si O2"
_cell_formula_units_Z 40
_cell_length_a 18.501222
_cell_length_b 10.796441
_cell_length_c 19.584822
_cell_angle_alpha 90.000000
_cell_angle_beta 150.235538
_cell_angle_gamma 90.000000
_cell_volume 1942.064289
_symmetry_space_group_name_H-M "C 2/M"
_symmetry_group_IT_number 12
_symmetry_cell_setting 'monoclinic'
loop_
_space_group_symop_operation_xyz
x,y,z
-x,y,-z
-x,-y,-z
x,-y,z
1/2+x,1/2+y,z
1/2-x,1/2+y,-z
1/2-x,1/2-y,-z
1/2+x,1/2-y,z
loop_
_atom_site_type_symbol
_atom_site_label
_atom_site_fract_x
_atom_site_fract_y
_atom_site_fract_z
Si Si1 0.006533 0.354586 0.722912
Si Si2 0.610728 0.272214 0.239435
Si Si3 0.925677 0.358794 0.506722
Si Si4 0.668826 0.867266 0.159593
Si Si5 0.315990 0.640509 0.924897
O O1 0.963555 0.500000 0.693674
O O2 0.182489 0.351105 0.868374
O O3 0.937710 0.275801 0.726749
O O4 0.961334 0.306151 0.610744
O O5 0.751928 0.357935 0.357637
O O6 0.665420 0.158788 0.237012
O O7 0.470654 0.330746 0.086755
O O8 0.982523 0.500000 0.556690
O O9 0.000000 0.301412 0.500000
O O10 0.717140 0.743845 0.159526
O O11 0.739175 0.000000 0.200061
O O12 0.500000 0.876345 0.000000
O O13 0.317945 0.500000 0.898760
#
# Coordination Sequence:
#
# PCOD9207051 Si02
#       5
#     8   8   8   8   8
#     4  10  21  37  56  82 116 152 188 231 288 345
#     4  11  20  34  58  84 114 148 192 239 283 334
#     4  10  21  37  57  81 112 151 194 238 285 339
#     4   9  19  34  54  81 114 152 189 228 280 338
#     4  10  21  37  60  88 116 149 192 238 281 334
#
# _framework density 20.596639
#
# number of rings (size 3 to 8) (size 9 to 14) (size 15 to 20)
#    0.000    2.000    0.000    3.600    0.000    6.800 
#    0.000    2.000    0.000   13.200    0.000    0.000 
#    0.000    0.000    0.000    0.000    0.000    0.000 
#
# Total GULP energy -111513.558443 kJ/mol
# GULP energy per Si atom -5575.677922 kJ/mol
# Density = 2.054976 g / cm^3
# Si number density = 20.596639 Si / 1000 Ang^3
#
#
#
# Elastic Constant Matrix: (Units=GPa)
#
#
# Indices 1 2 3 4 5 6 
#
# 1 144.3046 60.1245 41.5637 0.0001 -13.1807 0.0000
# 2 60.1245 115.8921 13.7415 0.0001 -12.4773 0.0000
# 3 41.5637 13.7415 95.6378 0.0002 1.0118 0.0000
# 4 0.0001 0.0001 0.0002 -23.2625 0.0001 -2.8062
# 5 -13.1807 -12.4773 1.0118 0.0001 33.2400 0.0000
# 6 0.0000 0.0000 0.0000 -2.8062 0.0000 19.0599
#
#
#
# Elastic Compliance Matrix: (Units=1/GPa)
#
#
# Indices 1 2 3 4 5 6 
#
# 1 0.010134 -0.004549 -0.003776 0.000000 0.002426 0.000000
# 2 -0.004549 0.011206 0.000341 0.000000 0.002392 0.000000
# 3 -0.003776 0.000341 0.012067 0.000000 -0.001737 0.000000
# 4 0.000000 0.000000 0.000000 -0.042237 0.000000 -0.006219
# 5 0.002426 0.002392 -0.001737 0.000000 0.031997 0.000000
# 6 0.000000 0.000000 0.000000 -0.006219 0.000000 0.051551
#
#
# Mechanical properties :
#
#
# Convention : Reuss Voigt Hill
#
# Bulk Modulus (GPa) = 57.34169 65.18820 61.26495
# Shear Modulus (GPa) = 51.81509 21.83448 36.82479
#
# Velocity S-wave (km/s) = 5.02112 3.25945 4.23295
# Velocity P-wave (km/s) = 7.84323 6.77377 7.32804
#
# Compressibility (1/GPa) = 0.01743932
#
# Stress axis : x y z
#
# Youngs Moduli (GPa) = 98.67485 89.24095 82.87320
#
# Poissons Ratio (x) = 0.40593 0.31296
# Poissons Ratio (y) = 0.44884 -0.02830
# Poissons Ratio (z) = 0.37264 -0.03047
#
# Static dielectric constant tensor:
#      x y z
#    x 1.734370 0.000000 -0.009160 
#    y 0.000000 1.764460 0.000000 
#    z -0.009160 0.000000 1.756890 
# 
# From -- ./inp_files/71344.got.cif
#   From: 2010.05.17/outbox.cif.g08.bks.cpg/sg12_36_cif.got.tgz:71344.got - 2010.06.03 13:09:07.
