data_PCOD9207880
_publ_section_title
;
Structure prediction by ZEFSAII (Michael W. Deem and Ramdas Pophale) SiO2 
 PCOD9207880
Probable space group: C 2/M
;
_chemical_formula_sum "Si O2"
_cell_formula_units_Z 56
_cell_length_a 21.929350
_cell_length_b 14.141057
_cell_length_c 18.714356
_cell_angle_alpha 90.000000
_cell_angle_beta 151.345263
_cell_angle_gamma 90.000000
_cell_volume 2782.906880
_symmetry_space_group_name_H-M "C 2/M"
_symmetry_group_IT_number 12
_symmetry_cell_setting 'monoclinic'
loop_
_space_group_symop_operation_xyz
x,y,z
-x,y,-z
-x,-y,-z
x,-y,z
1/2+x,1/2+y,z
1/2-x,1/2+y,-z
1/2-x,1/2-y,-z
1/2+x,1/2-y,z
loop_
_atom_site_type_symbol
_atom_site_label
_atom_site_fract_x
_atom_site_fract_y
_atom_site_fract_z
Si Si1 0.128904 0.743333 0.598582
Si Si2 0.812654 0.890909 0.224127
Si Si3 0.645764 0.389172 0.355058
Si Si4 0.933851 0.612656 0.700802
Si Si5 0.635171 0.388685 0.176133
Si Si6 0.512798 0.890627 0.933815
Si Si7 0.493255 0.271733 0.312696
O O1 0.150928 0.841109 0.663624
O O2 0.250764 0.677298 0.733733
O O3 0.095051 0.761189 0.481582
O O4 0.000000 0.700016 0.500000
O O5 0.875949 0.826136 0.228253
O O6 0.855856 0.000000 0.264489
O O7 0.660504 0.890012 0.064672
O O8 0.624448 0.500000 0.346377
O O9 0.792364 0.370043 0.526006
O O10 0.623651 0.371682 0.248931
O O11 0.554094 0.331648 0.311853
O O12 0.959263 0.500000 0.726070
O O13 0.028057 0.669702 0.745538
O O14 0.941020 0.647302 0.790408
O O15 0.667447 0.500000 0.199202
O O16 0.500000 0.371770 0.000000
O O17 0.468108 0.000000 0.895175
O O18 0.500000 0.847829 0.000000
#
# Coordination Sequence:
#
# PCOD9207880 Si02
#       7
#     8   8   8   8   8   8   8
#     4  10  23  39  60  91 124 166 210 253 313 378
#     4  10  23  41  59  88 127 162 204 259 312 369
#     4  10  21  37  62  89 120 162 202 252 308 363
#     4  10  21  37  60  89 121 160 205 256 305 360
#     4  10  22  42  66  93 124 159 208 263 311 367
#     4   9  20  38  60  88 122 160 203 246 305 374
#     4  11  22  37  60  88 123 158 206 252 307 375
#
# _framework density 20.122843
#
# number of rings (size 3 to 8) (size 9 to 14) (size 15 to 20)
#    0.000    2.000    1.429    0.857    2.000    5.714 
#    0.000    3.571    0.000    6.857    0.000    0.000 
#    0.000    0.000    0.000    0.000    0.000    0.000 
#
# Total GULP energy -156352.627985 kJ/mol
# GULP energy per Si atom -5584.022428 kJ/mol
# Density = 2.007704 g / cm^3
# Si number density = 20.122843 Si / 1000 Ang^3
#
#
#
# Elastic Constant Matrix: (Units=GPa)
#
#
# Indices 1 2 3 4 5 6 
#
# 1 95.1618 52.4198 47.2153 0.0000 -16.6719 0.0000
# 2 52.4198 95.1408 26.1377 0.0000 1.8310 0.0000
# 3 47.2153 26.1377 108.8021 0.0000 -19.6177 0.0000
# 4 0.0000 0.0000 0.0000 18.1666 0.0000 5.9358
# 5 -16.6719 1.8310 -19.6177 0.0000 38.1092 0.0000
# 6 0.0000 0.0000 0.0000 5.9358 0.0000 36.0324
#
#
#
# Elastic Compliance Matrix: (Units=1/GPa)
#
#
# Indices 1 2 3 4 5 6 
#
# 1 0.019225 -0.009351 -0.004959 0.000000 0.006307 0.000000
# 2 -0.009351 0.015961 -0.000719 0.000000 -0.005228 0.000000
# 3 -0.004959 -0.000719 0.012270 0.000000 0.004181 0.000000
# 4 0.000000 0.000000 0.000000 0.058178 0.000000 -0.009584
# 5 0.006307 -0.005228 0.004181 0.000000 0.031403 0.000000
# 6 0.000000 0.000000 0.000000 -0.009584 0.000000 0.029332
#
#
# Mechanical properties :
#
#
# Convention : Reuss Voigt Hill
#
# Bulk Modulus (GPa) = 57.48127 61.18336 59.33231
# Shear Modulus (GPa) = 24.72477 30.01712 27.37095
#
# Velocity S-wave (km/s) = 3.50907 3.86644 3.69208
# Velocity P-wave (km/s) = 6.71158 7.09953 6.90828
#
# Compressibility (1/GPa) = 0.01739697
#
# Stress axis : x y z
#
# Youngs Moduli (GPa) = 52.01525 62.65180 81.50202
#
# Poissons Ratio (x) = 0.58589 0.40418
# Poissons Ratio (y) = 0.48642 0.05859
# Poissons Ratio (z) = 0.25795 0.04504
#
# Static dielectric constant tensor:
#      x y z
#    x 1.704110 0.000000 0.000710 
#    y 0.000000 1.758180 0.000000 
#    z 0.000710 0.000000 1.718010 
# 
# From -- ./inp_files/284600.got.cif
#   From: 2010.05.17/outbox.cif.g08.bks.cpg/sg12_143_cif.got.tgz:284600.got - 2010.06.03 13:09:07.
