data_PCOD9207771
_publ_section_title
;
Structure prediction by ZEFSAII (Michael W. Deem and Ramdas Pophale) SiO2 
 PCOD9207771
Probable space group: C 2/M
;
_chemical_formula_sum "Si O2"
_cell_formula_units_Z 48
_cell_length_a 30.128272
_cell_length_b 13.428855
_cell_length_c 12.539157
_cell_angle_alpha 90.000000
_cell_angle_beta 27.262344
_cell_angle_gamma 90.000000
_cell_volume 2323.855246
_symmetry_space_group_name_H-M "C 2/M"
_symmetry_group_IT_number 12
_symmetry_cell_setting 'monoclinic'
loop_
_space_group_symop_operation_xyz
x,y,z
-x,y,-z
-x,-y,-z
x,-y,z
1/2+x,1/2+y,z
1/2-x,1/2+y,-z
1/2-x,1/2-y,-z
1/2+x,1/2-y,z
loop_
_atom_site_type_symbol
_atom_site_label
_atom_site_fract_x
_atom_site_fract_y
_atom_site_fract_z
Si Si1 0.606602 0.292946 0.723367
Si Si2 0.363216 0.301914 0.983039
Si Si3 0.425710 0.382463 0.436544
Si Si4 0.087949 0.385382 0.236190
Si Si5 0.292721 0.385238 0.915976
Si Si6 0.256693 0.882685 0.561481
O O1 0.602211 0.321440 0.608824
O O2 0.645451 0.181106 0.660012
O O3 0.685152 0.362599 0.614864
O O4 0.500000 0.307775 0.000000
O O5 0.461510 0.365298 0.780968
O O6 0.395352 0.187327 0.899264
O O7 0.307700 0.327783 0.992940
O O8 0.298157 0.330849 0.221879
O O9 0.406524 0.500000 0.459788
O O10 0.363971 0.349274 0.670509
O O11 0.069579 0.500000 0.243512
O O12 0.000000 0.351456 0.500000
O O13 0.184806 0.383626 0.100578
O O14 0.319031 0.500000 0.881609
O O15 0.270408 0.000000 0.549207
#
# Coordination Sequence:
#
# PCOD9207771 Si02
#       6
#     8   8   8   8   8   8
#     4  11  24  45  68  95 131 173 222 273 327 386
#     4  12  22  38  63  96 128 164 212 269 327 387
#     4  11  22  38  66  96 127 168 217 268 323 386
#     4  10  22  39  58  84 127 180 219 253 316 393
#     4  10  21  37  59  92 128 164 208 265 325 385
#     4  11  25  44  70 100 131 171 219 273 330 389
#
# _framework density 20.655331
#
# number of rings (size 3 to 8) (size 9 to 14) (size 15 to 20)
#    0.000    1.167    1.667    5.000    0.000    3.667 
#    0.000    5.833    0.000    0.000    0.000    0.000 
#    0.000    0.000    0.000    0.000    0.000    0.000 
#
# Total GULP energy -134241.341152 kJ/mol
# GULP energy per Si atom -5593.389215 kJ/mol
# Density = 2.060832 g / cm^3
# Si number density = 20.655331 Si / 1000 Ang^3
#
#
#
# Elastic Constant Matrix: (Units=GPa)
#
#
# Indices 1 2 3 4 5 6 
#
# 1 39.5285 7.7492 -5.7716 0.0000 0.3399 0.0000
# 2 7.7492 104.5650 -18.7610 0.0000 3.2717 0.0000
# 3 -5.7716 -18.7610 21.2623 0.0000 -11.0198 0.0000
# 4 0.0000 0.0000 0.0000 23.7438 0.0000 0.1677
# 5 0.3399 3.2717 -11.0198 0.0000 24.5239 0.0000
# 6 0.0000 0.0000 0.0000 0.1677 0.0000 11.5650
#
#
#
# Elastic Compliance Matrix: (Units=1/GPa)
#
#
# Indices 1 2 3 4 5 6 
#
# 1 0.026629 -0.000542 0.008599 0.000000 0.003567 0.000000
# 2 -0.000542 0.011666 0.012181 0.000000 0.003924 0.000000
# 3 0.008599 0.012181 0.077184 0.000000 0.032939 0.000000
# 4 0.000000 0.000000 0.000000 0.042121 0.000000 -0.000611
# 5 0.003567 0.003924 0.032939 0.000000 0.055005 0.000000
# 6 0.000000 0.000000 0.000000 -0.000611 0.000000 0.086477
#
#
# Mechanical properties :
#
#
# Convention : Reuss Voigt Hill
#
# Bulk Modulus (GPa) = 6.41215 14.64324 10.52769
# Shear Modulus (GPa) = 16.09825 24.10915 20.10370
#
# Velocity S-wave (km/s) = 2.79476 3.42015 3.12315
# Velocity P-wave (km/s) = 3.67768 4.76459 4.25598
#
# Compressibility (1/GPa) = 0.15595386
#
# Stress axis : x y z
#
# Youngs Moduli (GPa) = 37.55255 85.71738 12.95597
#
# Poissons Ratio (x) = 0.04649 -0.11140
# Poissons Ratio (y) = 0.02037 -0.15781
# Poissons Ratio (z) = -0.32290 -1.04408
#
# Static dielectric constant tensor:
#      x y z
#    x 1.695340 0.000000 -0.000530 
#    y 0.000000 1.780450 0.000000 
#    z -0.000530 0.000000 1.720770 
# 
# From -- ./inp_files/183680.got.cif
#   From: 2010.05.17/outbox.cif.g08.bks.cpg/sg12_92_cif.got.tgz:183680.got - 2010.06.03 13:09:07.
