data_PCOD9207422
_publ_section_title
;
Structure prediction by ZEFSAII (Michael W. Deem and Ramdas Pophale) SiO2 
 PCOD9207422
Probable space group: C 2/M
;
_chemical_formula_sum "Si O2"
_cell_formula_units_Z 32
_cell_length_a 15.011361
_cell_length_b 13.011645
_cell_length_c 7.529220
_cell_angle_alpha 90.000000
_cell_angle_beta 53.547999
_cell_angle_gamma 90.000000
_cell_volume 1182.905269
_symmetry_space_group_name_H-M "C 2/M"
_symmetry_group_IT_number 12
_symmetry_cell_setting 'monoclinic'
loop_
_space_group_symop_operation_xyz
x,y,z
-x,y,-z
-x,-y,-z
x,-y,z
1/2+x,1/2+y,z
1/2-x,1/2+y,-z
1/2-x,1/2-y,-z
1/2+x,1/2-y,z
loop_
_atom_site_type_symbol
_atom_site_label
_atom_site_fract_x
_atom_site_fract_y
_atom_site_fract_z
Si Si1 0.763594 0.111331 0.315223
Si Si2 0.339480 0.162719 0.214062
Si Si3 0.382703 0.611923 0.735071
Si Si4 0.588745 0.842020 0.237478
O O1 0.666960 0.119469 0.579976
O O2 0.838403 0.213166 0.245292
O O3 0.700529 0.119112 0.201094
O O4 0.817563 0.000000 0.277216
O O5 0.217676 0.131705 0.282536
O O6 0.417212 0.123072 0.960725
O O7 0.500000 0.605964 0.500000
O O8 0.370205 0.500000 0.835903
O O9 0.395445 0.720695 0.815396
O O10 0.500000 0.859098 0.500000
#
# Coordination Sequence:
#
# PCOD9207422 Si02
#       4
#     8   8   8   8
#     4  10  21  37  59  84 111 148 190 233 286 336
#     4  10  21  37  58  85 116 147 185 235 281 332
#     4   9  17  32  57  84 109 142 182 227 283 336
#     4  10  22  38  56  83 117 151 189 230 274 332
#
# _framework density 27.052038
#
# number of rings (size 3 to 8) (size 9 to 14) (size 15 to 20)
#    0.000    2.250    0.000    3.750    0.000    6.500 
#    0.000    1.250    0.000    4.500    0.000   40.250 
#    0.000    0.000    0.000    0.000    0.000    0.000 
#
# Total GULP energy -89286.028535 kJ/mol
# GULP energy per Si atom -5580.376783 kJ/mol
# Density = 2.699047 g / cm^3
# Si number density = 27.052038 Si / 1000 Ang^3
#
#
#
# Elastic Constant Matrix: (Units=GPa)
#
#
# Indices 1 2 3 4 5 6 
#
# 1 65.8918 -13.8583 35.6776 0.0000 28.3470 0.0000
# 2 -13.8583 190.6195 14.9698 0.0000 0.3815 0.0000
# 3 35.6776 14.9698 217.3508 0.0000 31.5862 0.0000
# 4 0.0000 0.0000 0.0000 7.3225 0.0000 -4.9475
# 5 28.3470 0.3815 31.5862 0.0000 60.3968 0.0000
# 6 0.0000 0.0000 0.0000 -4.9475 0.0000 -4.6060
#
#
#
# Elastic Compliance Matrix: (Units=1/GPa)
#
#
# Indices 1 2 3 4 5 6 
#
# 1 0.020349 0.001672 -0.002236 0.000000 -0.008392 0.000000
# 2 0.001672 0.005414 -0.000572 0.000000 -0.000520 0.000000
# 3 -0.002236 -0.000572 0.005253 0.000000 -0.001694 0.000000
# 4 0.000000 0.000000 0.000000 0.079133 0.000000 -0.085001
# 5 -0.008392 -0.000520 -0.001694 0.000000 0.021385 0.000000
# 6 0.000000 0.000000 0.000000 -0.085001 0.000000 -0.125805
#
#
# Mechanical properties :
#
#
# Convention : Reuss Voigt Hill
#
# Bulk Modulus (GPa) = 34.78945 60.82667 47.80806
# Shear Modulus (GPa) = 284.38061 41.76088 163.07075
#
# Velocity S-wave (km/s) = 10.26410 3.93329 7.77247
# Velocity P-wave (km/s) = 12.38374 6.56974 9.91258
#
# Compressibility (1/GPa) = 0.02874434
#
# Stress axis : x y z
#
# Youngs Moduli (GPa) = 49.14286 184.72227 190.34985
#
# Poissons Ratio (x) = -0.30881 0.42558
# Poissons Ratio (y) = -0.08216 0.10883
# Poissons Ratio (z) = 0.10987 0.10561
#
# Static dielectric constant tensor:
#      x y z
#    x 2.083450 0.000000 -0.029490 
#    y 0.000000 2.096840 0.000000 
#    z -0.029490 0.000000 2.191960 
# 
# From -- ./inp_files/85452.got.cif
#   From: 2010.05.17/outbox.cif.g08.bks.cpg/sg12_43_cif.got.tgz:85452.got - 2010.06.03 13:09:07.
