data_PCOD9207843
_publ_section_title
;
Structure prediction by ZEFSAII (Michael W. Deem and Ramdas Pophale) SiO2 
 PCOD9207843
Probable space group: C 2/M
;
_chemical_formula_sum "Si O2"
_cell_formula_units_Z 56
_cell_length_a 29.714546
_cell_length_b 18.433350
_cell_length_c 9.350080
_cell_angle_alpha 90.000000
_cell_angle_beta 35.294544
_cell_angle_gamma 90.000000
_cell_volume 2959.041992
_symmetry_space_group_name_H-M "C 2/M"
_symmetry_group_IT_number 12
_symmetry_cell_setting 'monoclinic'
loop_
_space_group_symop_operation_xyz
x,y,z
-x,y,-z
-x,-y,-z
x,-y,z
1/2+x,1/2+y,z
1/2-x,1/2+y,-z
1/2-x,1/2-y,-z
1/2+x,1/2-y,z
loop_
_atom_site_type_symbol
_atom_site_label
_atom_site_fract_x
_atom_site_fract_y
_atom_site_fract_z
Si Si1 0.539398 0.832049 0.260085
Si Si2 0.190474 0.084734 0.785660
Si Si3 0.816640 0.802898 0.660521
Si Si4 0.158454 0.778864 0.071890
Si Si5 0.635957 0.915562 0.777760
Si Si6 0.590345 0.414901 0.766569
Si Si7 0.432736 0.812701 0.269270
O O1 0.500000 0.869016 0.500000
O O2 0.580997 0.758875 0.209857
O O3 0.469533 0.821794 0.328837
O O4 0.603699 0.874671 0.000692
O O5 0.272945 0.095106 0.490883
O O6 0.123961 0.093277 0.838946
O O7 0.189211 0.000000 0.841352
O O8 0.180022 0.148317 0.928567
O O9 0.843252 0.800299 0.756756
O O10 0.852483 0.872137 0.488540
O O11 0.857502 0.736106 0.474159
O O12 0.725497 0.783587 0.888737
O O13 0.590444 0.884263 0.757845
O O14 0.620697 0.000000 0.833913
O O15 0.592456 0.500000 0.723943
O O16 0.500000 0.391716 0.000000
O O17 0.500000 0.776283 0.000000
#
# Coordination Sequence:
#
# PCOD9207843 Si02
#       7
#     8   8   8   8   8   8   8
#     4  11  23  38  58  89 126 151 197 248 300 350
#     4  10  22  41  63  89 119 156 206 248 292 356
#     4  11  22  39  60  87 122 156 202 244 299 354
#     4  11  24  38  61  90 122 159 198 247 298 358
#     4  10  22  41  64  88 118 160 203 245 295 359
#     4  10  23  40  61  89 121 157 200 248 299 354
#     4  10  21  37  60  88 117 154 198 244 295 350
#
# _framework density 18.925044
#
# number of rings (size 3 to 8) (size 9 to 14) (size 15 to 20)
#    0.000    1.571    2.857    1.286    6.000    4.571 
#    0.000    0.000    0.000    3.857    0.000    0.000 
#    0.000    0.000    0.000    0.000    0.000    0.000 
#
# Total GULP energy -156157.534992 kJ/mol
# GULP energy per Si atom -5577.054821 kJ/mol
# Density = 1.888197 g / cm^3
# Si number density = 18.925044 Si / 1000 Ang^3
#
#
#
# Elastic Constant Matrix: (Units=GPa)
#
#
# Indices 1 2 3 4 5 6 
#
# 1 94.3784 32.4525 24.8705 0.0000 0.3592 0.0000
# 2 32.4525 92.2709 30.0935 0.0000 8.4361 0.0000
# 3 24.8705 30.0935 61.9137 0.0000 7.4596 0.0000
# 4 0.0000 0.0000 0.0000 20.5395 0.0000 -1.1918
# 5 0.3592 8.4361 7.4596 0.0000 31.7818 0.0000
# 6 0.0000 0.0000 0.0000 -1.1918 0.0000 26.0277
#
#
#
# Elastic Compliance Matrix: (Units=1/GPa)
#
#
# Indices 1 2 3 4 5 6 
#
# 1 0.012731 -0.003440 -0.003638 0.000000 0.001623 0.000000
# 2 -0.003440 0.013934 -0.005094 0.000000 -0.002464 0.000000
# 3 -0.003638 -0.005094 0.020501 0.000000 -0.003418 0.000000
# 4 0.000000 0.000000 0.000000 0.048816 0.000000 0.002235
# 5 0.001623 -0.002464 -0.003418 0.000000 0.032903 0.000000
# 6 0.000000 0.000000 0.000000 0.002235 0.000000 0.038523
#
#
# Mechanical properties :
#
#
# Convention : Reuss Voigt Hill
#
# Bulk Modulus (GPa) = 43.81587 47.04402 45.42995
# Shear Modulus (GPa) = 25.08052 26.41288 25.74670
#
# Velocity S-wave (km/s) = 3.64436 3.73990 3.69244
# Velocity P-wave (km/s) = 6.39617 6.60009 6.49893
#
# Compressibility (1/GPa) = 0.02282278
#
# Stress axis : x y z
#
# Youngs Moduli (GPa) = 78.54993 71.76637 48.77889
#
# Poissons Ratio (x) = 0.24684 0.17744
# Poissons Ratio (y) = 0.27017 0.24849
# Poissons Ratio (z) = 0.28574 0.36559
#
# Static dielectric constant tensor:
#      x y z
#    x 1.695690 0.000000 -0.019340 
#    y 0.000000 1.648980 0.000000 
#    z -0.019340 0.000000 1.673700 
# 
# From -- ./inp_files/75988.got.cif
#   From: 2010.05.17/outbox.cif.g08.bks.cpg/sg12_38_cif.got.tgz:75988.got - 2010.06.03 13:09:07.
