data_PCOD9207372
_publ_section_title
;
Structure prediction by ZEFSAII (Michael W. Deem and Ramdas Pophale) SiO2 
 PCOD9207372
Probable space group: C 2/M
;
_chemical_formula_sum "Si O2"
_cell_formula_units_Z 32
_cell_length_a 29.424151
_cell_length_b 10.711677
_cell_length_c 8.672524
_cell_angle_alpha 90.000000
_cell_angle_beta 145.723432
_cell_angle_gamma 90.000000
_cell_volume 1539.431725
_symmetry_space_group_name_H-M "C 2/M"
_symmetry_group_IT_number 12
_symmetry_cell_setting 'monoclinic'
loop_
_space_group_symop_operation_xyz
x,y,z
-x,y,-z
-x,-y,-z
x,-y,z
1/2+x,1/2+y,z
1/2-x,1/2+y,-z
1/2-x,1/2-y,-z
1/2+x,1/2-y,z
loop_
_atom_site_type_symbol
_atom_site_label
_atom_site_fract_x
_atom_site_fract_y
_atom_site_fract_z
Si Si1 0.580695 0.858972 0.540852
Si Si2 0.191865 0.357191 0.566748
Si Si3 0.118460 0.860866 0.878758
Si Si4 0.052185 0.781766 0.006367
O O1 0.658541 0.848185 0.647860
O O2 0.586615 0.751005 0.683733
O O3 0.504383 0.830417 0.216461
O O4 0.576828 0.000000 0.591783
O O5 0.177448 0.500000 0.475476
O O6 0.136173 0.267361 0.310222
O O7 0.286851 0.334732 0.827242
O O8 0.072853 0.860395 0.913850
O O9 0.111104 0.000000 0.787676
O O10 0.000000 0.839507 0.000000
#
# Coordination Sequence:
#
# PCOD9207372 Si02
#       4
#     8   8   8   8
#     4  10  21  38  62  88 113 146 190 238 284 334
#     4   9  19  38  61  86 114 146 189 238 286 334
#     4  11  23  38  58  85 119 154 186 229 285 343
#     4  10  21  37  58  84 114 149 192 239 281 327
#
# _framework density 20.786891000000001
#
# number of rings (size 3 to 8) (size 9 to 14) (size 15 to 20)
#    0.000    2.000    0.000    3.000    0.000    8.500 
#    0.000    5.000    0.000    0.000    0.000    0.000 
#    0.000    0.000    0.000    0.000    0.000    0.000 
#
# Total GULP energy -89335.290395 kJ/mol
# GULP energy per Si atom -5583.455650 kJ/mol
# Density = 2.073958 g / cm^3
# Si number density = 20.786891 Si / 1000 Ang^3
#
#
#
# Elastic Constant Matrix: (Units=GPa)
#
#
# Indices 1 2 3 4 5 6 
#
# 1 108.1911 43.6132 42.8277 0.0000 8.3773 0.0000
# 2 43.6132 123.9812 50.4074 0.0000 -12.1822 0.0000
# 3 42.8277 50.4074 84.3161 0.0000 10.2412 0.0000
# 4 0.0000 0.0000 0.0000 6.2711 0.0000 -3.2444
# 5 8.3773 -12.1822 10.2412 0.0000 35.5389 0.0000
# 6 0.0000 0.0000 0.0000 -3.2444 0.0000 23.1430
#
#
#
# Elastic Compliance Matrix: (Units=1/GPa)
#
#
# Indices 1 2 3 4 5 6 
#
# 1 0.012266 -0.002875 -0.004188 0.000000 -0.002670 0.000000
# 2 -0.002875 0.012568 -0.006900 0.000000 0.006974 0.000000
# 3 -0.004188 -0.006900 0.018943 0.000000 -0.006837 0.000000
# 4 0.000000 0.000000 0.000000 0.171930 0.000000 0.024102
# 5 -0.002670 0.006974 -0.006837 0.000000 0.033128 0.000000
# 6 0.000000 0.000000 0.000000 0.024102 0.000000 0.046589
#
#
# Mechanical properties :
#
#
# Convention : Reuss Voigt Hill
#
# Bulk Modulus (GPa) = 63.08552 65.57610 64.33081
# Shear Modulus (GPa) = 15.21452 24.96661 20.09057
#
# Velocity S-wave (km/s) = 2.70835 3.46941 3.11223
# Velocity P-wave (km/s) = 6.33994 6.90394 6.62794
#
# Compressibility (1/GPa) = 0.01585150
#
# Stress axis : x y z
#
# Youngs Moduli (GPa) = 81.52527 79.56863 52.79006
#
# Poissons Ratio (x) = 0.22873 0.22106
# Poissons Ratio (y) = 0.23436 0.36427
# Poissons Ratio (z) = 0.34139 0.54906
#
# Static dielectric constant tensor:
#      x y z
#    x 1.770150 0.000000 0.004640 
#    y 0.000000 1.711840 0.000000 
#    z 0.004640 0.000000 1.719470 
# 
# From -- ./inp_files/70435.got.cif
#   From: 2010.05.17/outbox.cif.g08.bks.cpg/sg12_36_cif.got.tgz:70435.got - 2010.06.03 13:09:07.
