data_PCOD9207432
_publ_section_title
;
Structure prediction by ZEFSAII (Michael W. Deem and Ramdas Pophale) SiO2 
 PCOD9207432
Probable space group: C 2/M
;
_chemical_formula_sum "Si O2"
_cell_formula_units_Z 40
_cell_length_a 10.352871
_cell_length_b 8.777148
_cell_length_c 22.558975
_cell_angle_alpha 90.000000
_cell_angle_beta 96.585626
_cell_angle_gamma 90.000000
_cell_volume 2036.378151
_symmetry_space_group_name_H-M "C 2/M"
_symmetry_group_IT_number 12
_symmetry_cell_setting 'monoclinic'
loop_
_space_group_symop_operation_xyz
x,y,z
-x,y,-z
-x,-y,-z
x,-y,z
1/2+x,1/2+y,z
1/2-x,1/2+y,-z
1/2-x,1/2-y,-z
1/2+x,1/2-y,z
loop_
_atom_site_type_symbol
_atom_site_label
_atom_site_fract_x
_atom_site_fract_y
_atom_site_fract_z
Si Si1 0.093276 0.317785 0.759893
Si Si2 0.637728 0.683389 0.034700
Si Si3 0.871441 0.816198 0.828523
Si Si4 0.233776 0.817620 0.564474
Si Si5 0.490752 0.682454 0.631894
O O1 0.085711 0.500000 0.753095
O O2 0.995473 0.262985 0.805948
O O3 0.047714 0.239145 0.697057
O O4 0.240892 0.277934 0.785317
O O5 0.645353 0.500000 0.033382
O O6 0.646609 0.729195 0.103934
O O7 0.500000 0.730303 0.000000
O O8 0.750000 0.750000 0.000000
O O9 0.888579 0.000000 0.827160
O O10 0.250000 0.750000 0.500000
O O11 0.352156 0.756287 0.610430
O O12 0.095880 0.775918 0.586784
O O13 0.239741 0.000000 0.561889
O O14 0.476850 0.500000 0.632047
#
# Coordination Sequence:
#
# PCOD9207432 Si02
#       5
#     8   8   8   8   8
#     4  11  23  38  59  86 114 150 195 239 289 347
#     4  10  21  37  58  85 116 152 194 239 290 347
#     4  10  22  39  58  84 118 153 192 240 292 347
#     4  11  24  41  63  91 121 156 197 239 288 344
#     4  11  24  41  61  87 119 154 194 240 290 345
#
# _framework density 19.642717000000001
#
# number of rings (size 3 to 8) (size 9 to 14) (size 15 to 20)
#    0.000    1.400    0.000    4.800    0.000   11.600 
#    0.000    0.000    0.000    0.000    0.000    0.000 
#    0.000    0.000    0.000    0.000    0.000    0.000 
#
# Total GULP energy -111892.612559 kJ/mol
# GULP energy per Si atom -5594.630628 kJ/mol
# Density = 1.959801 g / cm^3
# Si number density = 19.642717 Si / 1000 Ang^3
#
#
#
# Elastic Constant Matrix: (Units=GPa)
#
#
# Indices 1 2 3 4 5 6 
#
# 1 64.6248 13.0958 -28.7108 0.0000 -1.8115 0.0000
# 2 13.0958 16.9644 -3.6249 0.0000 -3.3927 0.0000
# 3 -28.7108 -3.6249 52.6010 0.0000 -1.4686 0.0000
# 4 0.0000 0.0000 0.0000 34.1638 0.0000 -9.4595
# 5 -1.8115 -3.3927 -1.4686 0.0000 40.8284 0.0000
# 6 0.0000 0.0000 0.0000 -9.4595 0.0000 27.0391
#
#
#
# Elastic Compliance Matrix: (Units=1/GPa)
#
#
# Indices 1 2 3 4 5 6 
#
# 1 0.024063 -0.015969 0.012039 0.000000 0.000174 0.000000
# 2 -0.015969 0.071516 -0.003645 0.000000 0.005103 0.000000
# 3 0.012039 -0.003645 0.025363 0.000000 0.001144 0.000000
# 4 0.000000 0.000000 0.000000 0.032410 0.000000 0.011339
# 5 0.000174 0.005103 0.001144 0.000000 0.024966 0.000000
# 6 0.000000 0.000000 0.000000 0.011339 0.000000 0.040950
#
#
# Mechanical properties :
#
#
# Convention : Reuss Voigt Hill
#
# Bulk Modulus (GPa) = 9.45259 10.63450 10.04355
# Shear Modulus (GPa) = 18.54034 30.63493 24.58763
#
# Velocity S-wave (km/s) = 3.07559 3.95347 3.54184
# Velocity P-wave (km/s) = 4.17553 5.12500 4.67444
#
# Compressibility (1/GPa) = 0.10579106
#
# Stress axis : x y z
#
# Youngs Moduli (GPa) = 41.55727 13.98292 39.42795
#
# Poissons Ratio (x) = 0.22329 -0.47466
# Poissons Ratio (y) = 0.66362 0.14372
# Poissons Ratio (z) = -0.50029 0.05097
#
# Static dielectric constant tensor:
#      x y z
#    x 1.647350 0.000000 -0.000160 
#    y 0.000000 1.661750 0.000000 
#    z -0.000160 0.000000 1.669650 
# 
# From -- ./inp_files/260961.got.cif
#   From: 2010.05.17/outbox.cif.g08.bks.cpg/sg12_131_cif.got.tgz:260961.got - 2010.06.03 13:09:07.
