data_PCOD9207484
_publ_section_title
;
Structure prediction by ZEFSAII (Michael W. Deem and Ramdas Pophale) SiO2 
 PCOD9207484
Probable space group: C 2/M
;
_chemical_formula_sum "Si O2"
_cell_formula_units_Z 56
_cell_length_a 17.809359
_cell_length_b 14.806459
_cell_length_c 21.504505
_cell_angle_alpha 90.000000
_cell_angle_beta 147.738678
_cell_angle_gamma 90.000000
_cell_volume 3026.861628
_symmetry_space_group_name_H-M "C 2/M"
_symmetry_group_IT_number 12
_symmetry_cell_setting 'monoclinic'
loop_
_space_group_symop_operation_xyz
x,y,z
-x,y,-z
-x,-y,-z
x,-y,z
1/2+x,1/2+y,z
1/2-x,1/2+y,-z
1/2-x,1/2-y,-z
1/2+x,1/2-y,z
loop_
_atom_site_type_symbol
_atom_site_label
_atom_site_fract_x
_atom_site_fract_y
_atom_site_fract_z
Si Si1 0.655794 0.391111 0.189832
Si Si2 0.361834 0.738123 0.360145
Si Si3 0.624715 0.799752 0.877644
Si Si4 0.650152 0.605766 0.040682
Si Si5 0.360214 0.103634 0.737716
Si Si6 0.282460 0.103586 0.536930
Si Si7 0.979929 0.231000 0.656613
O O1 0.674818 0.500000 0.210897
O O2 0.773747 0.331194 0.305215
O O3 0.663946 0.365845 0.122072
O O4 0.494974 0.362150 0.093391
O O5 0.500000 0.738203 0.500000
O O6 0.256238 0.658882 0.306474
O O7 0.412980 0.723913 0.325320
O O8 0.707725 0.874653 0.895733
O O9 0.509162 0.844903 0.840740
O O10 0.550751 0.737995 0.773750
O O11 0.750000 0.750000 0.000000
O O12 0.627169 0.500000 0.028894
O O13 0.313223 0.103204 0.632335
O O14 0.373168 0.000000 0.767396
O O15 0.130917 0.149211 0.421381
O O16 0.393867 0.174748 0.586800
O O17 0.292648 0.000000 0.521732
#
# Coordination Sequence:
#
# PCOD9207484 Si02
#       7
#     8   8   8   8   8   8   8
#     4   9  19  34  54  84 115 149 191 236 292 350
#     4  12  22  36  58  86 123 154 189 239 295 353
#     4  11  21  37  61  86 112 153 198 246 297 338
#     4   9  17  34  58  79 106 147 194 237 284 347
#     4  10  22  38  60  88 118 157 203 240 279 350
#     4   9  19  39  62  83 112 153 198 244 290 341
#     4  10  21  37  58  87 115 149 197 242 291 349
#
# _framework density 18.501010000000001
#
# number of rings (size 3 to 8) (size 9 to 14) (size 15 to 20)
#    0.000    2.000    2.857    2.143    0.000    2.286 
#    0.000    1.429    0.000    0.857    0.000    0.000 
#    0.000    0.000    0.000    0.000    0.000    0.000 
#
# Total GULP energy -156127.755816 kJ/mol
# GULP energy per Si atom -5575.991279 kJ/mol
# Density = 1.845890 g / cm^3
# Si number density = 18.501010 Si / 1000 Ang^3
#
#
#
# Elastic Constant Matrix: (Units=GPa)
#
#
# Indices 1 2 3 4 5 6 
#
# 1 71.8883 36.2937 15.0479 0.0004 27.9097 0.0001
# 2 36.2937 107.9382 54.2444 0.0007 12.9230 0.0002
# 3 15.0479 54.2444 102.7348 0.0013 25.1348 0.0004
# 4 0.0004 0.0007 0.0013 25.6104 0.0005 1.1401
# 5 27.9097 12.9230 25.1348 0.0005 24.3545 0.0001
# 6 0.0001 0.0002 0.0004 1.1401 0.0001 22.2239
#
#
#
# Elastic Compliance Matrix: (Units=1/GPa)
#
#
# Indices 1 2 3 4 5 6 
#
# 1 0.037077 -0.013473 0.013818 0.000000 -0.049601 0.000000
# 2 -0.013473 0.017508 -0.011739 0.000000 0.018265 0.000000
# 3 0.013818 -0.011739 0.021750 0.000000 -0.032053 0.000000
# 4 0.000000 0.000000 0.000000 0.039136 0.000000 -0.002008
# 5 -0.049601 0.018265 -0.032053 0.000000 0.121291 0.000000
# 6 0.000000 0.000000 0.000000 -0.002008 0.000000 0.045100
#
#
# Mechanical properties :
#
#
# Convention : Reuss Voigt Hill
#
# Bulk Modulus (GPa) = 18.67512 54.85924 36.76718
# Shear Modulus (GPa) = 15.50398 26.23612 20.87005
#
# Velocity S-wave (km/s) = 2.89798 3.76984 3.36229
# Velocity P-wave (km/s) = 4.61668 6.97605 5.91519
#
# Compressibility (1/GPa) = 0.05354719
#
# Stress axis : x y z
#
# Youngs Moduli (GPa) = 26.97089 57.11837 45.97634
#
# Poissons Ratio (x) = 0.76954 -0.63531
# Poissons Ratio (y) = 0.36337 0.53973
# Poissons Ratio (z) = -0.37269 0.67053
#
# Static dielectric constant tensor:
#      x y z
#    x 1.715540 0.000000 -0.000320 
#    y 0.000000 1.635520 0.000000 
#    z -0.000320 0.000000 1.669320 
# 
# From -- ./inp_files/316799.got.cif
#   From: 2010.05.17/outbox.cif.g08.bks.cpg/sg12_159_cif.got.tgz:316799.got - 2010.06.03 13:09:07.
