data_PCOD9207971
_publ_section_title
;
Structure prediction by ZEFSAII (Michael W. Deem and Ramdas Pophale) SiO2 
 PCOD9207971
Probable space group: C 2/M
;
_chemical_formula_sum "Si O2"
_cell_formula_units_Z 48
_cell_length_a 17.219913
_cell_length_b 15.000929
_cell_length_c 18.185036
_cell_angle_alpha 90.000000
_cell_angle_beta 32.280911
_cell_angle_gamma 90.000000
_cell_volume 2508.776842
_symmetry_space_group_name_H-M "C 2/M"
_symmetry_group_IT_number 12
_symmetry_cell_setting 'monoclinic'
loop_
_space_group_symop_operation_xyz
x,y,z
-x,y,-z
-x,-y,-z
x,-y,z
1/2+x,1/2+y,z
1/2-x,1/2+y,-z
1/2-x,1/2-y,-z
1/2+x,1/2-y,z
loop_
_atom_site_type_symbol
_atom_site_label
_atom_site_fract_x
_atom_site_fract_y
_atom_site_fract_z
Si Si1 0.878225 0.195322 0.437805
Si Si2 0.292664 0.307684 0.823639
Si Si3 0.987719 0.000000 0.172704
Si Si4 0.470906 0.687715 0.936317
Si Si5 0.792000 0.000000 0.458354
Si Si6 0.222974 0.318272 0.706803
Si Si7 0.740917 0.000000 0.934992
Si Si8 0.587215 0.000000 0.751671
O O1 0.750000 0.250000 0.500000
O O2 0.848691 0.203516 0.548228
O O3 0.043194 0.219316 0.287501
O O4 0.863137 0.091240 0.429744
O O5 0.273093 0.310843 0.750840
O O6 0.251784 0.407746 0.881393
O O7 0.183097 0.237044 0.947848
O O8 0.011910 0.088953 0.107196
O O9 0.117378 0.000000 0.127777
O O10 0.831636 0.000000 0.340045
O O11 0.592837 0.748273 0.800829
O O12 0.500000 0.687785 0.000000
O O13 0.637701 0.000000 0.625306
O O14 0.157130 0.414128 0.736308
O O15 0.585776 0.000000 0.100339
#
# Coordination Sequence:
#
# PCOD9207971 Si02
#       8
#     8   8   4   8   4   8   4   4
#     4  11  22  39  61  88 124 165 205 251 304 367
#     4  11  22  39  60  94 124 157 208 251 315 369
#     4  12  23  41  59  84 124 169 207 255 297 361
#     4  10  23  40  63  88 118 163 212 256 305 360
#     4  10  22  39  56  85 118 156 202 236 307 364
#     4  10  21  37  63  90 124 164 198 255 306 373
#     4  12  23  37  64  93 130 159 195 256 321 371
#     4  10  21  37  60  95 126 156 197 245 315 376
#
# _framework density 19.132829000000001
#
# number of rings (size 3 to 8) (size 9 to 14) (size 15 to 20)
#    0.000    1.333    3.333    2.250    0.000    4.000 
#    0.000    3.333    0.000    0.000    0.000    9.333 
#    0.000    0.000    0.000    0.000    0.000    0.000 
#
# Total GULP energy -133946.500404 kJ/mol
# GULP energy per Si atom -5581.104183 kJ/mol
# Density = 1.908928 g / cm^3
# Si number density = 19.132829 Si / 1000 Ang^3
#
#
#
# Elastic Constant Matrix: (Units=GPa)
#
#
# Indices 1 2 3 4 5 6 
#
# 1 30.2704 26.1818 26.0382 -0.0001 -17.6100 0.0000
# 2 26.1818 138.4610 52.9684 0.0000 -10.3612 0.0000
# 3 26.0382 52.9684 140.1136 -0.0003 -22.0803 0.0001
# 4 -0.0001 0.0000 -0.0003 17.6920 0.0002 -1.8834
# 5 -17.6100 -10.3612 -22.0803 0.0002 28.2257 0.0000
# 6 0.0000 0.0000 0.0001 -1.8834 0.0000 26.8034
#
#
#
# Elastic Compliance Matrix: (Units=1/GPa)
#
#
# Indices 1 2 3 4 5 6 
#
# 1 0.062127 -0.008005 -0.003278 0.000000 0.033258 0.000000
# 2 -0.008005 0.009486 -0.002665 0.000000 -0.003597 0.000000
# 3 -0.003278 -0.002665 0.009441 0.000000 0.004362 0.000000
# 4 0.000000 0.000000 0.000000 0.056949 0.000000 0.004002
# 5 0.033258 -0.003597 0.004362 0.000000 0.058270 0.000000
# 6 0.000000 0.000000 0.000000 0.004002 0.000000 0.037590
#
#
# Mechanical properties :
#
#
# Convention : Reuss Voigt Hill
#
# Bulk Modulus (GPa) = 18.81191 57.69131 38.25161
# Shear Modulus (GPa) = 17.89032 28.12132 23.00582
#
# Velocity S-wave (km/s) = 3.06119 3.83795 3.47136
# Velocity P-wave (km/s) = 4.72738 7.06104 6.00860
#
# Compressibility (1/GPa) = 0.05315782
#
# Stress axis : x y z
#
# Youngs Moduli (GPa) = 16.09599 105.41393 105.91710
#
# Poissons Ratio (x) = 0.84382 0.34722
# Poissons Ratio (y) = 0.12885 0.28232
# Poissons Ratio (z) = 0.05277 0.28098
#
# Static dielectric constant tensor:
#      x y z
#    x 1.659470 0.000000 0.013230 
#    y 0.000000 1.656780 0.000000 
#    z 0.013230 0.000000 1.693760 
# 
# From -- ./inp_files/278110.got.cif
#   From: 2010.05.17/outbox.cif.g08.bks.cpg/sg12_140_cif.got.tgz:278110.got - 2010.06.03 13:09:07.
