data_PCOD9207846
_publ_section_title
;
Structure prediction by ZEFSAII (Michael W. Deem and Ramdas Pophale) SiO2 
 PCOD9207846
Probable space group: C 2/M
;
_chemical_formula_sum "Si O2"
_cell_formula_units_Z 48
_cell_length_a 29.027414
_cell_length_b 9.286351
_cell_length_c 14.808900
_cell_angle_alpha 90.000000
_cell_angle_beta 38.335893
_cell_angle_gamma 90.000000
_cell_volume 2476.038498
_symmetry_space_group_name_H-M "C 2/M"
_symmetry_group_IT_number 12
_symmetry_cell_setting 'monoclinic'
loop_
_space_group_symop_operation_xyz
x,y,z
-x,y,-z
-x,-y,-z
x,-y,z
1/2+x,1/2+y,z
1/2-x,1/2+y,-z
1/2-x,1/2-y,-z
1/2+x,1/2-y,z
loop_
_atom_site_type_symbol
_atom_site_label
_atom_site_fract_x
_atom_site_fract_y
_atom_site_fract_z
Si Si1 0.766423 0.326464 0.879661
Si Si2 0.570515 0.827741 0.453350
Si Si3 0.841740 0.671961 0.094224
Si Si4 0.491021 0.830012 0.118768
Si Si5 0.760422 0.663701 0.393214
Si Si6 0.407685 0.664844 0.396783
O O1 0.759820 0.500000 0.896975
O O2 0.850301 0.293981 0.715764
O O3 0.706925 0.262197 0.900560
O O4 0.750000 0.250000 0.000000
O O5 0.500000 0.788971 0.500000
O O6 0.564958 0.749887 0.557892
O O7 0.568877 0.000000 0.470118
O O8 0.824692 0.500000 0.111911
O O9 0.819643 0.717622 0.229843
O O10 0.929953 0.688461 0.952333
O O11 0.432500 0.740508 0.266148
O O12 0.472104 0.000000 0.148538
O O13 0.500000 0.787961 0.000000
O O14 0.780231 0.500000 0.386276
O O15 0.750000 0.750000 0.500000
O O16 0.681562 0.664844 0.463733
O O17 0.433596 0.500000 0.358047
#
# Coordination Sequence:
#
# PCOD9207846 Si02
#       6
#     8   8   8   8   8   8
#     4  11  24  41  64  92 122 157 198 250 304 360
#     4  10  23  43  65  89 118 159 206 245 294 364
#     4  10  21  40  62  86 121 160 202 248 294 356
#     4  10  22  40  63  88 120 166 210 246 292 357
#     4  10  21  37  60  88 118 155 198 245 297 353
#     4  11  23  39  61  91 125 157 195 253 309 353
#
# _framework density 19.385805999999999
#
# number of rings (size 3 to 8) (size 9 to 14) (size 15 to 20)
#    0.000    1.667    1.667    2.000    2.333    5.333 
#    0.000    0.000    0.000    0.000    0.000    0.000 
#    0.000    0.000    0.000    0.000    0.000    0.000 
#
# Total GULP energy -134077.822933 kJ/mol
# GULP energy per Si atom -5586.575956 kJ/mol
# Density = 1.934168 g / cm^3
# Si number density = 19.385806 Si / 1000 Ang^3
#
#
#
# Elastic Constant Matrix: (Units=GPa)
#
#
# Indices 1 2 3 4 5 6 
#
# 1 88.1979 31.7127 10.0349 0.0000 4.2775 0.0000
# 2 31.7127 45.2631 28.5400 -0.0001 8.3272 0.0001
# 3 10.0349 28.5400 76.2711 0.0000 4.8216 0.0000
# 4 0.0000 -0.0001 0.0000 30.5732 0.0000 6.5938
# 5 4.2775 8.3272 4.8216 0.0000 37.9664 0.0000
# 6 0.0000 0.0001 0.0000 6.5938 0.0000 33.7664
#
#
#
# Elastic Compliance Matrix: (Units=1/GPa)
#
#
# Indices 1 2 3 4 5 6 
#
# 1 0.015576 -0.012723 0.002667 0.000000 0.000697 0.000000
# 2 -0.012723 0.040285 -0.013037 0.000000 -0.005747 0.000000
# 3 0.002667 -0.013037 0.017618 0.000000 0.000321 0.000000
# 4 0.000000 0.000000 0.000000 0.034147 0.000000 -0.006668
# 5 0.000697 -0.005747 0.000321 0.000000 0.027480 0.000000
# 6 0.000000 0.000000 0.000000 -0.006668 0.000000 0.030917
#
#
# Mechanical properties :
#
#
# Convention : Reuss Voigt Hill
#
# Bulk Modulus (GPa) = 36.63862 38.92305 37.78084
# Shear Modulus (GPa) = 22.59329 29.75749 26.17539
#
# Velocity S-wave (km/s) = 3.41758 3.92218 3.67854
# Velocity P-wave (km/s) = 5.87485 6.37440 6.12972
#
# Compressibility (1/GPa) = 0.02729360
#
# Stress axis : x y z
#
# Youngs Moduli (GPa) = 64.20335 24.82343 56.75968
#
# Poissons Ratio (x) = 0.31582 -0.15140
# Poissons Ratio (y) = 0.81685 0.73997
# Poissons Ratio (z) = -0.17126 0.32362
#
# Static dielectric constant tensor:
#      x y z
#    x 1.670900 0.000000 -0.017230 
#    y 0.000000 1.665840 0.000000 
#    z -0.017230 0.000000 1.662350 
# 
# From -- ./inp_files/244623.got.cif
#   From: 2010.05.17/outbox.cif.g08.bks.cpg/sg12_123_cif.got.tgz:244623.got - 2010.06.03 13:09:07.
