data_PCOD9207255
_publ_section_title
;
Structure prediction by ZEFSAII (Michael W. Deem and Ramdas Pophale) SiO2 
 PCOD9207255
Probable space group: C 2/M
;
_chemical_formula_sum "Si O2"
_cell_formula_units_Z 56
_cell_length_a 20.174929
_cell_length_b 7.636918
_cell_length_c 17.415113
_cell_angle_alpha 90.000000
_cell_angle_beta 122.010774
_cell_angle_gamma 90.000000
_cell_volume 2275.233019
_symmetry_space_group_name_H-M "C 2/M"
_symmetry_group_IT_number 12
_symmetry_cell_setting 'monoclinic'
loop_
_space_group_symop_operation_xyz
x,y,z
-x,y,-z
-x,-y,-z
x,-y,z
1/2+x,1/2+y,z
1/2-x,1/2+y,-z
1/2-x,1/2-y,-z
1/2+x,1/2-y,z
loop_
_atom_site_type_symbol
_atom_site_label
_atom_site_fract_x
_atom_site_fract_y
_atom_site_fract_z
Si Si1 0.445463 0.299903 0.401936
Si Si2 0.645038 0.708568 0.380881
Si Si3 0.071666 0.291288 0.182405
Si Si4 0.129028 0.783907 0.792417
Si Si5 0.185330 0.702869 0.570739
Si Si6 0.298210 0.200786 0.847933
Si Si7 0.100221 0.202881 0.947699
O O1 0.500000 0.213665 0.500000
O O2 0.474083 0.500000 0.409105
O O3 0.433003 0.224996 0.309800
O O4 0.360620 0.300261 0.390725
O O5 0.650172 0.500000 0.392939
O O6 0.580788 0.750265 0.277850
O O7 0.728583 0.772505 0.397829
O O8 0.637426 0.783699 0.461346
O O9 0.068837 0.500000 0.170218
O O10 0.148077 0.218896 0.185556
O O11 0.992644 0.216139 0.098766
O O12 0.214318 0.723100 0.817046
O O13 0.115451 0.727793 0.871181
O O14 0.127000 0.000000 0.791485
O O15 0.192174 0.500000 0.597005
O O16 0.283300 0.000000 0.816058
O O17 0.351177 0.203307 0.956784
O O18 0.124210 0.000000 0.965040
#
# Coordination Sequence:
#
# PCOD9207255 Si02
#       7
#     8   8   8   8   8   8   8
#     4  10  21  37  60  86 116 158 204 243 292 357
#     4  10  21  37  59  85 116 156 198 243 294 356
#     4  11  23  38  60  89 121 156 196 245 303 359
#     4   9  20  39  61  87 117 156 202 248 299 355
#     4  10  21  37  57  85 119 153 196 247 299 349
#     4  10  21  40  63  84 116 158 202 249 298 357
#     4  11  23  38  60  89 123 156 197 249 301 359
#
# _framework density 24.612863000000001
#
# number of rings (size 3 to 8) (size 9 to 14) (size 15 to 20)
#    0.000    1.857    0.000    3.429    2.000    6.000 
#    0.000    2.857    0.000    0.000    0.000    0.000 
#    0.000    0.000    0.000    0.000    0.000    0.000 
#
# Total GULP energy -156691.171155 kJ/mol
# GULP energy per Si atom -5596.113256 kJ/mol
# Density = 2.455684 g / cm^3
# Si number density = 24.612863 Si / 1000 Ang^3
#
#
#
# Elastic Constant Matrix: (Units=GPa)
#
#
# Indices 1 2 3 4 5 6 
#
# 1 74.4285 3.5159 3.3263 0.0000 -19.3492 0.0000
# 2 3.5159 59.3319 -2.6054 0.0000 2.7130 0.0000
# 3 3.3263 -2.6054 128.4865 0.0000 -13.9355 0.0000
# 4 0.0000 0.0000 0.0000 20.8841 0.0000 -0.1958
# 5 -19.3492 2.7130 -13.9355 0.0000 34.6348 0.0000
# 6 0.0000 0.0000 0.0000 -0.1958 0.0000 15.4964
#
#
#
# Elastic Compliance Matrix: (Units=1/GPa)
#
#
# Indices 1 2 3 4 5 6 
#
# 1 0.015863 -0.001336 0.000559 0.000000 0.009192 0.000000
# 2 -0.001336 0.017033 0.000161 0.000000 -0.002016 0.000000
# 3 0.000559 0.000161 0.008160 0.000000 0.003583 0.000000
# 4 0.000000 0.000000 0.000000 0.047889 0.000000 0.000605
# 5 0.009192 -0.002016 0.003583 0.000000 0.035607 0.000000
# 6 0.000000 0.000000 0.000000 0.000605 0.000000 0.064539
#
#
# Mechanical properties :
#
#
# Convention : Reuss Voigt Hill
#
# Bulk Modulus (GPa) = 25.10921 30.08006 27.59464
# Shear Modulus (GPa) = 24.55828 31.40373 27.98100
#
# Velocity S-wave (km/s) = 3.16220 3.57586 3.37537
# Velocity P-wave (km/s) = 4.85350 5.41266 5.14069
#
# Compressibility (1/GPa) = 0.03982602
#
# Stress axis : x y z
#
# Youngs Moduli (GPa) = 63.03794 58.71044 122.54401
#
# Poissons Ratio (x) = 0.07843 -0.06852
# Poissons Ratio (y) = 0.08421 -0.01977
# Poissons Ratio (z) = -0.03525 -0.00947
#
# Static dielectric constant tensor:
#      x y z
#    x 1.962460 0.000000 0.013470 
#    y 0.000000 1.956070 0.000000 
#    z 0.013470 0.000000 1.922960 
# 
# From -- ./inp_files/281740.got.cif
#   From: 2010.05.17/outbox.cif.g08.bks.cpg/sg12_141_cif.got.tgz:281740.got - 2010.06.03 13:09:07.
