data_PCOD9207732
_publ_section_title
;
Structure prediction by ZEFSAII (Michael W. Deem and Ramdas Pophale) SiO2 
 PCOD9207732
Probable space group: C 2/M
;
_chemical_formula_sum "Si O2"
_cell_formula_units_Z 58
_cell_length_a 19.918636
_cell_length_b 7.367135
_cell_length_c 20.519979
_cell_angle_alpha 90.000000
_cell_angle_beta 58.522114
_cell_angle_gamma 90.000000
_cell_volume 2568.050714
_symmetry_space_group_name_H-M "C 2/M"
_symmetry_group_IT_number 12
_symmetry_cell_setting 'monoclinic'
loop_
_space_group_symop_operation_xyz
x,y,z
-x,y,-z
-x,-y,-z
x,-y,z
1/2+x,1/2+y,z
1/2-x,1/2+y,-z
1/2-x,1/2-y,-z
1/2+x,1/2-y,z
loop_
_atom_site_type_symbol
_atom_site_label
_atom_site_fract_x
_atom_site_fract_y
_atom_site_fract_z
Si Si1 0.936107 0.718673 0.300396
Si Si2 0.889973 0.281391 0.834500
Si Si3 0.891010 0.720466 0.606013
Si Si4 0.387992 0.287963 0.186175
Si Si5 0.500000 0.000000 0.000000
Si Si6 0.442330 0.289744 0.945981
Si Si7 0.930074 0.279393 0.447448
Si Si8 0.275999 0.777289 0.779394
O O1 0.938772 0.500000 0.300535
O O2 0.881732 0.772140 0.267451
O O3 0.909812 0.782409 0.385031
O O4 0.025563 0.780546 0.238074
O O5 0.891224 0.500000 0.832376
O O6 0.819820 0.220711 0.823086
O O7 0.886034 0.225911 0.911982
O O8 0.888987 0.500000 0.606876
O O9 0.882110 0.780781 0.535549
O O10 0.828340 0.779862 0.690896
O O11 0.978813 0.769675 0.585066
O O12 0.393862 0.500000 0.167356
O O13 0.473711 0.212353 0.124843
O O14 0.312224 0.213776 0.188657
O O15 0.564301 0.840682 0.989952
O O16 0.944808 0.000000 0.963414
O O17 0.926861 0.500000 0.448647
O O18 0.274701 0.000000 0.780258
#
# Coordination Sequence:
#
# PCOD9207732 Si02
#       8
#     8   8   8   8   2   8   8   8
#     4   9  15  25  44  67  96 130 173 225 272 312
#     4   9  15  28  51  79 104 134 182 224 264 308
#     4   8  12  19  35  63  96 127 172 226 278 317
#     4   9  19  32  47  74 106 136 172 216 266 317
#     4  12  22  40  68  90 112 144 176 208 260 306
#     4  10  21  37  59  90 115 140 176 217 255 316
#     4   8  12  19  34  63  96 126 169 231 278 312
#     4   9  15  26  46  71 101 142 180 224 269 319
#
# _framework density 22.585222999999999
#
# number of rings (size 3 to 8) (size 9 to 14) (size 15 to 20)
#    0.000    3.034    2.069    1.034    0.966    0.000 
#    0.000    1.379    0.000    0.828    0.000    2.897 
#    0.000    0.000    0.000    0.000    0.000    0.000 
#
# Total GULP energy -161554.133982 kJ/mol
# GULP energy per Si atom -5570.832206 kJ/mol
# Density = 2.253382 g / cm^3
# Si number density = 22.585223 Si / 1000 Ang^3
#
#
#
# Elastic Constant Matrix: (Units=GPa)
#
#
# Indices 1 2 3 4 5 6 
#
# 1 133.2369 7.1249 34.8330 -0.0013 31.0333 -0.0034
# 2 7.1249 107.1798 -2.0704 -0.0016 2.2941 -0.0067
# 3 34.8330 -2.0704 66.8001 -0.0002 28.8887 -0.0002
# 4 -0.0013 -0.0016 -0.0002 -5.2033 0.0001 8.1972
# 5 31.0333 2.2941 28.8887 0.0001 30.3748 -0.0009
# 6 -0.0034 -0.0067 -0.0002 8.1972 -0.0009 12.4072
#
#
#
# Elastic Compliance Matrix: (Units=1/GPa)
#
#
# Indices 1 2 3 4 5 6 
#
# 1 0.009946 -0.000500 -0.001399 0.000000 -0.008793 0.000002
# 2 -0.000500 0.009411 0.001085 0.000002 -0.001232 0.000003
# 3 -0.001399 0.001085 0.025736 -0.000002 -0.023129 0.000000
# 4 0.000000 0.000002 -0.000002 -0.094171 0.000003 0.062217
# 5 -0.008793 -0.001232 -0.023129 0.000003 0.063996 -0.000001
# 6 0.000002 0.000003 0.000000 0.062217 -0.000001 0.039493
#
#
# Mechanical properties :
#
#
# Convention : Reuss Voigt Hill
#
# Bulk Modulus (GPa) = 23.00712 42.99907 33.00310
# Shear Modulus (GPa) = 70.89463 25.33771 48.11617
#
# Velocity S-wave (km/s) = 5.60874 3.35307 4.62066
# Velocity P-wave (km/s) = 7.22170 5.83701 6.56596
#
# Compressibility (1/GPa) = 0.04346480
#
# Stress axis : x y z
#
# Youngs Moduli (GPa) = 100.54250 106.26215 38.85640
#
# Poissons Ratio (x) = 0.05313 0.05436
# Poissons Ratio (y) = 0.05027 -0.04217
# Poissons Ratio (z) = 0.14067 -0.11532
#
# Static dielectric constant tensor:
#      x y z
#    x 1.825500 0.000000 0.041760 
#    y 0.000000 1.886170 0.000000 
#    z 0.041760 0.000000 1.944630 
# 
# From -- ./inp_files/341933.got.cif
#   From: 2010.05.17/outbox.cif.g08.bks.cpg/sg12_171_cif.got.tgz:341933.got - 2010.06.03 13:09:07.
