data_PCOD9207446
_publ_section_title
;
Structure prediction by ZEFSAII (Michael W. Deem and Ramdas Pophale) SiO2 
 PCOD9207446
Probable space group: C 2/M
;
_chemical_formula_sum "Si O2"
_cell_formula_units_Z 64
_cell_length_a 24.007388
_cell_length_b 18.799995
_cell_length_c 13.789699
_cell_angle_alpha 90.000000
_cell_angle_beta 33.614797
_cell_angle_gamma 90.000000
_cell_volume 3445.551302
_symmetry_space_group_name_H-M "C 2/M"
_symmetry_group_IT_number 12
_symmetry_cell_setting 'monoclinic'
loop_
_space_group_symop_operation_xyz
x,y,z
-x,y,-z
-x,-y,-z
x,-y,z
1/2+x,1/2+y,z
1/2-x,1/2+y,-z
1/2-x,1/2-y,-z
1/2+x,1/2-y,z
loop_
_atom_site_type_symbol
_atom_site_label
_atom_site_fract_x
_atom_site_fract_y
_atom_site_fract_z
Si Si1 0.839983 0.577160 0.359424
Si Si2 0.526477 0.704638 0.713369
Si Si3 0.574986 0.799887 0.977538
Si Si4 0.742763 0.212018 0.613505
Si Si5 0.780062 0.417644 0.659139
Si Si6 0.953620 0.084175 0.960356
Si Si7 0.564564 0.080585 0.125318
Si Si8 0.480555 0.169490 0.414810
O O1 0.826015 0.500000 0.335439
O O2 0.810200 0.637317 0.329584
O O3 0.772377 0.585709 0.553388
O O4 0.952854 0.580580 0.238104
O O5 0.495831 0.757023 0.845943
O O6 0.644142 0.700436 0.520570
O O7 0.492184 0.630187 0.812037
O O8 0.492734 0.752864 0.669836
O O9 0.620703 0.864166 0.974487
O O10 0.500000 0.820850 0.000000
O O11 0.666124 0.753557 0.800988
O O12 0.750000 0.250000 0.500000
O O13 0.814455 0.500000 0.630758
O O14 0.865779 0.360157 0.563393
O O15 0.667862 0.408990 0.861681
O O16 0.978283 0.000000 0.914233
O O17 0.000000 0.106247 0.000000
O O18 0.548138 0.113764 0.255126
O O19 0.601370 0.000000 0.073914
O O20 0.500000 0.168270 0.500000
#
# Coordination Sequence:
#
# PCOD9207446 Si02
#       8
#     8   8   8   8   8   8   8   8
#     4   9  17  29  47  76 110 142 180 217 262 334
#     4  11  24  35  54  81 111 147 194 242 286 338
#     4  11  20  33  48  77 115 152 188 221 276 342
#     4  12  21  31  50  75 109 155 189 222 274 340
#     4   9  18  33  56  84 113 148 189 235 283 331
#     4  10  21  37  58  85 120 155 187 227 276 341
#     4   9  18  33  52  79 114 147 181 226 280 346
#     4  10  21  39  59  84 110 145 195 251 302 339
#
# _framework density 18.574676
#
# number of rings (size 3 to 8) (size 9 to 14) (size 15 to 20)
#    0.000    1.875    2.500    3.750    3.500    3.250 
#    0.000    0.625    0.000    0.375    0.000    0.000 
#    0.000    0.000    0.000    0.000    0.000    0.000 
#
# Total GULP energy -178158.002384 kJ/mol
# GULP energy per Si atom -5567.437575 kJ/mol
# Density = 1.853240 g / cm^3
# Si number density = 18.574676 Si / 1000 Ang^3
#
#
#
# Elastic Constant Matrix: (Units=GPa)
#
#
# Indices 1 2 3 4 5 6 
#
# 1 35.7591 23.5947 24.5044 0.0000 18.2003 0.0000
# 2 23.5947 100.2427 19.8692 0.0000 13.9395 0.0000
# 3 24.5044 19.8692 99.2418 0.0000 3.8753 0.0000
# 4 0.0000 0.0000 0.0000 22.1366 0.0000 1.1617
# 5 18.2003 13.9395 3.8753 0.0000 28.2977 0.0000
# 6 0.0000 0.0000 0.0000 1.1617 0.0000 13.2068
#
#
#
# Elastic Compliance Matrix: (Units=1/GPa)
#
#
# Indices 1 2 3 4 5 6 
#
# 1 0.055891 -0.006590 -0.011264 0.000000 -0.031159 0.000000
# 2 -0.006590 0.011875 -0.000691 0.000000 -0.001516 0.000000
# 3 -0.011264 -0.000691 0.012768 0.000000 0.005837 0.000000
# 4 0.000000 0.000000 0.000000 0.045384 0.000000 -0.003992
# 5 -0.031159 -0.001516 0.005837 0.000000 0.055327 0.000000
# 6 0.000000 0.000000 0.000000 -0.003992 0.000000 0.076069
#
#
# Mechanical properties :
#
#
# Convention : Reuss Voigt Hill
#
# Bulk Modulus (GPa) = 23.01840 41.24224 32.13032
# Shear Modulus (GPa) = 16.18723 23.87991 20.03357
#
# Velocity S-wave (km/s) = 2.95527 3.58944 3.28768
# Velocity P-wave (km/s) = 4.90551 6.27937 5.63447
#
# Compressibility (1/GPa) = 0.04344350
#
# Stress axis : x y z
#
# Youngs Moduli (GPa) = 17.89195 84.21245 78.31967
#
# Poissons Ratio (x) = 0.55495 0.88222
# Poissons Ratio (y) = 0.11790 0.05413
# Poissons Ratio (z) = 0.20154 0.05820
#
# Static dielectric constant tensor:
#      x y z
#    x 1.615160 0.000000 -0.009910 
#    y 0.000000 1.739220 0.000000 
#    z -0.009910 0.000000 1.749620 
# 
# From -- ./inp_files/177735.got.cif
#   From: 2010.05.17/outbox.cif.g08.bks.cpg/sg12_89_cif.got.tgz:177735.got - 2010.06.03 13:09:07.
