data_PCOD9207613
_publ_section_title
;
Structure prediction by ZEFSAII (Michael W. Deem and Ramdas Pophale) SiO2 
 PCOD9207613
Probable space group: C 2/M
;
_chemical_formula_sum "Si O2"
_cell_formula_units_Z 64
_cell_length_a 9.316601
_cell_length_b 17.612972
_cell_length_c 28.738126
_cell_angle_alpha 90.000000
_cell_angle_beta 44.667994
_cell_angle_gamma 90.000000
_cell_volume 3315.143918
_symmetry_space_group_name_H-M "C 2/M"
_symmetry_group_IT_number 12
_symmetry_cell_setting 'monoclinic'
loop_
_space_group_symop_operation_xyz
x,y,z
-x,y,-z
-x,-y,-z
x,-y,z
1/2+x,1/2+y,z
1/2-x,1/2+y,-z
1/2-x,1/2-y,-z
1/2+x,1/2-y,z
loop_
_atom_site_type_symbol
_atom_site_label
_atom_site_fract_x
_atom_site_fract_y
_atom_site_fract_z
Si Si1 0.770689 0.407193 0.567304
Si Si2 0.055730 0.907636 0.435396
Si Si3 0.576864 0.911702 0.034663
Si Si4 0.984222 0.408144 0.698894
Si Si5 0.018506 0.085216 0.940708
Si Si6 0.274714 0.834985 0.178440
Si Si7 0.598584 0.175497 0.185423
Si Si8 0.651435 0.408924 0.698724
O O1 0.768209 0.500000 0.568238
O O2 0.603993 0.382435 0.567409
O O3 0.712633 0.381559 0.632837
O O4 0.000000 0.384455 0.500000
O O5 0.288848 0.887931 0.370500
O O6 0.000000 0.881064 0.500000
O O7 0.044952 0.000000 0.438301
O O8 0.424615 0.871389 0.105277
O O9 0.599640 0.000000 0.045177
O O10 0.500000 0.912335 0.000000
O O11 0.803110 0.877143 0.977911
O O12 0.972993 0.500000 0.705838
O O13 0.952237 0.369852 0.755947
O O14 0.812663 0.383431 0.701035
O O15 0.215635 0.131496 0.881772
O O16 0.031271 0.000000 0.916922
O O17 0.000000 0.078507 0.000000
O O18 0.409473 0.821753 0.193558
O O19 0.180392 0.757754 0.180454
O O20 0.078799 0.886408 0.235518
O O21 0.665055 0.500000 0.694513
#
# Coordination Sequence:
#
# PCOD9207613 Si02
#       8
#     8   8   8   8   8   8   8   8
#     4   9  16  28  50  82 118 153 190 238 292 341
#     4   9  16  28  50  82 118 152 191 239 290 342
#     4  10  23  41  65  91 117 149 189 238 291 348
#     4  10  21  37  59  87 117 154 197 242 292 347
#     4  10  21  41  65  90 116 148 190 238 291 348
#     4  12  26  42  59  84 118 156 198 241 292 347
#     4  12  26  41  60  84 117 158 196 242 292 346
#     4  10  21  37  59  86 118 154 196 243 292 348
#
# _framework density 19.305347000000001
#
# number of rings (size 3 to 8) (size 9 to 14) (size 15 to 20)
#    0.000    1.750    1.250    3.000    3.500    6.500 
#    0.000    0.000    0.000    0.750    0.000    5.250 
#    0.000    0.000    0.000    0.000    0.000    0.000 
#
# Total GULP energy -178641.526007 kJ/mol
# GULP energy per Si atom -5582.547688 kJ/mol
# Density = 1.926141 g / cm^3
# Si number density = 19.305347 Si / 1000 Ang^3
#
#
#
# Elastic Constant Matrix: (Units=GPa)
#
#
# Indices 1 2 3 4 5 6 
#
# 1 186.7822 24.5014 74.6880 -0.0008 -8.6398 0.0002
# 2 24.5014 20.3093 18.4058 -0.0003 4.6012 0.0001
# 3 74.6880 18.4058 106.8712 -0.0013 -1.5302 -0.0009
# 4 -0.0008 -0.0003 -0.0013 2.5475 0.0010 9.4135
# 5 -8.6398 4.6012 -1.5302 0.0010 39.0051 -0.0006
# 6 0.0002 0.0001 -0.0009 9.4135 -0.0006 32.1262
#
#
#
# Elastic Compliance Matrix: (Units=1/GPa)
#
#
# Indices 1 2 3 4 5 6 
#
# 1 0.008095 -0.006161 -0.004562 0.000014 0.002341 -0.000004
# 2 -0.006161 0.065177 -0.007053 -0.000094 -0.009330 0.000027
# 3 -0.004562 -0.007053 0.013765 -0.000038 0.000361 0.000012
# 4 0.000014 -0.000094 -0.000038 -4.745147 0.000162 1.390398
# 5 0.002341 -0.009330 0.000361 0.000162 0.027271 -0.000047
# 6 -0.000004 0.000027 0.000012 1.390398 -0.000047 -0.376280
#
#
# Mechanical properties :
#
#
# Convention : Reuss Voigt Hill
#
# Bulk Modulus (GPa) = 19.42348 61.01700 40.22024
# Shear Modulus (GPa) = -1.00920 27.82694 13.40887
#
# Velocity S-wave (km/s) = -0.72380 3.80071 2.63832
# Velocity P-wave (km/s) = 3.06341 7.13691 5.49181
#
# Compressibility (1/GPa) = 0.05148408
#
# Stress axis : x y z
#
# Youngs Moduli (GPa) = 123.53844 15.34292 72.64582
#
# Poissons Ratio (x) = 0.09453 0.33144
# Poissons Ratio (y) = 0.76112 0.51236
# Poissons Ratio (z) = 0.56364 0.10821
#
# Static dielectric constant tensor:
#      x y z
#    x 1.474800 0.000000 0.084940 
#    y 0.000000 1.683940 0.000000 
#    z 0.084940 0.000000 1.625060 
# 
# From -- ./inp_files/372928.got.cif
#   From: 2010.05.17/outbox.cif.g08.bks.cpg/sg12_187_cif.got.tgz:372928.got - 2010.06.03 13:09:07.
