data_PCOD9207316
_publ_section_title
;
Structure prediction by ZEFSAII (Michael W. Deem and Ramdas Pophale) SiO2 
 PCOD9207316
Probable space group: C 2/M
;
_chemical_formula_sum "Si O2"
_cell_formula_units_Z 56
_cell_length_a 19.002954
_cell_length_b 8.853554
_cell_length_c 25.578953
_cell_angle_alpha 90.000000
_cell_angle_beta 133.909721
_cell_angle_gamma 90.000000
_cell_volume 3100.383339
_symmetry_space_group_name_H-M "C 2/M"
_symmetry_group_IT_number 12
_symmetry_cell_setting 'monoclinic'
loop_
_space_group_symop_operation_xyz
x,y,z
-x,y,-z
-x,-y,-z
x,-y,z
1/2+x,1/2+y,z
1/2-x,1/2+y,-z
1/2-x,1/2-y,-z
1/2+x,1/2-y,z
loop_
_atom_site_type_symbol
_atom_site_label
_atom_site_fract_x
_atom_site_fract_y
_atom_site_fract_z
Si Si1 0.195348 0.172020 0.321927
Si Si2 0.994898 0.823091 0.056118
Si Si3 0.592454 0.182987 0.583121
Si Si4 0.785329 0.165237 0.792924
Si Si5 0.987301 0.680783 0.238097
Si Si6 0.644601 0.819281 0.930272
Si Si7 0.403601 0.324016 0.299289
O O1 0.304686 0.230912 0.391185
O O2 0.204542 0.164865 0.264057
O O3 0.097922 0.264414 0.283734
O O4 0.183566 0.000000 0.335973
O O5 0.928014 0.730660 0.060862
O O6 0.106310 0.819463 0.131271
O O7 0.962087 0.000000 0.038780
O O8 0.000000 0.764828 0.000000
O O9 0.500000 0.222668 0.500000
O O10 0.580877 0.250342 0.635407
O O11 0.597414 0.000000 0.590345
O O12 0.710881 0.293416 0.771098
O O13 0.745473 0.000000 0.789009
O O14 0.985161 0.500000 0.237790
O O15 0.910118 0.729764 0.152354
O O16 0.958860 0.745956 0.279900
O O17 0.654675 0.000000 0.932997
O O18 0.750000 0.750000 0.000000
O O19 0.426210 0.500000 0.313014
#
# Coordination Sequence:
#
# PCOD9207316 Si02
#       7
#     8   8   8   8   8   8   8
#     4   9  17  33  59  86 111 145 186 229 279 334
#     4  10  21  37  58  82 110 146 189 237 291 348
#     4   9  19  39  65  91 121 154 187 227 280 342
#     4   9  18  35  56  79 111 148 188 234 285 343
#     4  11  23  39  58  81 114 154 196 240 288 344
#     4  11  25  41  58  81 113 153 197 246 298 347
#     4  11  23  36  57  87 118 150 191 238 282 335
#
# _framework density 18.062282
#
# number of rings (size 3 to 8) (size 9 to 14) (size 15 to 20)
#    0.000    2.000    1.429    3.000    2.000    5.143 
#    0.000    0.714    0.000    0.000    0.000    0.000 
#    0.000    0.000    0.000    0.000    0.000    0.000 
#
# Total GULP energy -156047.244436 kJ/mol
# GULP energy per Si atom -5573.115873 kJ/mol
# Density = 1.802117 g / cm^3
# Si number density = 18.062282 Si / 1000 Ang^3
#
#
#
# Elastic Constant Matrix: (Units=GPa)
#
#
# Indices 1 2 3 4 5 6 
#
# 1 107.9052 44.0193 62.7505 0.0000 5.3458 0.0000
# 2 44.0193 61.9602 39.1834 0.0000 3.3213 0.0000
# 3 62.7505 39.1834 108.6790 0.0000 13.5877 0.0000
# 4 0.0000 0.0000 0.0000 24.1948 0.0000 1.6553
# 5 5.3458 3.3213 13.5877 0.0000 21.4883 0.0000
# 6 0.0000 0.0000 0.0000 1.6553 0.0000 32.6535
#
#
#
# Elastic Compliance Matrix: (Units=1/GPa)
#
#
# Indices 1 2 3 4 5 6 
#
# 1 0.016144 -0.007173 -0.006919 0.000000 0.001467 0.000000
# 2 -0.007173 0.024148 -0.004692 0.000000 0.001019 0.000000
# 3 -0.006919 -0.004692 0.015834 0.000000 -0.007566 0.000000
# 4 0.000000 0.000000 0.000000 0.041475 0.000000 -0.002103
# 5 0.001467 0.001019 -0.007566 0.000000 0.050799 0.000000
# 6 0.000000 0.000000 0.000000 -0.002103 0.000000 0.030731
#
#
# Mechanical properties :
#
#
# Convention : Reuss Voigt Hill
#
# Bulk Modulus (GPa) = 53.88416 63.38340 58.63378
# Shear Modulus (GPa) = 22.43301 24.50673 23.46987
#
# Velocity S-wave (km/s) = 3.52800 3.68746 3.60861
# Velocity P-wave (km/s) = 6.81857 7.30052 7.06366
#
# Compressibility (1/GPa) = 0.01855833
#
# Stress axis : x y z
#
# Youngs Moduli (GPa) = 61.94068 41.41122 63.15478
#
# Poissons Ratio (x) = 0.29704 0.43697
# Poissons Ratio (y) = 0.44429 0.29634
# Poissons Ratio (z) = 0.42857 0.19431
#
# Static dielectric constant tensor:
#      x y z
#    x 1.604360 0.000000 0.025180 
#    y 0.000000 1.633530 0.000000 
#    z 0.025180 0.000000 1.476230 
# 
# From -- ./inp_files/342299.got.cif
#   From: 2010.05.17/outbox.cif.g08.bks.cpg/sg12_172_cif.got.tgz:342299.got - 2010.06.03 13:09:07.
