data_PCOD9207496
_publ_section_title
;
Structure prediction by ZEFSAII (Michael W. Deem and Ramdas Pophale) SiO2 
 PCOD9207496
Probable space group: C 2/M
;
_chemical_formula_sum "Si O2"
_cell_formula_units_Z 58
_cell_length_a 18.336458
_cell_length_b 19.596521
_cell_length_c 13.986022
_cell_angle_alpha 90.000000
_cell_angle_beta 140.033483
_cell_angle_gamma 90.000000
_cell_volume 3228.148363
_symmetry_space_group_name_H-M "C 2/M"
_symmetry_group_IT_number 12
_symmetry_cell_setting 'monoclinic'
loop_
_space_group_symop_operation_xyz
x,y,z
-x,y,-z
-x,-y,-z
x,-y,z
1/2+x,1/2+y,z
1/2-x,1/2+y,-z
1/2-x,1/2-y,-z
1/2+x,1/2-y,z
loop_
_atom_site_type_symbol
_atom_site_label
_atom_site_fract_x
_atom_site_fract_y
_atom_site_fract_z
Si Si1 0.735378 0.580124 0.437921
Si Si2 0.052927 0.419526 0.226967
Si Si3 0.000000 0.000000 0.500000
Si Si4 0.569142 0.331045 0.162494
Si Si5 0.892785 0.127314 0.499207
Si Si6 0.912952 0.809921 0.188235
Si Si7 0.165616 0.313980 0.198349
Si Si8 0.841498 0.332214 0.034329
O O1 0.728070 0.500000 0.411149
O O2 0.862952 0.596997 0.599835
O O3 0.677863 0.622978 0.296327
O O4 0.662251 0.599210 0.458128
O O5 0.059970 0.500000 0.215023
O O6 0.099671 0.376659 0.183179
O O7 0.927022 0.395224 0.126009
O O8 0.080348 0.060864 0.535492
O O9 0.481829 0.331643 0.163056
O O10 0.614565 0.254418 0.192211
O O11 0.500000 0.353078 0.000000
O O12 0.797469 0.174547 0.355619
O O13 0.005823 0.168868 0.642507
O O14 0.885967 0.729729 0.145580
O O15 0.790067 0.845191 0.074055
O O16 0.152984 0.310184 0.071699
#
# Coordination Sequence:
#
# PCOD9207496 Si02
#       8
#     8   8   2   8   8   8   8   8
#     4   9  20  37  57  87 114 149 197 248 289 347
#     4  10  21  37  58  87 121 157 196 240 298 366
#     4  12  20  40  56  88 128 156 182 240 296 370
#     4  11  20  37  63  86 115 152 200 253 295 341
#     4  10  22  35  58  81 118 154 192 232 295 355
#     4  10  22  38  55  81 117 156 193 243 295 355
#     4  11  21  36  59  91 115 153 201 249 287 351
#     4  11  21  37  56  81 122 151 193 242 294 351
#
# _framework density 17.966956
#
# number of rings (size 3 to 8) (size 9 to 14) (size 15 to 20)
#    0.000    1.655    3.448    1.241    2.897    3.034 
#    3.724    0.000    0.000    0.828    0.000    1.931 
#    0.000    0.000    0.000    0.000    0.000    0.000 
#
# Total GULP energy -161514.126837 kJ/mol
# GULP energy per Si atom -5569.452650 kJ/mol
# Density = 1.792606 g / cm^3
# Si number density = 17.966956 Si / 1000 Ang^3
#
#
#
# Elastic Constant Matrix: (Units=GPa)
#
#
# Indices 1 2 3 4 5 6 
#
# 1 59.1014 29.0526 41.9756 0.0000 19.9803 0.0000
# 2 29.0526 71.9547 58.4044 0.0000 4.6962 0.0000
# 3 41.9756 58.4044 116.7007 0.0000 26.2393 0.0000
# 4 0.0000 0.0000 0.0000 24.8007 0.0000 12.7081
# 5 19.9803 4.6962 26.2393 0.0000 24.4472 0.0000
# 6 0.0000 0.0000 0.0000 12.7081 0.0000 12.8193
#
#
#
# Elastic Compliance Matrix: (Units=1/GPa)
#
#
# Indices 1 2 3 4 5 6 
#
# 1 0.029611 -0.009777 -0.000974 0.000000 -0.021277 0.000000
# 2 -0.009777 0.028942 -0.015177 0.000000 0.018720 0.000000
# 3 -0.000974 -0.015177 0.020668 0.000000 -0.018472 0.000000
# 4 0.000000 0.000000 0.000000 0.081948 0.000000 -0.081237
# 5 -0.021277 0.018720 -0.018472 0.000000 0.074524 0.000000
# 6 0.000000 0.000000 0.000000 -0.081237 0.000000 0.158539
#
#
# Mechanical properties :
#
#
# Convention : Reuss Voigt Hill
#
# Bulk Modulus (GPa) = 36.54162 56.29133 46.41648
# Shear Modulus (GPa) = 10.98396 20.30171 15.64283
#
# Velocity S-wave (km/s) = 2.47522 3.36512 2.95387
# Velocity P-wave (km/s) = 5.34334 6.81888 6.12570
#
# Compressibility (1/GPa) = 0.02736605
#
# Stress axis : x y z
#
# Youngs Moduli (GPa) = 33.77153 34.55142 48.38394
#
# Poissons Ratio (x) = 0.33780 0.04711
# Poissons Ratio (y) = 0.33018 0.73433
# Poissons Ratio (z) = 0.03288 0.52439
#
# Static dielectric constant tensor:
#      x y z
#    x 1.621440 0.000000 0.005630 
#    y 0.000000 1.586880 0.000000 
#    z 0.005630 0.000000 1.654790 
# 
# From -- ./inp_files/227277.got.cif
#   From: 2010.05.17/outbox.cif.g08.bks.cpg/sg12_114_cif.got.tgz:227277.got - 2010.06.03 13:09:07.
