data_PCOD9207294
_publ_section_title
;
Structure prediction by ZEFSAII (Michael W. Deem and Ramdas Pophale) SiO2 
 PCOD9207294
Probable space group: C 2/M
;
_chemical_formula_sum "Si O2"
_cell_formula_units_Z 38
_cell_length_a 23.588878
_cell_length_b 14.628700
_cell_length_c 14.088628
_cell_angle_alpha 90.000000
_cell_angle_beta 159.807704
_cell_angle_gamma 90.000000
_cell_volume 1678.097871
_symmetry_space_group_name_H-M "C 2/M"
_symmetry_group_IT_number 12
_symmetry_cell_setting 'monoclinic'
loop_
_space_group_symop_operation_xyz
x,y,z
-x,y,-z
-x,-y,-z
x,-y,z
1/2+x,1/2+y,z
1/2-x,1/2+y,-z
1/2-x,1/2-y,-z
1/2+x,1/2-y,z
loop_
_atom_site_type_symbol
_atom_site_label
_atom_site_fract_x
_atom_site_fract_y
_atom_site_fract_z
Si Si1 0.000000 0.000000 0.500000
Si Si2 0.500000 0.257836 0.000000
Si Si3 0.119724 0.233601 0.879191
Si Si4 0.402579 0.603614 0.987741
Si Si5 0.700070 0.650009 0.693755
Si Si6 0.210421 0.599495 0.375221
O O1 0.094558 0.078461 0.586621
O O2 0.625725 0.320877 0.137809
O O3 0.396553 0.188547 0.770686
O O4 0.144281 0.141254 0.981589
O O5 0.936342 0.226469 0.550238
O O6 0.250000 0.250000 0.000000
O O7 0.158583 0.311656 0.016384
O O8 0.343772 0.500000 0.878653
O O9 0.601650 0.602367 0.296407
O O10 0.770551 0.607021 0.708896
O O11 0.142726 0.500000 0.296813
#
# Coordination Sequence:
#
# PCOD9207294 Si02
#       6
#     2   4   8   8   8   8
#     4  12  20  36  68  92 114 166 208 244 296 394
#     4  12  20  38  62  84 118 164 200 260 314 356
#     4  11  21  38  63  90 119 161 201 256 308 362
#     4  10  23  38  60  86 121 161 210 249 304 378
#     4  11  22  37  63  90 122 158 206 247 306 369
#     4  10  21  37  57  89 119 155 206 257 302 363
#
# _framework density 22.644686
#
# number of rings (size 3 to 8) (size 9 to 14) (size 15 to 20)
#    0.000    1.263    5.263    1.263    1.474    0.000 
#    0.000    0.000    2.316    5.053    0.000    0.000 
#    0.000    0.000    0.000    0.000    0.000    0.000 
#
# Total GULP energy -105806.440482 kJ/mol
# GULP energy per Si atom -5568.760025 kJ/mol
# Density = 2.259315 g / cm^3
# Si number density = 22.644686 Si / 1000 Ang^3
#
#
#
# Elastic Constant Matrix: (Units=GPa)
#
#
# Indices 1 2 3 4 5 6 
#
# 1 107.7991 48.8744 0.8598 0.0000 15.2331 0.0000
# 2 48.8744 132.1198 29.4322 0.0000 -2.5662 0.0000
# 3 0.8598 29.4322 69.5828 0.0000 0.9570 0.0000
# 4 0.0000 0.0000 0.0000 6.8892 0.0000 7.2835
# 5 15.2331 -2.5662 0.9570 0.0000 20.8291 0.0000
# 6 0.0000 0.0000 0.0000 7.2835 0.0000 41.7793
#
#
#
# Elastic Compliance Matrix: (Units=1/GPa)
#
#
# Indices 1 2 3 4 5 6 
#
# 1 0.013313 -0.005658 0.002374 0.000000 -0.010542 0.000000
# 2 -0.005658 0.010791 -0.004573 0.000000 0.005678 0.000000
# 3 0.002374 -0.004573 0.016318 0.000000 -0.003049 0.000000
# 4 0.000000 0.000000 0.000000 0.177955 0.000000 -0.031023
# 5 -0.010542 0.005678 -0.003049 0.000000 0.056559 0.000000
# 6 0.000000 0.000000 0.000000 -0.031023 0.000000 0.029344
#
#
# Mechanical properties :
#
#
# Convention : Reuss Voigt Hill
#
# Bulk Modulus (GPa) = 40.47315 51.98161 46.22738
# Shear Modulus (GPa) = 15.23327 29.25520 22.24424
#
# Velocity S-wave (km/s) = 2.59648 3.59823 3.13759
# Velocity P-wave (km/s) = 5.18660 6.34572 5.79522
#
# Compressibility (1/GPa) = 0.02470774
#
# Stress axis : x y z
#
# Youngs Moduli (GPa) = 75.11646 92.67051 61.28173
#
# Poissons Ratio (x) = 0.52435 -0.14547
# Poissons Ratio (y) = 0.42503 0.28021
# Poissons Ratio (z) = -0.17831 0.42374
#
# Static dielectric constant tensor:
#      x y z
#    x 1.832620 0.000000 -0.041460 
#    y 0.000000 1.905140 0.000000 
#    z -0.041460 0.000000 1.906610 
# 
# From -- ./inp_files/129336.got.cif
#   From: 2010.05.17/outbox.cif.g08.bks.cpg/sg12_65_cif.got.tgz:129336.got - 2010.06.03 13:09:07.
