data_PCOD9207159
_publ_section_title
;
Structure prediction by ZEFSAII (Michael W. Deem and Ramdas Pophale) SiO2 
 PCOD9207159
Probable space group: C 2/M
;
_chemical_formula_sum "Si O2"
_cell_formula_units_Z 64
_cell_length_a 15.860256
_cell_length_b 7.746194
_cell_length_c 29.451542
_cell_angle_alpha 90.000000
_cell_angle_beta 123.665861
_cell_angle_gamma 90.000000
_cell_volume 3011.469332
_symmetry_space_group_name_H-M "C 2/M"
_symmetry_group_IT_number 12
_symmetry_cell_setting 'monoclinic'
loop_
_space_group_symop_operation_xyz
x,y,z
-x,y,-z
-x,-y,-z
x,-y,z
1/2+x,1/2+y,z
1/2-x,1/2+y,-z
1/2-x,1/2-y,-z
1/2+x,1/2-y,z
loop_
_atom_site_type_symbol
_atom_site_label
_atom_site_fract_x
_atom_site_fract_y
_atom_site_fract_z
Si Si1 0.655820 0.204782 0.748213
Si Si2 0.294322 0.208231 0.135231
Si Si3 0.963273 0.790220 0.632313
Si Si4 0.041152 0.200445 0.559098
Si Si5 0.230661 0.801842 0.375772
Si Si6 0.984893 0.711646 0.137195
Si Si7 0.940531 0.706255 0.938532
Si Si8 0.841954 0.300572 0.742035
O O1 0.668410 0.265671 0.803718
O O2 0.546008 0.236554 0.694281
O O3 0.740164 0.291239 0.741636
O O4 0.675960 0.000000 0.753277
O O5 0.374196 0.266215 0.121041
O O6 0.179146 0.262947 0.093595
O O7 0.296681 0.000000 0.136030
O O8 0.999085 0.725457 0.593740
O O9 0.851574 0.731520 0.613401
O O10 0.962592 0.000000 0.632104
O O11 0.162499 0.207716 0.595389
O O12 0.000000 0.278976 0.500000
O O13 0.008592 0.000000 0.549680
O O14 0.177957 0.795015 0.310775
O O15 0.253526 0.000000 0.394171
O O16 0.988009 0.500000 0.137581
O O17 0.017837 0.773160 0.097287
O O18 0.067254 0.766048 0.199391
O O19 0.956592 0.500000 0.942355
O O20 0.000000 0.776005 0.000000
O O21 0.863858 0.500000 0.737065
#
# Coordination Sequence:
#
# PCOD9207159 Si02
#       8
#     8   8   8   8   8   8   8   8
#     4  11  21  34  57  88 117 147 187 235 284 339
#     4  10  21  37  57  82 114 147 184 230 280 336
#     4  10  22  39  59  85 119 155 187 231 287 338
#     4  10  22  41  62  83 112 155 200 236 278 337
#     4  11  23  38  58  88 120 149 189 240 286 332
#     4   9  19  36  57  81 112 150 185 224 280 340
#     4  10  21  38  58  80 109 147 192 236 278 329
#     4  11  20  35  60  84 114 155 188 224 287 350
#
# _framework density 21.252084
#
# number of rings (size 3 to 8) (size 9 to 14) (size 15 to 20)
#    0.000    1.750    2.500    1.875    0.000    4.000 
#    0.000    1.875    0.000    0.000    0.000    0.000 
#    0.000    0.000    0.000    0.000    0.000    0.000 
#
# Total GULP energy -178834.454707 kJ/mol
# GULP energy per Si atom -5588.576710 kJ/mol
# Density = 2.120371 g / cm^3
# Si number density = 21.252084 Si / 1000 Ang^3
#
#
#
# Elastic Constant Matrix: (Units=GPa)
#
#
# Indices 1 2 3 4 5 6 
#
# 1 156.2173 -8.3185 66.2704 0.0000 4.0322 0.0000
# 2 -8.3185 33.3396 -1.7716 0.0000 -2.4526 0.0000
# 3 66.2704 -1.7716 132.7374 0.0000 -16.4429 0.0000
# 4 0.0000 0.0000 0.0000 -45.1212 0.0000 21.6124
# 5 4.0322 -2.4526 -16.4429 0.0000 -0.5104 0.0000
# 6 0.0000 0.0000 0.0000 21.6124 0.0000 1.9958
#
#
#
# Elastic Compliance Matrix: (Units=1/GPa)
#
#
# Indices 1 2 3 4 5 6 
#
# 1 0.005862 0.003291 0.000179 0.000000 0.024721 0.000000
# 2 0.003291 0.029534 -0.003127 0.000000 -0.015166 0.000000
# 3 0.000179 -0.003127 0.001892 0.000000 -0.044487 0.000000
# 4 0.000000 0.000000 0.000000 -0.003582 0.000000 0.038791
# 5 0.024721 -0.015166 -0.044487 0.000000 -0.257864 0.000000
# 6 0.000000 0.000000 0.000000 0.038791 0.000000 0.080986
#
#
# Mechanical properties :
#
#
# Convention : Reuss Voigt Hill
#
# Bulk Modulus (GPa) = 26.33453 48.29497 37.31475
# Shear Modulus (GPa) = -38.10968 9.01374 -14.54797
#
# Velocity S-wave (km/s) = -4.23924 2.06169 -2.61922
# Velocity P-wave (km/s) = 3.39752 5.33306 2.90675
#
# Compressibility (1/GPa) = 0.03797295
#
# Stress axis : x y z
#
# Youngs Moduli (GPa) = 170.57762 33.85972 528.67562
#
# Poissons Ratio (x) = -0.11143 -0.09480
# Poissons Ratio (y) = -0.56134 1.65341
# Poissons Ratio (z) = -0.03059 0.10589
#
# Static dielectric constant tensor:
#      x y z
#    x 1.755710 0.000000 -0.021280 
#    y 0.000000 1.791320 0.000000 
#    z -0.021280 0.000000 1.736920 
# 
# From -- ./inp_files/375619.got.cif
#   From: 2010.05.17/outbox.cif.g08.bks.cpg/sg12_188_cif.got.tgz:375619.got - 2010.06.03 13:09:07.
