data_PCOD9207715
_publ_section_title
;
Structure prediction by ZEFSAII (Michael W. Deem and Ramdas Pophale) SiO2 
 PCOD9207715
Probable space group: C 2/M
;
_chemical_formula_sum "Si O2"
_cell_formula_units_Z 44
_cell_length_a 14.990518
_cell_length_b 14.392833
_cell_length_c 12.689049
_cell_angle_alpha 90.000000
_cell_angle_beta 124.354790
_cell_angle_gamma 90.000000
_cell_volume 2260.164953
_symmetry_space_group_name_H-M "C 2/M"
_symmetry_group_IT_number 12
_symmetry_cell_setting 'monoclinic'
loop_
_space_group_symop_operation_xyz
x,y,z
-x,y,-z
-x,-y,-z
x,-y,z
1/2+x,1/2+y,z
1/2-x,1/2+y,-z
1/2-x,1/2-y,-z
1/2+x,1/2-y,z
loop_
_atom_site_type_symbol
_atom_site_label
_atom_site_fract_x
_atom_site_fract_y
_atom_site_fract_z
Si Si1 0.500000 0.664707 0.500000
Si Si2 0.068674 0.243821 0.147106
Si Si3 0.101014 0.893362 0.356316
Si Si4 0.818466 0.296824 0.278646
Si Si5 0.164147 0.393321 0.502597
Si Si6 0.468994 0.887491 0.227806
O O1 0.460802 0.609339 0.575511
O O2 0.399675 0.723896 0.387231
O O3 0.053783 0.171197 0.233369
O O4 0.196046 0.240636 0.202442
O O5 0.021826 0.341794 0.159311
O O6 0.000000 0.216049 0.000000
O O7 0.221735 0.854672 0.460036
O O8 0.109148 0.000000 0.324304
O O9 0.830679 0.382365 0.368834
O O10 0.860849 0.334761 0.194862
O O11 0.163860 0.500000 0.471029
O O12 0.055868 0.357674 0.376825
O O13 0.456611 0.000000 0.214355
#
# Coordination Sequence:
#
# PCOD9207715 Si02
#       6
#     4   8   8   8   8   8
#     4  12  19  34  61  94 122 148 193 260 319 372
#     4  11  25  43  62  84 127 170 211 248 297 363
#     4  10  21  37  59  89 123 161 199 247 311 372
#     4  11  20  35  63  91 122 158 201 251 310 365
#     4   9  17  32  57  90 121 149 192 252 312 364
#     4  11  21  38  63  94 123 159 207 259 311 361
#
# _framework density 19.467604999999999
#
# number of rings (size 3 to 8) (size 9 to 14) (size 15 to 20)
#    0.000    1.455    3.636    1.909    0.000    6.545 
#    0.000    0.909    0.000    0.000    0.000    0.000 
#    0.000    0.000    0.000    0.000    0.000    0.000 
#
# Total GULP energy -122608.601475 kJ/mol
# GULP energy per Si atom -5573.118249 kJ/mol
# Density = 1.942330 g / cm^3
# Si number density = 19.467605 Si / 1000 Ang^3
#
#
#
# Elastic Constant Matrix: (Units=GPa)
#
#
# Indices 1 2 3 4 5 6 
#
# 1 116.5274 37.5994 46.9100 0.0000 -6.6584 0.0000
# 2 37.5994 89.0480 24.4378 0.0000 -4.7194 0.0000
# 3 46.9100 24.4378 56.1004 0.0000 5.5118 0.0000
# 4 0.0000 0.0000 0.0000 10.4315 0.0000 -5.1879
# 5 -6.6584 -4.7194 5.5118 0.0000 16.9213 0.0000
# 6 0.0000 0.0000 0.0000 -5.1879 0.0000 19.5278
#
#
#
# Elastic Compliance Matrix: (Units=1/GPa)
#
#
# Indices 1 2 3 4 5 6 
#
# 1 0.014803 -0.002411 -0.012225 0.000000 0.009134 0.000000
# 2 -0.002411 0.013672 -0.004360 0.000000 0.004284 0.000000
# 3 -0.012225 -0.004360 0.031549 0.000000 -0.016303 0.000000
# 4 0.000000 0.000000 0.000000 0.110458 0.000000 0.029345
# 5 0.009134 0.004284 -0.016303 0.000000 0.069197 0.000000
# 6 0.000000 0.000000 0.000000 0.029345 0.000000 0.059005
#
#
# Mechanical properties :
#
#
# Convention : Reuss Voigt Hill
#
# Bulk Modulus (GPa) = 45.39209 53.28556 49.33883
# Shear Modulus (GPa) = 14.53403 19.55802 17.04603
#
# Velocity S-wave (km/s) = 2.73532 3.17305 2.96228
# Velocity P-wave (km/s) = 5.77437 6.39180 6.09091
#
# Compressibility (1/GPa) = 0.02203027
#
# Stress axis : x y z
#
# Youngs Moduli (GPa) = 67.55351 73.14383 31.69710
#
# Poissons Ratio (x) = 0.17637 0.38750
# Poissons Ratio (y) = 0.16289 0.13820
# Poissons Ratio (z) = 0.82585 0.31892
#
# Static dielectric constant tensor:
#      x y z
#    x 1.773050 0.000000 -0.001070 
#    y 0.000000 1.723780 0.000000 
#    z -0.001070 0.000000 1.652800 
# 
# From -- ./inp_files/142618.got.cif
#   From: 2010.05.17/outbox.cif.g08.bks.cpg/sg12_72_cif.got.tgz:142618.got - 2010.06.03 13:09:07.
