data_PCOD9207213
_publ_section_title
;
Structure prediction by ZEFSAII (Michael W. Deem and Ramdas Pophale) SiO2 
 PCOD9207213
Probable space group: C 2/M
;
_chemical_formula_sum "Si O2"
_cell_formula_units_Z 48
_cell_length_a 9.449483
_cell_length_b 29.840325
_cell_length_c 8.480427
_cell_angle_alpha 90.000000
_cell_angle_beta 85.994117
_cell_angle_gamma 90.000000
_cell_volume 2385.431700
_symmetry_space_group_name_H-M "C 2/M"
_symmetry_group_IT_number 12
_symmetry_cell_setting 'monoclinic'
loop_
_space_group_symop_operation_xyz
x,y,z
-x,y,-z
-x,-y,-z
x,-y,z
1/2+x,1/2+y,z
1/2-x,1/2+y,-z
1/2-x,1/2-y,-z
1/2+x,1/2-y,z
loop_
_atom_site_type_symbol
_atom_site_label
_atom_site_fract_x
_atom_site_fract_y
_atom_site_fract_z
Si Si1 0.777571 0.384166 0.828981
Si Si2 0.926401 0.369120 0.334113
Si Si3 0.121771 0.729703 0.612225
Si Si4 0.073774 0.052231 0.659311
Si Si5 0.955504 0.185362 0.182798
Si Si6 0.664720 0.396987 0.191384
O O1 0.707516 0.419934 0.713993
O O2 0.698448 0.337693 0.793879
O O3 0.944266 0.378727 0.794040
O O4 0.730199 0.394021 0.011562
O O5 0.860066 0.319139 0.312015
O O6 0.792364 0.400325 0.305976
O O7 0.000000 0.374473 0.500000
O O8 0.250000 0.750000 0.500000
O O9 0.058378 0.768039 0.728087
O O10 0.000000 0.719194 0.500000
O O11 0.000000 0.067279 0.500000
O O12 0.946506 0.062661 0.790945
O O13 0.107515 0.000000 0.643954
O O14 0.066985 0.147380 0.231479
O O15 0.000000 0.193551 0.000000
#
# Coordination Sequence:
#
# PCOD9207213 Si02
#       6
#     8   8   8   8   8   8
#     4  10  21  37  57  84 114 147 187 229 283 336
#     4  11  22  36  54  80 115 152 187 233 284 329
#     4  11  22  35  52  78 110 149 195 236 277 326
#     4  10  21  39  64  90 113 142 181 226 278 339
#     4   9  19  35  54  77 107 147 191 234 276 325
#     4  10  21  37  58  82 112 148 187 231 279 336
#
# _framework density 20.122143000000001
#
# number of rings (size 3 to 8) (size 9 to 14) (size 15 to 20)
#    0.000    1.833    0.000    6.000    0.000    6.667 
#    0.000    5.000    0.000    5.000    0.000    0.000 
#    0.000    0.000    0.000    0.000    0.000    0.000 
#
# Total GULP energy -133848.976887 kJ/mol
# GULP energy per Si atom -5577.040704 kJ/mol
# Density = 2.007634 g / cm^3
# Si number density = 20.122143 Si / 1000 Ang^3
#
#
#
# Elastic Constant Matrix: (Units=GPa)
#
#
# Indices 1 2 3 4 5 6 
#
# 1 97.5944 -2.0764 7.1249 0.0000 -10.0993 0.0000
# 2 -2.0764 45.3617 16.7727 0.0000 0.1982 0.0000
# 3 7.1249 16.7727 41.5489 0.0000 2.3046 0.0000
# 4 0.0000 0.0000 0.0000 46.7151 0.0000 -18.3393
# 5 -10.0993 0.1982 2.3046 0.0000 34.4281 0.0000
# 6 0.0000 0.0000 0.0000 -18.3393 0.0000 37.6781
#
#
#
# Elastic Compliance Matrix: (Units=1/GPa)
#
#
# Indices 1 2 3 4 5 6 
#
# 1 0.010815 0.001451 -0.002626 0.000000 0.003340 0.000000
# 2 0.001451 0.026118 -0.010848 0.000000 0.001002 0.000000
# 3 -0.002626 -0.010848 0.029045 0.000000 -0.002652 0.000000
# 4 0.000000 0.000000 0.000000 0.026463 0.000000 0.012880
# 5 0.003340 0.001002 -0.002652 0.000000 0.030198 0.000000
# 6 0.000000 0.000000 0.000000 0.012880 0.000000 0.032810
#
#
# Mechanical properties :
#
#
# Convention : Reuss Voigt Hill
#
# Bulk Modulus (GPa) = 23.84773 25.34974 24.59873
# Shear Modulus (GPa) = 25.84378 34.60985 30.22681
#
# Velocity S-wave (km/s) = 3.58766 4.15177 3.87998
# Velocity P-wave (km/s) = 5.38878 5.96726 5.68539
#
# Compressibility (1/GPa) = 0.04193272
#
# Stress axis : x y z
#
# Youngs Moduli (GPa) = 92.46701 38.28746 34.42988
#
# Poissons Ratio (x) = -0.05557 0.09040
# Poissons Ratio (y) = -0.13420 0.37349
# Poissons Ratio (z) = 0.24279 0.41534
#
# Static dielectric constant tensor:
#      x y z
#    x 1.730660 0.000000 0.023260 
#    y 0.000000 1.739430 0.000000 
#    z 0.023260 0.000000 1.770630 
# 
# From -- ./inp_files/42245.got.cif
#   From: 2010.05.17/outbox.cif.g08.bks.cpg/sg12_22_cif.got.tgz:42245.got - 2010.06.03 13:09:07.
