data_PCOD9207953
_publ_section_title
;
Structure prediction by ZEFSAII (Michael W. Deem and Ramdas Pophale) SiO2 
 PCOD9207953
Probable space group: C 2/M
;
_chemical_formula_sum "Si O2"
_cell_formula_units_Z 42
_cell_length_a 22.217292
_cell_length_b 8.895456
_cell_length_c 22.596391
_cell_angle_alpha 90.000000
_cell_angle_beta 149.284753
_cell_angle_gamma 90.000000
_cell_volume 2280.999865
_symmetry_space_group_name_H-M "C 2/M"
_symmetry_group_IT_number 12
_symmetry_cell_setting 'monoclinic'
loop_
_space_group_symop_operation_xyz
x,y,z
-x,y,-z
-x,-y,-z
x,-y,z
1/2+x,1/2+y,z
1/2-x,1/2+y,-z
1/2-x,1/2-y,-z
1/2+x,1/2-y,z
loop_
_atom_site_type_symbol
_atom_site_label
_atom_site_fract_x
_atom_site_fract_y
_atom_site_fract_z
Si Si1 0.806178 0.179094 0.105994
Si Si2 0.062974 0.677840 0.327050
Si Si3 0.261174 0.178227 0.414893
Si Si4 0.500000 0.500000 0.000000
Si Si5 0.266307 0.666113 0.837659
Si Si6 0.860589 0.820291 0.379633
O O1 0.739119 0.240413 0.106945
O O2 0.940569 0.235160 0.224874
O O3 0.801747 0.000000 0.099352
O O4 0.750000 0.250000 0.000000
O O5 0.044477 0.500000 0.302761
O O6 0.147056 0.743178 0.346807
O O7 0.134322 0.699192 0.448747
O O8 0.298517 0.249568 0.384558
O O9 0.240084 0.000000 0.390387
O O10 0.601503 0.628271 0.071216
O O11 0.210730 0.500000 0.801842
O O12 0.195511 0.749109 0.726334
O O13 0.000000 0.787138 0.500000
O O14 0.845773 0.000000 0.367046
#
# Coordination Sequence:
#
# PCOD9207953 Si02
#       6
#     8   8   8   2   8   8
#     4  12  25  42  65  94 125 166 216 267 324 384
#     4  10  21  39  62  91 127 166 208 263 320 381
#     4  10  21  37  60  92 129 167 208 257 322 385
#     4   8  24  44  68  88 120 172 210 276 312 380
#     4  10  22  44  66  90 126 165 215 269 325 378
#     4  11  23  38  61  95 131 169 213 264 321 392
#
# _framework density 18.412977999999999
#
# number of rings (size 3 to 8) (size 9 to 14) (size 15 to 20)
#    0.571    0.952    0.000    5.143    0.000    8.381 
#    0.000    3.810    0.000    0.000    0.000    0.000 
#    0.000    0.000    0.000    0.000    0.000    0.000 
#
# Total GULP energy -117061.064735 kJ/mol
# GULP energy per Si atom -5574.336416 kJ/mol
# Density = 1.837107 g / cm^3
# Si number density = 18.412978 Si / 1000 Ang^3
#
#
#
# Elastic Constant Matrix: (Units=GPa)
#
#
# Indices 1 2 3 4 5 6 
#
# 1 118.5777 71.3634 74.5611 0.0000 -11.7472 0.0000
# 2 71.3634 141.0419 72.0038 0.0000 -5.7116 0.0000
# 3 74.5611 72.0038 93.4197 0.0000 5.8847 0.0000
# 4 0.0000 0.0000 0.0000 28.0712 0.0000 -0.7137
# 5 -11.7472 -5.7116 5.8847 0.0000 29.6827 0.0000
# 6 0.0000 0.0000 0.0000 -0.7137 0.0000 34.2232
#
#
#
# Elastic Compliance Matrix: (Units=1/GPa)
#
#
# Indices 1 2 3 4 5 6 
#
# 1 0.020394 -0.002027 -0.015391 0.000000 0.010733 0.000000
# 2 -0.002027 0.012402 -0.008143 0.000000 0.003199 0.000000
# 3 -0.015391 -0.008143 0.030123 0.000000 -0.013630 0.000000
# 4 0.000000 0.000000 0.000000 0.035643 0.000000 0.000743
# 5 0.010733 0.003199 -0.013630 0.000000 0.041255 0.000000
# 6 0.000000 0.000000 0.000000 0.000743 0.000000 0.029235
#
#
# Mechanical properties :
#
#
# Convention : Reuss Voigt Hill
#
# Bulk Modulus (GPa) = 84.76011 87.65508 86.20759
# Shear Modulus (GPa) = 22.31082 27.40281 24.85681
#
# Velocity S-wave (km/s) = 3.48471 3.86195 3.67817
# Velocity P-wave (km/s) = 7.89453 8.22159 8.05972
#
# Compressibility (1/GPa) = 0.01179800
#
# Stress axis : x y z
#
# Youngs Moduli (GPa) = 49.03349 80.63085 33.19720
#
# Poissons Ratio (x) = 0.16344 0.51094
# Poissons Ratio (y) = 0.09939 0.27032
# Poissons Ratio (z) = 0.75467 0.65656
#
# Static dielectric constant tensor:
#      x y z
#    x 1.594360 0.000000 0.010330 
#    y 0.000000 1.619470 0.000000 
#    z 0.010330 0.000000 1.600380 
# 
# From -- ./inp_files/348659.got.cif
#   From: 2010.05.17/outbox.cif.g08.bks.cpg/sg12_175_cif.got.tgz:348659.got - 2010.06.03 13:09:07.
