data_PCOD9207680
_publ_section_title
;
Structure prediction by ZEFSAII (Michael W. Deem and Ramdas Pophale) SiO2 
 PCOD9207680
Probable space group: C 2/M
;
_chemical_formula_sum "Si O2"
_cell_formula_units_Z 40
_cell_length_a 13.426363
_cell_length_b 20.988455
_cell_length_c 8.937828
_cell_angle_alpha 90.000000
_cell_angle_beta 132.005924
_cell_angle_gamma 90.000000
_cell_volume 1871.560502
_symmetry_space_group_name_H-M "C 2/M"
_symmetry_group_IT_number 12
_symmetry_cell_setting 'monoclinic'
loop_
_space_group_symop_operation_xyz
x,y,z
-x,y,-z
-x,-y,-z
x,-y,z
1/2+x,1/2+y,z
1/2-x,1/2+y,-z
1/2-x,1/2-y,-z
1/2+x,1/2-y,z
loop_
_atom_site_type_symbol
_atom_site_label
_atom_site_fract_x
_atom_site_fract_y
_atom_site_fract_z
Si Si1 0.860828 0.816205 0.935840
Si Si2 0.855707 0.426894 0.278609
Si Si3 0.976692 0.756434 0.652084
Si Si4 0.201242 0.309735 0.314001
Si Si5 0.647957 0.067652 0.081756
O O1 0.901473 0.792869 0.144300
O O2 0.750455 0.870415 0.799964
O O3 0.818905 0.750903 0.813237
O O4 0.000000 0.837476 0.000000
O O5 0.814943 0.500000 0.281870
O O6 0.000000 0.415488 0.500000
O O7 0.865059 0.426642 0.108513
O O8 0.924664 0.695507 0.696980
O O9 0.844435 0.800440 0.534796
O O10 0.000000 0.744255 0.500000
O O11 0.210285 0.372420 0.225515
O O12 0.717125 0.000000 0.184932
O O13 0.500000 0.065229 0.000000
#
# Coordination Sequence:
#
# PCOD9207680 Si02
#       5
#     8   8   8   8   8
#     4  10  22  39  61  91 124 160 203 255 311 361
#     4  10  23  42  64  92 124 162 207 251 302 365
#     4  10  21  37  59  88 118 154 202 253 307 360
#     4  10  22  38  58  88 123 158 203 252 306 366
#     4  10  21  38  59  84 120 164 205 249 303 364
#
# _framework density 21.372540000000001
#
# number of rings (size 3 to 8) (size 9 to 14) (size 15 to 20)
#    0.000    2.000    0.000    3.000    0.000   12.400 
#    0.000    1.000    0.000    4.200    0.000    0.000 
#    0.000    0.000    0.000    0.000    0.000    0.000 
#
# Total GULP energy -111696.140618 kJ/mol
# GULP energy per Si atom -5584.807031 kJ/mol
# Density = 2.132390 g / cm^3
# Si number density = 21.372540 Si / 1000 Ang^3
#
#
#
# Elastic Constant Matrix: (Units=GPa)
#
#
# Indices 1 2 3 4 5 6 
#
# 1 90.5554 53.2162 31.2704 0.0000 -9.2147 0.0000
# 2 53.2162 182.1889 82.7195 0.0000 0.5067 0.0000
# 3 31.2704 82.7195 129.3340 0.0000 0.5801 0.0000
# 4 0.0000 0.0000 0.0000 35.0574 0.0000 7.7934
# 5 -9.2147 0.5067 0.5801 0.0000 38.3287 0.0000
# 6 0.0000 0.0000 0.0000 7.7934 0.0000 25.4420
#
#
#
# Elastic Compliance Matrix: (Units=1/GPa)
#
#
# Indices 1 2 3 4 5 6 
#
# 1 0.013858 -0.003564 -0.001086 0.000000 0.003395 0.000000
# 2 -0.003564 0.008652 -0.004668 0.000000 -0.000901 0.000000
# 3 -0.001086 -0.004668 0.010982 0.000000 -0.000366 0.000000
# 4 0.000000 0.000000 0.000000 0.030609 0.000000 -0.009376
# 5 0.003395 -0.000901 -0.000366 0.000000 0.026924 0.000000
# 6 0.000000 0.000000 0.000000 -0.009376 0.000000 0.042177
#
#
# Mechanical properties :
#
#
# Convention : Reuss Voigt Hill
#
# Bulk Modulus (GPa) = 67.31673 81.83226 74.57450
# Shear Modulus (GPa) = 31.88998 35.42376 33.65687
#
# Velocity S-wave (km/s) = 3.86696 4.07559 3.97264
# Velocity P-wave (km/s) = 7.17656 7.77939 7.48405
#
# Compressibility (1/GPa) = 0.01485515
#
# Stress axis : x y z
#
# Youngs Moduli (GPa) = 72.16023 115.58543 91.06187
#
# Poissons Ratio (x) = 0.41195 0.09892
# Poissons Ratio (y) = 0.25718 0.42504
# Poissons Ratio (z) = 0.07839 0.53951
#
# Static dielectric constant tensor:
#      x y z
#    x 1.838450 0.000000 -0.030730 
#    y 0.000000 1.852820 0.000000 
#    z -0.030730 0.000000 1.813730 
# 
# From -- ./inp_files/63774.got.cif
#   From: 2010.05.17/outbox.cif.g08.bks.cpg/sg12_32_cif.got.tgz:63774.got - 2010.06.03 13:09:07.
