data_PCOD9207454
_publ_section_title
;
Structure prediction by ZEFSAII (Michael W. Deem and Ramdas Pophale) SiO2 
 PCOD9207454
Probable space group: C 2/M
;
_chemical_formula_sum "Si O2"
_cell_formula_units_Z 64
_cell_length_a 28.181601
_cell_length_b 8.832204
_cell_length_c 14.279927
_cell_angle_alpha 90.000000
_cell_angle_beta 60.624782
_cell_angle_gamma 90.000000
_cell_volume 3097.357133
_symmetry_space_group_name_H-M "C 2/M"
_symmetry_group_IT_number 12
_symmetry_cell_setting 'monoclinic'
loop_
_space_group_symop_operation_xyz
x,y,z
-x,y,-z
-x,-y,-z
x,-y,z
1/2+x,1/2+y,z
1/2-x,1/2+y,-z
1/2-x,1/2-y,-z
1/2+x,1/2-y,z
loop_
_atom_site_type_symbol
_atom_site_label
_atom_site_fract_x
_atom_site_fract_y
_atom_site_fract_z
Si Si1 0.368825 0.680002 0.610287
Si Si2 0.253300 0.180761 0.285863
Si Si3 0.316648 0.818470 0.045132
Si Si4 0.079946 0.820727 0.950550
Si Si5 0.633306 0.176774 0.186492
Si Si6 0.522701 0.822562 0.171616
Si Si7 0.643494 0.318266 0.711108
Si Si8 0.580645 0.818890 0.610027
O O1 0.372939 0.500000 0.597605
O O2 0.308260 0.727471 0.635296
O O3 0.372024 0.727184 0.715151
O O4 0.412653 0.757692 0.500980
O O5 0.299240 0.263829 0.301689
O O6 0.258623 0.000000 0.296247
O O7 0.266091 0.207510 0.162890
O O8 0.365211 0.725439 0.046535
O O9 0.318921 0.779494 0.933300
O O10 0.329242 0.000000 0.037827
O O11 0.032595 0.754721 0.061702
O O12 0.073198 0.000000 0.953497
O O13 0.095956 0.767518 0.830674
O O14 0.577894 0.190576 0.179427
O O15 0.640274 0.000000 0.205420
O O16 0.473736 0.764777 0.283667
O O17 0.513658 0.000000 0.162262
O O18 0.642788 0.500000 0.705701
O O19 0.629763 0.244475 0.625647
O O20 0.580789 0.000000 0.608678
#
# Coordination Sequence:
#
# PCOD9207454 Si02
#       8
#     8   8   8   8   8   8   8   8
#     4  11  24  39  55  80 112 144 185 234 277 321
#     4   9  19  37  59  82 111 148 185 221 267 325
#     4   8  15  31  55  81 110 144 181 219 261 321
#     4   9  17  30  53  85 116 142 170 215 275 331
#     4   9  18  35  58  82 110 143 179 223 273 324
#     4   9  20  38  59  82 109 145 186 225 266 322
#     4  10  21  37  58  86 116 143 176 223 277 327
#     4  11  24  41  59  78 104 145 194 233 269 321
#
# _framework density 20.662776999999998
#
# number of rings (size 3 to 8) (size 9 to 14) (size 15 to 20)
#    0.000    2.500    0.000    2.250    0.000    7.500 
#    0.000    5.000    0.000    0.000    0.000    0.000 
#    0.000    0.000    0.000    0.000    0.000    0.000 
#
# Total GULP energy -178573.351806 kJ/mol
# GULP energy per Si atom -5580.417244 kJ/mol
# Density = 2.061575 g / cm^3
# Si number density = 20.662777 Si / 1000 Ang^3
#
#
#
# Elastic Constant Matrix: (Units=GPa)
#
#
# Indices 1 2 3 4 5 6 
#
# 1 17.2907 6.0236 9.1238 0.0000 1.4449 0.0000
# 2 6.0236 25.8791 26.3416 0.0000 2.2266 0.0000
# 3 9.1238 26.3416 106.6479 0.0000 1.9511 0.0000
# 4 0.0000 0.0000 0.0000 29.8238 0.0000 4.3003
# 5 1.4449 2.2266 1.9511 0.0000 27.5672 0.0000
# 6 0.0000 0.0000 0.0000 4.3003 0.0000 15.5620
#
#
#
# Elastic Compliance Matrix: (Units=1/GPa)
#
#
# Indices 1 2 3 4 5 6 
#
# 1 0.063515 -0.012164 -0.002389 0.000000 -0.002177 0.000000
# 2 -0.012164 0.054245 -0.012305 0.000000 -0.002873 0.000000
# 3 -0.002389 -0.012305 0.012616 0.000000 0.000226 0.000000
# 4 0.000000 0.000000 0.000000 0.034922 0.000000 -0.009650
# 5 -0.002177 -0.002873 0.000226 0.000000 0.036605 0.000000
# 6 0.000000 0.000000 0.000000 -0.009650 0.000000 0.066926
#
#
# Mechanical properties :
#
#
# Convention : Reuss Voigt Hill
#
# Bulk Modulus (GPa) = 13.04484 25.86618 19.45551
# Shear Modulus (GPa) = 14.36372 21.81250 18.08811
#
# Velocity S-wave (km/s) = 2.63943 3.25259 2.96192
# Velocity P-wave (km/s) = 3.95167 5.16248 4.59711
#
# Compressibility (1/GPa) = 0.07665869
#
# Stress axis : x y z
#
# Youngs Moduli (GPa) = 15.74427 18.43496 79.26306
#
# Poissons Ratio (x) = 0.22425 0.18939
# Poissons Ratio (y) = 0.19152 0.97533
# Poissons Ratio (z) = 0.03762 0.22684
#
# Static dielectric constant tensor:
#      x y z
#    x 1.741560 0.000000 -0.020300 
#    y 0.000000 1.688580 0.000000 
#    z -0.020300 0.000000 1.769430 
# 
# From -- ./inp_files/249709.got.cif
#   From: 2010.05.17/outbox.cif.g08.bks.cpg/sg12_125_cif.got.tgz:249709.got - 2010.06.03 13:09:07.
