data_PCOD9207214
_publ_section_title
;
Structure prediction by ZEFSAII (Michael W. Deem and Ramdas Pophale) SiO2 
 PCOD9207214
Probable space group: C 2/M
;
_chemical_formula_sum "Si O2"
_cell_formula_units_Z 60
_cell_length_a 5.263943
_cell_length_b 25.284538
_cell_length_c 22.578723
_cell_angle_alpha 90.000000
_cell_angle_beta 83.993779
_cell_angle_gamma 90.000000
_cell_volume 2988.649370
_symmetry_space_group_name_H-M "C 2/M"
_symmetry_group_IT_number 12
_symmetry_cell_setting 'monoclinic'
loop_
_space_group_symop_operation_xyz
x,y,z
-x,y,-z
-x,-y,-z
x,-y,z
1/2+x,1/2+y,z
1/2-x,1/2+y,-z
1/2-x,1/2-y,-z
1/2+x,1/2-y,z
loop_
_atom_site_type_symbol
_atom_site_label
_atom_site_fract_x
_atom_site_fract_y
_atom_site_fract_z
Si Si1 0.272795 0.500000 0.459263
Si Si2 0.613800 0.891490 0.431609
Si Si3 0.993795 0.563312 0.931212
Si Si4 0.212830 0.773650 0.568788
Si Si5 0.435285 0.284037 0.067457
Si Si6 0.175900 0.562450 0.663820
Si Si7 0.868499 0.062158 0.258795
Si Si8 0.020179 0.108744 0.870280
O O1 0.500000 0.500000 0.500000
O O2 0.277761 0.445509 0.422938
O O3 0.000000 0.500000 0.500000
O O4 0.500000 0.890403 0.500000
O O5 0.760754 0.836306 0.425235
O O6 0.385667 0.900510 0.390699
O O7 0.014087 0.500000 0.927980
O O8 0.731444 0.580778 0.906812
O O9 0.237996 0.587996 0.892650
O O10 0.000000 0.579661 0.000000
O O11 0.250000 0.750000 0.500000
O O12 0.444400 0.746880 0.597003
O O13 0.650596 0.239508 0.073019
O O14 0.463883 0.329752 0.114398
O O15 0.500000 0.305787 0.000000
O O16 0.195816 0.500000 0.645021
O O17 0.918416 0.567138 0.709589
O O18 0.420918 0.576534 0.696899
O O19 0.912169 0.095119 0.198630
O O20 0.911132 0.000000 0.243801
#
# Coordination Sequence:
#
# PCOD9207214 Si02
#       8
#     4   8   8   8   8   8   8   8
#     4  10  24  34  54  90 120 148 184 228 305 368
#     4  11  22  40  64  90 125 154 195 251 317 393
#     4  11  22  34  54  91 130 157 191 243 301 363
#     4  10  21  37  57  84 115 155 193 227 281 367
#     4  10  21  37  58  88 120 154 200 258 315 361
#     4  10  22  40  58  87 119 154 196 253 306 359
#     4  10  22  40  61  84 119 160 209 246 291 364
#     4  12  22  38  63  85 117 169 211 244 302 362
#
# _framework density 20.075958
#
# number of rings (size 3 to 8) (size 9 to 14) (size 15 to 20)
#    0.000    1.467    2.000    4.000    1.867    6.400 
#    0.000    0.000    0.000    4.800    0.000    0.000 
#    0.000    0.000    0.000    0.000    0.000    0.000 
#
# Total GULP energy -167708.584302 kJ/mol
# GULP energy per Si atom -5590.286143 kJ/mol
# Density = 2.003026 g / cm^3
# Si number density = 20.075958 Si / 1000 Ang^3
#
#
#
# Elastic Constant Matrix: (Units=GPa)
#
#
# Indices 1 2 3 4 5 6 
#
# 1 93.5312 15.8634 5.0294 0.0000 10.9513 0.0000
# 2 15.8634 102.1784 27.1563 0.0000 8.8865 0.0000
# 3 5.0294 27.1563 92.5591 0.0000 2.7522 0.0000
# 4 0.0000 0.0000 0.0000 41.7491 0.0000 7.5816
# 5 10.9513 8.8865 2.7522 0.0000 25.4109 0.0000
# 6 0.0000 0.0000 0.0000 7.5816 0.0000 24.8991
#
#
#
# Elastic Compliance Matrix: (Units=1/GPa)
#
#
# Indices 1 2 3 4 5 6 
#
# 1 0.011449 -0.001367 -0.000089 0.000000 -0.004446 0.000000
# 2 -0.001367 0.011076 -0.003088 0.000000 -0.002950 0.000000
# 3 -0.000089 -0.003088 0.011719 0.000000 -0.000151 0.000000
# 4 0.000000 0.000000 0.000000 0.025355 0.000000 -0.007720
# 5 -0.004446 -0.002950 -0.000151 0.000000 0.042317 0.000000
# 6 0.000000 0.000000 0.000000 -0.007720 0.000000 0.042513
#
#
# Mechanical properties :
#
#
# Convention : Reuss Voigt Hill
#
# Bulk Modulus (GPa) = 39.75038 42.70744 41.22891
# Shear Modulus (GPa) = 30.88285 34.42647 32.65466
#
# Velocity S-wave (km/s) = 3.92637 4.14552 4.03743
# Velocity P-wave (km/s) = 6.35596 6.65078 6.50504
#
# Compressibility (1/GPa) = 0.02515699
#
# Stress axis : x y z
#
# Youngs Moduli (GPa) = 87.34464 90.28332 85.33048
#
# Poissons Ratio (x) = 0.12343 0.00757
# Poissons Ratio (y) = 0.11942 0.26348
# Poissons Ratio (z) = 0.00775 0.27877
#
# Static dielectric constant tensor:
#      x y z
#    x 1.721060 0.000000 -0.009840 
#    y 0.000000 1.726170 0.000000 
#    z -0.009840 0.000000 1.698770 
# 
# From -- ./inp_files/298092.got.cif
#   From: 2010.05.17/outbox.cif.g08.bks.cpg/sg12_150_cif.got.tgz:298092.got - 2010.06.03 13:09:07.
