data_PCOD9207738
_publ_section_title
;
Structure prediction by ZEFSAII (Michael W. Deem and Ramdas Pophale) SiO2 
 PCOD9207738
Probable space group: C 2/M
;
_chemical_formula_sum "Si O2"
_cell_formula_units_Z 56
_cell_length_a 27.674176
_cell_length_b 13.431925
_cell_length_c 12.252191
_cell_angle_alpha 90.000000
_cell_angle_beta 141.410995
_cell_angle_gamma 90.000000
_cell_volume 2840.685002
_symmetry_space_group_name_H-M "C 2/M"
_symmetry_group_IT_number 12
_symmetry_cell_setting 'monoclinic'
loop_
_space_group_symop_operation_xyz
x,y,z
-x,y,-z
-x,-y,-z
x,-y,z
1/2+x,1/2+y,z
1/2-x,1/2+y,-z
1/2-x,1/2-y,-z
1/2+x,1/2-y,z
loop_
_atom_site_type_symbol
_atom_site_label
_atom_site_fract_x
_atom_site_fract_y
_atom_site_fract_z
Si Si1 0.007334 0.809800 0.636625
Si Si2 0.810361 0.387300 0.873805
Si Si3 0.309163 0.884397 0.310419
Si Si4 0.601067 0.886774 0.753539
Si Si5 0.585970 0.613772 0.173380
Si Si6 0.861294 0.172262 0.962694
Si Si7 0.149108 0.804462 0.504290
O O1 0.038014 0.695231 0.676127
O O2 0.000000 0.849555 0.500000
O O3 0.926585 0.822661 0.555853
O O4 0.072395 0.852415 0.833124
O O5 0.831620 0.500000 0.875264
O O6 0.859658 0.289909 0.925946
O O7 0.722847 0.363890 0.682622
O O8 0.828002 0.384304 0.034694
O O9 0.363302 0.864201 0.301568
O O10 0.220811 0.854663 0.129108
O O11 0.332795 0.812028 0.449533
O O12 0.314274 0.000000 0.345633
O O13 0.570561 0.000000 0.702535
O O14 0.575933 0.500000 0.193385
O O15 0.628429 0.616065 0.132635
O O16 0.631161 0.668727 0.348654
O O17 0.500000 0.656266 0.000000
#
# Coordination Sequence:
#
# PCOD9207738 Si02
#       7
#     8   8   8   8   8   8   8
#     4  11  21  34  57  89 119 154 194 244 293 347
#     4   9  20  37  59  87 120 158 199 241 297 353
#     4  10  21  37  59  90 122 156 198 245 296 351
#     4   9  19  35  56  83 122 165 195 233 296 364
#     4  11  23  42  64  85 119 160 198 238 293 360
#     4  10  22  39  63  86 117 158 203 244 292 352
#     4  11  22  37  61  88 118 154 201 247 291 344
#
# _framework density 19.713554999999999
#
# number of rings (size 3 to 8) (size 9 to 14) (size 15 to 20)
#    0.000    1.857    2.857    0.857    2.000    4.857 
#    0.000    2.143    0.000    4.286    0.000    0.000 
#    0.000    0.000    0.000    0.000    0.000    0.000 
#
# Total GULP energy -156146.845348 kJ/mol
# GULP energy per Si atom -5576.673048 kJ/mol
# Density = 1.966869 g / cm^3
# Si number density = 19.713555 Si / 1000 Ang^3
#
#
#
# Elastic Constant Matrix: (Units=GPa)
#
#
# Indices 1 2 3 4 5 6 
#
# 1 34.6000 -2.5752 22.9483 0.0000 -10.2309 0.0000
# 2 -2.5752 63.6132 19.3451 0.0000 -17.3955 0.0000
# 3 22.9483 19.3451 157.1259 0.0000 -18.1094 0.0000
# 4 0.0000 0.0000 0.0000 -6.9676 0.0000 8.8283
# 5 -10.2309 -17.3955 -18.1094 0.0000 29.5749 0.0000
# 6 0.0000 0.0000 0.0000 8.8283 0.0000 12.2676
#
#
#
# Elastic Compliance Matrix: (Units=1/GPa)
#
#
# Indices 1 2 3 4 5 6 
#
# 1 0.036474 0.006614 -0.004561 0.000000 0.013715 0.000000
# 2 0.006614 0.020116 -0.001953 0.000000 0.012924 0.000000
# 3 -0.004561 -0.001953 0.007485 0.000000 0.001857 0.000000
# 4 0.000000 0.000000 0.000000 -0.075070 0.000000 0.054024
# 5 0.013715 0.012924 0.001857 0.000000 0.047296 0.000000
# 6 0.000000 0.000000 0.000000 0.054024 0.000000 0.042638
#
#
# Mechanical properties :
#
#
# Convention : Reuss Voigt Hill
#
# Bulk Modulus (GPa) = 15.55799 37.19727 26.37763
# Shear Modulus (GPa) = 49.91873 21.34970 35.63422
#
# Velocity S-wave (km/s) = 5.03756 3.29446 4.25620
# Velocity P-wave (km/s) = 6.46105 5.77764 6.12888
#
# Compressibility (1/GPa) = 0.06427565
#
# Stress axis : x y z
#
# Youngs Moduli (GPa) = 27.41657 49.71203 133.60303
#
# Poissons Ratio (x) = -0.32880 0.60932
# Poissons Ratio (y) = -0.18133 0.26094
# Poissons Ratio (z) = 0.12504 0.09709
#
# Static dielectric constant tensor:
#      x y z
#    x 1.664860 0.000000 0.018510 
#    y 0.000000 1.731930 0.000000 
#    z 0.018510 0.000000 1.712310 
# 
# From -- ./inp_files/183524.got.cif
#   From: 2010.05.17/outbox.cif.g08.bks.cpg/sg12_92_cif.got.tgz:183524.got - 2010.06.03 13:09:07.
