data_PCOD9207619
_publ_section_title
;
Structure prediction by ZEFSAII (Michael W. Deem and Ramdas Pophale) SiO2 
 PCOD9207619
Probable space group: C 2/M
;
_chemical_formula_sum "Si O2"
_cell_formula_units_Z 56
_cell_length_a 30.111750
_cell_length_b 12.590430
_cell_length_c 9.311064
_cell_angle_alpha 90.000000
_cell_angle_beta 57.746039
_cell_angle_gamma 90.000000
_cell_volume 2985.296991
_symmetry_space_group_name_H-M "C 2/M"
_symmetry_group_IT_number 12
_symmetry_cell_setting 'monoclinic'
loop_
_space_group_symop_operation_xyz
x,y,z
-x,y,-z
-x,-y,-z
x,-y,z
1/2+x,1/2+y,z
1/2-x,1/2+y,-z
1/2-x,1/2-y,-z
1/2+x,1/2-y,z
loop_
_atom_site_type_symbol
_atom_site_label
_atom_site_fract_x
_atom_site_fract_y
_atom_site_fract_z
Si Si1 0.948602 0.380111 0.513065
Si Si2 0.857809 0.759510 0.793534
Si Si3 0.573072 0.619155 0.107172
Si Si4 0.699853 0.375385 0.363067
Si Si5 0.127106 0.204964 0.744509
Si Si6 0.175635 0.625129 0.869089
Si Si7 0.980523 0.282388 0.184660
O O1 0.941305 0.500000 0.576846
O O2 0.897667 0.313247 0.635071
O O3 0.964543 0.373343 0.320909
O O4 0.000000 0.332725 0.500000
O O5 0.892915 0.847762 0.813777
O O6 0.818248 0.811808 0.748269
O O7 0.834855 0.686628 0.962234
O O8 0.552219 0.500000 0.154143
O O9 0.526456 0.704426 0.162645
O O10 0.612102 0.628049 0.902660
O O11 0.686714 0.500000 0.368120
O O12 0.670520 0.332592 0.556131
O O13 0.762500 0.366373 0.270562
O O14 0.144249 0.313135 0.797548
O O15 0.072775 0.218093 0.752615
O O16 0.161617 0.500000 0.903491
O O17 0.000000 0.325720 0.000000
#
# Coordination Sequence:
#
# PCOD9207619 Si02
#       7
#     8   8   8   8   8   8   8
#     4  11  22  38  58  82 114 152 191 233 286 343
#     4  11  21  40  60  86 120 153 191 240 291 348
#     4  10  21  37  59  86 119 157 191 229 288 352
#     4  11  22  38  62  90 117 150 197 247 295 343
#     4  10  21  38  60  83 119 153 193 239 286 342
#     4  10  23  41  61  85 116 157 198 243 295 342
#     4  10  21  38  56  85 116 148 187 236 282 342
#
# _framework density 18.758602
#
# number of rings (size 3 to 8) (size 9 to 14) (size 15 to 20)
#    0.000    1.571    2.857    2.143    0.000    4.000 
#    0.000    0.714    0.000    6.000    0.000    0.000 
#    0.000    0.000    0.000    0.000    0.000    0.000 
#
# Total GULP energy -156167.129128 kJ/mol
# GULP energy per Si atom -5577.397469 kJ/mol
# Density = 1.871591 g / cm^3
# Si number density = 18.758602 Si / 1000 Ang^3
#
#
#
# Elastic Constant Matrix: (Units=GPa)
#
#
# Indices 1 2 3 4 5 6 
#
# 1 57.2761 18.2669 7.0592 0.0000 -0.6989 0.0000
# 2 18.2669 74.9734 28.2305 0.0000 0.3194 0.0000
# 3 7.0592 28.2305 101.1241 0.0000 -5.5969 0.0000
# 4 0.0000 0.0000 0.0000 11.0737 0.0000 7.8935
# 5 -0.6989 0.3194 -5.5969 0.0000 24.6505 0.0000
# 6 0.0000 0.0000 0.0000 7.8935 0.0000 0.2841
#
#
#
# Elastic Compliance Matrix: (Units=1/GPa)
#
#
# Indices 1 2 3 4 5 6 
#
# 1 0.018939 -0.004617 0.000000 0.000000 0.000597 0.000000
# 2 -0.004617 0.016063 -0.004234 0.000000 -0.001300 0.000000
# 3 0.000000 -0.004234 0.011215 0.000000 0.002601 0.000000
# 4 0.000000 0.000000 0.000000 -0.004801 0.000000 0.133423
# 5 0.000597 -0.001300 0.002601 0.000000 0.041191 0.000000
# 6 0.000000 0.000000 0.000000 0.133423 0.000000 -0.187179
#
#
# Mechanical properties :
#
#
# Convention : Reuss Voigt Hill
#
# Bulk Modulus (GPa) = 35.06960 37.83185 36.45072
# Shear Modulus (GPa) = -64.62843 19.18946 -22.71948
#
# Velocity S-wave (km/s) = -5.87601 3.20186 -3.48393
# Velocity P-wave (km/s) = 5.22502 5.82071 1.81382
#
# Compressibility (1/GPa) = 0.02851472
#
# Stress axis : x y z
#
# Youngs Moduli (GPa) = 52.80094 62.25604 89.16817
#
# Poissons Ratio (x) = 0.28743 0.00002
# Poissons Ratio (y) = 0.24378 0.37752
# Poissons Ratio (z) = 0.00001 0.26358
#
# Static dielectric constant tensor:
#      x y z
#    x 1.644470 0.000000 0.022200 
#    y 0.000000 1.634750 0.000000 
#    z 0.022200 0.000000 1.668460 
# 
# From -- ./inp_files/103282.got.cif
#   From: 2010.05.17/outbox.cif.g08.bks.cpg/sg12_52_cif.got.tgz:103282.got - 2010.06.03 13:09:07.
