data_PCOD9207318
_publ_section_title
;
Structure prediction by ZEFSAII (Michael W. Deem and Ramdas Pophale) SiO2 
 PCOD9207318
Probable space group: C 2/M
;
_chemical_formula_sum "Si O2"
_cell_formula_units_Z 56
_cell_length_a 9.239441
_cell_length_b 15.282463
_cell_length_c 27.750360
_cell_angle_alpha 90.000000
_cell_angle_beta 139.654086
_cell_angle_gamma 90.000000
_cell_volume 2536.768639
_symmetry_space_group_name_H-M "C 2/M"
_symmetry_group_IT_number 12
_symmetry_cell_setting 'monoclinic'
loop_
_space_group_symop_operation_xyz
x,y,z
-x,y,-z
-x,-y,-z
x,-y,z
1/2+x,1/2+y,z
1/2-x,1/2+y,-z
1/2-x,1/2-y,-z
1/2+x,1/2-y,z
loop_
_atom_site_type_symbol
_atom_site_label
_atom_site_fract_x
_atom_site_fract_y
_atom_site_fract_z
Si Si1 0.177103 0.893148 0.005066
Si Si2 0.874296 0.141461 0.292358
Si Si3 0.251822 0.637031 0.545972
Si Si4 0.478845 0.394481 0.850401
Si Si5 0.822946 0.400202 0.858209
Si Si6 0.480019 0.175937 0.712920
Si Si7 0.762146 0.662496 0.560059
O O1 0.093433 0.872978 0.930267
O O2 0.182048 0.000000 0.010728
O O3 0.429809 0.859736 0.076809
O O4 0.000000 0.861512 0.000000
O O5 0.759486 0.096486 0.217582
O O6 0.682517 0.164447 0.282825
O O7 0.993018 0.223725 0.296223
O O8 0.070629 0.095416 0.372734
O O9 0.225031 0.605625 0.484622
O O10 0.344660 0.738429 0.568522
O O11 0.000000 0.636097 0.500000
O O12 0.459639 0.500000 0.842152
O O13 0.635036 0.361252 0.846084
O O14 0.228925 0.357784 0.785380
O O15 0.850043 0.500000 0.882984
O O16 0.375964 0.131901 0.638169
O O17 0.500000 0.672416 0.500000
#
# Coordination Sequence:
#
# PCOD9207318 Si02
#       7
#     8   8   8   8   8   8   8
#     4   9  17  33  58  83 106 138 181 221 259 315
#     4  11  22  35  53  83 112 144 181 224 274 320
#     4   9  18  28  49  74 103 139 180 224 265 313
#     4  10  21  37  58  83 110 143 180 221 268 319
#     4  10  21  37  58  82 111 143 180 222 266 320
#     4  11  22  34  55  81 113 144 180 226 272 323
#     4   9  16  30  47  74 103 137 181 223 265 311
#
# _framework density 22.075327000000001
#
# number of rings (size 3 to 8) (size 9 to 14) (size 15 to 20)
#    0.000    2.143    1.429    2.143    8.000    3.429 
#    0.000    0.714    0.000    1.714    0.000    0.000 
#    0.000    0.000    0.000    0.000    0.000    0.000 
#
# Total GULP energy -156171.061701 kJ/mol
# GULP energy per Si atom -5577.537918 kJ/mol
# Density = 2.202508 g / cm^3
# Si number density = 22.075327 Si / 1000 Ang^3
#
#
#
# Elastic Constant Matrix: (Units=GPa)
#
#
# Indices 1 2 3 4 5 6 
#
# 1 176.3330 12.6653 61.4114 0.0000 -1.1369 0.0000
# 2 12.6653 36.7940 9.3475 0.0000 -0.2093 0.0000
# 3 61.4114 9.3475 154.9323 0.0000 5.5171 0.0000
# 4 0.0000 0.0000 0.0000 43.8924 0.0000 7.7356
# 5 -1.1369 -0.2093 5.5171 0.0000 43.2819 0.0000
# 6 0.0000 0.0000 0.0000 7.7356 0.0000 12.4829
#
#
#
# Elastic Compliance Matrix: (Units=1/GPa)
#
#
# Indices 1 2 3 4 5 6 
#
# 1 0.006687 -0.001646 -0.002569 0.000000 0.000495 0.000000
# 2 -0.001646 0.028012 -0.001045 0.000000 0.000225 0.000000
# 3 -0.002569 -0.001045 0.007573 0.000000 -0.001038 0.000000
# 4 0.000000 0.000000 0.000000 0.025576 0.000000 -0.015850
# 5 0.000495 0.000225 -0.001038 0.000000 0.023251 0.000000
# 6 0.000000 0.000000 0.000000 -0.015850 0.000000 0.089932
#
#
# Mechanical properties :
#
#
# Convention : Reuss Voigt Hill
#
# Bulk Modulus (GPa) = 31.49583 59.43420 45.46502
# Shear Modulus (GPa) = 24.73583 38.90710 31.82147
#
# Velocity S-wave (km/s) = 3.35105 4.20273 3.80082
# Velocity P-wave (km/s) = 5.41028 7.10862 6.31678
#
# Compressibility (1/GPa) = 0.03175024
#
# Stress axis : x y z
#
# Youngs Moduli (GPa) = 149.53888 35.69901 132.05270
#
# Poissons Ratio (x) = 0.05878 0.33924
# Poissons Ratio (y) = 0.24620 0.13806
# Poissons Ratio (z) = 0.38416 0.03732
#
# Static dielectric constant tensor:
#      x y z
#    x 2.184190 0.000000 0.048020 
#    y 0.000000 1.870470 0.000000 
#    z 0.048020 0.000000 1.830380 
# 
# From -- ./inp_files/257216.got.cif
#   From: 2010.05.17/outbox.cif.g08.bks.cpg/sg12_129_cif.got.tgz:257216.got - 2010.06.03 13:09:07.
