data_PCOD9207540
_publ_section_title
;
Structure prediction by ZEFSAII (Michael W. Deem and Ramdas Pophale) SiO2 
 PCOD9207540
Probable space group: C 2/M
;
_chemical_formula_sum "Si O2"
_cell_formula_units_Z 40
_cell_length_a 24.396832
_cell_length_b 14.062177
_cell_length_c 8.452166
_cell_angle_alpha 90.000000
_cell_angle_beta 39.755759
_cell_angle_gamma 90.000000
_cell_volume 1854.409386
_symmetry_space_group_name_H-M "C 2/M"
_symmetry_group_IT_number 12
_symmetry_cell_setting 'monoclinic'
loop_
_space_group_symop_operation_xyz
x,y,z
-x,y,-z
-x,-y,-z
x,-y,z
1/2+x,1/2+y,z
1/2-x,1/2+y,-z
1/2-x,1/2-y,-z
1/2+x,1/2-y,z
loop_
_atom_site_type_symbol
_atom_site_label
_atom_site_fract_x
_atom_site_fract_y
_atom_site_fract_z
Si Si1 0.401934 0.102732 0.252033
Si Si2 0.090162 0.889126 0.209464
Si Si3 0.755453 0.104971 0.884175
Si Si4 0.813839 0.735538 0.212524
Si Si5 0.572284 0.890206 0.461487
O O1 0.371208 0.153811 0.162283
O O2 0.405481 0.153506 0.416040
O O3 0.356173 0.000000 0.372586
O O4 0.500000 0.089001 0.000000
O O5 0.166090 0.884515 0.170347
O O6 0.000000 0.866870 0.500000
O O7 0.083845 0.000000 0.169285
O O8 0.125413 0.818747 0.993017
O O9 0.746500 0.192653 0.788048
O O10 0.764598 0.000000 0.786721
O O11 0.663335 0.105757 0.173743
O O12 0.750000 0.750000 0.500000
O O13 0.500000 0.851339 0.500000
O O14 0.544187 0.000000 0.557620
#
# Coordination Sequence:
#
# PCOD9207540 Si02
#       5
#     8   8   8   8   8
#     4  10  21  37  58  90 129 161 195 250 326 400
#     4  10  24  47  70  90 124 182 240 278 312 377
#     4  10  21  40  65  92 125 167 217 272 331 396
#     4  12  25  38  62  98 132 164 208 275 345 393
#     4   9  17  32  57  89 126 166 202 243 311 400
#
# _framework density 21.570209999999999
#
# number of rings (size 3 to 8) (size 9 to 14) (size 15 to 20)
#    0.000    1.800    0.000    3.600    0.000   10.400 
#    0.000    0.000    0.000    4.800    0.000    0.000 
#    0.000    0.800    0.000    0.000    0.000    0.000 
#
# Total GULP energy -111413.577452 kJ/mol
# GULP energy per Si atom -5570.678873 kJ/mol
# Density = 2.152112 g / cm^3
# Si number density = 21.570210 Si / 1000 Ang^3
#
#
#
# Elastic Constant Matrix: (Units=GPa)
#
#
# Indices 1 2 3 4 5 6 
#
# 1 91.7487 44.9410 31.0729 0.0000 -8.6218 0.0000
# 2 44.9410 98.5944 46.8797 0.0000 8.5803 0.0000
# 3 31.0729 46.8797 120.7361 0.0000 -0.6942 0.0000
# 4 0.0000 0.0000 0.0000 -55.1393 0.0000 -45.3602
# 5 -8.6218 8.5803 -0.6942 0.0000 45.4726 0.0000
# 6 0.0000 0.0000 0.0000 -45.3602 0.0000 -16.5832
#
#
#
# Elastic Compliance Matrix: (Units=1/GPa)
#
#
# Indices 1 2 3 4 5 6 
#
# 1 0.014917 -0.006545 -0.001274 0.000000 0.004044 0.000000
# 2 -0.006545 0.015584 -0.004391 0.000000 -0.004249 0.000000
# 3 -0.001274 -0.004391 0.010320 0.000000 0.000744 0.000000
# 4 0.000000 0.000000 0.000000 0.014507 0.000000 -0.039680
# 5 0.004044 -0.004249 0.000744 0.000000 0.023571 0.000000
# 6 0.000000 0.000000 0.000000 -0.039680 0.000000 0.048234
#
#
# Mechanical properties :
#
#
# Convention : Reuss Voigt Hill
#
# Bulk Modulus (GPa) = 60.97853 61.87403 61.42628
# Shear Modulus (GPa) = 31.84319 7.29572 19.56946
#
# Velocity S-wave (km/s) = 3.84638 1.84110 3.01532
# Velocity P-wave (km/s) = 6.93234 5.76773 6.37668
#
# Compressibility (1/GPa) = 0.01639922
#
# Stress axis : x y z
#
# Youngs Moduli (GPa) = 67.03720 64.17036 96.90299
#
# Poissons Ratio (x) = 0.42003 0.12349
# Poissons Ratio (y) = 0.43879 0.42547
# Poissons Ratio (z) = 0.08543 0.28175
#
# Static dielectric constant tensor:
#      x y z
#    x 1.748010 0.000000 0.087850 
#    y 0.000000 -0.188120 0.000000 
#    z 0.087850 0.000000 1.895980 
# 
# From -- ./inp_files/96068.got.cif
#   From: 2010.05.17/outbox.cif.g08.bks.cpg/sg12_49_cif.got.tgz:96068.got - 2010.06.03 13:09:07.
