data_PCOD9207770
_publ_section_title
;
Structure prediction by ZEFSAII (Michael W. Deem and Ramdas Pophale) SiO2 
 PCOD9207770
Probable space group: C 2/M
;
_chemical_formula_sum "Si O2"
_cell_formula_units_Z 56
_cell_length_a 19.398786
_cell_length_b 11.841312
_cell_length_c 12.778981
_cell_angle_alpha 90.000000
_cell_angle_beta 108.280068
_cell_angle_gamma 90.000000
_cell_volume 2787.285265
_symmetry_space_group_name_H-M "C 2/M"
_symmetry_group_IT_number 12
_symmetry_cell_setting 'monoclinic'
loop_
_space_group_symop_operation_xyz
x,y,z
-x,y,-z
-x,-y,-z
x,-y,z
1/2+x,1/2+y,z
1/2-x,1/2+y,-z
1/2-x,1/2-y,-z
1/2+x,1/2-y,z
loop_
_atom_site_type_symbol
_atom_site_label
_atom_site_fract_x
_atom_site_fract_y
_atom_site_fract_z
Si Si1 0.424336 0.127858 0.403939
Si Si2 0.620092 0.271214 0.260320
Si Si3 0.017113 0.368425 0.885198
Si Si4 0.566827 0.500000 0.883349
Si Si5 0.671690 0.723604 0.508780
Si Si6 0.381140 0.730636 0.187389
Si Si7 0.602419 0.500000 0.135561
Si Si8 0.739151 0.630664 0.739590
O O1 0.500000 0.136301 0.500000
O O2 0.362500 0.165439 0.455244
O O3 0.419884 0.211475 0.304778
O O4 0.413510 0.000000 0.362912
O O5 0.544823 0.207782 0.199117
O O6 0.624316 0.305968 0.384695
O O7 0.631495 0.384503 0.198688
O O8 0.685025 0.185520 0.260299
O O9 0.013225 0.500000 0.851393
O O10 0.095587 0.314537 0.895268
O O11 0.000000 0.361707 0.000000
O O12 0.586298 0.610298 0.827635
O O13 0.482720 0.500000 0.874375
O O14 0.609262 0.500000 0.013858
O O15 0.750000 0.750000 0.500000
O O16 0.685637 0.639453 0.612335
O O17 0.299534 0.704254 0.187694
O O18 0.747615 0.500000 0.773682
#
# Coordination Sequence:
#
# PCOD9207770 Si02
#       8
#     8   8   8   4   8   8   4   8
#     4  10  21  37  59  92 128 158 203 253 310 369
#     4  11  22  41  64  93 122 164 206 256 304 367
#     4  11  23  40  65  93 120 156 210 266 311 359
#     4  11  22  42  66  87 122 164 205 261 314 362
#     4   9  21  37  57  91 123 163 202 240 301 368
#     4  11  21  40  63  87 121 169 202 247 312 369
#     4  11  24  40  65  94 121 157 214 261 306 364
#     4  10  22  41  62  89 127 164 200 246 308 374
#
# _framework density 20.091235000000001
#
# number of rings (size 3 to 8) (size 9 to 14) (size 15 to 20)
#    0.000    1.571    2.143    2.571    1.000    4.000 
#   11.571    3.214    0.000    0.000    0.000    0.000 
#    0.000    0.000    0.000    0.000    0.000    0.000 
#
# Total GULP energy -156231.815320 kJ/mol
# GULP energy per Si atom -5579.707690 kJ/mol
# Density = 2.004551 g / cm^3
# Si number density = 20.091235 Si / 1000 Ang^3
#
#
#
# Elastic Constant Matrix: (Units=GPa)
#
#
# Indices 1 2 3 4 5 6 
#
# 1 71.7083 14.2370 7.6198 0.0000 -27.2238 0.0000
# 2 14.2370 121.2836 36.5411 0.0000 -10.7237 0.0000
# 3 7.6198 36.5411 67.5789 0.0000 -15.9199 0.0000
# 4 0.0000 0.0000 0.0000 29.8604 0.0000 -10.2825
# 5 -27.2238 -10.7237 -15.9199 0.0000 28.4199 0.0000
# 6 0.0000 0.0000 0.0000 -10.2825 0.0000 26.2361
#
#
#
# Elastic Compliance Matrix: (Units=1/GPa)
#
#
# Indices 1 2 3 4 5 6 
#
# 1 0.022719 -0.001779 0.003881 0.000000 0.023265 0.000000
# 2 -0.001779 0.010007 -0.005440 0.000000 -0.000976 0.000000
# 3 0.003881 -0.005440 0.020384 0.000000 0.013083 0.000000
# 4 0.000000 0.000000 0.000000 0.038714 0.000000 0.015173
# 5 0.023265 -0.000976 0.013083 0.000000 0.064433 0.000000
# 6 0.000000 0.000000 0.000000 0.015173 0.000000 0.044062
#
#
# Mechanical properties :
#
#
# Convention : Reuss Voigt Hill
#
# Bulk Modulus (GPa) = 21.53642 41.92961 31.73302
# Shear Modulus (GPa) = 22.47470 30.38149 26.42809
#
# Velocity S-wave (km/s) = 3.34822 3.89289 3.63078
# Velocity P-wave (km/s) = 5.06854 6.41257 5.77975
#
# Compressibility (1/GPa) = 0.04643297
#
# Stress axis : x y z
#
# Youngs Moduli (GPa) = 44.01632 99.93270 49.05920
#
# Poissons Ratio (x) = 0.17779 -0.19040
# Poissons Ratio (y) = 0.07831 0.26689
# Poissons Ratio (z) = -0.17083 0.54364
#
# Static dielectric constant tensor:
#      x y z
#    x 1.717110 0.000000 -0.011410 
#    y 0.000000 1.674020 0.000000 
#    z -0.011410 0.000000 1.745900 
# 
# From -- ./inp_files/165741.got.cif
#   From: 2010.05.17/outbox.cif.g08.bks.cpg/sg12_83_cif.got.tgz:165741.got - 2010.06.03 13:09:07.
