data_PCOD9207462
_publ_section_title
;
Structure prediction by ZEFSAII (Michael W. Deem and Ramdas Pophale) SiO2 
 PCOD9207462
Probable space group: C 2/M
;
_chemical_formula_sum "Si O2"
_cell_formula_units_Z 64
_cell_length_a 14.499220
_cell_length_b 19.224092
_cell_length_c 13.973919
_cell_angle_alpha 90.000000
_cell_angle_beta 125.933753
_cell_angle_gamma 90.000000
_cell_volume 3153.775153
_symmetry_space_group_name_H-M "C 2/M"
_symmetry_group_IT_number 12
_symmetry_cell_setting 'monoclinic'
loop_
_space_group_symop_operation_xyz
x,y,z
-x,y,-z
-x,-y,-z
x,-y,z
1/2+x,1/2+y,z
1/2-x,1/2+y,-z
1/2-x,1/2-y,-z
1/2+x,1/2-y,z
loop_
_atom_site_type_symbol
_atom_site_label
_atom_site_fract_x
_atom_site_fract_y
_atom_site_fract_z
Si Si1 0.421056 0.207228 0.861958
Si Si2 0.710239 0.077014 0.139623
Si Si3 0.229792 0.165699 0.185271
Si Si4 0.607669 0.580991 0.261370
Si Si5 0.655747 0.308938 0.457444
Si Si6 0.554375 0.767154 0.749614
Si Si7 0.144981 0.140249 0.921580
Si Si8 0.364637 0.423296 0.407529
O O1 0.370478 0.133950 0.863330
O O2 0.325111 0.266658 0.797055
O O3 0.486197 0.204138 0.800672
O O4 0.500000 0.228815 0.000000
O O5 0.752370 0.095777 0.059974
O O6 0.824731 0.078831 0.273981
O O7 0.661355 0.000000 0.114784
O O8 0.188172 0.100229 0.221121
O O9 0.363505 0.178717 0.252452
O O10 0.175907 0.160559 0.047272
O O11 0.612013 0.500000 0.289278
O O12 0.647434 0.632171 0.370155
O O13 0.477302 0.602278 0.156976
O O14 0.750000 0.250000 0.500000
O O15 0.534362 0.269561 0.376083
O O16 0.679065 0.355096 0.565249
O O17 0.633240 0.707591 0.846029
O O18 0.500000 0.421696 0.500000
O O19 0.325752 0.500000 0.420757
#
# Coordination Sequence:
#
# PCOD9207462 Si02
#       8
#     8   8   8   8   8   8   8   8
#     4  12  21  38  61  87 124 159 207 248 297 373
#     4  11  24  38  58  87 124 163 200 255 314 366
#     4  12  22  39  64  92 126 166 203 247 315 374
#     4  11  24  40  62  95 131 163 205 263 317 371
#     4  11  23  39  64  90 122 161 211 260 310 364
#     4  11  22  36  61  95 119 158 209 264 301 362
#     4  11  20  37  63  93 125 159 208 254 310 374
#     4  10  21  37  58  86 118 153 197 257 320 356
#
# _framework density 20.293140000000001
#
# number of rings (size 3 to 8) (size 9 to 14) (size 15 to 20)
#    0.000    0.875    5.000    4.500    0.000    2.750 
#    0.000    0.625    0.000    2.250    0.000    0.000 
#    0.000    0.000    0.000    0.000    0.000    0.000 
#
# Total GULP energy -178876.807397 kJ/mol
# GULP energy per Si atom -5589.900231 kJ/mol
# Density = 2.024695 g / cm^3
# Si number density = 20.293140 Si / 1000 Ang^3
#
#
#
# Elastic Constant Matrix: (Units=GPa)
#
#
# Indices 1 2 3 4 5 6 
#
# 1 89.9138 44.5169 -1.6065 0.0000 0.0263 0.0000
# 2 44.5169 127.0046 12.4224 0.0000 3.7741 0.0000
# 3 -1.6065 12.4224 29.8809 0.0000 5.5989 0.0000
# 4 0.0000 0.0000 0.0000 17.4683 0.0000 0.3695
# 5 0.0263 3.7741 5.5989 0.0000 14.0765 0.0000
# 6 0.0000 0.0000 0.0000 0.3695 0.0000 26.5366
#
#
#
# Elastic Compliance Matrix: (Units=1/GPa)
#
#
# Indices 1 2 3 4 5 6 
#
# 1 0.013686 -0.005078 0.002806 0.000000 0.000220 0.000000
# 2 -0.005078 0.010102 -0.004287 0.000000 -0.000994 0.000000
# 3 0.002806 -0.004287 0.038018 0.000000 -0.013977 0.000000
# 4 0.000000 0.000000 0.000000 0.057263 0.000000 -0.000797
# 5 0.000220 -0.000994 -0.013977 0.000000 0.076866 0.000000
# 6 0.000000 0.000000 0.000000 -0.000797 0.000000 0.037695
#
#
# Mechanical properties :
#
#
# Convention : Reuss Voigt Hill
#
# Bulk Modulus (GPa) = 20.53871 39.71833 30.12852
# Shear Modulus (GPa) = 19.01297 24.38073 21.69685
#
# Velocity S-wave (km/s) = 3.06423 3.46992 3.27337
# Velocity P-wave (km/s) = 4.76050 5.97232 5.40051
#
# Compressibility (1/GPa) = 0.04868854
#
# Stress axis : x y z
#
# Youngs Moduli (GPa) = 73.06720 98.98541 26.30321
#
# Poissons Ratio (x) = 0.50266 -0.07380
# Poissons Ratio (y) = 0.37104 0.11275
# Poissons Ratio (z) = -0.20500 0.42432
#
# Static dielectric constant tensor:
#      x y z
#    x 1.766500 0.000000 -0.004650 
#    y 0.000000 1.744300 0.000000 
#    z -0.004650 0.000000 1.731510 
# 
# From -- ./inp_files/216767.got.cif
#   From: 2010.05.17/outbox.cif.g08.bks.cpg/sg12_109_cif.got.tgz:216767.got - 2010.06.03 13:09:07.
