data_PCOD9207604
_publ_section_title
;
Structure prediction by ZEFSAII (Michael W. Deem and Ramdas Pophale) SiO2 
 PCOD9207604
Probable space group: C 2/M
;
_chemical_formula_sum "Si O2"
_cell_formula_units_Z 40
_cell_length_a 14.637308
_cell_length_b 15.466344
_cell_length_c 21.586666
_cell_angle_alpha 90.000000
_cell_angle_beta 156.918492
_cell_angle_gamma 90.000000
_cell_volume 1915.865783
_symmetry_space_group_name_H-M "C 2/M"
_symmetry_group_IT_number 12
_symmetry_cell_setting 'monoclinic'
loop_
_space_group_symop_operation_xyz
x,y,z
-x,y,-z
-x,-y,-z
x,-y,z
1/2+x,1/2+y,z
1/2-x,1/2+y,-z
1/2-x,1/2-y,-z
1/2+x,1/2-y,z
loop_
_atom_site_type_symbol
_atom_site_label
_atom_site_fract_x
_atom_site_fract_y
_atom_site_fract_z
Si Si1 0.548212 0.186518 0.224910
Si Si2 0.410525 0.299091 0.551023
Si Si3 0.212228 0.652894 0.668509
Si Si4 0.355724 0.103183 0.849137
Si Si5 0.399031 0.402131 0.002372
O O1 0.752459 0.156198 0.399309
O O2 0.608500 0.288511 0.259726
O O3 0.563363 0.145850 0.165588
O O4 0.300967 0.161131 0.098617
O O5 0.250000 0.250000 0.500000
O O6 0.572559 0.225525 0.620766
O O7 0.588953 0.367048 0.691322
O O8 0.379403 0.596894 0.814408
O O9 0.000000 0.608471 0.500000
O O10 0.375725 0.000000 0.855595
O O11 0.500000 0.130667 0.000000
O O12 0.304793 0.500000 0.937594
O O13 0.500000 0.372482 0.000000
#
# Coordination Sequence:
#
# PCOD9207604 Si02
#       5
#     8   8   8   8   8
#     4  10  21  39  62  85 114 155 199 245 295 348
#     4  10  21  37  59  86 116 152 195 241 291 352
#     4   9  20  37  57  82 109 146 193 236 283 337
#     4  10  22  39  60  89 120 153 199 251 299 347
#     4  11  23  37  56  85 119 153 189 232 289 357
#
# _framework density 20.878288000000001
#
# number of rings (size 3 to 8) (size 9 to 14) (size 15 to 20)
#    0.000    2.000    0.000    4.200    0.000   12.400 
#    0.000    1.000    0.000    0.000    0.000    0.000 
#    0.000    0.000    0.000    0.000    0.000    0.000 
#
# Total GULP energy -111603.501034 kJ/mol
# GULP energy per Si atom -5580.175052 kJ/mol
# Density = 2.083077 g / cm^3
# Si number density = 20.878288 Si / 1000 Ang^3
#
#
#
# Elastic Constant Matrix: (Units=GPa)
#
#
# Indices 1 2 3 4 5 6 
#
# 1 127.3942 34.6411 66.3520 0.0024 4.4526 0.0038
# 2 34.6411 41.8410 37.6746 0.0386 -0.3970 0.0179
# 3 66.3520 37.6746 172.0273 0.0523 -20.9946 0.0171
# 4 0.0024 0.0386 0.0523 29.7077 0.0018 -9.5037
# 5 4.4526 -0.3970 -20.9946 0.0018 39.9659 0.0042
# 6 0.0038 0.0179 0.0171 -9.5037 0.0042 23.4308
#
#
#
# Elastic Compliance Matrix: (Units=1/GPa)
#
#
# Indices 1 2 3 4 5 6 
#
# 1 0.011490 -0.006488 -0.003393 0.000018 -0.003127 0.000013
# 2 -0.006488 0.033858 -0.005111 -0.000047 -0.001626 -0.000040
# 3 -0.003393 -0.005111 0.008848 -0.000011 0.004975 -0.000008
# 4 0.000018 -0.000047 -0.000011 0.038680 -0.000012 0.015689
# 5 -0.003127 -0.001626 0.004975 -0.000012 0.027967 -0.000012
# 6 0.000013 -0.000040 -0.000008 0.015689 -0.000012 0.049042
#
#
# Mechanical properties :
#
#
# Convention : Reuss Voigt Hill
#
# Bulk Modulus (GPa) = 41.29931 68.73310 55.01620
# Shear Modulus (GPa) = 24.04535 32.12720 28.08628
#
# Velocity S-wave (km/s) = 3.39734 3.92699 3.67173
# Velocity P-wave (km/s) = 5.93407 7.31806 6.66210
#
# Compressibility (1/GPa) = 0.02421348
#
# Stress axis : x y z
#
# Youngs Moduli (GPa) = 87.03152 29.53488 113.01896
#
# Poissons Ratio (x) = 0.19162 0.38342
# Poissons Ratio (y) = 0.56465 0.57765
# Poissons Ratio (z) = 0.29526 0.15095
#
# Static dielectric constant tensor:
#      x y z
#    x 1.778700 0.000000 -0.039780 
#    y 0.000000 1.728170 0.000000 
#    z -0.039780 0.000000 1.808680 
# 
# From -- ./inp_files/60809.got.cif
#   From: 2010.05.17/outbox.cif.g08.bks.cpg/sg12_31_cif.got.tgz:60809.got - 2010.06.03 13:09:07.
