data_PCOD9207595
_publ_section_title
;
Structure prediction by ZEFSAII (Michael W. Deem and Ramdas Pophale) SiO2 
 PCOD9207595
Probable space group: C 2/M
;
_chemical_formula_sum "Si O2"
_cell_formula_units_Z 48
_cell_length_a 30.284088
_cell_length_b 8.963727
_cell_length_c 16.769998
_cell_angle_alpha 90.000000
_cell_angle_beta 37.069980
_cell_angle_gamma 90.000000
_cell_volume 2744.114189
_symmetry_space_group_name_H-M "C 2/M"
_symmetry_group_IT_number 12
_symmetry_cell_setting 'monoclinic'
loop_
_space_group_symop_operation_xyz
x,y,z
-x,y,-z
-x,-y,-z
x,-y,z
1/2+x,1/2+y,z
1/2-x,1/2+y,-z
1/2-x,1/2-y,-z
1/2+x,1/2-y,z
loop_
_atom_site_type_symbol
_atom_site_label
_atom_site_fract_x
_atom_site_fract_y
_atom_site_fract_z
Si Si1 0.028209 0.321536 0.370982
Si Si2 0.670414 0.321518 0.612638
Si Si3 0.450610 0.321907 0.336448
Si Si4 0.099943 0.176365 0.026619
Si Si5 0.172653 0.178786 0.089026
Si Si6 0.087318 0.675515 0.879078
O O1 0.036143 0.500000 0.353818
O O2 0.105672 0.245636 0.237127
O O3 0.000000 0.283849 0.500000
O O4 0.970550 0.264263 0.388028
O O5 0.675265 0.500000 0.606300
O O6 0.750000 0.250000 0.500000
O O7 0.623550 0.278357 0.601707
O O8 0.626241 0.266164 0.753287
O O9 0.450022 0.500000 0.353282
O O10 0.518085 0.294940 0.178228
O O11 0.152643 0.210083 0.025253
O O12 0.105116 0.000000 0.000902
O O13 0.113200 0.269949 0.928455
O O14 0.173999 0.000000 0.096778
O O15 0.250000 0.250000 0.000000
O O16 0.101503 0.500000 0.848183
O O17 0.000000 0.700416 0.000000
#
# Coordination Sequence:
#
# PCOD9207595 Si02
#       6
#     8   8   8   8   8   8
#     4  10  21  37  59  86 114 148 190 233 279 337
#     4  11  23  40  59  82 116 153 189 233 287 337
#     4   9  19  36  59  83 110 148 190 232 281 337
#     4   9  18  35  58  84 111 146 190 231 280 335
#     4  10  21  38  60  86 116 150 187 233 287 337
#     4  11  22  35  57  88 115 145 190 234 275 333
#
# _framework density 17.491983000000001
#
# number of rings (size 3 to 8) (size 9 to 14) (size 15 to 20)
#    0.000    2.000    1.667    3.000    0.000    6.667 
#    3.000    0.000    0.000    0.000    0.000    0.000 
#    0.000    0.000    0.000    0.000    0.000    0.000 
#
# Total GULP energy -133992.942478 kJ/mol
# GULP energy per Si atom -5583.039270 kJ/mol
# Density = 1.745217 g / cm^3
# Si number density = 17.491983 Si / 1000 Ang^3
#
#
#
# Elastic Constant Matrix: (Units=GPa)
#
#
# Indices 1 2 3 4 5 6 
#
# 1 160.1301 74.5464 83.7774 0.0002 -10.0980 0.0002
# 2 74.5464 68.2705 58.2521 0.0003 0.2205 0.0019
# 3 83.7774 58.2521 80.7144 0.0000 3.3890 0.0012
# 4 0.0002 0.0003 0.0000 32.8325 0.0005 0.2444
# 5 -10.0980 0.2205 3.3890 0.0005 32.6120 -0.0009
# 6 0.0002 0.0019 0.0012 0.2444 -0.0009 29.4068
#
#
#
# Elastic Compliance Matrix: (Units=1/GPa)
#
#
# Indices 1 2 3 4 5 6 
#
# 1 0.016439 -0.008290 -0.011345 0.000000 0.006325 0.000001
# 2 -0.008290 0.042529 -0.022065 0.000000 -0.000562 -0.000002
# 3 -0.011345 -0.022065 0.040407 0.000000 -0.007563 0.000000
# 4 0.000000 0.000000 0.000000 0.030460 -0.000001 -0.000253
# 5 0.006325 -0.000562 -0.007563 -0.000001 0.033412 0.000001
# 6 0.000001 -0.000002 0.000000 -0.000253 0.000001 0.034008
#
#
# Mechanical properties :
#
#
# Convention : Reuss Voigt Hill
#
# Bulk Modulus (GPa) = 62.60159 82.47411 72.53785
# Shear Modulus (GPa) = 17.48385 25.13952 21.31168
#
# Velocity S-wave (km/s) = 3.16497 3.79516 3.49430
# Velocity P-wave (km/s) = 7.01587 8.15207 7.60522
#
# Compressibility (1/GPa) = 0.01597403
#
# Stress axis : x y z
#
# Youngs Moduli (GPa) = 60.83218 23.51363 24.74818
#
# Poissons Ratio (x) = 0.19493 0.28077
# Poissons Ratio (y) = 0.50430 0.54607
# Poissons Ratio (z) = 0.69015 0.51883
#
# Static dielectric constant tensor:
#      x y z
#    x 1.590630 0.000000 -0.003680 
#    y 0.000000 1.580630 0.000000 
#    z -0.003680 0.000000 1.565350 
# 
# From -- ./inp_files/244739.got.cif
#   From: 2010.05.17/outbox.cif.g08.bks.cpg/sg12_123_cif.got.tgz:244739.got - 2010.06.03 13:09:07.
