data_PCOD9207086
_publ_section_title
;
Structure prediction by ZEFSAII (Michael W. Deem and Ramdas Pophale) SiO2 
 PCOD9207086
Probable space group: C 2/M
;
_chemical_formula_sum "Si O2"
_cell_formula_units_Z 56
_cell_length_a 20.531244
_cell_length_b 17.611341
_cell_length_c 19.899241
_cell_angle_alpha 90.000000
_cell_angle_beta 21.856875
_cell_angle_gamma 90.000000
_cell_volume 2678.704328
_symmetry_space_group_name_H-M "C 2/M"
_symmetry_group_IT_number 12
_symmetry_cell_setting 'monoclinic'
loop_
_space_group_symop_operation_xyz
x,y,z
-x,y,-z
-x,-y,-z
x,-y,z
1/2+x,1/2+y,z
1/2-x,1/2+y,-z
1/2-x,1/2-y,-z
1/2+x,1/2-y,z
loop_
_atom_site_type_symbol
_atom_site_label
_atom_site_fract_x
_atom_site_fract_y
_atom_site_fract_z
Si Si1 0.996467 0.916581 0.905155
Si Si2 0.522125 0.754606 0.399038
Si Si3 0.015157 0.306935 0.769355
Si Si4 0.688375 0.415790 0.062468
Si Si5 0.081528 0.748307 0.991523
Si Si6 0.419096 0.081815 0.502114
Si Si7 0.392000 0.337793 0.412046
O O1 0.207930 0.912856 0.705060
O O2 0.918919 0.912874 0.904531
O O3 0.925428 0.840321 0.006246
O O4 0.942929 0.000000 0.983633
O O5 0.500000 0.756104 0.500000
O O6 0.489778 0.840361 0.403440
O O7 0.395430 0.697411 0.482923
O O8 0.716219 0.728407 0.197269
O O9 0.191417 0.355507 0.587578
O O10 0.041933 0.231328 0.699233
O O11 0.004806 0.279586 0.856869
O O12 0.840120 0.353082 0.920152
O O13 0.764277 0.500000 0.997267
O O14 0.537505 0.401010 0.261952
O O15 0.000000 0.719037 0.000000
O O16 0.500000 0.080302 0.500000
O O17 0.466300 0.000000 0.425364
#
# Coordination Sequence:
#
# PCOD9207086 Si02
#       7
#     8   8   8   8   8   8   8
#     4  10  21  37  56  86 126 165 208 252 305 376
#     4  11  22  36  58  92 122 160 213 261 313 378
#     4  11  23  41  64  96 126 165 212 263 318 376
#     4  11  23  42  65  92 128 167 212 262 321 380
#     4  12  22  37  62  90 125 164 211 259 315 378
#     4   9  18  34  53  79 123 167 206 248 298 367
#     4  11  22  40  68  91 129 163 208 266 318 376
#
# _framework density 20.905629000000001
#
# number of rings (size 3 to 8) (size 9 to 14) (size 15 to 20)
#    0.000    1.286    2.857    4.714    2.000    1.429 
#    0.000    0.714    0.000    0.857    0.000    0.000 
#    0.000    0.000    0.000    0.000    0.000    0.000 
#
# Total GULP energy -156440.193744 kJ/mol
# GULP energy per Si atom -5587.149777 kJ/mol
# Density = 2.085805 g / cm^3
# Si number density = 20.905629 Si / 1000 Ang^3
#
#
#
# Elastic Constant Matrix: (Units=GPa)
#
#
# Indices 1 2 3 4 5 6 
#
# 1 97.5968 22.3987 18.5547 0.0014 -6.3168 -0.0003
# 2 22.3987 37.7980 9.7579 0.0130 -4.5561 -0.0037
# 3 18.5547 9.7579 102.3351 0.0248 -24.7253 -0.0016
# 4 0.0014 0.0130 0.0248 -1.3205 -0.0056 -2.9556
# 5 -6.3168 -4.5561 -24.7253 -0.0056 39.0101 0.0014
# 6 -0.0003 -0.0037 -0.0016 -2.9556 0.0014 -6.2271
#
#
#
# Elastic Compliance Matrix: (Units=1/GPa)
#
#
# Indices 1 2 3 4 5 6 
#
# 1 0.012095 -0.006755 -0.001496 0.001476 0.000222 -0.000697
# 2 -0.006755 0.031006 -0.001323 -0.004913 0.001688 0.002314
# 3 -0.001496 -0.001323 0.011896 -0.002874 0.007142 0.001363
# 4 0.001476 -0.004913 -0.002874 12.154370 -0.000186 -5.768804
# 5 0.000222 0.001688 0.007142 -0.000186 0.030394 0.000092
# 6 -0.000697 0.002314 0.001363 -5.768804 0.000092 2.577448
#
#
# Mechanical properties :
#
#
# Convention : Reuss Voigt Hill
#
# Bulk Modulus (GPa) = 27.89381 37.68361 32.78871
# Shear Modulus (GPa) = 0.33674 18.76040 9.54857
#
# Velocity S-wave (km/s) = 0.40178 2.99889 2.13948
# Velocity P-wave (km/s) = 3.68604 5.48232 4.67134
#
# Compressibility (1/GPa) = 0.03585025
#
# Stress axis : x y z
#
# Youngs Moduli (GPa) = 82.67689 32.25139 84.06520
#
# Poissons Ratio (x) = 0.21787 0.12573
# Poissons Ratio (y) = 0.55850 0.11118
# Poissons Ratio (z) = 0.12366 0.04265
#
# Static dielectric constant tensor:
#      x y z
#    x 1.802460 0.000000 -0.003490 
#    y 0.000000 1.757020 0.000000 
#    z -0.003490 0.000000 1.765670 
# 
# From -- ./inp_files/322672.got.cif
#   From: 2010.05.17/outbox.cif.g08.bks.cpg/sg12_162_cif.got.tgz:322672.got - 2010.06.03 13:09:07.
