data_PCOD9207767
_publ_section_title
;
Structure prediction by ZEFSAII (Michael W. Deem and Ramdas Pophale) SiO2 
 PCOD9207767
Probable space group: C 2/M
;
_chemical_formula_sum "Si O2"
_cell_formula_units_Z 48
_cell_length_a 8.163188
_cell_length_b 22.159194
_cell_length_c 11.680762
_cell_angle_alpha 90.000000
_cell_angle_beta 107.227600
_cell_angle_gamma 90.000000
_cell_volume 2018.134279
_symmetry_space_group_name_H-M "C 2/M"
_symmetry_group_IT_number 12
_symmetry_cell_setting 'monoclinic'
loop_
_space_group_symop_operation_xyz
x,y,z
-x,y,-z
-x,-y,-z
x,-y,z
1/2+x,1/2+y,z
1/2-x,1/2+y,-z
1/2-x,1/2-y,-z
1/2+x,1/2-y,z
loop_
_atom_site_type_symbol
_atom_site_label
_atom_site_fract_x
_atom_site_fract_y
_atom_site_fract_z
Si Si1 0.373509 0.816013 0.069072
Si Si2 0.091187 0.728872 0.675585
Si Si3 0.408986 0.933679 0.822892
Si Si4 0.089968 0.843271 0.349155
Si Si5 0.137833 0.614315 0.435753
Si Si6 0.906124 0.892962 0.092032
O O1 0.376504 0.776871 0.182801
O O2 0.458807 0.880456 0.121507
O O3 0.500000 0.790286 0.000000
O O4 0.191159 0.833925 0.979161
O O5 0.260534 0.703731 0.652552
O O6 0.058889 0.798471 0.640579
O O7 0.941875 0.680952 0.611252
O O8 0.353813 0.921617 0.680667
O O9 0.246710 0.927828 0.874137
O O10 0.485853 0.000000 0.850057
O O11 0.180417 0.883556 0.462885
O O12 0.035956 0.876464 0.221420
O O13 0.000000 0.589488 0.500000
O O14 0.000000 0.920469 0.000000
#
# Coordination Sequence:
#
# PCOD9207767 Si02
#       6
#     8   8   8   8   8   8
#     4   9  20  38  61  88 126 163 212 261 306 369
#     4  10  21  37  59  92 124 173 217 249 309 372
#     4  10  23  44  72  94 117 164 218 265 325 379
#     4  11  23  37  62  93 129 173 212 253 313 374
#     4   9  21  43  65  92 129 162 210 270 315 374
#     4  11  23  41  61  91 136 167 201 265 316 371
#
# _framework density 23.784344000000001
#
# number of rings (size 3 to 8) (size 9 to 14) (size 15 to 20)
#    0.000    2.000    1.667    0.500    7.000    5.667 
#    0.000    1.667    0.000    0.000    0.000    0.000 
#    0.000    0.000    0.000    0.000    0.000    0.000 
#
# Total GULP energy -134296.881562 kJ/mol
# GULP energy per Si atom -5595.703398 kJ/mol
# Density = 2.373021 g / cm^3
# Si number density = 23.784344 Si / 1000 Ang^3
#
#
#
# Elastic Constant Matrix: (Units=GPa)
#
#
# Indices 1 2 3 4 5 6 
#
# 1 79.0394 16.1633 33.9887 0.0000 -7.8032 0.0000
# 2 16.1633 68.3133 26.1878 0.0000 2.4914 0.0000
# 3 33.9887 26.1878 176.3625 0.0000 -2.1695 0.0000
# 4 0.0000 0.0000 0.0000 3.6813 0.0000 0.1846
# 5 -7.8032 2.4914 -2.1695 0.0000 47.1595 0.0000
# 6 0.0000 0.0000 0.0000 0.1846 0.0000 4.1246
#
#
#
# Elastic Compliance Matrix: (Units=1/GPa)
#
#
# Indices 1 2 3 4 5 6 
#
# 1 0.014440 -0.002597 -0.002367 0.000000 0.002418 0.000000
# 2 -0.002597 0.016030 -0.001896 0.000000 -0.001364 0.000000
# 3 -0.002367 -0.001896 0.006408 0.000000 0.000003 0.000000
# 4 0.000000 0.000000 0.000000 0.272256 0.000000 -0.012186
# 5 0.002418 -0.001364 0.000003 0.000000 0.021677 0.000000
# 6 0.000000 0.000000 0.000000 -0.012186 0.000000 0.242992
#
#
# Mechanical properties :
#
#
# Convention : Reuss Voigt Hill
#
# Bulk Modulus (GPa) = 43.18660 52.93278 48.05969
# Shear Modulus (GPa) = 8.39994 27.48479 17.94236
#
# Velocity S-wave (km/s) = 1.88132 3.40307 2.74957
# Velocity P-wave (km/s) = 4.78708 6.14368 5.50731
#
# Compressibility (1/GPa) = 0.02315533
#
# Stress axis : x y z
#
# Youngs Moduli (GPa) = 69.25329 62.38429 156.05392
#
# Poissons Ratio (x) = 0.16202 0.36945
# Poissons Ratio (y) = 0.17986 0.29595
# Poissons Ratio (z) = 0.16395 0.11831
#
# Static dielectric constant tensor:
#      x y z
#    x 1.956760 0.000000 0.018150 
#    y 0.000000 1.869260 0.000000 
#    z 0.018150 0.000000 1.920060 
# 
# From -- ./inp_files/122545.got.cif
#   From: 2010.05.17/outbox.cif.g08.bks.cpg/sg12_62_cif.got.tgz:122545.got - 2010.06.03 13:09:07.
