data_PCOD9207958
_publ_section_title
;
Structure prediction by ZEFSAII (Michael W. Deem and Ramdas Pophale) SiO2 
 PCOD9207958
Probable space group: C 2/M
;
_chemical_formula_sum "Si O2"
_cell_formula_units_Z 48
_cell_length_a 9.555119
_cell_length_b 18.677404
_cell_length_c 16.556332
_cell_angle_alpha 90.000000
_cell_angle_beta 44.581395
_cell_angle_gamma 90.000000
_cell_volume 2073.984352
_symmetry_space_group_name_H-M "C 2/M"
_symmetry_group_IT_number 12
_symmetry_cell_setting 'monoclinic'
loop_
_space_group_symop_operation_xyz
x,y,z
-x,y,-z
-x,-y,-z
x,-y,z
1/2+x,1/2+y,z
1/2-x,1/2+y,-z
1/2-x,1/2-y,-z
1/2+x,1/2-y,z
loop_
_atom_site_type_symbol
_atom_site_label
_atom_site_fract_x
_atom_site_fract_y
_atom_site_fract_z
Si Si1 0.715789 0.082770 0.416863
Si Si2 0.765075 0.637981 0.103757
Si Si3 0.167502 0.281851 0.231297
Si Si4 0.902353 0.917596 0.661772
Si Si5 0.221845 0.211082 0.378026
Si Si6 0.595760 0.417519 0.839808
O O1 0.500000 0.116378 0.500000
O O2 0.806954 0.081561 0.290152
O O3 0.876620 0.114521 0.411872
O O4 0.690955 0.000000 0.453318
O O5 0.717090 0.720629 0.145418
O O6 0.701248 0.592621 0.209041
O O7 0.628631 0.610469 0.085826
O O8 0.000000 0.629887 0.000000
O O9 0.253300 0.254884 0.281700
O O10 0.271410 0.357925 0.169111
O O11 0.928141 0.281918 0.340530
O O12 0.791217 0.871873 0.641934
O O13 0.914368 0.000000 0.635712
O O14 0.000000 0.228647 0.500000
O O15 0.599640 0.500000 0.867820
#
# Coordination Sequence:
#
# PCOD9207958 Si02
#       6
#     8   8   8   8   8   8
#     4   8  15  29  52  81 117 157 194 240 298 367
#     4  10  21  41  69  90 122 170 218 263 319 387
#     4  11  23  43  61  94 128 167 216 269 312 382
#     4   9  20  37  57  93 129 155 208 265 314 379
#     4  11  24  40  62  90 127 176 214 257 314 384
#     4  10  21  37  60  93 125 160 212 264 315 376
#
# _framework density 23.14386
#
# number of rings (size 3 to 8) (size 9 to 14) (size 15 to 20)
#    0.000    2.167    1.667    2.000    2.333    3.667 
#    0.000    0.000    0.000    0.500    0.000    0.000 
#    0.000    0.000    0.000    0.000    0.000    0.000 
#
# Total GULP energy -134055.902930 kJ/mol
# GULP energy per Si atom -5585.662622 kJ/mol
# Density = 2.309118 g / cm^3
# Si number density = 23.143860 Si / 1000 Ang^3
#
#
#
# Elastic Constant Matrix: (Units=GPa)
#
#
# Indices 1 2 3 4 5 6 
#
# 1 69.7399 31.1204 28.9823 -0.0001 -24.8715 0.0000
# 2 31.1204 176.0046 12.4487 0.0002 -17.6752 0.0001
# 3 28.9823 12.4487 101.8002 0.0017 -43.4929 0.0005
# 4 -0.0001 0.0002 0.0017 -20.1704 -0.0003 -19.2710
# 5 -24.8715 -17.6752 -43.4929 -0.0003 40.5903 -0.0001
# 6 0.0000 0.0001 0.0005 -19.2710 -0.0001 13.5039
#
#
#
# Elastic Compliance Matrix: (Units=1/GPa)
#
#
# Indices 1 2 3 4 5 6 
#
# 1 0.019276 -0.002366 -0.001093 0.000000 0.009610 0.000000
# 2 -0.002366 0.006259 0.000836 0.000000 0.002171 0.000000
# 3 -0.001093 0.000836 0.018261 0.000001 0.019262 0.000001
# 4 0.000000 0.000000 0.000001 -0.020977 0.000000 -0.029936
# 5 0.009610 0.002171 0.019262 0.000000 0.052110 0.000000
# 6 0.000000 0.000000 0.000001 -0.029936 0.000000 0.031333
#
#
# Mechanical properties :
#
#
# Convention : Reuss Voigt Hill
#
# Bulk Modulus (GPa) = 25.93957 54.73860 40.33909
# Shear Modulus (GPa) = 40.20656 25.11764 32.66210
#
# Velocity S-wave (km/s) = 4.17255 3.29794 3.76076
# Velocity P-wave (km/s) = 5.86906 6.18099 6.02704
#
# Compressibility (1/GPa) = 0.03855114
#
# Stress axis : x y z
#
# Youngs Moduli (GPa) = 51.87744 159.77117 54.76044
#
# Poissons Ratio (x) = 0.37801 0.05984
# Poissons Ratio (y) = 0.12274 -0.04578
# Poissons Ratio (z) = 0.05669 -0.13356
#
# Static dielectric constant tensor:
#      x y z
#    x 1.882340 0.000000 -0.016050 
#    y 0.000000 1.894110 0.000000 
#    z -0.016050 0.000000 1.888890 
# 
# From -- ./inp_files/301567.got.cif
#   From: 2010.05.17/outbox.cif.g08.bks.cpg/sg12_151_cif.got.tgz:301567.got - 2010.06.03 13:09:07.
