data_PCOD9207538
_publ_section_title
;
Structure prediction by ZEFSAII (Michael W. Deem and Ramdas Pophale) SiO2 
 PCOD9207538
Probable space group: C 2/M
;
_chemical_formula_sum "Si O2"
_cell_formula_units_Z 48
_cell_length_a 10.378120
_cell_length_b 18.977225
_cell_length_c 20.583151
_cell_angle_alpha 90.000000
_cell_angle_beta 33.722805
_cell_angle_gamma 90.000000
_cell_volume 2250.575375
_symmetry_space_group_name_H-M "C 2/M"
_symmetry_group_IT_number 12
_symmetry_cell_setting 'monoclinic'
loop_
_space_group_symop_operation_xyz
x,y,z
-x,y,-z
-x,-y,-z
x,-y,z
1/2+x,1/2+y,z
1/2-x,1/2+y,-z
1/2-x,1/2-y,-z
1/2+x,1/2-y,z
loop_
_atom_site_type_symbol
_atom_site_label
_atom_site_fract_x
_atom_site_fract_y
_atom_site_fract_z
Si Si1 0.276728 0.576136 0.046103
Si Si2 0.927676 0.720448 0.683858
Si Si3 0.566406 0.338782 0.541805
Si Si4 0.231169 0.915993 0.601414
Si Si5 0.721854 0.771627 0.111043
Si Si6 0.985024 0.867059 0.176117
O O1 0.154658 0.500000 0.104539
O O2 0.151665 0.649555 0.117441
O O3 0.500000 0.574705 0.000000
O O4 0.378572 0.583296 0.930587
O O5 0.863574 0.746793 0.781295
O O6 0.774128 0.650935 0.738966
O O7 0.195369 0.701684 0.572610
O O8 0.891664 0.778655 0.642738
O O9 0.500000 0.371059 0.500000
O O10 0.627389 0.387981 0.577238
O O11 0.500000 0.889482 0.500000
O O12 0.061906 0.894040 0.731693
O O13 0.243582 0.000000 0.594645
O O14 0.617643 0.707802 0.113645
O O15 0.000000 0.770188 0.000000
#
# Coordination Sequence:
#
# PCOD9207538 Si02
#       6
#     8   8   8   8   8   8
#     4  10  21  37  58  90 128 164 206 263 325 379
#     4  11  22  38  64  96 128 163 217 274 327 382
#     4  11  24  41  65  97 133 168 214 276 334 387
#     4  11  24  42  67  98 132 176 222 267 324 395
#     4  11  22  38  61  96 127 165 216 273 318 385
#     4  12  21  40  66  92 129 169 222 265 322 386
#
# _framework density 21.32788
#
# number of rings (size 3 to 8) (size 9 to 14) (size 15 to 20)
#    0.000    1.000    6.667    2.000    2.333    0.333 
#    0.000    0.833    0.000    9.000    0.000    0.000 
#    0.000    0.667    0.000    0.000    0.000    0.000 
#
# Total GULP energy -133898.471677 kJ/mol
# GULP energy per Si atom -5579.102987 kJ/mol
# Density = 2.127934 g / cm^3
# Si number density = 21.327880 Si / 1000 Ang^3
#
#
#
# Elastic Constant Matrix: (Units=GPa)
#
#
# Indices 1 2 3 4 5 6 
#
# 1 101.9497 26.7768 14.6321 0.0097 29.0278 -0.0072
# 2 26.7768 89.8606 19.9993 -0.0073 9.4556 -0.0036
# 3 14.6321 19.9993 62.3913 0.0330 16.2532 -0.0144
# 4 0.0097 -0.0073 0.0330 30.3795 -0.0034 -2.2066
# 5 29.0278 9.4556 16.2532 -0.0034 31.7054 0.0002
# 6 -0.0072 -0.0036 -0.0144 -2.2066 0.0002 7.4417
#
#
#
# Elastic Compliance Matrix: (Units=1/GPa)
#
#
# Indices 1 2 3 4 5 6 
#
# 1 0.014010 -0.003078 0.000927 -0.000007 -0.012384 0.000012
# 2 -0.003078 0.012754 -0.003589 0.000008 0.000854 -0.000001
# 3 0.000927 -0.003589 0.019508 -0.000021 -0.009779 0.000031
# 4 -0.000007 0.000008 -0.000021 0.033642 0.000018 0.009975
# 5 -0.012384 0.000854 -0.009779 0.000018 0.047637 -0.000026
# 6 0.000012 -0.000001 0.000031 0.009975 -0.000026 0.137335
#
#
# Mechanical properties :
#
#
# Convention : Reuss Voigt Hill
#
# Bulk Modulus (GPa) = 28.74117 41.89091 35.31604
# Shear Modulus (GPa) = 17.36322 26.75820 22.06071
#
# Velocity S-wave (km/s) = 2.85635 3.54589 3.21964
# Velocity P-wave (km/s) = 4.93796 6.03726 5.51507
#
# Compressibility (1/GPa) = 0.03479329
#
# Stress axis : x y z
#
# Youngs Moduli (GPa) = 71.37604 78.40406 51.25993
#
# Poissons Ratio (x) = 0.24133 -0.04752
# Poissons Ratio (y) = 0.21970 0.18397
# Poissons Ratio (z) = -0.06617 0.28140
#
# Static dielectric constant tensor:
#      x y z
#    x 1.817260 0.000000 0.022220 
#    y 0.000000 1.788580 0.000000 
#    z 0.022220 0.000000 1.807280 
# 
# From -- ./inp_files/336619.got.cif
#   From: 2010.05.17/outbox.cif.g08.bks.cpg/sg12_169_cif.got.tgz:336619.got - 2010.06.03 13:09:07.
