data_PCOD9207688
_publ_section_title
;
Structure prediction by ZEFSAII (Michael W. Deem and Ramdas Pophale) SiO2 
 PCOD9207688
Probable space group: C 2/M
;
_chemical_formula_sum "Si O2"
_cell_formula_units_Z 44
_cell_length_a 11.867269
_cell_length_b 23.535274
_cell_length_c 9.478099
_cell_angle_alpha 90.000000
_cell_angle_beta 54.009001
_cell_angle_gamma 90.000000
_cell_volume 2141.896553
_symmetry_space_group_name_H-M "C 2/M"
_symmetry_group_IT_number 12
_symmetry_cell_setting 'monoclinic'
loop_
_space_group_symop_operation_xyz
x,y,z
-x,y,-z
-x,-y,-z
x,-y,z
1/2+x,1/2+y,z
1/2-x,1/2+y,-z
1/2-x,1/2-y,-z
1/2+x,1/2-y,z
loop_
_atom_site_type_symbol
_atom_site_label
_atom_site_fract_x
_atom_site_fract_y
_atom_site_fract_z
Si Si1 0.134155 0.827482 0.633123
Si Si2 0.047724 0.290159 0.620384
Si Si3 0.500000 0.364365 0.000000
Si Si4 0.984476 0.606487 0.844602
Si Si5 0.682199 0.434879 0.087673
Si Si6 0.293533 0.433574 0.596789
O O1 0.033379 0.777271 0.653910
O O2 0.290190 0.806766 0.486386
O O3 0.126870 0.888305 0.560016
O O4 0.106420 0.831229 0.820442
O O5 0.971634 0.331507 0.785021
O O6 0.000000 0.305169 0.500000
O O7 0.589095 0.399049 0.049211
O O8 0.127595 0.575875 0.691527
O O9 0.000000 0.613218 0.000000
O O10 0.843508 0.572059 0.922890
O O11 0.639074 0.500000 0.108679
O O12 0.680010 0.420142 0.256843
O O13 0.328652 0.500000 0.546585
#
# Coordination Sequence:
#
# PCOD9207688 Si02
#       6
#     8   8   4   8   8   8
#     4  10  24  40  57  87 115 153 197 232 287 343
#     4  10  21  40  62  82 115 150 193 246 284 334
#     4  12  25  38  54  82 122 156 191 230 284 352
#     4   9  18  36  63  92 114 143 192 244 291 334
#     4  10  21  37  59  88 121 153 188 234 287 344
#     4   9  19  38  63  86 113 152 196 239 282 335
#
# _framework density 20.542542000000001
#
# number of rings (size 3 to 8) (size 9 to 14) (size 15 to 20)
#    0.000    2.182    0.000    1.909    3.818    3.636 
#    0.000    3.636    0.000    6.000    0.000    0.000 
#    0.000    0.000    0.000    0.000    0.000    0.000 
#
# Total GULP energy -122745.181903 kJ/mol
# GULP energy per Si atom -5579.326450 kJ/mol
# Density = 2.049579 g / cm^3
# Si number density = 20.542542 Si / 1000 Ang^3
#
#
#
# Elastic Constant Matrix: (Units=GPa)
#
#
# Indices 1 2 3 4 5 6 
#
# 1 49.4771 2.8070 -16.8628 0.0000 4.6025 0.0000
# 2 2.8070 97.3975 26.5557 0.0000 3.6849 0.0000
# 3 -16.8628 26.5557 65.9036 0.0000 -4.6521 0.0000
# 4 0.0000 0.0000 0.0000 228.0900 0.0000 -10.4183
# 5 4.6025 3.6849 -4.6521 0.0000 16.7901 0.0000
# 6 0.0000 0.0000 0.0000 -10.4183 0.0000 4.4582
#
#
#
# Elastic Compliance Matrix: (Units=1/GPa)
#
#
# Indices 1 2 3 4 5 6 
#
# 1 0.022929 -0.002284 0.006506 0.000000 -0.003981 0.000000
# 2 -0.002284 0.012017 -0.005680 0.000000 -0.003585 0.000000
# 3 0.006506 -0.005680 0.019470 0.000000 0.004858 0.000000
# 4 0.000000 0.000000 0.000000 0.004908 0.000000 0.011470
# 5 -0.003981 -0.003585 0.004858 0.000000 0.062783 0.000000
# 6 0.000000 0.000000 0.000000 0.011470 0.000000 0.251108
#
#
# Mechanical properties :
#
#
# Convention : Reuss Voigt Hill
#
# Bulk Modulus (GPa) = 19.41732 26.41977 22.91854
# Shear Modulus (GPa) = 12.71301 63.21955 37.96628
#
# Velocity S-wave (km/s) = 2.49039 5.55353 4.30371
# Velocity P-wave (km/s) = 4.21215 7.34923 5.98972
#
# Compressibility (1/GPa) = 0.05150042
#
# Stress axis : x y z
#
# Youngs Moduli (GPa) = 43.61342 83.21352 51.36110
#
# Poissons Ratio (x) = 0.19007 -0.33416
# Poissons Ratio (y) = 0.09962 0.29172
# Poissons Ratio (z) = -0.28375 0.47264
#
# Static dielectric constant tensor:
#      x y z
#    x 1.738160 0.000000 -0.047340 
#    y 0.000000 1.754380 0.000000 
#    z -0.047340 0.000000 1.731800 
# 
# From -- ./inp_files/51191.got.cif
#   From: 2010.05.17/outbox.cif.g08.bks.cpg/sg12_26_cif.got.tgz:51191.got - 2010.06.03 13:09:07.
