data_PCOD9207949
_publ_section_title
;
Structure prediction by ZEFSAII (Michael W. Deem and Ramdas Pophale) SiO2 
 PCOD9207949
Probable space group: C 2/M
;
_chemical_formula_sum "Si O2"
_cell_formula_units_Z 40
_cell_length_a 10.566011
_cell_length_b 19.041858
_cell_length_c 17.343023
_cell_angle_alpha 90.000000
_cell_angle_beta 148.770039
_cell_angle_gamma 90.000000
_cell_volume 1809.140729
_symmetry_space_group_name_H-M "C 2/M"
_symmetry_group_IT_number 12
_symmetry_cell_setting 'monoclinic'
loop_
_space_group_symop_operation_xyz
x,y,z
-x,y,-z
-x,-y,-z
x,-y,z
1/2+x,1/2+y,z
1/2-x,1/2+y,-z
1/2-x,1/2-y,-z
1/2+x,1/2-y,z
loop_
_atom_site_type_symbol
_atom_site_label
_atom_site_fract_x
_atom_site_fract_y
_atom_site_fract_z
Si Si1 0.758486 0.214672 0.920980
Si Si2 0.501537 0.582626 0.887827
Si Si3 0.977158 0.341331 0.401893
Si Si4 0.021283 0.206417 0.662790
Si Si5 0.219658 0.075853 0.831834
O O1 0.550873 0.245971 0.756380
O O2 0.750000 0.250000 0.000000
O O3 0.812262 0.132328 0.967676
O O4 0.390016 0.239756 0.355746
O O5 0.514571 0.500000 0.913903
O O6 0.225685 0.613692 0.748487
O O7 0.573713 0.589895 0.835029
O O8 0.251537 0.327192 0.514206
O O9 0.000000 0.369910 0.500000
O O10 0.187930 0.138999 0.757388
O O11 0.500000 0.262195 0.000000
O O12 0.139037 0.000000 0.759249
O O13 0.500000 0.071980 0.000000
#
# Coordination Sequence:
#
# PCOD9207949 Si02
#       5
#     8   8   8   8   8
#     4  12  23  41  67 100 133 175 222 280 336 398
#     4  11  24  40  64  97 132 172 215 276 344 395
#     4  11  22  40  59  92 125 168 219 270 327 392
#     4  11  23  37  63  90 125 170 218 268 329 392
#     4  10  21  37  60  92 126 165 214 268 327 396
#
# _framework density 22.109943999999999
#
# number of rings (size 3 to 8) (size 9 to 14) (size 15 to 20)
#    0.000    1.000    6.000    0.600    0.000    1.600 
#    0.000    0.000    0.000    0.600    0.000    0.000 
#    0.000    0.000    0.000    0.000    0.000    0.000 
#
# Total GULP energy -111549.725441 kJ/mol
# GULP energy per Si atom -5577.486272 kJ/mol
# Density = 2.205962 g / cm^3
# Si number density = 22.109944 Si / 1000 Ang^3
#
#
#
# Elastic Constant Matrix: (Units=GPa)
#
#
# Indices 1 2 3 4 5 6 
#
# 1 65.6202 2.2679 10.1840 -0.0002 10.5521 -0.0007
# 2 2.2679 157.0000 41.7103 -0.0016 14.1468 -0.0017
# 3 10.1840 41.7103 97.5266 -0.0024 5.5304 -0.0019
# 4 -0.0002 -0.0016 -0.0024 29.0351 -0.0009 -3.3209
# 5 10.5521 14.1468 5.5304 -0.0009 32.2749 -0.0005
# 6 -0.0007 -0.0017 -0.0019 -3.3209 -0.0005 9.9140
#
#
#
# Elastic Compliance Matrix: (Units=1/GPa)
#
#
# Indices 1 2 3 4 5 6 
#
# 1 0.016341 0.000699 -0.001701 0.000000 -0.005357 0.000001
# 2 0.000699 0.007447 -0.003090 0.000000 -0.002963 0.000001
# 3 -0.001701 -0.003090 0.011759 0.000001 -0.000104 0.000002
# 4 0.000000 0.000000 0.000001 0.035813 0.000001 0.011996
# 5 -0.005357 -0.002963 -0.000104 0.000001 0.034052 0.000001
# 6 0.000001 0.000001 0.000002 0.011996 0.000001 0.104885
#
#
# Mechanical properties :
#
#
# Convention : Reuss Voigt Hill
#
# Bulk Modulus (GPa) = 36.54807 47.60791 42.07799
# Shear Modulus (GPa) = 21.96810 31.97712 26.97261
#
# Velocity S-wave (km/s) = 3.15554 3.80712 3.49654
# Velocity P-wave (km/s) = 5.46284 6.39568 5.94757
#
# Compressibility (1/GPa) = 0.02736123
#
# Stress axis : x y z
#
# Youngs Moduli (GPa) = 61.19742 134.27764 85.04334
#
# Poissons Ratio (x) = -0.09382 0.14469
# Poissons Ratio (y) = -0.04276 0.26278
# Poissons Ratio (z) = 0.10412 0.41491
#
# Static dielectric constant tensor:
#      x y z
#    x 1.842530 0.000000 0.012880 
#    y 0.000000 1.859210 0.000000 
#    z 0.012880 0.000000 1.953270 
# 
# From -- ./inp_files/62167.got.cif
#   From: 2010.05.17/outbox.cif.g08.bks.cpg/sg12_32_cif.got.tgz:62167.got - 2010.06.03 13:09:07.
