data_PCOD9207902
_publ_section_title
;
Structure prediction by ZEFSAII (Michael W. Deem and Ramdas Pophale) SiO2 
 PCOD9207902
Probable space group: C 2/M
;
_chemical_formula_sum "Si O2"
_cell_formula_units_Z 48
_cell_length_a 8.034898
_cell_length_b 20.502185
_cell_length_c 14.957389
_cell_angle_alpha 90.000000
_cell_angle_beta 71.149314
_cell_angle_gamma 90.000000
_cell_volume 2331.816788
_symmetry_space_group_name_H-M "C 2/M"
_symmetry_group_IT_number 12
_symmetry_cell_setting 'monoclinic'
loop_
_space_group_symop_operation_xyz
x,y,z
-x,y,-z
-x,-y,-z
x,-y,z
1/2+x,1/2+y,z
1/2-x,1/2+y,-z
1/2-x,1/2-y,-z
1/2+x,1/2-y,z
loop_
_atom_site_type_symbol
_atom_site_label
_atom_site_fract_x
_atom_site_fract_y
_atom_site_fract_z
Si Si1 0.401536 0.500000 0.109824
Si Si2 0.483914 0.859093 0.183369
Si Si3 0.737054 0.680968 0.387824
Si Si4 0.363750 0.369462 0.209639
Si Si5 0.171059 0.831211 0.592113
Si Si6 0.935257 0.231048 0.925013
Si Si7 0.504052 0.000000 0.106445
O O1 0.440388 0.436565 0.160825
O O2 0.197782 0.500000 0.116569
O O3 0.500000 0.500000 0.000000
O O4 0.364464 0.845267 0.289860
O O5 0.687144 0.855045 0.182602
O O6 0.469867 0.799809 0.114794
O O7 0.433814 0.929580 0.151819
O O8 0.767498 0.758327 0.393227
O O9 0.536134 0.670467 0.393919
O O10 0.764239 0.651152 0.482385
O O11 0.306385 0.372843 0.322615
O O12 0.511663 0.313693 0.167840
O O13 0.250000 0.250000 0.000000
O O14 0.000000 0.190473 0.000000
O O15 0.500000 0.000000 0.000000
#
# Coordination Sequence:
#
# PCOD9207902 Si02
#       7
#     4   8   8   8   8   8   4
#     4  10  24  42  63  84 121 163 204 245 292 354
#     4  11  23  40  62  89 120 158 200 247 300 355
#     4  10  21  37  60  90 121 156 194 249 303 357
#     4  11  23  40  61  89 119 158 201 246 300 355
#     4  10  21  37  60  90 122 154 197 246 305 356
#     4  12  24  37  57  88 120 154 198 252 295 350
#     4  10  24  44  61  86 121 163 204 243 296 354
#
# _framework density 20.584807999999999
#
# number of rings (size 3 to 8) (size 9 to 14) (size 15 to 20)
#    0.000    1.333    3.333    2.000    4.667    3.333 
#    0.000    0.833    0.000    5.000    0.000    0.000 
#    0.000    0.000    0.000    0.000    0.000    0.000 
#
# Total GULP energy -133838.653425 kJ/mol
# GULP energy per Si atom -5576.610559 kJ/mol
# Density = 2.053796 g / cm^3
# Si number density = 20.584808 Si / 1000 Ang^3
#
#
#
# Elastic Constant Matrix: (Units=GPa)
#
#
# Indices 1 2 3 4 5 6 
#
# 1 25.4705 0.3511 8.2808 0.0000 -3.3670 0.0000
# 2 0.3511 112.5373 64.9600 0.0000 -2.9131 0.0000
# 3 8.2808 64.9600 185.9196 0.0000 -5.1137 0.0000
# 4 0.0000 0.0000 0.0000 36.5435 0.0000 2.9064
# 5 -3.3670 -2.9131 -5.1137 0.0000 39.9801 0.0000
# 6 0.0000 0.0000 0.0000 2.9064 0.0000 15.4652
#
#
#
# Elastic Compliance Matrix: (Units=1/GPa)
#
#
# Indices 1 2 3 4 5 6 
#
# 1 0.040360 0.001182 -0.002122 0.000000 0.003214 0.000000
# 2 0.001182 0.011169 -0.003944 0.000000 0.000409 0.000000
# 3 -0.002122 -0.003944 0.006863 0.000000 0.000412 0.000000
# 4 0.000000 0.000000 0.000000 0.027780 0.000000 -0.005221
# 5 0.003214 0.000409 0.000412 0.000000 0.025366 0.000000
# 6 0.000000 0.000000 0.000000 -0.005221 0.000000 0.065642
#
#
# Mechanical properties :
#
#
# Convention : Reuss Voigt Hill
#
# Bulk Modulus (GPa) = 20.56612 52.34567 36.45589
# Shear Modulus (GPa) = 24.61173 35.08680 29.84926
#
# Velocity S-wave (km/s) = 3.46153 4.13304 3.81210
# Velocity P-wave (km/s) = 5.09793 6.94698 6.09300
#
# Compressibility (1/GPa) = 0.04862366
#
# Stress axis : x y z
#
# Youngs Moduli (GPa) = 24.77724 89.53002 145.71857
#
# Poissons Ratio (x) = -0.10586 0.30926
# Poissons Ratio (y) = -0.02930 0.57471
# Poissons Ratio (z) = 0.05259 0.35311
#
# Static dielectric constant tensor:
#      x y z
#    x 1.817840 0.000000 0.034650 
#    y 0.000000 1.716090 0.000000 
#    z 0.034650 0.000000 1.704350 
# 
# From -- ./inp_files/196955.got.cif
#   From: 2010.05.17/outbox.cif.g08.bks.cpg/sg12_99_cif.got.tgz:196955.got - 2010.06.03 13:09:07.
