data_PCOD9207865
_publ_section_title
;
Structure prediction by ZEFSAII (Michael W. Deem and Ramdas Pophale) SiO2 
 PCOD9207865
Probable space group: C 2/M
;
_chemical_formula_sum "Si O2"
_cell_formula_units_Z 64
_cell_length_a 15.444109
_cell_length_b 20.375628
_cell_length_c 9.709037
_cell_angle_alpha 90.000000
_cell_angle_beta 93.863516
_cell_angle_gamma 90.000000
_cell_volume 3048.329511
_symmetry_space_group_name_H-M "C 2/M"
_symmetry_group_IT_number 12
_symmetry_cell_setting 'monoclinic'
loop_
_space_group_symop_operation_xyz
x,y,z
-x,y,-z
-x,-y,-z
x,-y,z
1/2+x,1/2+y,z
1/2-x,1/2+y,-z
1/2-x,1/2-y,-z
1/2+x,1/2-y,z
loop_
_atom_site_type_symbol
_atom_site_label
_atom_site_fract_x
_atom_site_fract_y
_atom_site_fract_z
Si Si1 0.757652 0.574547 0.614229
Si Si2 0.272880 0.120227 0.908959
Si Si3 0.430050 0.868091 0.110894
Si Si4 0.562056 0.751214 0.713965
Si Si5 0.829131 0.800123 0.521485
Si Si6 0.623257 0.244403 0.200819
Si Si7 0.913256 0.842941 0.040215
Si Si8 0.456574 0.078484 0.631874
O O1 0.747806 0.500000 0.560411
O O2 0.749188 0.574772 0.778140
O O3 0.696208 0.628371 0.537728
O O4 0.856805 0.599644 0.612988
O O5 0.308928 0.188624 0.840979
O O6 0.182533 0.127897 0.978012
O O7 0.351508 0.099367 0.016951
O O8 0.388333 0.808730 0.196792
O O9 0.485624 0.909387 0.226634
O O10 0.500000 0.848096 0.000000
O O11 0.596642 0.731978 0.568264
O O12 0.463889 0.778176 0.726856
O O13 0.572476 0.685126 0.805041
O O14 0.750000 0.750000 0.500000
O O15 0.844616 0.798153 0.686334
O O16 0.592187 0.280512 0.061191
O O17 0.000000 0.880414 0.000000
O O18 0.500000 0.106928 0.500000
O O19 0.451249 0.000000 0.619201
#
# Coordination Sequence:
#
# PCOD9207865 Si02
#       8
#     8   8   8   8   8   8   8   8
#     4  11  24  43  64  89 130 178 220 268 324 390
#     4  12  21  38  61  96 128 168 218 265 326 393
#     4  12  22  35  63  97 134 168 214 264 324 389
#     4  11  21  37  57  90 131 162 200 265 332 381
#     4  12  25  37  60  96 125 169 222 266 324 389
#     4  11  21  36  59  94 130 159 206 273 329 387
#     4  10  21  37  60  88 127 167 205 263 332 383
#     4  10  24  43  62  90 134 179 215 257 320 395
#
# _framework density 20.995104000000001
#
# number of rings (size 3 to 8) (size 9 to 14) (size 15 to 20)
#    0.000    0.875    6.250    1.125    3.500    0.750 
#    0.000    0.000    0.000    2.625    0.000    0.000 
#    0.000    0.000    0.000    0.000    0.000    0.000 
#
# Total GULP energy -178368.265248 kJ/mol
# GULP energy per Si atom -5574.008289 kJ/mol
# Density = 2.094732 g / cm^3
# Si number density = 20.995104 Si / 1000 Ang^3
#
#
#
# Elastic Constant Matrix: (Units=GPa)
#
#
# Indices 1 2 3 4 5 6 
#
# 1 112.8176 16.0160 24.4207 0.0000 -17.1649 0.0000
# 2 16.0160 45.8346 12.6486 0.0000 3.5028 0.0000
# 3 24.4207 12.6486 102.5992 0.0000 -3.4810 0.0000
# 4 0.0000 0.0000 0.0000 20.0078 0.0000 4.5363
# 5 -17.1649 3.5028 -3.4810 0.0000 37.4037 0.0000
# 6 0.0000 0.0000 0.0000 4.5363 0.0000 20.2022
#
#
#
# Elastic Compliance Matrix: (Units=1/GPa)
#
#
# Indices 1 2 3 4 5 6 
#
# 1 0.010537 -0.003538 -0.001903 0.000000 0.004990 0.000000
# 2 -0.003538 0.023988 -0.002253 0.000000 -0.004080 0.000000
# 3 -0.001903 -0.002253 0.010488 0.000000 0.000314 0.000000
# 4 0.000000 0.000000 0.000000 0.052661 0.000000 -0.011825
# 5 0.004990 -0.004080 0.000314 0.000000 0.029437 0.000000
# 6 0.000000 0.000000 0.000000 -0.011825 0.000000 0.052155
#
#
# Mechanical properties :
#
#
# Convention : Reuss Voigt Hill
#
# Bulk Modulus (GPa) = 33.75628 40.82467 37.29048
# Shear Modulus (GPa) = 24.44642 29.40048 26.92345
#
# Velocity S-wave (km/s) = 3.41601 3.74618 3.58490
# Velocity P-wave (km/s) = 5.62778 6.18053 5.91062
#
# Compressibility (1/GPa) = 0.02962412
#
# Stress axis : x y z
#
# Youngs Moduli (GPa) = 94.90171 41.68812 95.34723
#
# Poissons Ratio (x) = 0.14751 0.18140
# Poissons Ratio (y) = 0.33579 0.21486
# Poissons Ratio (z) = 0.18056 0.09394
#
# Static dielectric constant tensor:
#      x y z
#    x 1.946260 0.000000 0.040010 
#    y 0.000000 1.789330 0.000000 
#    z 0.040010 0.000000 1.837970 
# 
# From -- ./inp_files/65867.got.cif
#   From: 2010.05.17/outbox.cif.g08.bks.cpg/sg12_33_cif.got.tgz:65867.got - 2010.06.03 13:09:07.
