data_PCOD9207555
_publ_section_title
;
Structure prediction by ZEFSAII (Michael W. Deem and Ramdas Pophale) SiO2 
 PCOD9207555
Probable space group: C 2/M
;
_chemical_formula_sum "Si O2"
_cell_formula_units_Z 40
_cell_length_a 9.771842
_cell_length_b 18.398346
_cell_length_c 13.340323
_cell_angle_alpha 90.000000
_cell_angle_beta 128.632818
_cell_angle_gamma 90.000000
_cell_volume 1873.541107
_symmetry_space_group_name_H-M "C 2/M"
_symmetry_group_IT_number 12
_symmetry_cell_setting 'monoclinic'
loop_
_space_group_symop_operation_xyz
x,y,z
-x,y,-z
-x,-y,-z
x,-y,z
1/2+x,1/2+y,z
1/2-x,1/2+y,-z
1/2-x,1/2-y,-z
1/2+x,1/2-y,z
loop_
_atom_site_type_symbol
_atom_site_label
_atom_site_fract_x
_atom_site_fract_y
_atom_site_fract_z
Si Si1 0.354487 0.587626 0.281404
Si Si2 0.620987 0.824458 0.654083
Si Si3 0.604246 0.703707 0.372327
Si Si4 0.002645 0.415156 0.228615
Si Si5 0.675428 0.820860 0.021237
O O1 0.369156 0.500000 0.277571
O O2 0.537816 0.627910 0.388200
O O3 0.288737 0.628678 0.149748
O O4 0.205221 0.604447 0.296320
O O5 0.500000 0.826048 0.500000
O O6 0.561958 0.756859 0.695637
O O7 0.814119 0.812491 0.698883
O O8 0.569881 0.893170 0.696466
O O9 0.750000 0.750000 0.500000
O O10 0.989737 0.500000 0.206842
O O11 0.886272 0.374435 0.094540
O O12 0.500000 0.798282 0.000000
O O13 0.750000 0.750000 0.000000
#
# Coordination Sequence:
#
# PCOD9207555 Si02
#       5
#     8   8   8   8   8
#     4  10  21  39  63  90 123 163 205 251 307 369
#     4  10  21  37  59  83 115 158 204 253 304 360
#     4  10  21  38  60  85 115 155 204 253 300 356
#     4  10  21  38  60  89 125 161 199 248 306 365
#     4  10  21  37  60  90 123 160 204 249 300 362
#
# _framework density 21.349945000000002
#
# number of rings (size 3 to 8) (size 9 to 14) (size 15 to 20)
#    0.000    2.000    0.000    3.000    0.000   10.000 
#    0.000    3.000    0.000   18.600    0.000    0.000 
#    0.000    0.000    0.000    0.000    0.000    0.000 
#
# Total GULP energy -111619.756620 kJ/mol
# GULP energy per Si atom -5580.987831 kJ/mol
# Density = 2.130135 g / cm^3
# Si number density = 21.349945 Si / 1000 Ang^3
#
#
#
# Elastic Constant Matrix: (Units=GPa)
#
#
# Indices 1 2 3 4 5 6 
#
# 1 162.0584 71.0177 37.4453 0.0000 -9.7317 0.0000
# 2 71.0177 130.3320 38.9178 0.0000 7.8929 0.0000
# 3 37.4453 38.9178 75.7745 0.0000 -9.2569 0.0000
# 4 0.0000 0.0000 0.0000 28.3023 0.0000 2.4057
# 5 -9.7317 7.8929 -9.2569 0.0000 22.5659 0.0000
# 6 0.0000 0.0000 0.0000 2.4057 0.0000 44.3781
#
#
#
# Elastic Compliance Matrix: (Units=1/GPa)
#
#
# Indices 1 2 3 4 5 6 
#
# 1 0.008842 -0.004712 -0.001350 0.000000 0.004908 0.000000
# 2 -0.004712 0.012231 -0.004973 0.000000 -0.008351 0.000000
# 3 -0.001350 -0.004973 0.017433 0.000000 0.008309 0.000000
# 4 0.000000 0.000000 0.000000 0.035496 0.000000 -0.001924
# 5 0.004908 -0.008351 0.008309 0.000000 0.052760 0.000000
# 6 0.000000 0.000000 0.000000 -0.001924 0.000000 0.022638
#
#
# Mechanical properties :
#
#
# Convention : Reuss Voigt Hill
#
# Bulk Modulus (GPa) = 60.84215 73.65850 67.25033
# Shear Modulus (GPa) = 28.25635 33.76821 31.01228
#
# Velocity S-wave (km/s) = 3.64192 3.98131 3.81539
# Velocity P-wave (km/s) = 6.80031 7.46391 7.13982
#
# Compressibility (1/GPa) = 0.01643597
#
# Stress axis : x y z
#
# Youngs Moduli (GPa) = 113.09344 81.75790 57.36093
#
# Poissons Ratio (x) = 0.38527 0.07742
# Poissons Ratio (y) = 0.53293 0.28528
# Poissons Ratio (z) = 0.15265 0.40662
#
# Static dielectric constant tensor:
#      x y z
#    x 1.834790 0.000000 0.060340 
#    y 0.000000 1.763690 0.000000 
#    z 0.060340 0.000000 1.878750 
# 
# From -- ./inp_files/195702.got.cif
#   From: 2010.05.17/outbox.cif.g08.bks.cpg/sg12_98_cif.got.tgz:195702.got - 2010.06.03 13:09:07.
