data_PCOD9207227
_publ_section_title
;
Structure prediction by ZEFSAII (Michael W. Deem and Ramdas Pophale) SiO2 
 PCOD9207227
Probable space group: C 2/M
;
_chemical_formula_sum "Si O2"
_cell_formula_units_Z 64
_cell_length_a 21.518419
_cell_length_b 13.789482
_cell_length_c 12.276509
_cell_angle_alpha 90.000000
_cell_angle_beta 109.261321
_cell_angle_gamma 90.000000
_cell_volume 3438.873252
_symmetry_space_group_name_H-M "C 2/M"
_symmetry_group_IT_number 12
_symmetry_cell_setting 'monoclinic'
loop_
_space_group_symop_operation_xyz
x,y,z
-x,y,-z
-x,-y,-z
x,-y,z
1/2+x,1/2+y,z
1/2-x,1/2+y,-z
1/2-x,1/2-y,-z
1/2+x,1/2-y,z
loop_
_atom_site_type_symbol
_atom_site_label
_atom_site_fract_x
_atom_site_fract_y
_atom_site_fract_z
Si Si1 0.339844 0.613378 0.082542
Si Si2 0.573713 0.252018 0.525007
Si Si3 0.514702 0.613504 0.880547
Si Si4 0.187154 0.112815 0.674600
Si Si5 0.581194 0.115906 0.737453
Si Si6 0.302715 0.118291 0.037278
Si Si7 0.167109 0.382747 0.193670
Si Si8 0.448629 0.791139 0.734083
O O1 0.343311 0.500000 0.053207
O O2 0.411069 0.652038 0.093949
O O3 0.329675 0.617762 0.206343
O O4 0.272670 0.651683 0.990891
O O5 0.500000 0.295681 0.500000
O O6 0.632783 0.325650 0.581201
O O7 0.578533 0.168369 0.619303
O O8 0.576946 0.213090 0.404472
O O9 0.510239 0.500000 0.843801
O O10 0.467320 0.683596 0.785784
O O11 0.500000 0.618277 0.000000
O O12 0.263128 0.145725 0.710779
O O13 0.183795 0.000000 0.640583
O O14 0.646425 0.148355 0.840592
O O15 0.516351 0.147708 0.766661
O O16 0.582149 0.000000 0.726281
O O17 0.300879 0.000000 0.036996
O O18 0.328014 0.144044 0.931178
O O19 0.163302 0.500000 0.196586
O O20 0.105158 0.336890 0.217672
#
# Coordination Sequence:
#
# PCOD9207227 Si02
#       8
#     8   8   8   8   8   8   8   8
#     4   8  14  31  57  80 105 138 177 226 281 330
#     4  10  22  37  53  82 113 144 192 234 274 331
#     4  10  22  39  57  81 117 151 185 230 285 343
#     4   9  18  36  60  83 109 143 186 235 283 331
#     4  10  21  37  57  84 117 150 187 232 281 333
#     4   8  16  32  56  84 109 135 180 234 275 327
#     4   9  19  36  58  85 113 145 184 231 286 334
#     4  11  23  36  56  81 113 152 192 230 274 333
#
# _framework density 18.610748000000001
#
# number of rings (size 3 to 8) (size 9 to 14) (size 15 to 20)
#    0.000    2.625    0.000    3.375    1.750    4.000 
#    2.250    3.750    0.000    0.000    0.000    0.000 
#    0.000    0.000    0.000    0.000    0.000    0.000 
#
# Total GULP energy -178574.598696 kJ/mol
# GULP energy per Si atom -5580.456209 kJ/mol
# Density = 1.856839 g / cm^3
# Si number density = 18.610748 Si / 1000 Ang^3
#
#
#
# Elastic Constant Matrix: (Units=GPa)
#
#
# Indices 1 2 3 4 5 6 
#
# 1 126.2438 36.3872 51.9864 0.0000 9.6816 0.0000
# 2 36.3872 68.8454 27.3457 0.0000 9.8276 0.0000
# 3 51.9864 27.3457 87.0182 0.0000 20.0782 0.0000
# 4 0.0000 0.0000 0.0000 19.7679 0.0000 10.7910
# 5 9.6816 9.8276 20.0782 0.0000 30.9977 0.0000
# 6 0.0000 0.0000 0.0000 10.7910 0.0000 80.0869
#
#
#
# Elastic Compliance Matrix: (Units=1/GPa)
#
#
# Indices 1 2 3 4 5 6 
#
# 1 0.011357 -0.003868 -0.005919 0.000000 0.001513 0.000000
# 2 -0.003868 0.018044 -0.002726 0.000000 -0.002747 0.000000
# 3 -0.005919 -0.002726 0.017940 0.000000 -0.008907 0.000000
# 4 0.000000 0.000000 0.000000 0.054603 0.000000 -0.007357
# 5 0.001513 -0.002747 -0.008907 0.000000 0.038428 0.000000
# 6 0.000000 0.000000 0.000000 -0.007357 0.000000 0.013478
#
#
# Mechanical properties :
#
#
# Convention : Reuss Voigt Hill
#
# Bulk Modulus (GPa) = 44.80965 57.06066 50.93515
# Shear Modulus (GPa) = 26.83638 37.26305 32.04972
#
# Velocity S-wave (km/s) = 3.80146 4.47949 4.15433
# Velocity P-wave (km/s) = 6.58770 7.58162 7.10207
#
# Compressibility (1/GPa) = 0.02231662
#
# Stress axis : x y z
#
# Youngs Moduli (GPa) = 88.04971 55.41867 55.74249
#
# Poissons Ratio (x) = 0.21434 0.32992
# Poissons Ratio (y) = 0.34055 0.15195
# Poissons Ratio (z) = 0.52113 0.15107
#
# Static dielectric constant tensor:
#      x y z
#    x 1.636410 0.000000 0.024790 
#    y 0.000000 1.673390 0.000000 
#    z 0.024790 0.000000 1.619540 
# 
# From -- ./inp_files/167295.got.cif
#   From: 2010.05.17/outbox.cif.g08.bks.cpg/sg12_84_cif.got.tgz:167295.got - 2010.06.03 13:09:07.
