data_PCOD9207786
_publ_section_title
;
Structure prediction by ZEFSAII (Michael W. Deem and Ramdas Pophale) SiO2 
 PCOD9207786
Probable space group: C 2/M
;
_chemical_formula_sum "Si O2"
_cell_formula_units_Z 56
_cell_length_a 17.532127
_cell_length_b 14.826563
_cell_length_c 11.576755
_cell_angle_alpha 90.000000
_cell_angle_beta 88.697787
_cell_angle_gamma 90.000000
_cell_volume 3008.498220
_symmetry_space_group_name_H-M "C 2/M"
_symmetry_group_IT_number 12
_symmetry_cell_setting 'monoclinic'
loop_
_space_group_symop_operation_xyz
x,y,z
-x,y,-z
-x,-y,-z
x,-y,z
1/2+x,1/2+y,z
1/2-x,1/2+y,-z
1/2-x,1/2-y,-z
1/2+x,1/2-y,z
loop_
_atom_site_type_symbol
_atom_site_label
_atom_site_fract_x
_atom_site_fract_y
_atom_site_fract_z
Si Si1 0.892249 0.399037 0.336709
Si Si2 0.759328 0.394315 0.171561
Si Si3 0.863432 0.746297 0.753314
Si Si4 0.482555 0.721934 0.365778
Si Si5 0.714424 0.843129 0.456177
Si Si6 0.157524 0.898594 0.713668
Si Si7 0.783026 0.606840 0.899261
O O1 0.922731 0.500000 0.326894
O O2 0.842019 0.376902 0.225294
O O3 0.955774 0.325556 0.359872
O O4 0.830356 0.392382 0.441663
O O5 0.741189 0.500000 0.196096
O O6 0.697913 0.326101 0.226997
O O7 0.763651 0.382012 0.033935
O O8 0.843389 0.686972 0.641504
O O9 0.849629 0.675176 0.857519
O O10 0.945181 0.787804 0.721032
O O11 0.500000 0.699242 0.500000
O O12 0.411674 0.664826 0.319649
O O13 0.750000 0.750000 0.500000
O O14 0.782432 0.896829 0.393954
O O15 0.209318 0.869944 0.821791
O O16 0.130231 0.000000 0.735684
O O17 0.800239 0.500000 0.877650
#
# Coordination Sequence:
#
# PCOD9207786 Si02
#       7
#     8   8   8   8   8   8   8
#     4  11  22  37  59  83 113 153 192 233 285 335
#     4  10  21  39  63  88 111 145 195 244 282 329
#     4  11  21  35  60  83 116 154 187 231 288 338
#     4  12  24  39  52  83 128 155 182 231 281 350
#     4  11  17  36  57  81 113 143 192 245 277 325
#     4  10  21  37  60  83 111 152 192 235 287 333
#     4   9  20  40  64  87 110 142 196 248 282 327
#
# _framework density 18.613938000000001
#
# number of rings (size 3 to 8) (size 9 to 14) (size 15 to 20)
#    0.000    1.429    4.286    1.714    0.000    2.286 
#    0.000    2.857    0.000    5.143    0.000    0.000 
#    0.000    0.000    0.000    0.000    0.000    0.000 
#
# Total GULP energy -156264.413465 kJ/mol
# GULP energy per Si atom -5580.871909 kJ/mol
# Density = 1.857157 g / cm^3
# Si number density = 18.613938 Si / 1000 Ang^3
#
#
#
# Elastic Constant Matrix: (Units=GPa)
#
#
# Indices 1 2 3 4 5 6 
#
# 1 33.1792 4.2550 15.7242 0.0000 -3.3675 0.0000
# 2 4.2550 48.9181 19.9454 0.0000 1.9281 0.0000
# 3 15.7242 19.9454 82.5748 0.0000 10.0317 0.0000
# 4 0.0000 0.0000 0.0000 24.0027 0.0000 3.0085
# 5 -3.3675 1.9281 10.0317 0.0000 14.0006 0.0000
# 6 0.0000 0.0000 0.0000 3.0085 0.0000 16.9352
#
#
#
# Elastic Compliance Matrix: (Units=1/GPa)
#
#
# Indices 1 2 3 4 5 6 
#
# 1 0.035709 -0.000205 -0.008541 0.000000 0.014737 0.000000
# 2 -0.000205 0.022687 -0.005537 0.000000 0.000794 0.000000
# 3 -0.008541 -0.005537 0.016683 0.000000 -0.013245 0.000000
# 4 0.000000 0.000000 0.000000 0.042611 0.000000 -0.007570
# 5 0.014737 0.000794 -0.013245 0.000000 0.084351 0.000000
# 6 0.000000 0.000000 0.000000 -0.007570 0.000000 0.060393
#
#
# Mechanical properties :
#
#
# Convention : Reuss Voigt Hill
#
# Bulk Modulus (GPa) = 21.49915 27.16906 24.33411
# Shear Modulus (GPa) = 16.31300 19.30418 17.80859
#
# Velocity S-wave (km/s) = 2.96359 3.22387 3.09647
# Velocity P-wave (km/s) = 4.82552 5.33719 5.08779
#
# Compressibility (1/GPa) = 0.04651346
#
# Stress axis : x y z
#
# Youngs Moduli (GPa) = 28.00427 44.07897 59.94046
#
# Poissons Ratio (x) = 0.00902 0.51193
# Poissons Ratio (y) = 0.00573 0.33191
# Poissons Ratio (z) = 0.23918 0.24408
#
# Static dielectric constant tensor:
#      x y z
#    x 1.633940 0.000000 0.006830 
#    y 0.000000 1.668630 0.000000 
#    z 0.006830 0.000000 1.657470 
# 
# From -- ./inp_files/143744.got.cif
#   From: 2010.05.17/outbox.cif.g08.bks.cpg/sg12_72_cif.got.tgz:143744.got - 2010.06.03 13:09:07.
