data_PCOD9207516
_publ_section_title
;
Structure prediction by ZEFSAII (Michael W. Deem and Ramdas Pophale) SiO2 
 PCOD9207516
Probable space group: C 2/M
;
_chemical_formula_sum "Si O2"
_cell_formula_units_Z 64
_cell_length_a 29.142362
_cell_length_b 8.425756
_cell_length_c 25.185272
_cell_angle_alpha 90.000000
_cell_angle_beta 149.934434
_cell_angle_gamma 90.000000
_cell_volume 3098.203487
_symmetry_space_group_name_H-M "C 2/M"
_symmetry_group_IT_number 12
_symmetry_cell_setting 'monoclinic'
loop_
_space_group_symop_operation_xyz
x,y,z
-x,y,-z
-x,-y,-z
x,-y,z
1/2+x,1/2+y,z
1/2-x,1/2+y,-z
1/2-x,1/2-y,-z
1/2+x,1/2-y,z
loop_
_atom_site_type_symbol
_atom_site_label
_atom_site_fract_x
_atom_site_fract_y
_atom_site_fract_z
Si Si1 0.491123 0.687846 0.657842
Si Si2 0.394908 0.190157 0.882820
Si Si3 0.930065 0.310963 0.802065
Si Si4 0.852613 0.191625 0.612710
Si Si5 0.041147 0.308485 0.597220
Si Si6 0.348733 0.816954 0.115236
Si Si7 0.886072 0.813044 0.045277
Si Si8 0.751576 0.690582 0.179579
O O1 0.481308 0.500000 0.643958
O O2 0.418532 0.744297 0.629855
O O3 0.484271 0.759971 0.592351
O O4 0.592063 0.729389 0.781312
O O5 0.375216 0.223902 0.801104
O O6 0.318775 0.262928 0.844681
O O7 0.392865 0.000000 0.888865
O O8 0.500000 0.241001 0.000000
O O9 0.947045 0.500000 0.818352
O O10 0.884571 0.257789 0.701636
O O11 0.026191 0.219180 0.902819
O O12 0.750000 0.250000 0.500000
O O13 0.856961 0.000000 0.619146
O O14 0.043726 0.500000 0.598407
O O15 0.145807 0.249424 0.708835
O O16 0.000000 0.252808 0.500000
O O17 0.402304 0.789486 0.113863
O O18 0.341001 0.000000 0.122252
O O19 0.250000 0.750000 0.000000
O O20 0.880481 0.000000 0.053453
O O21 0.795841 0.760480 0.923322
O O22 0.755461 0.500000 0.181172
#
# Coordination Sequence:
#
# PCOD9207516 Si02
#       8
#     8   8   8   8   8   8   8   8
#     4  11  24  43  67  96 128 164 212 265 320 383
#     4  10  21  37  58  88 125 165 211 259 312 381
#     4  11  22  38  61  89 124 167 211 256 317 378
#     4  11  25  44  67  95 130 167 214 265 316 380
#     4  10  23  44  67  92 125 168 218 268 319 380
#     4  12  24  38  61  92 128 169 210 257 318 384
#     4  11  21  35  57  88 126 163 207 260 316 380
#     4  10  22  38  60  91 125 165 213 264 318 378
#
# _framework density 20.657133000000002
#
# number of rings (size 3 to 8) (size 9 to 14) (size 15 to 20)
#    0.000    1.250    2.500    3.375    0.000    6.000 
#    0.000    2.500    0.000    0.000    0.000    0.000 
#    0.000    0.000    0.000    0.000    0.000    0.000 
#
# Total GULP energy -178824.119874 kJ/mol
# GULP energy per Si atom -5588.253746 kJ/mol
# Density = 2.061012 g / cm^3
# Si number density = 20.657133 Si / 1000 Ang^3
#
#
#
# Elastic Constant Matrix: (Units=GPa)
#
#
# Indices 1 2 3 4 5 6 
#
# 1 116.0132 9.3854 52.9665 0.0000 -20.3142 0.0000
# 2 9.3854 18.2958 14.6305 0.0000 -5.1227 0.0000
# 3 52.9665 14.6305 128.9735 0.0000 -14.9793 0.0000
# 4 0.0000 0.0000 0.0000 23.5695 0.0000 -1.5505
# 5 -20.3142 -5.1227 -14.9793 0.0000 37.5533 0.0000
# 6 0.0000 0.0000 0.0000 -1.5505 0.0000 34.5013
#
#
#
# Elastic Compliance Matrix: (Units=1/GPa)
#
#
# Indices 1 2 3 4 5 6 
#
# 1 0.011311 -0.001403 -0.003982 0.000000 0.004339 0.000000
# 2 -0.001403 0.061490 -0.005781 0.000000 0.005323 0.000000
# 3 -0.003982 -0.005781 0.010174 0.000000 0.001116 0.000000
# 4 0.000000 0.000000 0.000000 0.042554 0.000000 0.001912
# 5 0.004339 0.005323 0.001116 0.000000 0.030147 0.000000
# 6 0.000000 0.000000 0.000000 0.001912 0.000000 0.029070
#
#
# Mechanical properties :
#
#
# Convention : Reuss Voigt Hill
#
# Bulk Modulus (GPa) = 16.48982 46.36078 31.42530
# Shear Modulus (GPa) = 21.99803 31.54484 26.77143
#
# Velocity S-wave (km/s) = 3.26684 3.91201 3.60389
# Velocity P-wave (km/s) = 4.71483 6.54957 5.70642
#
# Compressibility (1/GPa) = 0.06064346
#
# Stress axis : x y z
#
# Youngs Moduli (GPa) = 88.40945 16.26271 98.28758
#
# Poissons Ratio (x) = 0.02282 0.39139
# Poissons Ratio (y) = 0.12405 0.56818
# Poissons Ratio (z) = 0.35205 0.09401
#
# Static dielectric constant tensor:
#      x y z
#    x 1.788970 0.000000 0.002200 
#    y 0.000000 1.720030 0.000000 
#    z 0.002200 0.000000 1.754390 
# 
# From -- ./inp_files/353462.got.cif
#   From: 2010.05.17/outbox.cif.g08.bks.cpg/sg12_177_cif.got.tgz:353462.got - 2010.06.03 13:09:07.
