data_PCOD9207630
_publ_section_title
;
Structure prediction by ZEFSAII (Michael W. Deem and Ramdas Pophale) SiO2 
 PCOD9207630
Probable space group: C 2/M
;
_chemical_formula_sum "Si O2"
_cell_formula_units_Z 50
_cell_length_a 15.472098
_cell_length_b 9.685514
_cell_length_c 14.790123
_cell_angle_alpha 90.000000
_cell_angle_beta 109.857225
_cell_angle_gamma 90.000000
_cell_volume 2084.595765
_symmetry_space_group_name_H-M "C 2/M"
_symmetry_group_IT_number 12
_symmetry_cell_setting 'monoclinic'
loop_
_space_group_symop_operation_xyz
x,y,z
-x,y,-z
-x,-y,-z
x,-y,z
1/2+x,1/2+y,z
1/2-x,1/2+y,-z
1/2-x,1/2-y,-z
1/2+x,1/2-y,z
loop_
_atom_site_type_symbol
_atom_site_label
_atom_site_fract_x
_atom_site_fract_y
_atom_site_fract_z
Si Si1 0.178417 0.838500 0.355684
Si Si2 0.753125 0.662775 0.133461
Si Si3 0.599593 0.770749 0.971882
Si Si4 0.555842 0.149492 0.206139
Si Si5 0.861173 0.161472 0.456490
Si Si6 0.414864 0.844412 0.324941
Si Si7 0.500000 0.500000 0.000000
O O1 0.122255 0.827960 0.430230
O O2 0.265872 0.742758 0.405612
O O3 0.121094 0.778093 0.251646
O O4 0.200741 0.000000 0.351100
O O5 0.724247 0.500000 0.120280
O O6 0.826494 0.690848 0.079228
O O7 0.814806 0.680836 0.243837
O O8 0.667740 0.764931 0.083361
O O9 0.508385 0.850205 0.905633
O O10 0.554985 0.619738 0.961668
O O11 0.485334 0.157280 0.266531
O O12 0.603918 0.000000 0.228424
O O13 0.927006 0.235003 0.408136
O O14 0.853481 0.000000 0.432624
O O15 0.417322 0.000000 0.363728
#
# Coordination Sequence:
#
# PCOD9207630 Si02
#       7
#     8   8   8   8   8   8   2
#     4  10  22  38  61  85 118 164 202 245 315 364
#     4   9  18  39  62  84 115 171 212 247 298 377
#     4  10  21  37  59  86 124 157 202 256 306 362
#     4  10  22  41  61  88 120 161 200 251 306 364
#     4  10  21  39  58  88 122 155 202 255 300 370
#     4   9  19  36  60  87 118 156 209 247 294 356
#     4  12  24  36  54 100 124 156 202 270 304 376
#
# _framework density 23.985465999999999
#
# number of rings (size 3 to 8) (size 9 to 14) (size 15 to 20)
#    0.000    2.240    0.800    2.400    1.120    4.480 
#    4.320    4.800    0.000    0.000    0.000    0.000 
#    0.000    0.000    0.000    0.000    0.000    0.000 
#
# Total GULP energy -139191.633037 kJ/mol
# GULP energy per Si atom -5567.665321 kJ/mol
# Density = 2.393087 g / cm^3
# Si number density = 23.985466 Si / 1000 Ang^3
#
#
#
# Elastic Constant Matrix: (Units=GPa)
#
#
# Indices 1 2 3 4 5 6 
#
# 1 54.8262 5.4039 16.3705 0.0000 7.7919 0.0000
# 2 5.4039 131.4609 58.6556 0.0000 2.2561 0.0000
# 3 16.3705 58.6556 144.8964 0.0000 -4.3092 0.0000
# 4 0.0000 0.0000 0.0000 34.7634 0.0000 -25.5335
# 5 7.7919 2.2561 -4.3092 0.0000 45.0200 0.0000
# 6 0.0000 0.0000 0.0000 -25.5335 0.0000 54.8254
#
#
#
# Elastic Compliance Matrix: (Units=1/GPa)
#
#
# Indices 1 2 3 4 5 6 
#
# 1 0.019450 0.000355 -0.002449 0.000000 -0.003618 0.000000
# 2 0.000355 0.009321 -0.003840 0.000000 -0.000896 0.000000
# 3 -0.002449 -0.003840 0.008776 0.000000 0.001456 0.000000
# 4 0.000000 0.000000 0.000000 0.043722 0.000000 0.020362
# 5 -0.003618 -0.000896 0.001456 0.000000 0.023023 0.000000
# 6 0.000000 0.000000 0.000000 0.020362 0.000000 0.027723
#
#
# Mechanical properties :
#
#
# Convention : Reuss Voigt Hill
#
# Bulk Modulus (GPa) = 38.94158 54.67148 46.80653
# Shear Modulus (GPa) = 32.79944 43.63866 38.21905
#
# Velocity S-wave (km/s) = 3.70195 4.27005 3.99610
# Velocity P-wave (km/s) = 5.87735 6.86689 6.39130
#
# Compressibility (1/GPa) = 0.02567949
#
# Stress axis : x y z
#
# Youngs Moduli (GPa) = 51.41417 107.28527 113.94789
#
# Poissons Ratio (x) = -0.03811 0.27904
# Poissons Ratio (y) = -0.01826 0.43756
# Poissons Ratio (z) = 0.12591 0.41198
#
# Static dielectric constant tensor:
#      x y z
#    x 2.019320 0.000000 -0.023600 
#    y 0.000000 1.803540 0.000000 
#    z -0.023600 0.000000 1.924210 
# 
# From -- ./inp_files/274505.got.cif
#   From: 2010.05.17/outbox.cif.g08.bks.cpg/sg12_138_cif.got.tgz:274505.got - 2010.06.03 13:09:07.
