data_PCOD9207322
_publ_section_title
;
Structure prediction by ZEFSAII (Michael W. Deem and Ramdas Pophale) SiO2 
 PCOD9207322
Probable space group: C 2/M
;
_chemical_formula_sum "Si O2"
_cell_formula_units_Z 48
_cell_length_a 30.395957
_cell_length_b 7.461730
_cell_length_c 19.241397
_cell_angle_alpha 90.000000
_cell_angle_beta 30.035364
_cell_angle_gamma 90.000000
_cell_volume 2184.368523
_symmetry_space_group_name_H-M "C 2/M"
_symmetry_group_IT_number 12
_symmetry_cell_setting 'monoclinic'
loop_
_space_group_symop_operation_xyz
x,y,z
-x,y,-z
-x,-y,-z
x,-y,z
1/2+x,1/2+y,z
1/2-x,1/2+y,-z
1/2-x,1/2-y,-z
1/2+x,1/2-y,z
loop_
_atom_site_type_symbol
_atom_site_label
_atom_site_fract_x
_atom_site_fract_y
_atom_site_fract_z
Si Si1 0.976023 0.796531 0.605567
Si Si2 0.542292 0.719605 0.664356
Si Si3 0.597008 0.790807 0.879675
Si Si4 0.722386 0.212907 0.116149
Si Si5 0.888220 0.217099 0.979340
Si Si6 0.261966 0.714437 0.565229
O O1 0.871367 0.801706 0.747305
O O2 0.000000 0.706369 0.500000
O O3 0.008858 0.720443 0.634079
O O4 0.012598 0.000000 0.553891
O O5 0.540232 0.500000 0.667671
O O6 0.641793 0.779566 0.542682
O O7 0.473586 0.775846 0.818280
O O8 0.613318 0.778834 0.939419
O O9 0.678761 0.715500 0.723440
O O10 0.591390 0.000000 0.866540
O O11 0.500000 0.710862 0.000000
O O12 0.800015 0.275224 0.060374
O O13 0.711669 0.000000 0.140932
O O14 0.750000 0.250000 0.000000
O O15 0.889315 0.000000 0.978057
O O16 0.264209 0.500000 0.572378
O O17 0.250000 0.750000 0.500000
#
# Coordination Sequence:
#
# PCOD9207322 Si02
#       6
#     8   8   8   8   8   8
#     4  10  21  37  60  85 115 155 197 238 286 346
#     4   9  18  36  56  80 111 146 189 232 275 332
#     4  10  22  38  57  86 118 143 181 235 286 338
#     4  11  22  38  59  85 119 155 196 243 289 341
#     4  10  21  37  58  82 112 148 190 236 279 337
#     4  10  21  37  59  82 111 148 184 228 279 335
#
# _framework density 21.974314
#
# number of rings (size 3 to 8) (size 9 to 14) (size 15 to 20)
#    0.000    2.000    1.667    1.500    2.333    2.667 
#    0.000    0.833    0.000    0.000    0.000    0.000 
#    0.000    0.000    0.000    0.000    0.000    0.000 
#
# Total GULP energy -134066.170207 kJ/mol
# GULP energy per Si atom -5586.090425 kJ/mol
# Density = 2.192430 g / cm^3
# Si number density = 21.974314 Si / 1000 Ang^3
#
#
#
# Elastic Constant Matrix: (Units=GPa)
#
#
# Indices 1 2 3 4 5 6 
#
# 1 175.0157 -8.8798 118.9990 0.0002 -10.2638 0.0007
# 2 -8.8798 67.6895 -2.3132 0.0084 -6.1542 -0.0082
# 3 118.9990 -2.3132 212.0060 0.0101 1.2007 -0.0034
# 4 0.0002 0.0084 0.0101 0.9485 -0.0048 -1.7005
# 5 -10.2638 -6.1542 1.2007 -0.0048 46.5083 0.0006
# 6 0.0007 -0.0082 -0.0034 -1.7005 0.0006 12.5598
#
#
#
# Elastic Compliance Matrix: (Units=1/GPa)
#
#
# Indices 1 2 3 4 5 6 
#
# 1 0.009576 0.001293 -0.005374 0.000071 0.002423 0.000008
# 2 0.001293 0.015133 -0.000574 -0.000131 0.002303 -0.000008
# 3 -0.005374 -0.000574 0.007736 -0.000106 -0.001462 -0.000012
# 4 0.000071 -0.000131 -0.000106 1.392234 0.000144 0.188499
# 5 0.002423 0.002303 -0.001462 0.000144 0.022379 0.000019
# 6 0.000008 -0.000008 -0.000012 0.188499 0.000019 0.105141
#
#
# Mechanical properties :
#
#
# Convention : Reuss Voigt Hill
#
# Bulk Modulus (GPa) = 43.22732 74.48035 58.85384
# Shear Modulus (GPa) = 3.18630 35.13034 19.15832
#
# Velocity S-wave (km/s) = 1.20547 4.00271 2.95592
# Velocity P-wave (km/s) = 4.65317 7.43842 6.20412
#
# Compressibility (1/GPa) = 0.02313352
#
# Stress axis : x y z
#
# Youngs Moduli (GPa) = 104.43027 66.08210 129.27284
#
# Poissons Ratio (x) = -0.08543 0.69478
# Poissons Ratio (y) = -0.13501 0.07415
# Poissons Ratio (z) = 0.56126 0.03790
#
# Static dielectric constant tensor:
#      x y z
#    x 1.754360 -0.000010 -0.001140 
#    y -0.000010 1.721060 0.000010 
#    z -0.001140 0.000010 1.756220 
# 
# From -- ./inp_files/244719.got.cif
#   From: 2010.05.17/outbox.cif.g08.bks.cpg/sg12_123_cif.got.tgz:244719.got - 2010.06.03 13:09:07.
