data_PCOD9207967
_publ_section_title
;
Structure prediction by ZEFSAII (Michael W. Deem and Ramdas Pophale) SiO2 
 PCOD9207967
Probable space group: C 2/M
;
_chemical_formula_sum "Si O2"
_cell_formula_units_Z 42
_cell_length_a 20.751940
_cell_length_b 7.831345
_cell_length_c 11.894169
_cell_angle_alpha 90.000000
_cell_angle_beta 79.361887
_cell_angle_gamma 90.000000
_cell_volume 1899.765316
_symmetry_space_group_name_H-M "C 2/M"
_symmetry_group_IT_number 12
_symmetry_cell_setting 'monoclinic'
loop_
_space_group_symop_operation_xyz
x,y,z
-x,y,-z
-x,-y,-z
x,-y,z
1/2+x,1/2+y,z
1/2-x,1/2+y,-z
1/2-x,1/2-y,-z
1/2+x,1/2-y,z
loop_
_atom_site_type_symbol
_atom_site_label
_atom_site_fract_x
_atom_site_fract_y
_atom_site_fract_z
Si Si1 0.354214 0.802088 0.409994
Si Si2 0.002742 0.804372 0.624852
Si Si3 0.282163 0.700253 0.648778
Si Si4 0.000000 0.000000 0.000000
Si Si5 0.192963 0.702801 0.104654
Si Si6 0.453357 0.197132 0.867780
O O1 0.420823 0.702897 0.367292
O O2 0.332746 0.788230 0.547506
O O3 0.291096 0.739169 0.360315
O O4 0.366031 0.000000 0.377132
O O5 0.000000 0.731735 0.500000
O O6 0.961823 0.705734 0.730832
O O7 0.978706 0.000000 0.628033
O O8 0.284685 0.500000 0.619151
O O9 0.295902 0.721435 0.775405
O O10 0.002101 0.845735 0.095113
O O11 0.191936 0.500000 0.118893
O O12 0.121416 0.750793 0.080486
O O13 0.250000 0.750000 0.000000
O O14 0.464912 0.000000 0.898774
#
# Coordination Sequence:
#
# PCOD9207967 Si02
#       6
#     8   8   8   2   8   8
#     4  10  21  37  60  94 132 171 216 270 335 401
#     4  11  23  40  66  99 136 180 225 276 345 418
#     4  10  21  38  62  91 130 170 216 273 332 402
#     4  12  26  48  74  94 136 192 222 300 336 410
#     4  11  25  43  68  96 129 173 223 281 339 406
#     4  11  26  47  71 103 137 180 237 286 348 414
#
# _framework density 22.107993
#
# number of rings (size 3 to 8) (size 9 to 14) (size 15 to 20)
#    0.000    1.333    0.952    3.714    2.667    8.381 
#    0.000    1.905    0.000    0.000    0.000    0.000 
#    0.000    0.000    0.000    0.000    0.000    0.000 
#
# Total GULP energy -117159.093955 kJ/mol
# GULP energy per Si atom -5579.004474 kJ/mol
# Density = 2.205767 g / cm^3
# Si number density = 22.107993 Si / 1000 Ang^3
#
#
#
# Elastic Constant Matrix: (Units=GPa)
#
#
# Indices 1 2 3 4 5 6 
#
# 1 42.6522 3.5289 14.3103 0.0000 -16.3836 0.0000
# 2 3.5289 73.9765 8.2959 0.0000 5.4792 0.0000
# 3 14.3103 8.2959 78.7343 0.0000 4.3729 0.0000
# 4 0.0000 0.0000 0.0000 27.7340 0.0000 -2.6452
# 5 -16.3836 5.4792 4.3729 0.0000 34.3106 0.0000
# 6 0.0000 0.0000 0.0000 -2.6452 0.0000 6.5120
#
#
#
# Elastic Compliance Matrix: (Units=1/GPa)
#
#
# Indices 1 2 3 4 5 6 
#
# 1 0.032151 -0.002022 -0.006547 0.000000 0.016510 0.000000
# 2 -0.002022 0.013946 -0.000931 0.000000 -0.003074 0.000000
# 3 -0.006547 -0.000931 0.014255 0.000000 -0.004795 0.000000
# 4 0.000000 0.000000 0.000000 0.037510 0.000000 0.015237
# 5 0.016510 -0.003074 -0.004795 0.000000 0.038131 0.000000
# 6 0.000000 0.000000 0.000000 0.015237 0.000000 0.159752
#
#
# Mechanical properties :
#
#
# Convention : Reuss Voigt Hill
#
# Bulk Modulus (GPa) = 24.18312 27.51479 25.84896
# Shear Modulus (GPa) = 15.21921 24.99317 20.10619
#
# Velocity S-wave (km/s) = 2.62659 3.36594 3.01899
# Velocity P-wave (km/s) = 4.49010 5.25155 4.88568
#
# Compressibility (1/GPa) = 0.04135115
#
# Stress axis : x y z
#
# Youngs Moduli (GPa) = 31.10290 71.70311 70.14899
#
# Poissons Ratio (x) = 0.14501 0.45930
# Poissons Ratio (y) = 0.06290 0.06532
# Poissons Ratio (z) = 0.20365 0.06677
#
# Static dielectric constant tensor:
#      x y z
#    x 1.880200 0.000000 0.019660 
#    y 0.000000 1.801480 0.000000 
#    z 0.019660 0.000000 1.811140 
# 
# From -- ./inp_files/163016.got.cif
#   From: 2010.05.17/outbox.cif.g08.bks.cpg/sg12_82_cif.got.tgz:163016.got - 2010.06.03 13:09:07.
