data_PCOD9207654
_publ_section_title
;
Structure prediction by ZEFSAII (Michael W. Deem and Ramdas Pophale) SiO2 
 PCOD9207654
Probable space group: C 2/M
;
_chemical_formula_sum "Si O2"
_cell_formula_units_Z 48
_cell_length_a 9.256674
_cell_length_b 20.339290
_cell_length_c 13.788161
_cell_angle_alpha 90.000000
_cell_angle_beta 97.593356
_cell_angle_gamma 90.000000
_cell_volume 2573.190400
_symmetry_space_group_name_H-M "C 2/M"
_symmetry_group_IT_number 12
_symmetry_cell_setting 'monoclinic'
loop_
_space_group_symop_operation_xyz
x,y,z
-x,y,-z
-x,-y,-z
x,-y,z
1/2+x,1/2+y,z
1/2-x,1/2+y,-z
1/2-x,1/2-y,-z
1/2+x,1/2-y,z
loop_
_atom_site_type_symbol
_atom_site_label
_atom_site_fract_x
_atom_site_fract_y
_atom_site_fract_z
Si Si1 0.612997 0.139516 0.707295
Si Si2 0.865106 0.763391 0.426854
Si Si3 0.225332 0.375302 0.283472
Si Si4 0.827937 0.829431 0.099894
Si Si5 0.794473 0.500000 0.587787
Si Si6 0.664961 0.306207 0.115734
Si Si7 0.648707 0.000000 0.621783
O O1 0.598652 0.193940 0.621109
O O2 0.449854 0.132276 0.734697
O O3 0.727891 0.165352 0.795024
O O4 0.672825 0.069465 0.675971
O O5 0.750000 0.750000 0.500000
O O6 0.800543 0.812129 0.340367
O O7 0.000000 0.791435 0.500000
O O8 0.285506 0.380770 0.179517
O O9 0.254701 0.436435 0.356946
O O10 0.717836 0.768340 0.103872
O O11 0.995752 0.807637 0.130526
O O12 0.819003 0.845158 0.984841
O O13 0.762139 0.500000 0.470873
O O14 0.971502 0.500000 0.598597
#
# Coordination Sequence:
#
# PCOD9207654 Si02
#       7
#     8   8   8   8   4   8   4
#     4  11  22  38  62  89 115 156 199 243 293 345
#     4  12  24  36  55  87 118 150 192 244 290 344
#     4  11  22  39  61  87 118 155 197 243 293 346
#     4  10  21  37  59  87 120 154 189 244 299 353
#     4   9  20  40  59  83 119 162 198 236 290 344
#     4  10  21  37  59  88 119 152 193 241 301 351
#     4   9  20  38  62  82 118 161 201 239 282 348
#
# _framework density 18.653886
#
# number of rings (size 3 to 8) (size 9 to 14) (size 15 to 20)
#    0.000    1.500    3.333    2.000    4.667    2.000 
#    0.000    2.083    0.000    5.000    0.000    0.000 
#    0.000    0.000    0.000    0.000    0.000    0.000 
#
# Total GULP energy -133866.476795 kJ/mol
# GULP energy per Si atom -5577.769866 kJ/mol
# Density = 1.861143 g / cm^3
# Si number density = 18.653886 Si / 1000 Ang^3
#
#
#
# Elastic Constant Matrix: (Units=GPa)
#
#
# Indices 1 2 3 4 5 6 
#
# 1 82.0452 -2.2209 29.4096 0.0000 -9.4692 0.0000
# 2 -2.2209 61.5187 11.6178 0.0000 -13.0668 0.0000
# 3 29.4096 11.6178 86.0375 0.0000 -13.0439 0.0000
# 4 0.0000 0.0000 0.0000 22.7824 0.0000 -3.2067
# 5 -9.4692 -13.0668 -13.0439 0.0000 40.6992 0.0000
# 6 0.0000 0.0000 0.0000 -3.2067 0.0000 12.5739
#
#
#
# Elastic Compliance Matrix: (Units=1/GPa)
#
#
# Indices 1 2 3 4 5 6 
#
# 1 0.014223 0.001922 -0.004757 0.000000 0.002402 0.000000
# 2 0.001922 0.017912 -0.002245 0.000000 0.005478 0.000000
# 3 -0.004757 -0.002245 0.013953 0.000000 0.002644 0.000000
# 4 0.000000 0.000000 0.000000 0.045528 0.000000 0.011611
# 5 0.002402 0.005478 0.002644 0.000000 0.027736 0.000000
# 6 0.000000 0.000000 0.000000 0.011611 0.000000 0.082491
#
#
# Mechanical properties :
#
#
# Convention : Reuss Voigt Hill
#
# Bulk Modulus (GPa) = 27.83389 34.13496 30.98443
# Shear Modulus (GPa) = 22.32358 27.93077 25.12717
#
# Velocity S-wave (km/s) = 3.46312 3.87372 3.67416
# Velocity P-wave (km/s) = 5.56279 6.19245 5.88604
#
# Compressibility (1/GPa) = 0.03592742
#
# Stress axis : x y z
#
# Youngs Moduli (GPa) = 70.30958 55.82771 71.66928
#
# Poissons Ratio (x) = -0.10730 0.34094
# Poissons Ratio (y) = -0.13513 0.16091
# Poissons Ratio (z) = 0.33447 0.12534
#
# Static dielectric constant tensor:
#      x y z
#    x 1.624950 0.000000 0.002410 
#    y 0.000000 1.653230 0.000000 
#    z 0.002410 0.000000 1.671110 
# 
# From -- ./inp_files/196039.got.cif
#   From: 2010.05.17/outbox.cif.g08.bks.cpg/sg12_99_cif.got.tgz:196039.got - 2010.06.03 13:09:07.
