data_PCOD9207034
_publ_section_title
;
Structure prediction by ZEFSAII (Michael W. Deem and Ramdas Pophale) SiO2 
 PCOD9207034
Probable space group: C 2/M
;
_chemical_formula_sum "Si O2"
_cell_formula_units_Z 56
_cell_length_a 18.427500
_cell_length_b 8.604780
_cell_length_c 29.752101
_cell_angle_alpha 90.000000
_cell_angle_beta 140.788890
_cell_angle_gamma 90.000000
_cell_volume 2982.388930
_symmetry_space_group_name_H-M "C 2/M"
_symmetry_group_IT_number 12
_symmetry_cell_setting 'monoclinic'
loop_
_space_group_symop_operation_xyz
x,y,z
-x,y,-z
-x,-y,-z
x,-y,z
1/2+x,1/2+y,z
1/2-x,1/2+y,-z
1/2-x,1/2-y,-z
1/2+x,1/2-y,z
loop_
_atom_site_type_symbol
_atom_site_label
_atom_site_fract_x
_atom_site_fract_y
_atom_site_fract_z
Si Si1 0.165074 0.186361 0.997930
Si Si2 0.204566 0.815257 0.431005
Si Si3 0.633842 0.312539 0.569419
Si Si4 0.714537 0.687901 0.708015
Si Si5 0.641871 0.188890 0.846549
Si Si6 0.450084 0.186690 0.293866
Si Si7 0.523735 0.812613 0.150725
O O1 0.041493 0.250777 0.924688
O O2 0.162120 0.000000 0.994692
O O3 0.250000 0.250000 0.000000
O O4 0.230918 0.233891 0.075185
O O5 0.250000 0.750000 0.500000
O O6 0.290529 0.763735 0.432938
O O7 0.078677 0.748749 0.360452
O O8 0.198598 0.000000 0.430808
O O9 0.500000 0.272079 0.500000
O O10 0.643910 0.500000 0.570084
O O11 0.679347 0.267936 0.640537
O O12 0.709691 0.500000 0.708088
O O13 0.626750 0.756581 0.701708
O O14 0.844824 0.736897 0.781387
O O15 0.605231 0.242278 0.779812
O O16 0.549668 0.237509 0.840465
O O17 0.639439 0.000000 0.844935
O O18 0.453343 0.000000 0.294880
O O19 0.520052 0.000000 0.148004
#
# Coordination Sequence:
#
# PCOD9207034 Si02
#       7
#     8   8   8   8   8   8   8
#     4   9  16  29  50  76 105 137 180 230 279 332
#     4  12  25  41  62  88 117 147 184 227 272 324
#     4  10  21  39  63  87 113 147 184 224 275 330
#     4  10  21  37  56  81 116 152 185 228 282 335
#     4   8  16  32  54  78 104 140 182 225 277 333
#     4  11  22  38  59  82 112 149 189 230 276 331
#     4   9  17  32  53  76 106 144 185 228 278 334
#
# _framework density 18.776895
#
# number of rings (size 3 to 8) (size 9 to 14) (size 15 to 20)
#    0.000    2.143    0.000    4.714    0.000    4.857 
#    0.000   10.714    0.000    4.286    0.000    0.000 
#    0.000    0.000    0.000    0.000    0.000    0.000 
#
# Total GULP energy -156299.899302 kJ/mol
# GULP energy per Si atom -5582.139261 kJ/mol
# Density = 1.873416 g / cm^3
# Si number density = 18.776895 Si / 1000 Ang^3
#
#
#
# Elastic Constant Matrix: (Units=GPa)
#
#
# Indices 1 2 3 4 5 6 
#
# 1 125.9167 41.3109 95.7230 0.0000 -0.9768 0.0000
# 2 41.3109 37.2404 49.6900 0.0000 2.0751 0.0001
# 3 95.7230 49.6900 217.8720 0.0000 1.1145 0.0000
# 4 0.0000 0.0000 0.0000 28.3253 0.0000 2.9203
# 5 -0.9768 2.0751 1.1145 0.0000 32.4297 0.0000
# 6 0.0000 0.0001 0.0000 2.9203 0.0000 28.8312
#
#
#
# Elastic Compliance Matrix: (Units=1/GPa)
#
#
# Indices 1 2 3 4 5 6 
#
# 1 0.014500 -0.010992 -0.003870 0.000000 0.001273 0.000000
# 2 -0.010992 0.047084 -0.005893 0.000000 -0.003141 0.000000
# 3 -0.003870 -0.005893 0.007634 0.000000 -0.000002 0.000000
# 4 0.000000 0.000000 0.000000 0.035677 0.000000 -0.003614
# 5 0.001273 -0.003141 -0.000002 0.000000 0.031075 0.000000
# 6 0.000000 0.000000 0.000000 -0.003614 0.000000 0.035051
#
#
# Mechanical properties :
#
#
# Convention : Reuss Voigt Hill
#
# Bulk Modulus (GPa) = 36.09057 83.83078 59.96067
# Shear Modulus (GPa) = 22.54616 30.87092 26.70854
#
# Velocity S-wave (km/s) = 3.46893 4.05914 3.77558
# Velocity P-wave (km/s) = 5.94198 8.16771 7.14208
#
# Compressibility (1/GPa) = 0.02770807
#
# Stress axis : x y z
#
# Youngs Moduli (GPa) = 68.96531 21.23867 130.98739
#
# Poissons Ratio (x) = 0.23345 0.50696
# Poissons Ratio (y) = 0.75805 0.77192
# Poissons Ratio (z) = 0.26692 0.12516
#
# Static dielectric constant tensor:
#      x y z
#    x 1.735160 0.000000 0.065780 
#    y 0.000000 1.641800 0.000000 
#    z 0.065780 0.000000 1.704390 
# 
# From -- ./inp_files/275683.got.cif
#   From: 2010.05.17/outbox.cif.g08.bks.cpg/sg12_138_cif.got.tgz:275683.got - 2010.06.03 13:09:07.
