data_PCOD9207505
_publ_section_title
;
Structure prediction by ZEFSAII (Michael W. Deem and Ramdas Pophale) SiO2 
 PCOD9207505
Probable space group: C 2/M
;
_chemical_formula_sum "Si O2"
_cell_formula_units_Z 40
_cell_length_a 17.382813
_cell_length_b 19.546231
_cell_length_c 14.066249
_cell_angle_alpha 90.000000
_cell_angle_beta 26.079973
_cell_angle_gamma 90.000000
_cell_volume 2101.086893
_symmetry_space_group_name_H-M "C 2/M"
_symmetry_group_IT_number 12
_symmetry_cell_setting 'monoclinic'
loop_
_space_group_symop_operation_xyz
x,y,z
-x,y,-z
-x,-y,-z
x,-y,z
1/2+x,1/2+y,z
1/2-x,1/2+y,-z
1/2-x,1/2-y,-z
1/2+x,1/2-y,z
loop_
_atom_site_type_symbol
_atom_site_label
_atom_site_fract_x
_atom_site_fract_y
_atom_site_fract_z
Si Si1 0.697430 0.419546 0.741927
Si Si2 0.795866 0.170639 0.455789
Si Si3 0.500000 0.620399 0.500000
Si Si4 0.500000 0.163904 0.500000
Si Si5 0.672081 0.925334 0.744586
Si Si6 0.895703 0.222084 0.766975
O O1 0.741008 0.500000 0.677932
O O2 0.702740 0.373787 0.640617
O O3 0.832900 0.383721 0.664113
O O4 0.500000 0.416495 0.000000
O O5 0.750000 0.250000 0.500000
O O6 0.668660 0.133981 0.671192
O O7 0.981931 0.176780 0.300423
O O8 0.644138 0.580510 0.401871
O O9 0.373454 0.669084 0.704553
O O10 0.526506 0.212621 0.377677
O O11 0.670182 0.000000 0.699599
O O12 0.500000 0.920510 0.000000
O O13 0.750000 0.250000 0.000000
#
# Coordination Sequence:
#
# PCOD9207505 Si02
#       6
#     8   8   4   4   8   8
#     4  11  24  41  62  89 122 160 199 244 299 355
#     4  11  22  39  60  88 118 153 197 246 290 347
#     4   9  21  36  58  86 116 150 192 244 286 346
#     4  11  21  40  60  88 120 154 202 244 292 356
#     4  10  22  39  60  86 118 155 194 238 293 351
#     4  10  21  37  58  88 119 151 195 245 296 347
#
# _framework density 19.037763999999999
#
# number of rings (size 3 to 8) (size 9 to 14) (size 15 to 20)
#    0.000    1.600    2.000    2.400    2.800    0.800 
#    0.000    0.000    0.000    9.600    0.000    0.000 
#    0.000    0.000    0.000    0.000    0.000    0.000 
#
# Total GULP energy -111336.838218 kJ/mol
# GULP energy per Si atom -5566.841911 kJ/mol
# Density = 1.899443 g / cm^3
# Si number density = 19.037764 Si / 1000 Ang^3
#
#
#
# Elastic Constant Matrix: (Units=GPa)
#
#
# Indices 1 2 3 4 5 6 
#
# 1 69.3380 34.7845 16.1380 0.1148 0.1563 -0.0449
# 2 34.7845 144.3479 37.1179 -0.0628 9.0609 0.0253
# 3 16.1380 37.1179 86.3037 0.0104 6.1209 -0.0044
# 4 0.1148 -0.0628 0.0104 373.4718 -0.1079 -131.3842
# 5 0.1563 9.0609 6.1209 -0.1079 26.4752 0.0396
# 6 -0.0449 0.0253 -0.0044 -131.3842 0.0396 79.2770
#
#
#
# Elastic Compliance Matrix: (Units=1/GPa)
#
#
# Indices 1 2 3 4 5 6 
#
# 1 0.016650 -0.003688 -0.001636 -0.000004 0.001542 0.000003
# 2 -0.003688 0.008704 -0.002891 0.000002 -0.002289 -0.000001
# 3 -0.001636 -0.002891 0.013283 -0.000001 -0.002072 0.000000
# 4 -0.000004 0.000002 -0.000001 0.006421 0.000010 0.010642
# 5 0.001542 -0.002289 -0.002072 0.000010 0.039024 -0.000002
# 6 0.000003 -0.000001 0.000000 0.010642 -0.000002 0.030251
#
#
# Mechanical properties :
#
#
# Convention : Reuss Voigt Hill
#
# Bulk Modulus (GPa) = 45.03535 52.89672 48.96604
# Shear Modulus (GPa) = 36.18815 109.97476 73.08145
#
# Velocity S-wave (km/s) = 4.36462 7.60868 6.20250
# Velocity P-wave (km/s) = 7.00764 10.24865 8.77900
#
# Compressibility (1/GPa) = 0.02220478
#
# Stress axis : x y z
#
# Youngs Moduli (GPa) = 60.06087 114.89476 75.28157
#
# Poissons Ratio (x) = 0.42376 0.12320
# Poissons Ratio (y) = 0.22152 0.21766
# Poissons Ratio (z) = 0.09829 0.33220
#
# Static dielectric constant tensor:
#      x y z
#    x 1.618800 -0.000060 0.027980 
#    y -0.000060 1.686800 0.000030 
#    z 0.027980 0.000030 1.664040 
# 
# From -- ./inp_files/235154.got.cif
#   From: 2010.05.17/outbox.cif.g08.bks.cpg/sg12_118_cif.got.tgz:235154.got - 2010.06.03 13:09:07.
