data_PCOD9207072
_publ_section_title
;
Structure prediction by ZEFSAII (Michael W. Deem and Ramdas Pophale) SiO2 
 PCOD9207072
Probable space group: C 2/M
;
_chemical_formula_sum "Si O2"
_cell_formula_units_Z 44
_cell_length_a 9.201354
_cell_length_b 17.391487
_cell_length_c 12.221507
_cell_angle_alpha 90.000000
_cell_angle_beta 107.317043
_cell_angle_gamma 90.000000
_cell_volume 1867.099828
_symmetry_space_group_name_H-M "C 2/M"
_symmetry_group_IT_number 12
_symmetry_cell_setting 'monoclinic'
loop_
_space_group_symop_operation_xyz
x,y,z
-x,y,-z
-x,-y,-z
x,-y,z
1/2+x,1/2+y,z
1/2-x,1/2+y,-z
1/2-x,1/2-y,-z
1/2+x,1/2-y,z
loop_
_atom_site_type_symbol
_atom_site_label
_atom_site_fract_x
_atom_site_fract_y
_atom_site_fract_z
Si Si1 0.052404 0.848046 0.358294
Si Si2 0.939240 0.088605 0.107938
Si Si3 0.721403 0.204088 0.327060
Si Si4 0.324699 0.189946 0.934131
Si Si5 0.497942 0.086141 0.378720
Si Si6 0.289754 0.500000 0.642282
O O1 0.006176 0.860200 0.219247
O O2 0.893779 0.825073 0.381327
O O3 0.170587 0.778286 0.383366
O O4 0.121885 0.930409 0.402078
O O5 0.761567 0.108635 0.070419
O O6 0.978194 0.000000 0.146613
O O7 0.000000 0.103292 0.000000
O O8 0.704754 0.219804 0.194380
O O9 0.596949 0.137779 0.323230
O O10 0.500000 0.183000 0.000000
O O11 0.250000 0.250000 0.000000
O O12 0.500000 0.121624 0.500000
O O13 0.321837 0.065951 0.319057
O O14 0.571703 0.000000 0.409165
#
# Coordination Sequence:
#
# PCOD9207072 Si02
#       6
#     8   8   8   8   8   4
#     4  11  22  39  61  96 127 167 219 265 323 397
#     4  10  21  37  56  83 126 167 208 264 316 375
#     4  11  23  39  68  94 129 174 221 269 327 389
#     4  11  22  38  60  88 130 168 217 261 322 380
#     4   9  22  46  71  93 134 166 217 275 338 392
#     4  10  21  40  66  90 130 168 210 266 347 386
#
# _framework density 23.565957999999998
#
# number of rings (size 3 to 8) (size 9 to 14) (size 15 to 20)
#    0.545    1.091    0.909    4.909    1.273    2.545 
#    0.000    5.455    0.000    0.000    0.000    0.000 
#    0.000    0.000    0.000    0.000    0.000    0.000 
#
# Total GULP energy -122499.034066 kJ/mol
# GULP energy per Si atom -5568.137912 kJ/mol
# Density = 2.351232 g / cm^3
# Si number density = 23.565958 Si / 1000 Ang^3
#
#
#
# Elastic Constant Matrix: (Units=GPa)
#
#
# Indices 1 2 3 4 5 6 
#
# 1 159.0679 93.0857 8.9134 0.0000 -13.6231 0.0000
# 2 93.0857 151.4689 15.9110 0.0000 -23.5891 0.0000
# 3 8.9134 15.9110 58.3348 0.0000 -14.2193 0.0000
# 4 0.0000 0.0000 0.0000 26.7552 0.0000 -3.1643
# 5 -13.6231 -23.5891 -14.2193 0.0000 35.6829 0.0000
# 6 0.0000 0.0000 0.0000 -3.1643 0.0000 42.2646
#
#
#
# Elastic Compliance Matrix: (Units=1/GPa)
#
#
# Indices 1 2 3 4 5 6 
#
# 1 0.009820 -0.006082 0.000102 0.000000 -0.000231 0.000000
# 2 -0.006082 0.011170 -0.000978 0.000000 0.004672 0.000000
# 3 0.000102 -0.000978 0.019101 0.000000 0.007004 0.000000
# 4 0.000000 0.000000 0.000000 0.037710 0.000000 0.002823
# 5 -0.000231 0.004672 0.007004 0.000000 0.033816 0.000000
# 6 0.000000 0.000000 0.000000 0.002823 0.000000 0.023872
#
#
# Mechanical properties :
#
#
# Convention : Reuss Voigt Hill
#
# Bulk Modulus (GPa) = 38.20448 67.18797 52.69623
# Shear Modulus (GPa) = 31.61960 37.67131 34.64546
#
# Velocity S-wave (km/s) = 3.66696 4.00252 3.83841
# Velocity P-wave (km/s) = 5.84600 7.06631 6.48492
#
# Compressibility (1/GPa) = 0.02617494
#
# Stress axis : x y z
#
# Youngs Moduli (GPa) = 101.83231 89.52618 52.35358
#
# Poissons Ratio (x) = 0.54446 -0.00534
# Poissons Ratio (y) = 0.61930 0.05123
# Poissons Ratio (z) = -0.01040 0.08760
#
# Static dielectric constant tensor:
#      x y z
#    x 2.054990 0.000000 0.154730 
#    y 0.000000 1.923850 0.000000 
#    z 0.154730 0.000000 1.986380 
# 
# From -- ./inp_files/195534.got.cif
#   From: 2010.05.17/outbox.cif.g08.bks.cpg/sg12_98_cif.got.tgz:195534.got - 2010.06.03 13:09:07.
