data_PCOD9207445
_publ_section_title
;
Structure prediction by ZEFSAII (Michael W. Deem and Ramdas Pophale) SiO2 
 PCOD9207445
Probable space group: C 2/M
;
_chemical_formula_sum "Si O2"
_cell_formula_units_Z 64
_cell_length_a 12.483850
_cell_length_b 19.304664
_cell_length_c 30.166786
_cell_angle_alpha 90.000000
_cell_angle_beta 153.583656
_cell_angle_gamma 90.000000
_cell_volume 3234.395530
_symmetry_space_group_name_H-M "C 2/M"
_symmetry_group_IT_number 12
_symmetry_cell_setting 'monoclinic'
loop_
_space_group_symop_operation_xyz
x,y,z
-x,y,-z
-x,-y,-z
x,-y,z
1/2+x,1/2+y,z
1/2-x,1/2+y,-z
1/2-x,1/2-y,-z
1/2+x,1/2-y,z
loop_
_atom_site_type_symbol
_atom_site_label
_atom_site_fract_x
_atom_site_fract_y
_atom_site_fract_z
Si Si1 0.835463 0.079906 0.887172
Si Si2 0.609134 0.132342 0.713969
Si Si3 0.355553 0.422955 0.492154
Si Si4 0.278965 0.735201 0.616648
Si Si5 0.532078 0.074840 0.165842
Si Si6 0.037207 0.852198 0.643408
Si Si7 0.246649 0.696904 0.957834
Si Si8 0.915549 0.771323 0.769217
O O1 0.703043 0.093891 0.792104
O O2 0.640543 0.081737 0.854690
O O3 0.933826 0.000000 0.924352
O O4 0.023714 0.144463 0.960391
O O5 0.427713 0.083075 0.620849
O O6 0.438608 0.196985 0.664760
O O7 0.824284 0.163808 0.764391
O O8 0.500000 0.412393 0.500000
O O9 0.420126 0.500000 0.531554
O O10 0.425176 0.367655 0.554602
O O11 0.350980 0.673126 0.610588
O O12 0.369607 0.715923 0.699991
O O13 0.000000 0.749184 0.500000
O O14 0.804180 0.083550 0.282078
O O15 0.462945 0.140337 0.110635
O O16 0.491451 0.000000 0.130382
O O17 0.227153 0.790438 0.708152
O O18 0.163078 0.740648 0.882818
O O19 0.250000 0.750000 0.000000
#
# Coordination Sequence:
#
# PCOD9207445 Si02
#       8
#     8   8   8   8   8   8   8   8
#     4  11  22  38  62  92 127 164 202 255 318 382
#     4  11  20  34  56  85 124 157 201 251 310 369
#     4  11  21  33  54  85 118 156 196 246 312 372
#     4  11  22  37  60  88 120 165 209 256 308 364
#     4  10  21  38  60  88 120 156 201 251 313 375
#     4  10  21  37  58  86 121 158 204 254 308 362
#     4  11  21  38  58  91 126 159 197 252 315 375
#     4  10  21  37  58  85 119 159 201 253 309 364
#
# _framework density 19.787315
#
# number of rings (size 3 to 8) (size 9 to 14) (size 15 to 20)
#    0.000    1.375    1.250    6.375    0.000    5.000 
#    0.000    0.000    0.000    8.250    0.000    0.875 
#    0.000    0.000    0.000    0.000    0.000    0.000 
#
# Total GULP energy -178428.112935 kJ/mol
# GULP energy per Si atom -5575.878529 kJ/mol
# Density = 1.974228 g / cm^3
# Si number density = 19.787315 Si / 1000 Ang^3
#
#
#
# Elastic Constant Matrix: (Units=GPa)
#
#
# Indices 1 2 3 4 5 6 
#
# 1 58.6069 46.1211 26.5456 0.0013 -9.5371 0.0035
# 2 46.1211 108.6817 37.3332 0.0013 -10.3731 -0.0007
# 3 26.5456 37.3332 106.8749 0.0120 -12.2571 0.0225
# 4 0.0013 0.0013 0.0120 25.6020 0.0023 -18.6682
# 5 -9.5371 -10.3731 -12.2571 0.0023 32.6257 0.0020
# 6 0.0035 -0.0007 0.0225 -18.6682 0.0020 -63.6938
#
#
#
# Elastic Compliance Matrix: (Units=1/GPa)
#
#
# Indices 1 2 3 4 5 6 
#
# 1 0.026839 -0.010111 -0.002721 0.000001 0.003609 0.000001
# 2 -0.010111 0.014396 -0.002437 0.000000 0.000706 -0.000001
# 3 -0.002721 -0.002437 0.011185 -0.000002 0.002632 0.000004
# 4 0.000001 0.000000 -0.000002 0.032182 -0.000002 -0.009432
# 5 0.003609 0.000706 0.002632 -0.000002 0.032919 0.000003
# 6 0.000001 -0.000001 0.000004 -0.009432 0.000003 -0.012936
#
#
# Mechanical properties :
#
#
# Convention : Reuss Voigt Hill
#
# Bulk Modulus (GPa) = 45.69306 54.90704 50.30005
# Shear Modulus (GPa) = 35.10828 9.85103 22.47965
#
# Velocity S-wave (km/s) = 4.21679 2.23367 3.37421
# Velocity P-wave (km/s) = 6.84476 5.87037 6.37620
#
# Compressibility (1/GPa) = 0.02188516
#
# Stress axis : x y z
#
# Youngs Moduli (GPa) = 37.25918 69.46267 89.40153
#
# Poissons Ratio (x) = 0.70231 0.24322
# Poissons Ratio (y) = 0.37671 0.21783
# Poissons Ratio (z) = 0.10137 0.16925
#
# Static dielectric constant tensor:
#      x y z
#    x 1.698230 0.000000 0.006460 
#    y 0.000000 1.730360 0.000000 
#    z 0.006460 0.000000 1.782460 
# 
# From -- ./inp_files/359002.got.cif
#   From: 2010.05.17/outbox.cif.g08.bks.cpg/sg12_180_cif.got.tgz:359002.got - 2010.06.03 13:09:07.
