data_PCOD9207107
_publ_section_title
;
Structure prediction by ZEFSAII (Michael W. Deem and Ramdas Pophale) SiO2 
 PCOD9207107
Probable space group: C 2/M
;
_chemical_formula_sum "Si O2"
_cell_formula_units_Z 32
_cell_length_a 7.673131
_cell_length_b 12.122079
_cell_length_c 12.441082
_cell_angle_alpha 90.000000
_cell_angle_beta 81.559913
_cell_angle_gamma 90.000000
_cell_volume 1144.665941
_symmetry_space_group_name_H-M "C 2/M"
_symmetry_group_IT_number 12
_symmetry_cell_setting 'monoclinic'
loop_
_space_group_symop_operation_xyz
x,y,z
-x,y,-z
-x,-y,-z
x,-y,z
1/2+x,1/2+y,z
1/2-x,1/2+y,-z
1/2-x,1/2-y,-z
1/2+x,1/2-y,z
loop_
_atom_site_type_symbol
_atom_site_label
_atom_site_fract_x
_atom_site_fract_y
_atom_site_fract_z
Si Si1 0.088814 0.653315 0.873195
Si Si2 0.658649 0.372133 0.401476
Si Si3 0.505939 0.610168 0.127198
Si Si4 0.058041 0.622435 0.344075
O O1 0.289500 0.616637 0.862262
O O2 0.097323 0.781207 0.842042
O O3 0.983312 0.610847 0.780687
O O4 0.000000 0.637961 0.000000
O O5 0.500000 0.373303 0.500000
O O6 0.645457 0.500000 0.353844
O O7 0.863334 0.370102 0.416805
O O8 0.636810 0.247159 0.352165
O O9 0.424030 0.500000 0.179766
O O10 0.500000 0.605538 0.000000
O O11 0.133968 0.500000 0.369065
#
# Coordination Sequence:
#
# PCOD9207107 Si02
#       4
#     8   8   8   8
#     4  11  22  39  59  86 128 170 210 257 305 363
#     4  10  23  45  70  95 126 163 206 264 328 384
#     4  10  21  37  57  80 112 161 216 262 304 354
#     4  11  24  40  63  97 130 165 213 262 313 379
#
# _framework density 27.955753999999999
#
# number of rings (size 3 to 8) (size 9 to 14) (size 15 to 20)
#    0.000    1.500    0.000    6.000    0.000    6.500 
#    0.000    7.500    0.000    0.750    0.000    0.000 
#    0.000    0.000    0.000    0.000    0.000    0.000 
#
# Total GULP energy -89228.380400 kJ/mol
# GULP energy per Si atom -5576.773775 kJ/mol
# Density = 2.789213 g / cm^3
# Si number density = 27.955754 Si / 1000 Ang^3
#
#
#
# Elastic Constant Matrix: (Units=GPa)
#
#
# Indices 1 2 3 4 5 6 
#
# 1 117.3979 72.7132 38.6453 0.0000 -19.4785 0.0000
# 2 72.7132 376.0441 48.1656 0.0000 12.6609 0.0000
# 3 38.6453 48.1656 113.1440 0.0000 -25.0138 0.0000
# 4 0.0000 0.0000 0.0000 25.2113 0.0000 2.6016
# 5 -19.4785 12.6609 -25.0138 0.0000 56.7704 0.0000
# 6 0.0000 0.0000 0.0000 2.6016 0.0000 82.4456
#
#
#
# Elastic Compliance Matrix: (Units=1/GPa)
#
#
# Indices 1 2 3 4 5 6 
#
# 1 0.010990 -0.001951 -0.002208 0.000000 0.003233 0.000000
# 2 -0.001951 0.003245 -0.001134 0.000000 -0.001893 0.000000
# 3 -0.002208 -0.001134 0.011039 0.000000 0.004359 0.000000
# 4 0.000000 0.000000 0.000000 0.039794 0.000000 -0.001256
# 5 0.003233 -0.001893 0.004359 0.000000 0.021067 0.000000
# 6 0.000000 0.000000 0.000000 -0.001256 0.000000 0.012169
#
#
# Mechanical properties :
#
#
# Convention : Reuss Voigt Hill
#
# Bulk Modulus (GPa) = 68.08289 102.84824 85.46557
# Shear Modulus (GPa) = 43.94209 62.68959 53.31584
#
# Velocity S-wave (km/s) = 3.96895 4.74060 4.37183
# Velocity P-wave (km/s) = 6.73870 8.17520 7.49146
#
# Compressibility (1/GPa) = 0.01468798
#
# Stress axis : x y z
#
# Youngs Moduli (GPa) = 90.99357 308.12444 90.58895
#
# Poissons Ratio (x) = 0.60115 0.20006
# Poissons Ratio (y) = 0.17753 0.10270
# Poissons Ratio (z) = 0.20095 0.34930
#
# Static dielectric constant tensor:
#      x y z
#    x 2.072080 0.000000 0.094460 
#    y 0.000000 2.205570 0.000000 
#    z 0.094460 0.000000 2.247330 
# 
# From -- ./inp_files/193326.got.cif
#   From: 2010.05.17/outbox.cif.g08.bks.cpg/sg12_97_cif.got.tgz:193326.got - 2010.06.03 13:09:07.
