data_PCOD9207665
_publ_section_title
;
Structure prediction by ZEFSAII (Michael W. Deem and Ramdas Pophale) SiO2 
 PCOD9207665
Probable space group: C 2/M
;
_chemical_formula_sum "Si O2"
_cell_formula_units_Z 56
_cell_length_a 25.749448
_cell_length_b 8.623532
_cell_length_c 14.889324
_cell_angle_alpha 90.000000
_cell_angle_beta 121.632507
_cell_angle_gamma 90.000000
_cell_volume 2814.989520
_symmetry_space_group_name_H-M "C 2/M"
_symmetry_group_IT_number 12
_symmetry_cell_setting 'monoclinic'
loop_
_space_group_symop_operation_xyz
x,y,z
-x,y,-z
-x,-y,-z
x,-y,z
1/2+x,1/2+y,z
1/2-x,1/2+y,-z
1/2-x,1/2-y,-z
1/2+x,1/2-y,z
loop_
_atom_site_type_symbol
_atom_site_label
_atom_site_fract_x
_atom_site_fract_y
_atom_site_fract_z
Si Si1 0.247755 0.685072 0.766618
Si Si2 0.292089 0.815922 0.617234
Si Si3 0.001941 0.687146 0.606633
Si Si4 0.863166 0.688698 0.216774
Si Si5 0.471498 0.684402 0.072164
Si Si6 0.840729 0.315863 0.995767
Si Si7 0.924178 0.814960 0.690159
O O1 0.246927 0.500000 0.754315
O O2 0.267682 0.759743 0.691403
O O3 0.181694 0.736574 0.743865
O O4 0.295478 0.729154 0.887842
O O5 0.250000 0.750000 0.500000
O O6 0.360816 0.758310 0.663073
O O7 0.290710 0.000000 0.613007
O O8 0.998565 0.500000 0.610910
O O9 0.067273 0.739632 0.705818
O O10 0.000000 0.727176 0.500000
O O11 0.947266 0.758430 0.614344
O O12 0.864112 0.500000 0.216906
O O13 0.836989 0.737075 0.096268
O O14 0.457886 0.500000 0.069600
O O15 0.409908 0.779566 0.029284
O O16 0.522099 0.728007 0.191504
O O17 0.500000 0.707938 0.000000
O O18 0.829037 0.500000 0.980695
O O19 0.917758 0.000000 0.685465
#
# Coordination Sequence:
#
# PCOD9207665 Si02
#       7
#     8   8   8   8   8   8   8
#     4  11  23  41  64  92 130 172 214 261 316 379
#     4  12  27  47  69  95 126 166 213 263 317 377
#     4  10  21  39  65  94 126 169 214 262 322 383
#     4   9  20  38  61  93 129 167 211 260 318 380
#     4  10  21  37  59  87 123 165 206 253 314 376
#     4  11  21  37  61  92 127 164 213 262 315 380
#     4  11  23  41  65  96 130 165 207 261 320 378
#
# _framework density 19.893502000000002
#
# number of rings (size 3 to 8) (size 9 to 14) (size 15 to 20)
#    0.000    1.429    1.429    3.857    2.000    2.286 
#    0.000    3.571    0.000    0.000    0.000    0.000 
#    0.000    0.000    0.000    0.000    0.000    0.000 
#
# Total GULP energy -156586.494648 kJ/mol
# GULP energy per Si atom -5592.374809 kJ/mol
# Density = 1.984822 g / cm^3
# Si number density = 19.893502 Si / 1000 Ang^3
#
#
#
# Elastic Constant Matrix: (Units=GPa)
#
#
# Indices 1 2 3 4 5 6 
#
# 1 131.8646 25.9153 25.9981 0.0000 -16.0304 0.0000
# 2 25.9153 43.5380 10.3822 0.0000 -4.1949 0.0000
# 3 25.9981 10.3822 69.6639 0.0000 -17.3157 0.0000
# 4 0.0000 0.0000 0.0000 26.3378 0.0000 0.5735
# 5 -16.0304 -4.1949 -17.3157 0.0000 33.9253 0.0000
# 6 0.0000 0.0000 0.0000 0.5735 0.0000 21.2607
#
#
#
# Elastic Compliance Matrix: (Units=1/GPa)
#
#
# Indices 1 2 3 4 5 6 
#
# 1 0.009258 -0.004754 -0.002067 0.000000 0.002731 0.000000
# 2 -0.004754 0.026306 -0.002172 0.000000 -0.000102 0.000000
# 3 -0.002067 -0.002172 0.017340 0.000000 0.007605 0.000000
# 4 0.000000 0.000000 0.000000 0.037991 0.000000 -0.001025
# 5 0.002731 -0.000102 0.007605 0.000000 0.034636 0.000000
# 6 0.000000 0.000000 0.000000 -0.001025 0.000000 0.047063
#
#
# Mechanical properties :
#
#
# Convention : Reuss Voigt Hill
#
# Bulk Modulus (GPa) = 28.63897 41.07308 34.85602
# Shear Modulus (GPa) = 24.72563 28.48949 26.60756
#
# Velocity S-wave (km/s) = 3.52930 3.78842 3.66115
# Velocity P-wave (km/s) = 5.57094 6.31090 5.95243
#
# Compressibility (1/GPa) = 0.03491746
#
# Stress axis : x y z
#
# Youngs Moduli (GPa) = 108.02024 38.01364 57.66957
#
# Poissons Ratio (x) = 0.18073 0.11923
# Poissons Ratio (y) = 0.51355 0.12524
# Poissons Ratio (z) = 0.22332 0.08255
#
# Static dielectric constant tensor:
#      x y z
#    x 1.680010 0.000000 -0.003070 
#    y 0.000000 1.677720 0.000000 
#    z -0.003070 0.000000 1.683590 
# 
# From -- ./inp_files/238904.got.cif
#   From: 2010.05.17/outbox.cif.g08.bks.cpg/sg12_120_cif.got.tgz:238904.got - 2010.06.03 13:09:07.
