data_PCOD9207143
_publ_section_title
;
Structure prediction by ZEFSAII (Michael W. Deem and Ramdas Pophale) SiO2 
 PCOD9207143
Probable space group: C 2/M
;
_chemical_formula_sum "Si O2"
_cell_formula_units_Z 64
_cell_length_a 20.925273
_cell_length_b 8.978627
_cell_length_c 22.796862
_cell_angle_alpha 90.000000
_cell_angle_beta 123.990899
_cell_angle_gamma 90.000000
_cell_volume 3551.214204
_symmetry_space_group_name_H-M "C 2/M"
_symmetry_group_IT_number 12
_symmetry_cell_setting 'monoclinic'
loop_
_space_group_symop_operation_xyz
x,y,z
-x,y,-z
-x,-y,-z
x,-y,z
1/2+x,1/2+y,z
1/2-x,1/2+y,-z
1/2-x,1/2-y,-z
1/2+x,1/2-y,z
loop_
_atom_site_type_symbol
_atom_site_label
_atom_site_fract_x
_atom_site_fract_y
_atom_site_fract_z
Si Si1 0.518102 0.679231 0.414149
Si Si2 0.374942 0.321403 0.426019
Si Si3 0.058076 0.178491 0.204573
Si Si4 0.791510 0.679205 0.187850
Si Si5 0.263800 0.320957 0.710358
Si Si6 0.707667 0.821790 0.033923
Si Si7 0.026911 0.322046 0.729011
Si Si8 0.473763 0.821833 0.052387
O O1 0.519725 0.500000 0.407255
O O2 0.589416 0.721789 0.492754
O O3 0.440745 0.715554 0.411531
O O4 0.513924 0.759253 0.350045
O O5 0.367023 0.500000 0.421816
O O6 0.295848 0.247289 0.366271
O O7 0.147903 0.221838 0.255214
O O8 0.009758 0.249637 0.232420
O O9 0.023729 0.236372 0.125878
O O10 0.053042 0.000000 0.204540
O O11 0.782710 0.500000 0.177825
O O12 0.761540 0.724142 0.236813
O O13 0.744599 0.757884 0.112237
O O14 0.882120 0.714398 0.228632
O O15 0.258291 0.500000 0.704908
O O16 0.716592 0.000000 0.036826
O O17 0.750000 0.750000 0.000000
O O18 0.616579 0.787850 0.985803
O O19 0.019791 0.500000 0.727961
O O20 0.483972 0.000000 0.065635
O O21 0.500000 0.784513 0.000000
#
# Coordination Sequence:
#
# PCOD9207143 Si02
#       8
#     8   8   8   8   8   8   8   8
#     4   9  18  34  56  86 119 148 184 230 280 332
#     4   9  18  33  57  87 117 148 184 231 280 330
#     4  11  24  39  58  83 115 152 189 233 283 337
#     4  10  21  37  57  82 111 142 182 232 279 330
#     4  10  21  38  57  83 115 147 186 233 280 328
#     4  11  23  37  56  82 110 143 181 227 281 334
#     4  11  22  37  58  84 115 153 191 231 282 336
#     4  10  22  41  61  82 110 145 189 236 281 335
#
# _framework density 18.022005
#
# number of rings (size 3 to 8) (size 9 to 14) (size 15 to 20)
#    0.000    1.875    1.250    3.375    0.000    7.250 
#    0.000    1.875    0.000    0.000    0.000    0.000 
#    0.000    0.000    0.000    0.000    0.000    0.000 
#
# Total GULP energy -178774.338882 kJ/mol
# GULP energy per Si atom -5586.698090 kJ/mol
# Density = 1.798099 g / cm^3
# Si number density = 18.022005 Si / 1000 Ang^3
#
#
#
# Elastic Constant Matrix: (Units=GPa)
#
#
# Indices 1 2 3 4 5 6 
#
# 1 64.0042 26.5568 7.1528 0.0000 13.1920 0.0000
# 2 26.5568 27.2501 33.7302 0.0000 7.7840 0.0000
# 3 7.1528 33.7302 98.8465 0.0000 14.5332 0.0000
# 4 0.0000 0.0000 0.0000 38.7977 0.0000 -2.7152
# 5 13.1920 7.7840 14.5332 0.0000 22.8131 0.0000
# 6 0.0000 0.0000 0.0000 -2.7152 0.0000 27.1770
#
#
#
# Elastic Compliance Matrix: (Units=1/GPa)
#
#
# Indices 1 2 3 4 5 6 
#
# 1 0.042533 -0.062210 0.020573 0.000000 -0.016475 0.000000
# 2 -0.062210 0.156120 -0.051007 0.000000 0.015199 0.000000
# 3 0.020573 -0.051007 0.027831 0.000000 -0.012222 0.000000
# 4 0.000000 0.000000 0.000000 0.025956 0.000000 0.002593
# 5 -0.016475 0.015199 -0.012222 0.000000 0.055961 0.000000
# 6 0.000000 0.000000 0.000000 0.002593 0.000000 0.037055
#
#
# Mechanical properties :
#
#
# Convention : Reuss Voigt Hill
#
# Bulk Modulus (GPa) = 24.27490 36.10893 30.19192
# Shear Modulus (GPa) = 9.18315 25.93496 17.55906
#
# Velocity S-wave (km/s) = 2.25978 3.79763 3.12478
# Velocity P-wave (km/s) = 4.50640 6.26967 5.45969
#
# Compressibility (1/GPa) = 0.04119481
#
# Stress axis : x y z
#
# Youngs Moduli (GPa) = 23.51125 6.40534 35.93175
#
# Poissons Ratio (x) = 0.39848 -0.73922
# Poissons Ratio (y) = 1.46263 1.83277
# Poissons Ratio (z) = -0.48369 0.32672
#
# Static dielectric constant tensor:
#      x y z
#    x 1.600170 0.000000 0.004050 
#    y 0.000000 1.601080 0.000000 
#    z 0.004050 0.000000 1.591450 
# 
# From -- ./inp_files/346286.got.cif
#   From: 2010.05.17/outbox.cif.g08.bks.cpg/sg12_174_cif.got.tgz:346286.got - 2010.06.03 13:09:07.
