data_PCOD9207215
_publ_section_title
;
Structure prediction by ZEFSAII (Michael W. Deem and Ramdas Pophale) SiO2 
 PCOD9207215
Probable space group: C 2/M
;
_chemical_formula_sum "Si O2"
_cell_formula_units_Z 64
_cell_length_a 19.791438
_cell_length_b 9.055728
_cell_length_c 20.379265
_cell_angle_alpha 90.000000
_cell_angle_beta 57.620049
_cell_angle_gamma 90.000000
_cell_volume 3084.585373
_symmetry_space_group_name_H-M "C 2/M"
_symmetry_group_IT_number 12
_symmetry_cell_setting 'monoclinic'
loop_
_space_group_symop_operation_xyz
x,y,z
-x,y,-z
-x,-y,-z
x,-y,z
1/2+x,1/2+y,z
1/2-x,1/2+y,-z
1/2-x,1/2-y,-z
1/2+x,1/2-y,z
loop_
_atom_site_type_symbol
_atom_site_label
_atom_site_fract_x
_atom_site_fract_y
_atom_site_fract_z
Si Si1 0.449719 0.673598 0.820300
Si Si2 0.975068 0.822474 0.585848
Si Si3 0.677340 0.673691 0.875917
Si Si4 0.332370 0.824133 0.982178
Si Si5 0.873146 0.825940 0.239981
Si Si6 0.373506 0.169823 0.454638
Si Si7 0.246680 0.669782 0.606518
Si Si8 0.659625 0.326319 0.251200
O O1 0.446735 0.500000 0.841515
O O2 0.542773 0.716519 0.771046
O O3 0.404397 0.684744 0.774747
O O4 0.401652 0.769768 0.897735
O O5 0.888583 0.778671 0.658677
O O6 0.000000 0.773447 0.500000
O O7 0.045574 0.761121 0.594763
O O8 0.976491 0.000000 0.586726
O O9 0.679950 0.500000 0.890852
O O10 0.652803 0.765730 0.952148
O O11 0.622142 0.694461 0.840727
O O12 0.764711 0.729304 0.807587
O O13 0.323872 0.000000 0.985869
O O14 0.250000 0.750000 0.000000
O O15 0.799329 0.735555 0.307680
O O16 0.858696 0.000000 0.260216
O O17 0.321475 0.239211 0.540544
O O18 0.318252 0.176411 0.418894
O O19 0.392379 0.000000 0.458381
O O20 0.270543 0.500000 0.604578
O O21 0.682711 0.500000 0.244625
#
# Coordination Sequence:
#
# PCOD9207215 Si02
#       8
#     8   8   8   8   8   8   8   8
#     4  10  21  40  66  92 123 165 209 252 304 366
#     4  10  22  38  57  86 122 161 205 253 308 364
#     4  11  24  41  63  93 128 165 204 251 308 369
#     4  12  24  41  66  95 126 162 207 254 306 366
#     4  10  23  41  62  92 127 164 202 249 307 366
#     4  10  21  37  57  84 115 155 204 255 309 362
#     4  10  21  37  60  85 116 158 202 251 305 365
#     4  10  21  38  62  89 121 165 212 257 307 366
#
# _framework density 20.748332999999999
#
# number of rings (size 3 to 8) (size 9 to 14) (size 15 to 20)
#    0.000    1.625    1.250    3.000    1.750    5.250 
#    0.000    2.500    0.000    0.000    0.000    0.000 
#    0.000    0.000    0.000    0.000    0.000    0.000 
#
# Total GULP energy -178960.564949 kJ/mol
# GULP energy per Si atom -5592.517655 kJ/mol
# Density = 2.070111 g / cm^3
# Si number density = 20.748333 Si / 1000 Ang^3
#
#
#
# Elastic Constant Matrix: (Units=GPa)
#
#
# Indices 1 2 3 4 5 6 
#
# 1 47.1440 6.1127 -8.7001 0.0000 1.1929 -0.0001
# 2 6.1127 51.7177 39.8406 -0.0001 5.9889 -0.0004
# 3 -8.7001 39.8406 96.6472 0.0000 5.2519 0.0000
# 4 0.0000 -0.0001 0.0000 32.7192 0.0000 -1.9969
# 5 1.1929 5.9889 5.2519 0.0000 26.1999 0.0000
# 6 -0.0001 -0.0004 0.0000 -1.9969 0.0000 23.2386
#
#
#
# Elastic Compliance Matrix: (Units=1/GPa)
#
#
# Indices 1 2 3 4 5 6 
#
# 1 0.022893 -0.006231 0.004660 0.000000 -0.000552 0.000000
# 2 -0.006231 0.030490 -0.012907 0.000000 -0.004099 0.000000
# 3 0.004660 -0.012907 0.016114 0.000000 -0.000492 0.000000
# 4 0.000000 0.000000 0.000000 0.030724 0.000000 0.002640
# 5 -0.000552 -0.004099 -0.000492 0.000000 0.039229 0.000000
# 6 0.000000 0.000000 0.000000 0.002640 0.000000 0.043259
#
#
# Mechanical properties :
#
#
# Convention : Reuss Voigt Hill
#
# Bulk Modulus (GPa) = 24.66743 30.00170 27.33457
# Shear Modulus (GPa) = 22.20453 26.98189 24.59321
#
# Velocity S-wave (km/s) = 3.27492 3.61007 3.44657
# Velocity P-wave (km/s) = 5.12004 5.64517 5.38901
#
# Compressibility (1/GPa) = 0.04053928
#
# Stress axis : x y z
#
# Youngs Moduli (GPa) = 43.68059 32.79796 62.05908
#
# Poissons Ratio (x) = 0.20438 -0.28917
# Poissons Ratio (y) = 0.27220 0.80099
# Poissons Ratio (z) = -0.20354 0.42332
#
# Static dielectric constant tensor:
#      x y z
#    x 1.766340 0.000000 0.035560 
#    y 0.000000 1.699140 0.000000 
#    z 0.035560 0.000000 1.730460 
# 
# From -- ./inp_files/319886.got.cif
#   From: 2010.05.17/outbox.cif.g08.bks.cpg/sg12_160_cif.got.tgz:319886.got - 2010.06.03 13:09:07.
