data_PCOD9207436
_publ_section_title
;
Structure prediction by ZEFSAII (Michael W. Deem and Ramdas Pophale) SiO2 
 PCOD9207436
Probable space group: C 2/M
;
_chemical_formula_sum "Si O2"
_cell_formula_units_Z 40
_cell_length_a 19.343121
_cell_length_b 8.835616
_cell_length_c 27.375097
_cell_angle_alpha 90.000000
_cell_angle_beta 28.231447
_cell_angle_gamma 90.000000
_cell_volume 2213.154705
_symmetry_space_group_name_H-M "C 2/M"
_symmetry_group_IT_number 12
_symmetry_cell_setting 'monoclinic'
loop_
_space_group_symop_operation_xyz
x,y,z
-x,y,-z
-x,-y,-z
x,-y,z
1/2+x,1/2+y,z
1/2-x,1/2+y,-z
1/2-x,1/2-y,-z
1/2+x,1/2-y,z
loop_
_atom_site_type_symbol
_atom_site_label
_atom_site_fract_x
_atom_site_fract_y
_atom_site_fract_z
Si Si1 0.905689 0.680794 0.415657
Si Si2 0.828305 0.319764 0.998623
Si Si3 0.071927 0.180944 0.403277
Si Si4 0.146602 0.818540 0.817749
Si Si5 0.697339 0.180269 0.176934
O O1 0.896344 0.500000 0.427619
O O2 0.750000 0.750000 0.500000
O O3 0.967072 0.756133 0.426412
O O4 0.030487 0.709290 0.297162
O O5 0.831886 0.500000 0.992145
O O6 0.991904 0.255159 0.902422
O O7 0.750000 0.250000 0.000000
O O8 0.743829 0.269954 0.100271
O O9 0.228372 0.257643 0.296312
O O10 0.000000 0.216210 0.500000
O O11 0.087232 0.000000 0.389407
O O12 0.202522 0.782013 0.838076
O O13 0.137174 0.000000 0.820388
O O14 0.714203 0.000000 0.157454
#
# Coordination Sequence:
#
# PCOD9207436 Si02
#       5
#     8   8   8   8   8
#     4  10  21  37  59  85 115 151 189 233 281 332
#     4  12  25  39  58  84 114 148 187 233 283 334
#     4  10  21  37  58  85 117 151 188 232 279 329
#     4  10  21  39  62  85 113 149 187 230 279 335
#     4   9  20  39  60  83 113 148 186 230 281 334
#
# _framework density 18.073747999999998
#
# number of rings (size 3 to 8) (size 9 to 14) (size 15 to 20)
#    0.000    1.800    0.000    5.400    0.000   10.400 
#    0.000    2.000    0.000    0.000    0.000    0.000 
#    0.000    0.000    0.000    0.000    0.000    0.000 
#
# Total GULP energy -111757.819312 kJ/mol
# GULP energy per Si atom -5587.890966 kJ/mol
# Density = 1.803261 g / cm^3
# Si number density = 18.073748 Si / 1000 Ang^3
#
#
#
# Elastic Constant Matrix: (Units=GPa)
#
#
# Indices 1 2 3 4 5 6 
#
# 1 114.1829 80.4603 111.7991 0.0000 -7.9389 0.0000
# 2 80.4603 113.1539 94.8787 0.0000 7.5324 0.0001
# 3 111.7991 94.8787 148.1334 0.0000 0.7635 0.0000
# 4 0.0000 0.0000 0.0000 39.7283 0.0000 -1.1392
# 5 -7.9389 7.5324 0.7635 0.0000 36.1255 0.0000
# 6 0.0000 0.0001 0.0000 -1.1392 0.0000 35.4140
#
#
#
# Elastic Compliance Matrix: (Units=1/GPa)
#
#
# Indices 1 2 3 4 5 6 
#
# 1 0.039014 -0.008041 -0.024350 0.000000 0.010765 0.000000
# 2 -0.008041 0.021261 -0.007517 0.000000 -0.006041 0.000000
# 3 -0.024350 -0.007517 0.029966 0.000000 -0.004417 0.000000
# 4 0.000000 0.000000 0.000000 0.025194 0.000000 0.000810
# 5 0.010765 -0.006041 -0.004417 0.000000 0.031400 0.000000
# 6 0.000000 0.000000 0.000000 0.000810 0.000000 0.028263
#
#
# Mechanical properties :
#
#
# Convention : Reuss Voigt Hill
#
# Bulk Modulus (GPa) = 95.93635 105.52738 100.73186
# Shear Modulus (GPa) = 19.35054 28.14235 23.74645
#
# Velocity S-wave (km/s) = 3.27562 3.95027 3.62866
# Velocity P-wave (km/s) = 8.21596 8.90618 8.56802
#
# Compressibility (1/GPa) = 0.01042358
#
# Stress axis : x y z
#
# Youngs Moduli (GPa) = 25.63160 47.03459 33.37146
#
# Poissons Ratio (x) = 0.37822 0.81259
# Poissons Ratio (y) = 0.20611 0.25087
# Poissons Ratio (z) = 0.62413 0.35358
#
# Static dielectric constant tensor:
#      x y z
#    x 1.954760 0.000000 -0.157150 
#    y 0.000000 1.601770 0.000000 
#    z -0.157150 0.000000 1.675050 
# 
# From -- ./inp_files/151949.got.cif
#   From: 2010.05.17/outbox.cif.g08.bks.cpg/sg12_76_cif.got.tgz:151949.got - 2010.06.03 13:09:07.
