data_PCOD9207047
_publ_section_title
;
Structure prediction by ZEFSAII (Michael W. Deem and Ramdas Pophale) SiO2 
 PCOD9207047
Probable space group: C 2/M
;
_chemical_formula_sum "Si O2"
_cell_formula_units_Z 56
_cell_length_a 28.413388
_cell_length_b 9.051591
_cell_length_c 19.339273
_cell_angle_alpha 90.000000
_cell_angle_beta 35.919620
_cell_angle_gamma 90.000000
_cell_volume 2917.876771
_symmetry_space_group_name_H-M "C 2/M"
_symmetry_group_IT_number 12
_symmetry_cell_setting 'monoclinic'
loop_
_space_group_symop_operation_xyz
x,y,z
-x,y,-z
-x,-y,-z
x,-y,z
1/2+x,1/2+y,z
1/2-x,1/2+y,-z
1/2-x,1/2-y,-z
1/2+x,1/2-y,z
loop_
_atom_site_type_symbol
_atom_site_label
_atom_site_fract_x
_atom_site_fract_y
_atom_site_fract_z
Si Si1 0.762064 0.823061 0.696692
Si Si2 0.062253 0.822576 0.485164
Si Si3 0.277314 0.674577 0.396553
Si Si4 0.461535 0.675136 0.199680
Si Si5 0.995647 0.676181 0.305557
Si Si6 0.324961 0.175061 0.946285
Si Si7 0.880360 0.321525 0.033451
O O1 0.843962 0.791506 0.641163
O O2 0.765087 0.745307 0.619116
O O3 0.682066 0.778398 0.832955
O O4 0.758630 0.000000 0.690682
O O5 0.041707 0.746026 0.581912
O O6 0.000000 0.774731 0.500000
O O7 0.053984 0.000000 0.502747
O O8 0.261580 0.500000 0.418865
O O9 0.250000 0.750000 0.500000
O O10 0.372966 0.698017 0.275030
O O11 0.475328 0.500000 0.190449
O O12 0.464318 0.750292 0.272126
O O13 0.532541 0.746955 0.070152
O O14 0.982570 0.500000 0.317838
O O15 0.091391 0.704387 0.192126
O O16 0.311784 0.000000 0.962343
O O17 0.250000 0.250000 0.000000
O O18 0.340550 0.220069 0.007129
O O19 0.890093 0.500000 0.022562
#
# Coordination Sequence:
#
# PCOD9207047 Si02
#       7
#     8   8   8   8   8   8   8
#     4  10  22  40  60  86 119 154 194 239 288 347
#     4  10  22  38  59  84 113 153 194 236 289 344
#     4  11  24  40  61  89 118 152 194 241 290 345
#     4  10  21  38  60  86 116 150 192 238 288 344
#     4  10  21  37  56  82 114 147 189 238 287 341
#     4   9  19  33  53  80 109 145 189 236 282 334
#     4   9  20  38  58  83 118 154 192 237 287 344
#
# _framework density 19.192036999999999
#
# number of rings (size 3 to 8) (size 9 to 14) (size 15 to 20)
#    0.000    2.143    0.000    3.000    2.000   10.571 
#    0.000    2.857    0.000    0.000    0.000    0.000 
#    0.000    0.000    0.000    0.000    0.000    0.000 
#
# Total GULP energy -156374.865244 kJ/mol
# GULP energy per Si atom -5584.816616 kJ/mol
# Density = 1.914835 g / cm^3
# Si number density = 19.192037 Si / 1000 Ang^3
#
#
#
# Elastic Constant Matrix: (Units=GPa)
#
#
# Indices 1 2 3 4 5 6 
#
# 1 71.5383 30.2342 49.9259 0.0002 -15.5310 0.0004
# 2 30.2342 31.9257 43.6330 0.0007 -11.1997 0.0010
# 3 49.9259 43.6330 102.4359 -0.0012 7.3244 0.0010
# 4 0.0002 0.0007 -0.0012 33.8339 0.0012 -2.2491
# 5 -15.5310 -11.1997 7.3244 0.0012 26.2488 -0.0008
# 6 0.0004 0.0010 0.0010 -2.2491 -0.0008 29.0204
#
#
#
# Elastic Compliance Matrix: (Units=1/GPa)
#
#
# Indices 1 2 3 4 5 6 
#
# 1 0.030763 0.009534 -0.021067 -0.000002 0.028148 0.000001
# 2 0.009534 0.189198 -0.093273 -0.000011 0.112394 -0.000001
# 3 -0.021067 -0.093273 0.064789 0.000007 -0.070341 0.000000
# 4 -0.000002 -0.000011 0.000007 0.029709 -0.000009 0.002302
# 5 0.028148 0.112394 -0.070341 -0.000009 0.122335 0.000001
# 6 0.000001 -0.000001 0.000000 0.002302 0.000001 0.034637
#
#
# Mechanical properties :
#
#
# Convention : Reuss Voigt Hill
#
# Bulk Modulus (GPa) = 13.30875 50.38735 31.84805
# Shear Modulus (GPa) = 7.08126 23.29441 15.18784
#
# Velocity S-wave (km/s) = 1.92294 3.48768 2.81617
# Velocity P-wave (km/s) = 3.44671 6.52149 5.21582
#
# Compressibility (1/GPa) = 0.07513854
#
# Stress axis : x y z
#
# Youngs Moduli (GPa) = 32.50710 5.28546 15.43463
#
# Poissons Ratio (x) = -0.05039 0.32516
# Poissons Ratio (y) = -0.30992 1.43963
# Poissons Ratio (z) = 0.68482 0.49299
#
# Static dielectric constant tensor:
#      x y z
#    x 1.648080 0.000000 -0.023250 
#    y 0.000000 1.642060 0.000000 
#    z -0.023250 0.000000 1.682600 
# 
# From -- ./inp_files/329477.got.cif
#   From: 2010.05.17/outbox.cif.g08.bks.cpg/sg12_165_cif.got.tgz:329477.got - 2010.06.03 13:09:07.
