data_PCOD9207260
_publ_section_title
;
Structure prediction by ZEFSAII (Michael W. Deem and Ramdas Pophale) SiO2 
 PCOD9207260
Probable space group: C 2/M
;
_chemical_formula_sum "Si O2"
_cell_formula_units_Z 56
_cell_length_a 26.680691
_cell_length_b 7.925721
_cell_length_c 18.970216
_cell_angle_alpha 90.000000
_cell_angle_beta 37.944515
_cell_angle_gamma 90.000000
_cell_volume 2466.671219
_symmetry_space_group_name_H-M "C 2/M"
_symmetry_group_IT_number 12
_symmetry_cell_setting 'monoclinic'
loop_
_space_group_symop_operation_xyz
x,y,z
-x,y,-z
-x,-y,-z
x,-y,z
1/2+x,1/2+y,z
1/2-x,1/2+y,-z
1/2-x,1/2-y,-z
1/2+x,1/2-y,z
loop_
_atom_site_type_symbol
_atom_site_label
_atom_site_fract_x
_atom_site_fract_y
_atom_site_fract_z
Si Si1 0.633193 0.695889 0.146184
Si Si2 0.954730 0.700608 0.367783
Si Si3 0.161680 0.797970 0.630867
Si Si4 0.228971 0.200267 0.173487
Si Si5 0.398858 0.193902 0.971624
Si Si6 0.087205 0.702957 0.433469
Si Si7 0.449865 0.307485 0.123497
O O1 0.652337 0.500000 0.110527
O O2 0.541115 0.707417 0.276984
O O3 0.693928 0.766989 0.138002
O O4 0.627671 0.797092 0.080156
O O5 0.971481 0.500000 0.350788
O O6 0.903978 0.740944 0.354628
O O7 0.905498 0.746184 0.492641
O O8 0.250000 0.750000 0.500000
O O9 0.127896 0.735569 0.745767
O O10 0.160487 0.000000 0.637593
O O11 0.160537 0.228862 0.306644
O O12 0.239446 0.000000 0.152045
O O13 0.317560 0.262671 0.099279
O O14 0.477850 0.302486 0.898954
O O15 0.417547 0.000000 0.969633
O O16 0.088297 0.500000 0.425818
O O17 0.000000 0.761298 0.500000
O O18 0.429248 0.500000 0.126176
O O19 0.500000 0.232270 0.000000
#
# Coordination Sequence:
#
# PCOD9207260 Si02
#       7
#     8   8   8   8   8   8   8
#     4  11  21  36  59  87 120 161 205 246 299 360
#     4  11  22  38  62  90 122 159 202 250 303 362
#     4  11  24  43  68  96 126 160 207 259 318 381
#     4  10  23  38  56  88 126 164 206 252 303 362
#     4  11  23  39  60  89 123 159 204 255 306 365
#     4  10  21  37  57  85 120 162 208 250 299 359
#     4  10  23  44  68  93 123 161 207 259 316 380
#
# _framework density 22.702660000000002
#
# number of rings (size 3 to 8) (size 9 to 14) (size 15 to 20)
#    0.000    1.429    2.857    2.143    0.000    5.143 
#    0.000    4.286    0.000    0.000    0.000    0.000 
#    0.000    0.000    0.000    0.000    0.000    0.000 
#
# Total GULP energy -156307.668768 kJ/mol
# GULP energy per Si atom -5582.416742 kJ/mol
# Density = 2.265099 g / cm^3
# Si number density = 22.702660 Si / 1000 Ang^3
#
#
#
# Elastic Constant Matrix: (Units=GPa)
#
#
# Indices 1 2 3 4 5 6 
#
# 1 36.4969 4.9631 24.2021 0.0061 4.9999 -0.0051
# 2 4.9631 48.3875 10.7234 0.0129 2.8026 -0.0052
# 3 24.2021 10.7234 149.0936 0.0028 7.5660 -0.0082
# 4 0.0061 0.0129 0.0028 27.6160 -0.0020 2.3419
# 5 4.9999 2.8026 7.5660 -0.0020 41.5244 0.0042
# 6 -0.0051 -0.0052 -0.0082 2.3419 0.0042 19.7439
#
#
#
# Elastic Compliance Matrix: (Units=1/GPa)
#
#
# Indices 1 2 3 4 5 6 
#
# 1 0.031220 -0.001982 -0.004786 -0.000006 -0.002753 0.000007
# 2 -0.001982 0.021182 -0.001152 -0.000010 -0.000981 0.000006
# 3 -0.004786 -0.001152 0.007604 0.000001 -0.000732 0.000002
# 4 -0.000006 -0.000010 0.000001 0.036579 0.000004 -0.004339
# 5 -0.002753 -0.000981 -0.000732 0.000004 0.024613 -0.000007
# 6 0.000007 0.000006 0.000002 -0.004339 -0.000007 0.051163
#
#
# Mechanical properties :
#
#
# Convention : Reuss Voigt Hill
#
# Bulk Modulus (GPa) = 22.64166 34.86168 28.75167
# Shear Modulus (GPa) = 24.63996 30.71616 27.67806
#
# Velocity S-wave (km/s) = 3.29801 3.68227 3.49543
# Velocity P-wave (km/s) = 4.94948 5.78515 5.38355
#
# Compressibility (1/GPa) = 0.04416637
#
# Stress axis : x y z
#
# Youngs Moduli (GPa) = 32.03101 47.21011 131.50977
#
# Poissons Ratio (x) = 0.09358 0.62935
# Poissons Ratio (y) = 0.06349 0.15149
# Poissons Ratio (z) = 0.15329 0.05438
#
# Static dielectric constant tensor:
#      x y z
#    x 1.827470 -0.000010 0.016330 
#    y -0.000010 1.830760 0.000010 
#    z 0.016330 0.000010 1.948270 
# 
# From -- ./inp_files/292402.got.cif
#   From: 2010.05.17/outbox.cif.g08.bks.cpg/sg12_147_cif.got.tgz:292402.got - 2010.06.03 13:09:07.
