data_PCOD9207905
_publ_section_title
;
Structure prediction by ZEFSAII (Michael W. Deem and Ramdas Pophale) SiO2 
 PCOD9207905
Probable space group: C 2/M
;
_chemical_formula_sum "Si O2"
_cell_formula_units_Z 50
_cell_length_a 26.011798
_cell_length_b 7.572973
_cell_length_c 17.013490
_cell_angle_alpha 90.000000
_cell_angle_beta 42.253976
_cell_angle_gamma 90.000000
_cell_volume 2253.562636
_symmetry_space_group_name_H-M "C 2/M"
_symmetry_group_IT_number 12
_symmetry_cell_setting 'monoclinic'
loop_
_space_group_symop_operation_xyz
x,y,z
-x,y,-z
-x,-y,-z
x,-y,z
1/2+x,1/2+y,z
1/2-x,1/2+y,-z
1/2-x,1/2-y,-z
1/2+x,1/2-y,z
loop_
_atom_site_type_symbol
_atom_site_label
_atom_site_fract_x
_atom_site_fract_y
_atom_site_fract_z
Si Si1 0.374155 0.797155 0.318628
Si Si2 0.718779 0.788805 0.425424
Si Si3 0.104157 0.710163 0.417584
Si Si4 0.500000 0.500000 0.500000
Si Si5 0.329514 0.212436 0.823149
Si Si6 0.522928 0.295552 0.058597
Si Si7 0.655155 0.289804 0.020591
O O1 0.336486 0.724333 0.441482
O O2 0.302896 0.789364 0.339045
O O3 0.448348 0.708416 0.198360
O O4 0.395579 0.000000 0.309426
O O5 0.676678 0.760704 0.391411
O O6 0.727555 0.000000 0.426525
O O7 0.085802 0.500000 0.441279
O O8 0.037083 0.842497 0.514339
O O9 0.127206 0.769501 0.303719
O O10 0.367113 0.263068 0.863152
O O11 0.326858 0.000000 0.823679
O O12 0.242018 0.280456 0.917809
O O13 0.543502 0.500000 0.019202
O O14 0.594256 0.218242 0.026890
O O15 0.500000 0.215467 0.000000
O O16 0.659845 0.500000 0.002646
#
# Coordination Sequence:
#
# PCOD9207905 Si02
#       7
#     8   8   8   2   8   8   8
#     4  10  21  37  60  90 123 154 204 252 308 367
#     4   9  20  40  63  87 119 165 202 247 304 368
#     4  10  23  42  64  91 126 165 207 257 311 369
#     4  12  26  40  60  94 124 158 208 256 312 366
#     4   9  19  37  61  87 117 161 202 250 305 366
#     4  10  22  38  58  86 119 160 200 246 305 366
#     4   9  19  36  58  87 119 155 207 250 302 371
#
# _framework density 22.187093000000001
#
# number of rings (size 3 to 8) (size 9 to 14) (size 15 to 20)
#    0.000    2.400    0.000    0.720    4.480    2.880 
#    2.880    3.200    0.000    0.000    0.000    0.000 
#    0.000    0.000    0.000    0.000    0.000    0.000 
#
# Total GULP energy -139267.095991 kJ/mol
# GULP energy per Si atom -5570.683840 kJ/mol
# Density = 2.213659 g / cm^3
# Si number density = 22.187093 Si / 1000 Ang^3
#
#
#
# Elastic Constant Matrix: (Units=GPa)
#
#
# Indices 1 2 3 4 5 6 
#
# 1 161.1911 12.0486 39.9938 -0.0327 3.2494 0.0015
# 2 12.0486 62.6809 -0.2709 -0.0067 2.0734 -0.0316
# 3 39.9938 -0.2709 54.5371 -0.0537 0.9124 0.0019
# 4 -0.0327 -0.0067 -0.0537 10.0725 0.0129 -0.9143
# 5 3.2494 2.0734 0.9124 0.0129 17.3438 0.0148
# 6 0.0015 -0.0316 0.0019 -0.9143 0.0148 21.7010
#
#
#
# Elastic Compliance Matrix: (Units=1/GPa)
#
#
# Indices 1 2 3 4 5 6 
#
# 1 0.007740 -0.001480 -0.005667 -0.000005 -0.000975 -0.000002
# 2 -0.001480 0.016301 0.001195 0.000017 -0.001734 0.000026
# 3 -0.005667 0.001195 0.022503 0.000103 -0.000265 0.000005
# 4 -0.000005 0.000017 0.000103 0.099662 -0.000084 0.004199
# 5 -0.000975 -0.001734 -0.000265 -0.000084 0.058062 -0.000046
# 6 -0.000002 0.000026 0.000005 0.004199 -0.000046 0.046258
#
#
# Mechanical properties :
#
#
# Convention : Reuss Voigt Hill
#
# Bulk Modulus (GPa) = 28.86847 42.43911 35.65379
# Shear Modulus (GPa) = 18.24981 24.93264 21.59123
#
# Velocity S-wave (km/s) = 2.87111 3.35587 3.12291
# Velocity P-wave (km/s) = 4.90211 5.84681 5.39517
#
# Compressibility (1/GPa) = 0.03463987
#
# Stress axis : x y z
#
# Youngs Moduli (GPa) = 129.19550 61.34642 44.43947
#
# Poissons Ratio (x) = 0.09080 0.25185
# Poissons Ratio (y) = 0.19122 -0.05312
# Poissons Ratio (z) = 0.73217 -0.07333
#
# Static dielectric constant tensor:
#      x y z
#    x 1.833860 -0.000010 -0.013720 
#    y -0.000010 1.823510 -0.000050 
#    z -0.013720 -0.000050 1.876300 
# 
# From -- ./inp_files/292128.got.cif
#   From: 2010.05.17/outbox.cif.g08.bks.cpg/sg12_147_cif.got.tgz:292128.got - 2010.06.03 13:09:07.
