data_PCOD9207960
_publ_section_title
;
Structure prediction by ZEFSAII (Michael W. Deem and Ramdas Pophale) SiO2 
 PCOD9207960
Probable space group: C 2/M
;
_chemical_formula_sum "Si O2"
_cell_formula_units_Z 44
_cell_length_a 12.892181
_cell_length_b 20.507944
_cell_length_c 9.196499
_cell_angle_alpha 90.000000
_cell_angle_beta 113.415527
_cell_angle_gamma 90.000000
_cell_volume 2231.242009
_symmetry_space_group_name_H-M "C 2/M"
_symmetry_group_IT_number 12
_symmetry_cell_setting 'monoclinic'
loop_
_space_group_symop_operation_xyz
x,y,z
-x,y,-z
-x,-y,-z
x,-y,z
1/2+x,1/2+y,z
1/2-x,1/2+y,-z
1/2-x,1/2-y,-z
1/2+x,1/2-y,z
loop_
_atom_site_type_symbol
_atom_site_label
_atom_site_fract_x
_atom_site_fract_y
_atom_site_fract_z
Si Si1 0.000000 0.383162 0.000000
Si Si2 0.839604 0.319448 0.138486
Si Si3 0.133751 0.425469 0.597861
Si Si4 0.308880 0.924155 0.684744
Si Si5 0.925720 0.922575 0.312060
Si Si6 0.921001 0.808526 0.096116
O O1 0.904581 0.343515 0.031132
O O2 0.073232 0.419552 0.163457
O O3 0.848856 0.374804 0.264469
O O4 0.906327 0.251506 0.202216
O O5 0.706897 0.312678 0.035232
O O6 0.175408 0.500000 0.651366
O O7 0.183017 0.397538 0.473843
O O8 0.000000 0.431029 0.500000
O O9 0.202057 0.900977 0.717351
O O10 0.285203 0.000000 0.648178
O O11 0.959776 0.873866 0.201642
O O12 0.000000 0.915935 0.500000
O O13 0.927640 0.000000 0.272590
O O14 0.000000 0.796179 0.000000
#
# Coordination Sequence:
#
# PCOD9207960 Si02
#       6
#     4   8   8   8   8   8
#     4  12  19  38  64  90 127 166 204 260 308 370
#     4  11  24  41  63  89 126 163 204 260 312 365
#     4  10  21  37  60  93 127 157 196 247 310 374
#     4  10  21  37  61  93 127 163 204 257 314 368
#     4  10  23  43  63  89 124 164 212 256 303 368
#     4  11  25  44  63  89 122 165 211 257 306 370
#
# _framework density 19.719957999999998
#
# number of rings (size 3 to 8) (size 9 to 14) (size 15 to 20)
#    0.000    1.455    4.545    0.273    2.545    2.545 
#    0.000    0.909    0.000    0.000    0.000    0.000 
#    0.000    0.000    0.000    0.000    0.000    0.000 
#
# Total GULP energy -122566.919681 kJ/mol
# GULP energy per Si atom -5571.223622 kJ/mol
# Density = 1.967507 g / cm^3
# Si number density = 19.719958 Si / 1000 Ang^3
#
#
#
# Elastic Constant Matrix: (Units=GPa)
#
#
# Indices 1 2 3 4 5 6 
#
# 1 91.0191 15.5388 31.5494 0.0000 -6.4707 0.0000
# 2 15.5388 100.9410 54.1188 0.0000 -16.0279 0.0000
# 3 31.5494 54.1188 72.4592 0.0000 -9.8772 0.0000
# 4 0.0000 0.0000 0.0000 48.4441 0.0000 -7.7316
# 5 -6.4707 -16.0279 -9.8772 0.0000 31.9133 0.0000
# 6 0.0000 0.0000 0.0000 -7.7316 0.0000 25.0203
#
#
#
# Elastic Compliance Matrix: (Units=1/GPa)
#
#
# Indices 1 2 3 4 5 6 
#
# 1 0.013185 0.001962 -0.007003 0.000000 0.001491 0.000000
# 2 0.001962 0.017512 -0.013239 0.000000 0.005095 0.000000
# 3 -0.007003 -0.013239 0.026767 0.000000 0.000216 0.000000
# 4 0.000000 0.000000 0.000000 0.021713 0.000000 0.006710
# 5 0.001491 0.005095 0.000216 0.000000 0.034263 0.000000
# 6 0.000000 0.000000 0.000000 0.006710 0.000000 0.042041
#
#
# Mechanical properties :
#
#
# Convention : Reuss Voigt Hill
#
# Bulk Modulus (GPa) = 47.83744 51.87039 49.85392
# Shear Modulus (GPa) = 25.12443 31.95635 28.54039
#
# Velocity S-wave (km/s) = 3.57327 4.02992 3.80845
# Velocity P-wave (km/s) = 6.42926 6.92923 6.68392
#
# Compressibility (1/GPa) = 0.02090413
#
# Stress axis : x y z
#
# Youngs Moduli (GPa) = 75.84292 57.10442 37.35910
#
# Poissons Ratio (x) = -0.11201 0.26161
# Poissons Ratio (y) = -0.14877 0.49459
# Poissons Ratio (z) = 0.53111 0.75600
#
# Static dielectric constant tensor:
#      x y z
#    x 1.733600 0.000000 -0.031350 
#    y 0.000000 1.765740 0.000000 
#    z -0.031350 0.000000 1.711660 
# 
# From -- ./inp_files/51575.got.cif
#   From: 2010.05.17/outbox.cif.g08.bks.cpg/sg12_26_cif.got.tgz:51575.got - 2010.06.03 13:09:07.
