data_PCOD9207353
_publ_section_title
;
Structure prediction by ZEFSAII (Michael W. Deem and Ramdas Pophale) SiO2 
 PCOD9207353
Probable space group: C 2/M
;
_chemical_formula_sum "Si O2"
_cell_formula_units_Z 56
_cell_length_a 14.485938
_cell_length_b 16.924907
_cell_length_c 22.731600
_cell_angle_alpha 90.000000
_cell_angle_beta 30.115507
_cell_angle_gamma 90.000000
_cell_volume 2796.313501
_symmetry_space_group_name_H-M "C 2/M"
_symmetry_group_IT_number 12
_symmetry_cell_setting 'monoclinic'
loop_
_space_group_symop_operation_xyz
x,y,z
-x,y,-z
-x,-y,-z
x,-y,z
1/2+x,1/2+y,z
1/2-x,1/2+y,-z
1/2-x,1/2-y,-z
1/2+x,1/2-y,z
loop_
_atom_site_type_symbol
_atom_site_label
_atom_site_fract_x
_atom_site_fract_y
_atom_site_fract_z
Si Si1 0.829698 0.907351 0.289368
Si Si2 0.712380 0.589557 0.548381
Si Si3 0.302237 0.674549 0.933188
Si Si4 0.072311 0.871465 0.396382
Si Si5 0.192197 0.260228 0.872111
Si Si6 0.927801 0.589808 0.138616
Si Si7 0.441142 0.192015 0.634783
O O1 0.843695 0.898448 0.352451
O O2 0.648919 0.868346 0.361694
O O3 0.000739 0.863184 0.165003
O O4 0.833776 0.000000 0.274642
O O5 0.787709 0.500000 0.502572
O O6 0.545739 0.595884 0.593810
O O7 0.865735 0.655585 0.451349
O O8 0.302691 0.709695 0.867240
O O9 0.250000 0.750000 0.000000
O O10 0.140740 0.610538 0.031775
O O11 0.284327 0.897435 0.270984
O O12 0.049866 0.777058 0.401519
O O13 0.000000 0.896240 0.500000
O O14 0.135127 0.341352 0.870860
O O15 0.309510 0.207234 0.763440
O O16 0.000000 0.222801 0.000000
O O17 0.908977 0.500000 0.127362
#
# Coordination Sequence:
#
# PCOD9207353 Si02
#       7
#     8   8   8   8   8   8   8
#     4  11  22  38  61  89 119 151 194 244 289 337
#     4  11  24  40  60  88 119 152 194 243 291 341
#     4  11  22  37  59  86 116 151 191 237 289 344
#     4  11  23  39  60  86 119 154 192 238 291 351
#     4   9  20  37  58  83 113 149 192 242 287 338
#     4  10  21  37  58  84 112 146 189 237 289 339
#     4  11  22  39  62  86 115 156 198 237 286 344
#
# _framework density 20.026365999999999
#
# number of rings (size 3 to 8) (size 9 to 14) (size 15 to 20)
#    0.000    1.429    0.000    7.286    0.000    8.857 
#    0.000    0.000    0.000    8.571    0.000    0.000 
#    0.000    0.000    0.000    0.000    0.000    0.000 
#
# Total GULP energy -156403.204646 kJ/mol
# GULP energy per Si atom -5585.828737 kJ/mol
# Density = 1.998079 g / cm^3
# Si number density = 20.026366 Si / 1000 Ang^3
#
#
#
# Elastic Constant Matrix: (Units=GPa)
#
#
# Indices 1 2 3 4 5 6 
#
# 1 41.6965 -4.3917 20.9886 0.0018 0.3930 -0.0013
# 2 -4.3917 87.6673 30.6246 -0.0028 -1.0235 -0.0005
# 3 20.9886 30.6246 83.1987 -0.0009 13.2329 -0.0019
# 4 0.0018 -0.0028 -0.0009 23.0852 0.0008 -11.8822
# 5 0.3930 -1.0235 13.2329 0.0008 29.5612 0.0010
# 6 -0.0013 -0.0005 -0.0019 -11.8822 0.0010 16.3012
#
#
#
# Elastic Compliance Matrix: (Units=1/GPa)
#
#
# Indices 1 2 3 4 5 6 
#
# 1 0.029479 0.005003 -0.009952 -0.000003 0.004236 -0.000001
# 2 0.005003 0.014159 -0.007043 0.000001 0.003576 0.000001
# 3 -0.009952 -0.007043 0.018454 0.000003 -0.008372 0.000004
# 4 -0.000003 0.000001 0.000003 0.069329 -0.000005 0.050535
# 5 0.004236 0.003576 -0.008372 -0.000005 0.037644 -0.000006
# 6 -0.000001 0.000001 0.000004 0.050535 -0.000006 0.098181
#
#
# Mechanical properties :
#
#
# Convention : Reuss Voigt Hill
#
# Bulk Modulus (GPa) = 26.24083 34.11173 30.17628
# Shear Modulus (GPa) = 16.45099 24.81226 20.63163
#
# Velocity S-wave (km/s) = 2.86923 3.52373 3.21319
# Velocity P-wave (km/s) = 4.91002 5.79879 5.37281
#
# Compressibility (1/GPa) = 0.03810856
#
# Stress axis : x y z
#
# Youngs Moduli (GPa) = 33.92211 70.62466 54.18866
#
# Poissons Ratio (x) = -0.35332 0.53929
# Poissons Ratio (y) = -0.16970 0.38164
# Poissons Ratio (z) = 0.33759 0.49739
#
# Static dielectric constant tensor:
#      x y z
#    x 1.709170 0.000000 0.007720 
#    y 0.000000 1.690940 0.000000 
#    z 0.007720 0.000000 1.746420 
# 
# From -- ./inp_files/145653.got.cif
#   From: 2010.05.17/outbox.cif.g08.bks.cpg/sg12_73_cif.got.tgz:145653.got - 2010.06.03 13:09:07.
