data_PCOD9207254
_publ_section_title
;
Structure prediction by ZEFSAII (Michael W. Deem and Ramdas Pophale) SiO2 
 PCOD9207254
Probable space group: C 2/M
;
_chemical_formula_sum "Si O2"
_cell_formula_units_Z 56
_cell_length_a 27.166783
_cell_length_b 7.852473
_cell_length_c 13.031817
_cell_angle_alpha 90.000000
_cell_angle_beta 68.881010
_cell_angle_gamma 90.000000
_cell_volume 2593.307899
_symmetry_space_group_name_H-M "C 2/M"
_symmetry_group_IT_number 12
_symmetry_cell_setting 'monoclinic'
loop_
_space_group_symop_operation_xyz
x,y,z
-x,y,-z
-x,-y,-z
x,-y,z
1/2+x,1/2+y,z
1/2-x,1/2+y,-z
1/2-x,1/2-y,-z
1/2+x,1/2-y,z
loop_
_atom_site_type_symbol
_atom_site_label
_atom_site_fract_x
_atom_site_fract_y
_atom_site_fract_z
Si Si1 0.049929 0.703983 0.398852
Si Si2 0.907708 0.698795 0.843666
Si Si3 0.440916 0.701865 0.042741
Si Si4 0.789729 0.203717 0.879398
Si Si5 0.631869 0.297429 0.720009
Si Si6 0.749387 0.294212 0.315583
Si Si7 0.140211 0.793673 0.488933
O O1 0.043705 0.500000 0.394638
O O2 0.058105 0.771125 0.277108
O O3 0.102217 0.737688 0.425984
O O4 0.000000 0.772246 0.500000
O O5 0.920248 0.500000 0.845121
O O6 0.846831 0.717983 0.857276
O O7 0.917197 0.778328 0.947351
O O8 0.445168 0.500000 0.059230
O O9 0.403438 0.773525 0.160651
O O10 0.500000 0.774688 0.000000
O O11 0.765569 0.259011 0.788836
O O12 0.796499 0.000000 0.870447
O O13 0.750000 0.250000 0.000000
O O14 0.622870 0.500000 0.722436
O O15 0.693603 0.271235 0.695900
O O16 0.620507 0.229982 0.614308
O O17 0.751556 0.500000 0.316341
O O18 0.700447 0.238405 0.423174
O O19 0.140256 0.000000 0.488934
#
# Coordination Sequence:
#
# PCOD9207254 Si02
#       7
#     8   8   8   8   8   8   8
#     4  10  23  41  61  89 122 155 197 248 302 356
#     4  11  23  40  62  89 120 156 200 247 300 358
#     4  10  23  42  62  87 119 157 201 249 299 352
#     4  11  22  37  59  88 122 159 200 245 296 353
#     4  10  22  38  59  87 119 155 197 243 293 354
#     4  10  21  37  57  85 119 152 193 241 292 352
#     4  10  21  39  61  89 119 152 197 244 295 354
#
# _framework density 21.594042000000002
#
# number of rings (size 3 to 8) (size 9 to 14) (size 15 to 20)
#    0.000    1.714    1.429    2.143    2.000    6.286 
#    0.000    0.000    0.000    0.000    0.000    0.000 
#    0.000    0.000    0.000    0.000    0.000    0.000 
#
# Total GULP energy -156502.676810 kJ/mol
# GULP energy per Si atom -5589.381315 kJ/mol
# Density = 2.154489 g / cm^3
# Si number density = 21.594042 Si / 1000 Ang^3
#
#
#
# Elastic Constant Matrix: (Units=GPa)
#
#
# Indices 1 2 3 4 5 6 
#
# 1 28.0876 -9.9310 20.8425 0.0000 -7.5692 0.0000
# 2 -9.9310 24.0686 6.1152 0.0000 -3.9234 0.0000
# 3 20.8425 6.1152 179.2219 0.0000 -12.2970 0.0000
# 4 0.0000 0.0000 0.0000 5.6951 0.0000 -12.1647
# 5 -7.5692 -3.9234 -12.2970 0.0000 40.8540 0.0000
# 6 0.0000 0.0000 0.0000 -12.1647 0.0000 -8.9935
#
#
#
# Elastic Compliance Matrix: (Units=1/GPa)
#
#
# Indices 1 2 3 4 5 6 
#
# 1 0.051506 0.024448 -0.006135 0.000000 0.010044 0.000000
# 2 0.024448 0.054062 -0.004106 0.000000 0.008486 0.000000
# 3 -0.006135 -0.004106 0.006462 0.000000 0.000414 0.000000
# 4 0.000000 0.000000 0.000000 0.045148 0.000000 -0.061068
# 5 0.010044 0.008486 0.000414 0.000000 0.027278 0.000000
# 6 0.000000 0.000000 0.000000 -0.061068 0.000000 -0.028590
#
#
# Mechanical properties :
#
#
# Convention : Reuss Voigt Hill
#
# Bulk Modulus (GPa) = 7.12024 29.49241 18.30633
# Shear Modulus (GPa) = 28.69183 21.80120 25.24652
#
# Velocity S-wave (km/s) = 3.64908 3.18086 3.42298
# Velocity P-wave (km/s) = 4.58899 5.21323 4.91104
#
# Compressibility (1/GPa) = 0.14044465
#
# Stress axis : x y z
#
# Youngs Moduli (GPa) = 19.41514 18.49735 154.75981
#
# Poissons Ratio (x) = -0.45222 0.94944
# Poissons Ratio (y) = -0.47466 0.63538
# Poissons Ratio (z) = 0.11911 0.07594
#
# Static dielectric constant tensor:
#      x y z
#    x 1.727900 0.000000 -0.020760 
#    y 0.000000 1.800750 0.000000 
#    z -0.020760 0.000000 1.805540 
# 
# From -- ./inp_files/180661.got.cif
#   From: 2010.05.17/outbox.cif.g08.bks.cpg/sg12_91_cif.got.tgz:180661.got - 2010.06.03 13:09:07.
