data_PCOD9207378
_publ_section_title
;
Structure prediction by ZEFSAII (Michael W. Deem and Ramdas Pophale) SiO2 
 PCOD9207378
Probable space group: C 2/M
;
_chemical_formula_sum "Si O2"
_cell_formula_units_Z 48
_cell_length_a 15.307836
_cell_length_b 9.389522
_cell_length_c 15.159209
_cell_angle_alpha 90.000000
_cell_angle_beta 91.383806
_cell_angle_gamma 90.000000
_cell_volume 2178.247113
_symmetry_space_group_name_H-M "C 2/M"
_symmetry_group_IT_number 12
_symmetry_cell_setting 'monoclinic'
loop_
_space_group_symop_operation_xyz
x,y,z
-x,y,-z
-x,-y,-z
x,-y,z
1/2+x,1/2+y,z
1/2-x,1/2+y,-z
1/2-x,1/2-y,-z
1/2+x,1/2-y,z
loop_
_atom_site_type_symbol
_atom_site_label
_atom_site_fract_x
_atom_site_fract_y
_atom_site_fract_z
Si Si1 0.914204 0.841123 0.827639
Si Si2 0.027997 0.161416 0.371224
Si Si3 0.182901 0.656511 0.050068
Si Si4 0.919349 0.662598 0.128725
Si Si5 0.340054 0.669827 0.283837
Si Si6 0.193258 0.669492 0.425280
O O1 0.927831 0.844495 0.724315
O O2 0.003914 0.776602 0.865643
O O3 0.895808 0.000000 0.860097
O O4 0.844485 0.731353 0.861602
O O5 0.094770 0.266333 0.422166
O O6 0.926539 0.199861 0.348052
O O7 0.030689 0.000000 0.407354
O O8 0.216356 0.500000 0.068881
O O9 0.108197 0.650111 0.973585
O O10 0.250000 0.750000 0.000000
O O11 0.943277 0.500000 0.157595
O O12 0.851105 0.728552 0.198478
O O13 0.347396 0.500000 0.261307
O O14 0.251246 0.690935 0.337132
O O15 0.189967 0.500000 0.440606
O O16 0.250000 0.750000 0.500000
#
# Coordination Sequence:
#
# PCOD9207378 Si02
#       6
#     8   8   8   8   8   8
#     4  10  21  38  60  84 114 155 197 240 297 353
#     4   9  20  40  63  87 119 156 197 244 296 353
#     4  11  24  37  52  81 118 156 199 247 296 346
#     4  10  21  37  58  84 114 151 197 246 294 344
#     4   9  21  41  63  88 119 160 201 241 297 363
#     4  11  24  41  63  92 122 155 196 241 299 361
#
# _framework density 22.036066999999999
#
# number of rings (size 3 to 8) (size 9 to 14) (size 15 to 20)
#    0.000    2.000    0.000    3.500    2.333   10.000 
#    0.000    3.333    0.000    0.000    0.000    0.000 
#    0.000    0.000    0.000    0.000    0.000    0.000 
#
# Total GULP energy -133932.708442 kJ/mol
# GULP energy per Si atom -5580.529518 kJ/mol
# Density = 2.198591 g / cm^3
# Si number density = 22.036067 Si / 1000 Ang^3
#
#
#
# Elastic Constant Matrix: (Units=GPa)
#
#
# Indices 1 2 3 4 5 6 
#
# 1 64.8818 13.6876 4.3717 0.0000 12.2734 0.0000
# 2 13.6876 109.8453 21.0200 0.0000 5.1331 0.0000
# 3 4.3717 21.0200 66.4769 0.0000 -3.0319 0.0000
# 4 0.0000 0.0000 0.0000 28.2066 0.0000 0.1588
# 5 12.2734 5.1331 -3.0319 0.0000 35.5143 0.0000
# 6 0.0000 0.0000 0.0000 0.1588 0.0000 25.5897
#
#
#
# Elastic Compliance Matrix: (Units=1/GPa)
#
#
# Indices 1 2 3 4 5 6 
#
# 1 0.016896 -0.001680 -0.000838 0.000000 -0.005668 0.000000
# 2 -0.001680 0.009957 -0.003089 0.000000 -0.001122 0.000000
# 3 -0.000838 -0.003089 0.016171 0.000000 0.002117 0.000000
# 4 0.000000 0.000000 0.000000 0.035454 0.000000 -0.000220
# 5 -0.005668 -0.001122 0.002117 0.000000 0.030459 0.000000
# 6 0.000000 0.000000 0.000000 -0.000220 0.000000 0.039080
#
#
# Mechanical properties :
#
#
# Convention : Reuss Voigt Hill
#
# Bulk Modulus (GPa) = 31.43792 35.48475 33.46134
# Shear Modulus (GPa) = 29.44049 31.33708 30.38879
#
# Velocity S-wave (km/s) = 3.65912 3.77514 3.71758
# Velocity P-wave (km/s) = 5.67007 5.92792 5.80043
#
# Compressibility (1/GPa) = 0.03180872
#
# Stress axis : x y z
#
# Youngs Moduli (GPa) = 59.18665 100.43585 61.83824
#
# Poissons Ratio (x) = 0.16874 0.05184
# Poissons Ratio (y) = 0.09944 0.19102
# Poissons Ratio (z) = 0.04962 0.31024
#
# Static dielectric constant tensor:
#      x y z
#    x 1.668660 0.000000 0.161610 
#    y 0.000000 1.812550 0.000000 
#    z 0.161610 0.000000 1.779060 
# 
# From -- ./inp_files/267611.got.cif
#   From: 2010.05.17/outbox.cif.g08.bks.cpg/sg12_134_cif.got.tgz:267611.got - 2010.06.03 13:09:07.
