data_PCOD9207899
_publ_section_title
;
Structure prediction by ZEFSAII (Michael W. Deem and Ramdas Pophale) SiO2 
 PCOD9207899
Probable space group: C 2/M
;
_chemical_formula_sum "Si O2"
_cell_formula_units_Z 64
_cell_length_a 24.644674
_cell_length_b 17.908122
_cell_length_c 14.021120
_cell_angle_alpha 90.000000
_cell_angle_beta 149.910555
_cell_angle_gamma 90.000000
_cell_volume 3102.401615
_symmetry_space_group_name_H-M "C 2/M"
_symmetry_group_IT_number 12
_symmetry_cell_setting 'monoclinic'
loop_
_space_group_symop_operation_xyz
x,y,z
-x,y,-z
-x,-y,-z
x,-y,z
1/2+x,1/2+y,z
1/2-x,1/2+y,-z
1/2-x,1/2-y,-z
1/2+x,1/2-y,z
loop_
_atom_site_type_symbol
_atom_site_label
_atom_site_fract_x
_atom_site_fract_y
_atom_site_fract_z
Si Si1 0.392570 0.919615 0.902278
Si Si2 0.658359 0.414182 0.449621
Si Si3 0.080010 0.258948 0.031371
Si Si4 0.757024 0.586009 0.125026
Si Si5 0.036412 0.169703 0.778968
Si Si6 0.433415 0.814231 0.301138
Si Si7 0.266594 0.318525 0.597278
Si Si8 0.889859 0.586854 0.525656
O O1 0.283335 0.912256 0.673487
O O2 0.396977 0.843144 0.966678
O O3 0.387298 0.000000 0.944701
O O4 0.500000 0.921069 0.000000
O O5 0.623944 0.500000 0.392300
O O6 0.580554 0.369625 0.403697
O O7 0.657592 0.376482 0.344084
O O8 0.184087 0.217504 0.232689
O O9 0.033661 0.212888 0.874862
O O10 0.000000 0.261989 0.000000
O O11 0.773122 0.500000 0.117929
O O12 0.821286 0.646402 0.159056
O O13 0.808536 0.589826 0.310145
O O14 0.631777 0.609031 0.931286
O O15 0.065808 0.233664 0.747719
O O16 0.500000 0.805638 0.500000
O O17 0.500825 0.873791 0.341473
O O18 0.250000 0.250000 0.500000
O O19 0.161101 0.364446 0.467068
O O20 0.902245 0.500000 0.570655
#
# Coordination Sequence:
#
# PCOD9207899 Si02
#       8
#     8   8   8   8   8   8   8   8
#     4   9  20  38  57  79 117 169 214 252 291 343
#     4  11  23  38  59  91 131 170 209 252 308 373
#     4  11  22  37  58  90 129 167 208 249 298 368
#     4  10  21  41  64  89 123 154 201 270 331 377
#     4  12  23  39  64  94 125 167 206 255 320 383
#     4  10  23  41  65  91 117 158 211 269 319 376
#     4  12  21  36  57  90 129 165 209 252 300 371
#     4  10  21  37  60  90 120 160 209 260 319 372
#
# _framework density 20.629180000000002
#
# number of rings (size 3 to 8) (size 9 to 14) (size 15 to 20)
#    0.000    1.375    3.750    2.250    0.000    1.500 
#    0.000    3.125    0.000    3.000    0.000    0.000 
#    0.000    0.000    0.000    0.000    0.000    0.000 
#
# Total GULP energy -178720.746094 kJ/mol
# GULP energy per Si atom -5585.023315 kJ/mol
# Density = 2.058223 g / cm^3
# Si number density = 20.629180 Si / 1000 Ang^3
#
#
#
# Elastic Constant Matrix: (Units=GPa)
#
#
# Indices 1 2 3 4 5 6 
#
# 1 70.7601 37.4640 16.0045 0.0000 8.4236 0.0000
# 2 37.4640 142.4001 29.7011 0.0000 1.7224 0.0000
# 3 16.0045 29.7011 73.1765 0.0000 14.1316 0.0000
# 4 0.0000 0.0000 0.0000 23.1672 0.0000 6.1000
# 5 8.4236 1.7224 14.1316 0.0000 23.8522 0.0000
# 6 0.0000 0.0000 0.0000 6.1000 0.0000 25.9929
#
#
#
# Elastic Compliance Matrix: (Units=1/GPa)
#
#
# Indices 1 2 3 4 5 6 
#
# 1 0.017235 -0.004254 -0.001047 0.000000 -0.005160 0.000000
# 2 -0.004254 0.008767 -0.003157 0.000000 0.002740 0.000000
# 3 -0.001047 -0.003157 0.017006 0.000000 -0.009478 0.000000
# 4 0.000000 0.000000 0.000000 0.046007 0.000000 -0.010797
# 5 -0.005160 0.002740 -0.009478 0.000000 0.049165 0.000000
# 6 0.000000 0.000000 0.000000 -0.010797 0.000000 0.041006
#
#
# Mechanical properties :
#
#
# Convention : Reuss Voigt Hill
#
# Bulk Modulus (GPa) = 38.32355 50.29732 44.31044
# Shear Modulus (GPa) = 24.41415 28.14692 26.28053
#
# Velocity S-wave (km/s) = 3.44390 3.69782 3.57311
# Velocity P-wave (km/s) = 5.86785 6.53195 6.20878
#
# Compressibility (1/GPa) = 0.02609362
#
# Stress axis : x y z
#
# Youngs Moduli (GPa) = 58.02033 114.06499 58.80180
#
# Poissons Ratio (x) = 0.48520 0.06155
# Poissons Ratio (y) = 0.24680 0.18564
# Poissons Ratio (z) = 0.06073 0.36011
#
# Static dielectric constant tensor:
#      x y z
#    x 1.727440 0.000000 0.013780 
#    y 0.000000 1.743910 0.000000 
#    z 0.013780 0.000000 1.791450 
# 
# From -- ./inp_files/241510.got.cif
#   From: 2010.05.17/outbox.cif.g08.bks.cpg/sg12_121_cif.got.tgz:241510.got - 2010.06.03 13:09:07.
