data_PCOD9207748
_publ_section_title
;
Structure prediction by ZEFSAII (Michael W. Deem and Ramdas Pophale) SiO2 
 PCOD9207748
Probable space group: C 2/M
;
_chemical_formula_sum "Si O2"
_cell_formula_units_Z 52
_cell_length_a 13.086404
_cell_length_b 18.588582
_cell_length_c 14.884252
_cell_angle_alpha 90.000000
_cell_angle_beta 48.903823
_cell_angle_gamma 90.000000
_cell_volume 2728.592426
_symmetry_space_group_name_H-M "C 2/M"
_symmetry_group_IT_number 12
_symmetry_cell_setting 'monoclinic'
loop_
_space_group_symop_operation_xyz
x,y,z
-x,y,-z
-x,-y,-z
x,-y,z
1/2+x,1/2+y,z
1/2-x,1/2+y,-z
1/2-x,1/2-y,-z
1/2+x,1/2-y,z
loop_
_atom_site_type_symbol
_atom_site_label
_atom_site_fract_x
_atom_site_fract_y
_atom_site_fract_z
Si Si1 0.862674 0.652244 0.636555
Si Si2 0.889281 0.163739 0.832319
Si Si3 0.319557 0.000000 0.877868
Si Si4 0.167020 0.751990 0.639642
Si Si5 0.775295 0.000000 0.271395
Si Si6 0.039508 0.353085 0.215608
Si Si7 0.620611 0.755220 0.999917
Si Si8 0.085374 0.000000 0.159613
O O1 0.757722 0.712197 0.663911
O O2 0.797378 0.573638 0.655071
O O3 0.000000 0.659162 0.500000
O O4 0.896144 0.659163 0.722628
O O5 0.881295 0.177931 0.946580
O O6 0.027858 0.200700 0.716655
O O7 0.893017 0.079013 0.807693
O O8 0.755459 0.208632 0.879899
O O9 0.417836 0.932693 0.830957
O O10 0.248173 0.000000 0.821946
O O11 0.200036 0.000000 0.017691
O O12 0.250000 0.750000 0.500000
O O13 0.115914 0.671198 0.687380
O O14 0.931900 0.000000 0.209904
O O15 0.091062 0.306104 0.102340
O O16 0.500000 0.755438 0.000000
#
# Coordination Sequence:
#
# PCOD9207748 Si02
#       8
#     8   8   4   8   4   8   8   4
#     4  11  21  39  62  90 128 163 211 266 312 379
#     4  10  23  38  63  92 127 160 209 258 318 375
#     4  10  21  37  59  90 129 159 201 266 311 388
#     4  11  22  39  60  90 124 167 207 252 312 372
#     4  10  22  34  58  94 122 167 200 252 336 372
#     4  10  22  39  61  91 124 162 214 256 319 371
#     4  10  22  42  63  89 126 167 211 260 312 378
#     4  12  19  39  59  90 132 160 201 260 320 386
#
# _framework density 19.057445999999999
#
# number of rings (size 3 to 8) (size 9 to 14) (size 15 to 20)
#    0.000    1.538    4.615    0.462    0.000    8.615 
#    0.000    2.308    0.000    0.000    0.000    0.538 
#    0.000    0.308    0.000    0.000    0.000    0.000 
#
# Total GULP energy -144858.557706 kJ/mol
# GULP energy per Si atom -5571.482989 kJ/mol
# Density = 1.901407 g / cm^3
# Si number density = 19.057446 Si / 1000 Ang^3
#
#
#
# Elastic Constant Matrix: (Units=GPa)
#
#
# Indices 1 2 3 4 5 6 
#
# 1 91.5602 42.9053 25.5056 0.0001 -14.0043 0.0000
# 2 42.9053 82.8079 15.3751 0.0000 -10.1205 0.0000
# 3 25.5056 15.3751 92.5933 0.0000 -25.7062 0.0000
# 4 0.0001 0.0000 0.0000 24.9060 0.0000 -5.8506
# 5 -14.0043 -10.1205 -25.7062 0.0000 32.3750 0.0000
# 6 0.0000 0.0000 0.0000 -5.8506 0.0000 29.6927
#
#
#
# Elastic Compliance Matrix: (Units=1/GPa)
#
#
# Indices 1 2 3 4 5 6 
#
# 1 0.015332 -0.007203 -0.002323 0.000000 0.002536 0.000000
# 2 -0.007203 0.016058 -0.000197 0.000000 0.001748 0.000000
# 3 -0.002323 -0.000197 0.014337 0.000000 0.010317 0.000000
# 4 0.000000 0.000000 0.000000 0.042099 0.000000 0.008295
# 5 0.002536 0.001748 0.010317 0.000000 0.040723 0.000000
# 6 0.000000 0.000000 0.000000 0.008295 0.000000 0.035313
#
#
# Mechanical properties :
#
#
# Convention : Reuss Voigt Hill
#
# Bulk Modulus (GPa) = 38.05079 48.28149 43.16614
# Shear Modulus (GPa) = 26.03225 29.60644 27.81934
#
# Velocity S-wave (km/s) = 3.69994 3.94577 3.82483
# Velocity P-wave (km/s) = 6.18566 6.79327 6.49657
#
# Compressibility (1/GPa) = 0.02628066
#
# Stress axis : x y z
#
# Youngs Moduli (GPa) = 65.22287 62.27307 69.74993
#
# Poissons Ratio (x) = 0.44854 0.16205
# Poissons Ratio (y) = 0.46978 0.01376
# Poissons Ratio (z) = 0.15153 0.01228
#
# Static dielectric constant tensor:
#      x y z
#    x 1.668100 0.000000 -0.019920 
#    y 0.000000 1.728500 0.000000 
#    z -0.019920 0.000000 1.693280 
# 
# From -- ./inp_files/207620.got.cif
#   From: 2010.05.17/outbox.cif.g08.bks.cpg/sg12_104_cif.got.tgz:207620.got - 2010.06.03 13:09:07.
