data_PCOD9207337
_publ_section_title
;
Structure prediction by ZEFSAII (Michael W. Deem and Ramdas Pophale) SiO2 
 PCOD9207337
Probable space group: C 2/M
;
_chemical_formula_sum "Si O2"
_cell_formula_units_Z 40
_cell_length_a 10.084927
_cell_length_b 24.487868
_cell_length_c 8.473564
_cell_angle_alpha 90.000000
_cell_angle_beta 90.765962
_cell_angle_gamma 90.000000
_cell_volume 2092.430487
_symmetry_space_group_name_H-M "C 2/M"
_symmetry_group_IT_number 12
_symmetry_cell_setting 'monoclinic'
loop_
_space_group_symop_operation_xyz
x,y,z
-x,y,-z
-x,-y,-z
x,-y,z
1/2+x,1/2+y,z
1/2-x,1/2+y,-z
1/2-x,1/2-y,-z
1/2+x,1/2-y,z
loop_
_atom_site_type_symbol
_atom_site_label
_atom_site_fract_x
_atom_site_fract_y
_atom_site_fract_z
Si Si1 0.906812 0.895763 0.355943
Si Si2 0.061463 0.212402 0.827524
Si Si3 0.610744 0.894322 0.368452
Si Si4 0.682109 0.767196 0.332118
Si Si5 0.917290 0.000000 0.156752
Si Si6 0.600373 0.000000 0.148212
O O1 0.904337 0.848904 0.224063
O O2 0.761001 0.907298 0.423146
O O3 0.000000 0.879673 0.500000
O O4 0.952125 0.948723 0.264914
O O5 0.200604 0.242453 0.794101
O O6 0.946777 0.232275 0.707802
O O7 0.000000 0.217591 0.000000
O O8 0.500000 0.896624 0.500000
O O9 0.629099 0.830114 0.322215
O O10 0.578409 0.942796 0.243394
O O11 0.750000 0.750000 0.500000
O O12 0.759071 0.000000 0.115939
O O13 0.000000 0.000000 0.000000
O O14 0.500000 0.000000 0.000000
#
# Coordination Sequence:
#
# PCOD9207337 Si02
#       6
#     8   8   8   8   4   4
#     4  10  21  37  58  83 113 150 192 238 292 353
#     4  11  22  37  57  85 118 152 191 243 297 350
#     4  10  21  38  59  84 113 148 193 241 283 342
#     4  11  22  39  61  86 117 156 199 242 294 357
#     4  10  21  38  58  84 116 148 191 242 294 354
#     4  10  23  40  58  84 118 152 189 238 294 346
#
# _framework density 19.116527000000001
#
# number of rings (size 3 to 8) (size 9 to 14) (size 15 to 20)
#    0.000    1.600    0.000    6.000    0.000    2.400 
#    0.000    8.000    0.000    0.000    0.000    0.000 
#    0.000    0.000    0.000    0.000    0.000    0.000 
#
# Total GULP energy -111443.777248 kJ/mol
# GULP energy per Si atom -5572.188862 kJ/mol
# Density = 1.907302 g / cm^3
# Si number density = 19.116527 Si / 1000 Ang^3
#
#
#
# Elastic Constant Matrix: (Units=GPa)
#
#
# Indices 1 2 3 4 5 6 
#
# 1 90.3955 23.5765 53.6947 0.0000 -28.0436 0.0000
# 2 23.5765 97.3524 23.7257 0.0000 -4.9956 0.0000
# 3 53.6947 23.7257 88.9280 0.0000 -18.9379 0.0000
# 4 0.0000 0.0000 0.0000 16.7378 0.0000 -3.3999
# 5 -28.0436 -4.9956 -18.9379 0.0000 47.4232 0.0000
# 6 0.0000 0.0000 0.0000 -3.3999 0.0000 26.2491
#
#
#
# Elastic Compliance Matrix: (Units=1/GPa)
#
#
# Indices 1 2 3 4 5 6 
#
# 1 0.019735 -0.002010 -0.009770 0.000000 0.007557 0.000000
# 2 -0.002010 0.011191 -0.001939 0.000000 -0.000784 0.000000
# 3 -0.009770 -0.001939 0.017911 0.000000 0.001171 0.000000
# 4 0.000000 0.000000 0.000000 0.061359 0.000000 0.007947
# 5 0.007557 -0.000784 0.001171 0.000000 0.025940 0.000000
# 6 0.000000 0.000000 0.000000 0.007947 0.000000 0.039126
#
#
# Mechanical properties :
#
#
# Convention : Reuss Voigt Hill
#
# Bulk Modulus (GPa) = 46.73398 53.18553 49.95975
# Shear Modulus (GPa) = 23.82844 29.79396 26.81120
#
# Velocity S-wave (km/s) = 3.53439 3.95212 3.74908
# Velocity P-wave (km/s) = 6.41528 6.97910 6.70312
#
# Compressibility (1/GPa) = 0.02139771
#
# Stress axis : x y z
#
# Youngs Moduli (GPa) = 50.67250 89.35661 55.83208
#
# Poissons Ratio (x) = 0.17964 0.54549
# Poissons Ratio (y) = 0.10187 0.10825
# Poissons Ratio (z) = 0.49508 0.17325
#
# Static dielectric constant tensor:
#      x y z
#    x 1.665830 0.000000 -0.001150 
#    y 0.000000 1.727650 0.000000 
#    z -0.001150 0.000000 1.626370 
# 
# From -- ./inp_files/39388.got.cif
#   From: 2010.05.17/outbox.cif.g08.bks.cpg/sg12_20_cif.got.tgz:39388.got - 2010.06.03 13:09:07.
