data_PCOD9207668
_publ_section_title
;
Structure prediction by ZEFSAII (Michael W. Deem and Ramdas Pophale) SiO2 
 PCOD9207668
Probable space group: C 2/M
;
_chemical_formula_sum "Si O2"
_cell_formula_units_Z 56
_cell_length_a 13.068962
_cell_length_b 13.155438
_cell_length_c 34.204866
_cell_angle_alpha 90.000000
_cell_angle_beta 25.110956
_cell_angle_gamma 90.000000
_cell_volume 2495.638127
_symmetry_space_group_name_H-M "C 2/M"
_symmetry_group_IT_number 12
_symmetry_cell_setting 'monoclinic'
loop_
_space_group_symop_operation_xyz
x,y,z
-x,y,-z
-x,-y,-z
x,-y,z
1/2+x,1/2+y,z
1/2-x,1/2+y,-z
1/2-x,1/2-y,-z
1/2+x,1/2-y,z
loop_
_atom_site_type_symbol
_atom_site_label
_atom_site_fract_x
_atom_site_fract_y
_atom_site_fract_z
Si Si1 0.489215 0.831272 0.959473
Si Si2 0.016679 0.191129 0.760392
Si Si3 0.252060 0.115149 0.964084
Si Si4 0.133172 0.380618 0.765361
Si Si5 0.512651 0.880137 0.364066
Si Si6 0.577827 0.620946 0.564300
Si Si7 0.281638 0.733653 0.599975
O O1 0.307611 0.878625 0.991047
O O2 0.754079 0.852829 0.851678
O O3 0.500000 0.868589 0.000000
O O4 0.420935 0.710732 0.984501
O O5 0.996072 0.307863 0.782346
O O6 0.209825 0.143594 0.723309
O O7 0.133067 0.189127 0.677622
O O8 0.497896 0.134418 0.853520
O O9 0.168903 0.000000 0.983218
O O10 0.110489 0.500000 0.764187
O O11 0.416388 0.352377 0.658544
O O12 0.349548 0.846048 0.458285
O O13 0.393880 0.828132 0.367677
O O14 0.485348 0.000000 0.368960
O O15 0.592862 0.500000 0.560264
O O16 0.414169 0.656788 0.584379
O O17 0.500000 0.781744 0.500000
#
# Coordination Sequence:
#
# PCOD9207668 Si02
#       7
#     8   8   8   8   8   8   8
#     4  11  24  43  64  90 125 158 199 258 307 362
#     4  11  23  37  60  91 127 161 202 251 306 362
#     4  10  23  43  68  92 117 157 204 254 311 367
#     4   9  18  35  61  90 118 154 201 250 301 353
#     4  10  21  37  59  87 127 170 204 244 299 363
#     4   8  15  31  56  89 123 158 204 253 295 346
#     4   9  19  34  57  88 121 161 207 254 297 349
#
# _framework density 22.439149
#
# number of rings (size 3 to 8) (size 9 to 14) (size 15 to 20)
#    0.000    2.286    1.429    0.429    2.000    9.143 
#    0.000    1.429    0.000    0.429    0.000    0.000 
#    0.000    0.000    0.000    0.000    0.000    0.000 
#
# Total GULP energy -156204.297164 kJ/mol
# GULP energy per Si atom -5578.724899 kJ/mol
# Density = 2.238808 g / cm^3
# Si number density = 22.439149 Si / 1000 Ang^3
#
#
#
# Elastic Constant Matrix: (Units=GPa)
#
#
# Indices 1 2 3 4 5 6 
#
# 1 93.1024 14.3322 32.5197 -0.0001 5.7817 0.0009
# 2 14.3322 46.6896 -2.0730 -0.0033 -2.9327 0.0008
# 3 32.5197 -2.0730 86.9837 -0.0011 1.2001 -0.0036
# 4 -0.0001 -0.0033 -0.0011 16.5542 -0.0003 8.3261
# 5 5.7817 -2.9327 1.2001 -0.0003 38.5804 -0.0003
# 6 0.0009 0.0008 -0.0036 8.3261 -0.0003 3.5597
#
#
#
# Elastic Compliance Matrix: (Units=1/GPa)
#
#
# Indices 1 2 3 4 5 6 
#
# 1 0.013329 -0.004453 -0.005059 -0.000015 -0.002179 0.000028
# 2 -0.004453 0.023029 0.002181 -0.000032 0.002350 0.000073
# 3 -0.005059 0.002181 0.013433 0.000034 0.000506 -0.000065
# 4 -0.000015 -0.000032 0.000034 -0.342380 0.000002 0.800834
# 5 -0.002179 0.002350 0.000506 0.000002 0.026409 -0.000001
# 6 0.000028 0.000073 -0.000065 0.800834 -0.000001 -1.592239
#
#
# Mechanical properties :
#
#
# Convention : Reuss Voigt Hill
#
# Bulk Modulus (GPa) = 28.46636 35.14817 31.80727
# Shear Modulus (GPa) = -2.72919 23.87195 10.57138
#
# Velocity S-wave (km/s) = -1.10404 3.26521 2.17287
# Velocity P-wave (km/s) = 3.32992 5.46930 4.52778
#
# Compressibility (1/GPa) = 0.03512918
#
# Stress axis : x y z
#
# Youngs Moduli (GPa) = 75.02572 43.42266 74.44450
#
# Poissons Ratio (x) = 0.19336 0.37663
# Poissons Ratio (y) = 0.33409 -0.16238
# Poissons Ratio (z) = 0.37957 -0.09471
#
# Static dielectric constant tensor:
#      x y z
#    x 1.811860 0.000000 0.021850 
#    y 0.000000 1.831060 0.000000 
#    z 0.021850 0.000000 1.892420 
# 
# From -- ./inp_files/374212.got.cif
#   From: 2010.05.17/outbox.cif.g08.bks.cpg/sg12_188_cif.got.tgz:374212.got - 2010.06.03 13:09:07.
