data_PCOD9207714
_publ_section_title
;
Structure prediction by ZEFSAII (Michael W. Deem and Ramdas Pophale) SiO2 
 PCOD9207714
Probable space group: C 2/M
;
_chemical_formula_sum "Si O2"
_cell_formula_units_Z 56
_cell_length_a 8.540500
_cell_length_b 19.158136
_cell_length_c 25.946047
_cell_angle_alpha 90.000000
_cell_angle_beta 39.299252
_cell_angle_gamma 90.000000
_cell_volume 2688.844991
_symmetry_space_group_name_H-M "C 2/M"
_symmetry_group_IT_number 12
_symmetry_cell_setting 'monoclinic'
loop_
_space_group_symop_operation_xyz
x,y,z
-x,y,-z
-x,-y,-z
x,-y,z
1/2+x,1/2+y,z
1/2-x,1/2+y,-z
1/2-x,1/2-y,-z
1/2+x,1/2-y,z
loop_
_atom_site_type_symbol
_atom_site_label
_atom_site_fract_x
_atom_site_fract_y
_atom_site_fract_z
Si Si1 0.628816 0.807541 0.691945
Si Si2 0.734857 0.124847 0.901163
Si Si3 0.109713 0.373542 0.093788
Si Si4 0.402275 0.746306 0.194968
Si Si5 0.979484 0.304204 0.446108
Si Si6 0.039375 0.920876 0.915414
Si Si7 0.791524 0.581715 0.412671
O O1 0.687817 0.797594 0.736721
O O2 0.337459 0.794821 0.761503
O O3 0.685070 0.879082 0.648219
O O4 0.781754 0.743753 0.626964
O O5 0.608145 0.089786 0.883489
O O6 0.947199 0.086426 0.880403
O O7 0.884778 0.192412 0.843803
O O8 0.500000 0.137317 0.000000
O O9 0.195187 0.402050 0.127834
O O10 0.026012 0.294577 0.121237
O O11 0.346719 0.375401 0.996717
O O12 0.750000 0.250000 0.500000
O O13 0.932765 0.367503 0.417760
O O14 0.000000 0.329044 0.500000
O O15 0.991709 0.000000 0.942675
O O16 0.500000 0.583339 0.500000
O O17 0.870412 0.500000 0.392726
#
# Coordination Sequence:
#
# PCOD9207714 Si02
#       7
#     8   8   8   8   8   8   8
#     4  12  22  39  67  96 135 173 219 272 330 407
#     4  10  23  38  61  92 125 168 222 288 338 397
#     4  10  21  37  59  89 123 160 218 279 333 394
#     4  12  23  38  61  96 125 168 225 277 338 390
#     4  12  20  39  71 104 130 175 227 265 319 405
#     4  10  22  40  63  89 121 167 224 286 353 413
#     4  11  24  43  68 103 140 175 217 278 331 391
#
# _framework density 20.826786999999999
#
# number of rings (size 3 to 8) (size 9 to 14) (size 15 to 20)
#    0.000    1.000    5.714    1.714    2.000    4.571 
#    0.000    3.571    0.000    1.714    0.000    0.000 
#    0.000    0.000    0.000    0.000    0.000    0.000 
#
# Total GULP energy -156004.550679 kJ/mol
# GULP energy per Si atom -5571.591096 kJ/mol
# Density = 2.077938 g / cm^3
# Si number density = 20.826787 Si / 1000 Ang^3
#
#
#
# Elastic Constant Matrix: (Units=GPa)
#
#
# Indices 1 2 3 4 5 6 
#
# 1 156.9885 27.0421 -4.8506 -0.0064 -7.9027 0.0035
# 2 27.0421 104.9475 31.4447 0.0032 -1.6616 -0.0022
# 3 -4.8506 31.4447 34.7244 0.0503 -14.8028 -0.0141
# 4 -0.0064 0.0032 0.0503 13.6145 0.0006 8.3567
# 5 -7.9027 -1.6616 -14.8028 0.0006 26.6412 -0.0018
# 6 0.0035 -0.0022 -0.0141 8.3567 -0.0018 20.5919
#
#
#
# Elastic Compliance Matrix: (Units=1/GPa)
#
#
# Indices 1 2 3 4 5 6 
#
# 1 0.007600 -0.004056 0.007323 -0.000034 0.006070 0.000017
# 2 -0.004056 0.016514 -0.020436 0.000104 -0.011528 -0.000055
# 3 0.007323 -0.020436 0.063829 -0.000341 0.036363 0.000182
# 4 -0.000034 0.000104 -0.000341 0.097820 -0.000198 -0.039698
# 5 0.006070 -0.011528 0.036363 -0.000198 0.058822 0.000108
# 6 0.000017 -0.000055 0.000182 -0.039698 0.000108 0.064674
#
#
# Mechanical properties :
#
#
# Convention : Reuss Voigt Hill
#
# Bulk Modulus (GPa) = 18.65503 44.88141 31.76822
# Shear Modulus (GPa) = 13.83256 28.37113 21.10185
#
# Velocity S-wave (km/s) = 2.57995 3.69486 3.18654
# Velocity P-wave (km/s) = 4.22511 6.30867 5.36893
#
# Compressibility (1/GPa) = 0.05360486
#
# Stress axis : x y z
#
# Youngs Moduli (GPa) = 131.57085 60.55350 15.66691
#
# Poissons Ratio (x) = 0.24563 -0.11473
# Poissons Ratio (y) = 0.53371 0.32017
# Poissons Ratio (z) = -0.96347 1.23746
#
# Static dielectric constant tensor:
#      x y z
#    x 1.835020 0.000000 0.030330 
#    y 0.000000 1.751390 0.000000 
#    z 0.030330 0.000000 1.758670 
# 
# From -- ./inp_files/356635.got.cif
#   From: 2010.05.17/outbox.cif.g08.bks.cpg/sg12_179_cif.got.tgz:356635.got - 2010.06.03 13:09:07.
