data_PCOD9207041
_publ_section_title
;
Structure prediction by ZEFSAII (Michael W. Deem and Ramdas Pophale) SiO2 
 PCOD9207041
Probable space group: C 2/M
;
_chemical_formula_sum "Si O2"
_cell_formula_units_Z 64
_cell_length_a 28.130054
_cell_length_b 10.095394
_cell_length_c 17.756121
_cell_angle_alpha 90.000000
_cell_angle_beta 143.026226
_cell_angle_gamma 90.000000
_cell_volume 3032.780865
_symmetry_space_group_name_H-M "C 2/M"
_symmetry_group_IT_number 12
_symmetry_cell_setting 'monoclinic'
loop_
_space_group_symop_operation_xyz
x,y,z
-x,y,-z
-x,-y,-z
x,-y,z
1/2+x,1/2+y,z
1/2-x,1/2+y,-z
1/2-x,1/2-y,-z
1/2+x,1/2-y,z
loop_
_atom_site_type_symbol
_atom_site_label
_atom_site_fract_x
_atom_site_fract_y
_atom_site_fract_z
Si Si1 0.049337 0.757439 0.133324
Si Si2 0.407592 0.151832 0.058573
Si Si3 0.185399 0.861418 0.408227
Si Si4 0.185073 0.642650 0.211757
Si Si5 0.919061 0.346439 0.348942
Si Si6 0.821551 0.651790 0.370593
Si Si7 0.415133 0.638801 0.569136
Si Si8 0.403110 0.346357 0.186591
O O1 0.114871 0.843031 0.259244
O O2 0.106945 0.653120 0.164319
O O3 0.987769 0.700893 0.116931
O O4 0.000000 0.817712 0.000000
O O5 0.377427 0.252575 0.084691
O O6 0.419144 0.000000 0.100832
O O7 0.344411 0.147820 0.911190
O O8 0.250000 0.750000 0.500000
O O9 0.141915 0.865509 0.432663
O O10 0.227120 0.000000 0.445465
O O11 0.223255 0.500000 0.275341
O O12 0.245399 0.762931 0.297286
O O13 0.927359 0.500000 0.331772
O O14 0.844840 0.343825 0.312298
O O15 0.901367 0.238688 0.261808
O O16 0.000000 0.319117 0.500000
O O17 0.814419 0.500000 0.384327
O O18 0.894552 0.728030 0.500433
O O19 0.406974 0.500000 0.513583
O O20 0.503556 0.641517 0.709880
O O21 0.372212 0.500000 0.151179
#
# Coordination Sequence:
#
# PCOD9207041 Si02
#       8
#     8   8   8   8   8   8   8   8
#     4  10  21  39  64  93 122 161 214 261 303 361
#     4  10  21  39  64  89 118 160 205 247 296 357
#     4  11  24  40  56  85 125 166 208 253 309 365
#     4  10  22  40  61  88 122 159 200 247 300 357
#     4  10  21  39  61  87 118 153 196 246 299 361
#     4  11  23  39  61  90 121 155 198 246 301 363
#     4  10  21  37  56  81 119 157 191 239 297 356
#     4  11  22  37  60  90 119 149 193 246 298 351
#
# _framework density 21.102744000000001
#
# number of rings (size 3 to 8) (size 9 to 14) (size 15 to 20)
#    0.000    1.625    2.500    1.875    0.000    8.000 
#    0.000    3.125    0.000    0.000    0.000    0.000 
#    0.000    0.000    0.000    0.000    0.000    0.000 
#
# Total GULP energy -178352.341198 kJ/mol
# GULP energy per Si atom -5573.510662 kJ/mol
# Density = 2.105471 g / cm^3
# Si number density = 21.102744 Si / 1000 Ang^3
#
#
#
# Elastic Constant Matrix: (Units=GPa)
#
#
# Indices 1 2 3 4 5 6 
#
# 1 51.9701 23.2316 -2.3087 0.0000 -19.2672 0.0000
# 2 23.2316 165.6960 42.5794 0.0000 -24.3316 0.0000
# 3 -2.3087 42.5794 60.9283 0.0000 -11.5707 0.0000
# 4 0.0000 0.0000 0.0000 21.1677 0.0000 0.2286
# 5 -19.2672 -24.3316 -11.5707 0.0000 34.1796 0.0000
# 6 0.0000 0.0000 0.0000 0.2286 0.0000 15.3773
#
#
#
# Elastic Compliance Matrix: (Units=1/GPa)
#
#
# Indices 1 2 3 4 5 6 
#
# 1 0.026304 -0.003056 0.005915 0.000000 0.014654 0.000000
# 2 -0.003056 0.008187 -0.005405 0.000000 0.002275 0.000000
# 3 0.005915 -0.005405 0.021713 0.000000 0.006837 0.000000
# 4 0.000000 0.000000 0.000000 0.047249 0.000000 -0.000702
# 5 0.014654 0.002275 0.006837 0.000000 0.041452 0.000000
# 6 0.000000 0.000000 0.000000 -0.000702 0.000000 0.065041
#
#
# Mechanical properties :
#
#
# Convention : Reuss Voigt Hill
#
# Bulk Modulus (GPa) = 19.56499 45.06655 32.31577
# Shear Modulus (GPa) = 21.54483 28.48440 25.01461
#
# Velocity S-wave (km/s) = 3.19870 3.67794 3.44666
# Velocity P-wave (km/s) = 4.78891 6.28001 5.58445
#
# Compressibility (1/GPa) = 0.05111170
#
# Stress axis : x y z
#
# Youngs Moduli (GPa) = 38.01753 122.14948 46.05638
#
# Poissons Ratio (x) = 0.37330 -0.27244
# Poissons Ratio (y) = 0.11619 0.24893
# Poissons Ratio (z) = -0.22489 0.66021
#
# Static dielectric constant tensor:
#      x y z
#    x 1.770150 0.000000 -0.021490 
#    y 0.000000 1.873730 0.000000 
#    z -0.021490 0.000000 1.764990 
# 
# From -- ./inp_files/295768.got.cif
#   From: 2010.05.17/outbox.cif.g08.bks.cpg/sg12_148_cif.got.tgz:295768.got - 2010.06.03 13:09:07.
