data_PCOD9207862
_publ_section_title
;
Structure prediction by ZEFSAII (Michael W. Deem and Ramdas Pophale) SiO2 
 PCOD9207862
Probable space group: C 2/M
;
_chemical_formula_sum "Si O2"
_cell_formula_units_Z 48
_cell_length_a 33.354782
_cell_length_b 16.030289
_cell_length_c 10.010922
_cell_angle_alpha 90.000000
_cell_angle_beta 149.754720
_cell_angle_gamma 90.000000
_cell_volume 2696.173975
_symmetry_space_group_name_H-M "C 2/M"
_symmetry_group_IT_number 12
_symmetry_cell_setting 'monoclinic'
loop_
_space_group_symop_operation_xyz
x,y,z
-x,y,-z
-x,-y,-z
x,-y,z
1/2+x,1/2+y,z
1/2-x,1/2+y,-z
1/2-x,1/2-y,-z
1/2+x,1/2-y,z
loop_
_atom_site_type_symbol
_atom_site_label
_atom_site_fract_x
_atom_site_fract_y
_atom_site_fract_z
Si Si1 0.010697 0.000000 0.751071
Si Si2 0.832719 0.264742 0.816075
Si Si3 0.132381 0.285255 0.642489
Si Si4 0.483867 0.315188 0.110878
Si Si5 0.723670 0.668047 0.087761
Si Si6 0.364402 0.500000 0.122703
Si Si7 0.096146 0.400572 0.789712
O O1 0.008574 0.912505 0.824479
O O2 0.934855 0.000000 0.434377
O O3 0.089888 0.000000 0.887036
O O4 0.750000 0.250000 0.500000
O O5 0.814740 0.218150 0.902112
O O6 0.899772 0.219938 0.920282
O O7 0.866638 0.353555 0.972173
O O8 0.182193 0.321557 0.661520
O O9 0.128514 0.354158 0.749081
O O10 0.047874 0.245933 0.364727
O O11 0.182677 0.205771 0.838238
O O12 0.500000 0.309706 0.000000
O O13 0.692750 0.576964 0.021227
O O14 0.113391 0.500000 0.841258
O O15 0.000000 0.390336 0.500000
#
# Coordination Sequence:
#
# PCOD9207862 Si02
#       7
#     4   8   8   8   8   4   8
#     4  11  23  38  62  98 122 165 213 261 323 384
#     4  11  23  42  63  90 129 167 208 261 330 387
#     4  10  21  38  62  90 117 165 215 257 313 379
#     4  12  23  40  62  88 129 171 212 259 320 394
#     4  10  21  37  60  88 123 161 204 259 311 379
#     4  11  20  36  66  92 127 157 208 264 316 380
#     4  10  21  40  68  93 119 163 220 270 312 375
#
# _framework density 17.803006
#
# number of rings (size 3 to 8) (size 9 to 14) (size 15 to 20)
#    0.000    1.333    5.000    1.250    1.167    0.000 
#    3.000    0.000    0.000    1.000    0.000    0.000 
#    0.000    0.000    0.000    0.000    0.000    0.000 
#
# Total GULP energy -133654.444294 kJ/mol
# GULP energy per Si atom -5568.935179 kJ/mol
# Density = 1.776249 g / cm^3
# Si number density = 17.803006 Si / 1000 Ang^3
#
#
#
# Elastic Constant Matrix: (Units=GPa)
#
#
# Indices 1 2 3 4 5 6 
#
# 1 113.6186 48.0448 29.9537 0.0000 16.8408 0.0000
# 2 48.0448 144.3481 46.0913 0.0000 4.7069 0.0000
# 3 29.9537 46.0913 97.3228 0.0000 16.5299 0.0000
# 4 0.0000 0.0000 0.0000 12.9922 0.0000 10.5309
# 5 16.8408 4.7069 16.5299 0.0000 35.3898 0.0000
# 6 0.0000 0.0000 0.0000 10.5309 0.0000 21.7739
#
#
#
# Elastic Compliance Matrix: (Units=1/GPa)
#
#
# Indices 1 2 3 4 5 6 
#
# 1 0.011093 -0.003175 -0.001179 0.000000 -0.004306 0.000000
# 2 -0.003175 0.009091 -0.003671 0.000000 0.002016 0.000000
# 3 -0.001179 -0.003671 0.013249 0.000000 -0.005139 0.000000
# 4 0.000000 0.000000 0.000000 0.126600 0.000000 -0.061230
# 5 -0.004306 0.002016 -0.005139 0.000000 0.032438 0.000000
# 6 0.000000 0.000000 0.000000 -0.061230 0.000000 0.075540
#
#
# Mechanical properties :
#
#
# Convention : Reuss Voigt Hill
#
# Bulk Modulus (GPa) = 57.52652 67.05213 62.28932
# Shear Modulus (GPa) = 17.24996 29.44448 23.34722
#
# Velocity S-wave (km/s) = 3.11615 4.07124 3.62528
# Velocity P-wave (km/s) = 6.73277 7.73596 7.25173
#
# Compressibility (1/GPa) = 0.01738329
#
# Stress axis : x y z
#
# Youngs Moduli (GPa) = 90.14561 110.00059 75.47632
#
# Poissons Ratio (x) = 0.34929 0.08899
# Poissons Ratio (y) = 0.28624 0.27704
# Poissons Ratio (z) = 0.10629 0.40376
#
# Static dielectric constant tensor:
#      x y z
#    x 1.534800 0.000000 0.074990 
#    y 0.000000 1.605560 0.000000 
#    z 0.074990 0.000000 1.590300 
# 
# From -- ./inp_files/112975.got.cif
#   From: 2010.05.17/outbox.cif.g08.bks.cpg/sg12_57_cif.got.tgz:112975.got - 2010.06.03 13:09:07.
