data_PCOD9207739
_publ_section_title
;
Structure prediction by ZEFSAII (Michael W. Deem and Ramdas Pophale) SiO2 
 PCOD9207739
Probable space group: C 2/M
;
_chemical_formula_sum "Si O2"
_cell_formula_units_Z 58
_cell_length_a 19.287487
_cell_length_b 18.111337
_cell_length_c 8.672618
_cell_angle_alpha 90.000000
_cell_angle_beta 87.960685
_cell_angle_gamma 90.000000
_cell_volume 3027.619025
_symmetry_space_group_name_H-M "C 2/M"
_symmetry_group_IT_number 12
_symmetry_cell_setting 'monoclinic'
loop_
_space_group_symop_operation_xyz
x,y,z
-x,y,-z
-x,-y,-z
x,-y,z
1/2+x,1/2+y,z
1/2-x,1/2+y,-z
1/2-x,1/2-y,-z
1/2+x,1/2-y,z
loop_
_atom_site_type_symbol
_atom_site_label
_atom_site_fract_x
_atom_site_fract_y
_atom_site_fract_z
Si Si1 0.120506 0.616441 0.892762
Si Si2 0.288601 0.417362 0.342943
Si Si3 0.221495 0.315064 0.110064
Si Si4 0.353820 0.082588 0.462352
Si Si5 0.428335 0.641111 0.440637
Si Si6 0.000000 0.500000 0.000000
Si Si7 0.967362 0.757846 0.160231
Si Si8 0.904535 0.284234 0.654059
O O1 0.143390 0.591158 0.721140
O O2 0.092131 0.699802 0.875181
O O3 0.059264 0.564376 0.958869
O O4 0.183247 0.623480 0.008120
O O5 0.283903 0.500000 0.277460
O O6 0.278031 0.355484 0.212736
O O7 0.223921 0.408779 0.465401
O O8 0.360814 0.408075 0.425703
O O9 0.162452 0.284388 0.230737
O O10 0.250000 0.250000 0.000000
O O11 0.398521 0.145618 0.542087
O O12 0.378335 0.000000 0.502333
O O13 0.500000 0.607600 0.500000
O O14 0.443972 0.677386 0.273823
O O15 0.409897 0.710200 0.553166
O O16 0.026993 0.712978 0.247307
O O17 0.000000 0.786710 0.000000
#
# Coordination Sequence:
#
# PCOD9207739 Si02
#       8
#     8   8   8   8   8   2   8   8
#     4  12  22  38  58  89 127 171 217 252 308 378
#     4  10  24  43  63  90 124 164 201 264 322 375
#     4  11  24  38  64  94 123 169 214 264 313 372
#     4  10  22  39  59  85 128 166 210 256 307 374
#     4  10  22  39  67  90 117 157 205 267 318 378
#     4  12  24  36  60  90 136 180 206 256 318 376
#     4  11  20  38  58  87 124 160 206 262 309 371
#     4  10  21  37  59  90 123 158 214 261 308 372
#
# _framework density 19.156967000000002
#
# number of rings (size 3 to 8) (size 9 to 14) (size 15 to 20)
#    0.000    1.379    4.138    0.828    2.897    1.379 
#    6.207    0.690    0.000    0.414    0.000    0.000 
#    0.000    0.000    0.000    0.000    0.000    0.000 
#
# Total GULP energy -161712.801843 kJ/mol
# GULP energy per Si atom -5576.303512 kJ/mol
# Density = 1.911336 g / cm^3
# Si number density = 19.156967 Si / 1000 Ang^3
#
#
#
# Elastic Constant Matrix: (Units=GPa)
#
#
# Indices 1 2 3 4 5 6 
#
# 1 82.1499 24.2358 26.8647 0.0000 15.6130 0.0000
# 2 24.2358 48.5396 23.4507 0.0000 -5.4500 0.0000
# 3 26.8647 23.4507 92.6779 0.0000 -4.1310 0.0000
# 4 0.0000 0.0000 0.0000 8.9791 0.0000 -9.1765
# 5 15.6130 -5.4500 -4.1310 0.0000 26.0110 0.0000
# 6 0.0000 0.0000 0.0000 -9.1765 0.0000 16.8260
#
#
#
# Elastic Compliance Matrix: (Units=1/GPa)
#
#
# Indices 1 2 3 4 5 6 
#
# 1 0.018667 -0.009056 -0.003730 0.000000 -0.013695 0.000000
# 2 -0.009056 0.028286 -0.004054 0.000000 0.010718 0.000000
# 3 -0.003730 -0.004054 0.013052 0.000000 0.003462 0.000000
# 4 0.000000 0.000000 0.000000 0.251602 0.000000 0.137217
# 5 -0.013695 0.010718 0.003462 0.000000 0.049461 0.000000
# 6 0.000000 0.000000 0.000000 0.137217 0.000000 0.134267
#
#
# Mechanical properties :
#
#
# Convention : Reuss Voigt Hill
#
# Bulk Modulus (GPa) = 37.98902 41.38552 39.68727
# Shear Modulus (GPa) = 9.29731 20.28431 14.79081
#
# Velocity S-wave (km/s) = 2.20539 3.25752 2.78166
# Velocity P-wave (km/s) = 5.13405 5.98322 5.57483
#
# Compressibility (1/GPa) = 0.02632340
#
# Stress axis : x y z
#
# Youngs Moduli (GPa) = 53.57022 35.35366 76.61954
#
# Poissons Ratio (x) = 0.32016 0.28579
# Poissons Ratio (y) = 0.48513 0.31065
# Poissons Ratio (z) = 0.19982 0.14334
#
# Static dielectric constant tensor:
#      x y z
#    x 1.673490 0.000000 0.006480 
#    y 0.000000 1.649340 0.000000 
#    z 0.006480 0.000000 1.668510 
# 
# From -- ./inp_files/75940.got.cif
#   From: 2010.05.17/outbox.cif.g08.bks.cpg/sg12_38_cif.got.tgz:75940.got - 2010.06.03 13:09:07.
