data_PCOD9207067
_publ_section_title
;
Structure prediction by ZEFSAII (Michael W. Deem and Ramdas Pophale) SiO2 
 PCOD9207067
Probable space group: C 2/M
;
_chemical_formula_sum "Si O2"
_cell_formula_units_Z 56
_cell_length_a 10.373323
_cell_length_b 24.340906
_cell_length_c 17.662793
_cell_angle_alpha 90.000000
_cell_angle_beta 144.862379
_cell_angle_gamma 90.000000
_cell_volume 2566.795639
_symmetry_space_group_name_H-M "C 2/M"
_symmetry_group_IT_number 12
_symmetry_cell_setting 'monoclinic'
loop_
_space_group_symop_operation_xyz
x,y,z
-x,y,-z
-x,-y,-z
x,-y,z
1/2+x,1/2+y,z
1/2-x,1/2+y,-z
1/2-x,1/2-y,-z
1/2+x,1/2-y,z
loop_
_atom_site_type_symbol
_atom_site_label
_atom_site_fract_x
_atom_site_fract_y
_atom_site_fract_z
Si Si1 0.174189 0.657068 0.203813
Si Si2 0.860950 0.878376 0.765135
Si Si3 0.739112 0.563053 0.144370
Si Si4 0.659702 0.936354 0.977166
Si Si5 0.767817 0.294852 0.609461
Si Si6 0.985280 0.229652 0.077997
Si Si7 0.826854 0.831048 0.595519
O O1 0.126475 0.672040 0.269516
O O2 0.433886 0.645576 0.316300
O O3 0.024759 0.609923 0.094650
O O4 0.132442 0.715666 0.145419
O O5 0.925483 0.818109 0.825896
O O6 0.701498 0.904954 0.751729
O O7 0.761199 0.869344 0.634152
O O8 0.094744 0.913682 0.880213
O O9 0.704893 0.500000 0.151298
O O10 0.870503 0.562690 0.129269
O O11 0.500000 0.584764 0.000000
O O12 0.634434 0.000000 0.989699
O O13 0.500000 0.292415 0.500000
O O14 0.843317 0.231738 0.635226
O O15 0.806785 0.323107 0.546873
O O16 0.750000 0.250000 0.000000
O O17 0.000000 0.207544 0.000000
#
# Coordination Sequence:
#
# PCOD9207067 Si02
#       7
#     8   8   8   8   8   8   8
#     4  11  22  36  58  80 118 157 194 235 290 353
#     4  11  19  33  56  86 117 152 188 237 296 350
#     4   8  16  32  53  76 109 151 193 232 274 334
#     4  10  21  37  56  83 119 159 197 231 283 351
#     4   9  20  40  59  81 113 155 193 238 292 354
#     4  12  23  33  51  86 127 154 188 239 297 366
#     4  10  21  37  57  84 118 149 191 239 296 349
#
# _framework density 21.817084000000001
#
# number of rings (size 3 to 8) (size 9 to 14) (size 15 to 20)
#    0.000    1.857    2.857    3.429    0.000    0.000 
#    2.571    2.143    0.000    5.571    0.000    2.000 
#    0.000    0.000    0.000    0.000    0.000    0.000 
#
# Total GULP energy -156172.109884 kJ/mol
# GULP energy per Si atom -5577.575353 kJ/mol
# Density = 2.176743 g / cm^3
# Si number density = 21.817084 Si / 1000 Ang^3
#
#
#
# Elastic Constant Matrix: (Units=GPa)
#
#
# Indices 1 2 3 4 5 6 
#
# 1 82.4478 21.0188 42.8793 0.0095 -36.3352 0.0039
# 2 21.0188 133.2142 43.0631 0.0173 -5.6838 0.0099
# 3 42.8793 43.0631 79.4339 0.0543 -32.1567 0.0306
# 4 0.0095 0.0173 0.0543 22.9502 0.0138 -11.2714
# 5 -36.3352 -5.6838 -32.1567 0.0138 47.1917 0.0033
# 6 0.0039 0.0099 0.0306 -11.2714 0.0033 14.8148
#
#
#
# Elastic Compliance Matrix: (Units=1/GPa)
#
#
# Indices 1 2 3 4 5 6 
#
# 1 0.020581 -0.000836 -0.005914 0.000002 0.011716 0.000006
# 2 -0.000836 0.009483 -0.006198 0.000022 -0.003724 0.000024
# 3 -0.005914 -0.006198 0.023470 -0.000123 0.010693 -0.000139
# 4 0.000002 0.000022 -0.000123 0.069567 -0.000104 0.052929
# 5 0.011716 -0.003724 0.010693 -0.000104 0.037048 -0.000110
# 6 0.000006 0.000024 -0.000139 0.052929 -0.000110 0.107770
#
#
# Mechanical properties :
#
#
# Convention : Reuss Voigt Hill
#
# Bulk Modulus (GPa) = 36.17982 56.55759 46.36871
# Shear Modulus (GPa) = 16.50014 29.53364 23.01689
#
# Velocity S-wave (km/s) = 2.75306 3.68325 3.25159
# Velocity P-wave (km/s) = 5.16963 6.63839 5.94951
#
# Compressibility (1/GPa) = 0.02763971
#
# Stress axis : x y z
#
# Youngs Moduli (GPa) = 48.58905 105.45033 42.60694
#
# Poissons Ratio (x) = 0.08812 0.25197
# Poissons Ratio (y) = 0.04060 0.26407
# Poissons Ratio (z) = 0.28735 0.65355
#
# Static dielectric constant tensor:
#      x y z
#    x 1.885770 0.000000 0.034430 
#    y 0.000000 1.772990 0.000000 
#    z 0.034430 0.000000 1.712120 
# 
# From -- ./inp_files/265584.got.cif
#   From: 2010.05.17/outbox.cif.g08.bks.cpg/sg12_133_cif.got.tgz:265584.got - 2010.06.03 13:09:07.
