data_PCOD9207792
_publ_section_title
;
Structure prediction by ZEFSAII (Michael W. Deem and Ramdas Pophale) SiO2 
 PCOD9207792
Probable space group: C 2/M
;
_chemical_formula_sum "Si O2"
_cell_formula_units_Z 40
_cell_length_a 12.519997
_cell_length_b 26.799831
_cell_length_c 5.447090
_cell_angle_alpha 90.000000
_cell_angle_beta 74.459071
_cell_angle_gamma 90.000000
_cell_volume 1760.861476
_symmetry_space_group_name_H-M "C 2/M"
_symmetry_group_IT_number 12
_symmetry_cell_setting 'monoclinic'
loop_
_space_group_symop_operation_xyz
x,y,z
-x,y,-z
-x,-y,-z
x,-y,z
1/2+x,1/2+y,z
1/2-x,1/2+y,-z
1/2-x,1/2-y,-z
1/2+x,1/2-y,z
loop_
_atom_site_type_symbol
_atom_site_label
_atom_site_fract_x
_atom_site_fract_y
_atom_site_fract_z
Si Si1 0.794439 0.671353 0.962195
Si Si2 0.052761 0.940326 0.219481
Si Si3 0.929412 0.772080 0.795409
Si Si4 0.876423 0.585818 0.623261
Si Si5 0.311232 0.926118 0.157618
O O1 0.675191 0.690668 0.120427
O O2 0.839075 0.633448 0.142502
O O3 0.873292 0.717266 0.850672
O O4 0.795848 0.632576 0.733602
O O5 0.183721 0.933396 0.163721
O O6 0.000000 0.918689 0.500000
O O7 0.030485 0.000000 0.232004
O O8 0.000000 0.920086 0.000000
O O9 0.000000 0.776889 0.500000
O O10 0.000000 0.779308 0.000000
O O11 0.834748 0.556167 0.414282
O O12 0.000000 0.604062 0.500000
O O13 0.877944 0.556048 0.879233
#
# Coordination Sequence:
#
# PCOD9207792 Si02
#       5
#     8   8   8   8   8
#     4   9  25  37  59  84 111 154 203 237 298 347
#     4  10  21  39  64  93 125 158 187 228 294 357
#     4  11  25  38  57  81 117 152 192 251 301 348
#     4  10  21  37  60  84 112 154 200 245 290 341
#     4  10  22  36  61  88 115 153 197 246 275 357
#
# _framework density 22.716152000000001
#
# number of rings (size 3 to 8) (size 9 to 14) (size 15 to 20)
#    1.200    0.800    0.000    2.400    8.400    3.200 
#    0.000    0.000    0.000    3.600    0.000    0.000 
#    0.000    0.000    0.000    0.000    0.000    0.000 
#
# Total GULP energy -111485.037847 kJ/mol
# GULP energy per Si atom -5574.251892 kJ/mol
# Density = 2.266445 g / cm^3
# Si number density = 22.716152 Si / 1000 Ang^3
#
#
#
# Elastic Constant Matrix: (Units=GPa)
#
#
# Indices 1 2 3 4 5 6 
#
# 1 86.0743 7.7604 71.0848 0.0000 1.6758 0.0000
# 2 7.7604 93.7507 32.4663 0.0000 0.1604 0.0000
# 3 71.0848 32.4663 207.6110 0.0000 0.0990 0.0000
# 4 0.0000 0.0000 0.0000 6391.3038 0.0000 739.0959
# 5 1.6758 0.1604 0.0990 0.0000 50.0635 0.0000
# 6 0.0000 0.0000 0.0000 739.0959 0.0000 107.9189
#
#
#
# Elastic Compliance Matrix: (Units=1/GPa)
#
#
# Indices 1 2 3 4 5 6 
#
# 1 0.016246 0.000616 -0.005659 0.000000 -0.000535 0.000000
# 2 0.000616 0.011301 -0.001978 0.000000 -0.000053 0.000000
# 3 -0.005659 -0.001978 0.007063 0.000000 0.000182 0.000000
# 4 0.000000 0.000000 0.000000 0.000752 0.000000 -0.005151
# 5 -0.000535 -0.000053 0.000182 0.000000 0.019992 0.000000
# 6 0.000000 0.000000 0.000000 -0.005151 0.000000 0.044545
#
#
# Mechanical properties :
#
#
# Convention : Reuss Voigt Hill
#
# Bulk Modulus (GPa) = 48.61843 67.78434 58.20138
# Shear Modulus (GPa) = 41.39165 1328.26552 684.82859
#
# Velocity S-wave (km/s) = 4.27327 24.20728 17.38179
# Velocity P-wave (km/s) = 6.76733 28.48206 20.70054
#
# Compressibility (1/GPa) = 0.02056833
#
# Stress axis : x y z
#
# Youngs Moduli (GPa) = 61.55405 88.49008 141.57521
#
# Poissons Ratio (x) = -0.05448 0.80111
# Poissons Ratio (y) = -0.03790 0.28004
# Poissons Ratio (z) = 0.34831 0.17503
#
# Static dielectric constant tensor:
#      x y z
#    x 1.826960 0.000000 0.017360 
#    y 0.000000 1.864400 0.000000 
#    z 0.017360 0.000000 1.905760 
# 
# From -- ./inp_files/8316.got.cif
#   From: 2010.05.17/outbox.cif.g08.bks.cpg/sg12_5_cif.got.tgz:8316.got - 2010.06.03 13:09:07.
