data_PCOD9207492
_publ_section_title
;
Structure prediction by ZEFSAII (Michael W. Deem and Ramdas Pophale) SiO2 
 PCOD9207492
Probable space group: C 2/M
;
_chemical_formula_sum "Si O2"
_cell_formula_units_Z 56
_cell_length_a 21.012852
_cell_length_b 8.746696
_cell_length_c 31.707413
_cell_angle_alpha 90.000000
_cell_angle_beta 29.151264
_cell_angle_gamma 90.000000
_cell_volume 2838.723578
_symmetry_space_group_name_H-M "C 2/M"
_symmetry_group_IT_number 12
_symmetry_cell_setting 'monoclinic'
loop_
_space_group_symop_operation_xyz
x,y,z
-x,y,-z
-x,-y,-z
x,-y,z
1/2+x,1/2+y,z
1/2-x,1/2+y,-z
1/2-x,1/2-y,-z
1/2+x,1/2-y,z
loop_
_atom_site_type_symbol
_atom_site_label
_atom_site_fract_x
_atom_site_fract_y
_atom_site_fract_z
Si Si1 0.122231 0.180934 0.458708
Si Si2 0.168711 0.315538 0.271429
Si Si3 0.652151 0.183229 0.904374
Si Si4 0.122676 0.317464 0.551251
Si Si5 0.778821 0.821601 0.297860
Si Si6 0.957493 0.324672 0.877613
Si Si7 0.782603 0.822240 0.047747
O O1 0.123812 0.267303 0.501850
O O2 0.244294 0.223999 0.358803
O O3 0.000000 0.226658 0.500000
O O4 0.115618 0.000000 0.470347
O O5 0.178540 0.500000 0.262369
O O6 0.278727 0.242882 0.177985
O O7 0.195749 0.275192 0.304661
O O8 0.019137 0.268985 0.347941
O O9 0.730417 0.254838 0.898319
O O10 0.657720 0.000000 0.901851
O O11 0.500000 0.228443 0.000000
O O12 0.127684 0.500000 0.551166
O O13 0.250000 0.250000 0.500000
O O14 0.926910 0.790007 0.199340
O O15 0.754511 0.000000 0.320435
O O16 0.004321 0.500000 0.853096
O O17 0.848731 0.314559 0.903954
O O18 0.888492 0.276500 0.960939
O O19 0.822594 0.000000 0.026436
#
# Coordination Sequence:
#
# PCOD9207492 Si02
#       7
#     8   8   8   8   8   8   8
#     4  11  23  40  65  94 124 161 205 255 311 370
#     4  10  23  41  62  88 121 161 204 254 307 372
#     4  11  24  39  59  88 121 158 201 252 305 362
#     4  11  24  44  67  94 130 169 213 264 322 382
#     4  11  22  38  63  92 121 158 204 251 307 368
#     4  10  21  37  58  87 120 154 197 251 303 359
#     4  10  21  38  59  82 116 159 200 245 300 362
#
# _framework density 19.727176
#
# number of rings (size 3 to 8) (size 9 to 14) (size 15 to 20)
#    0.000    1.429    1.429    3.429    0.000    9.143 
#    0.000    1.429    0.000    0.000    0.000    0.000 
#    0.000    0.000    0.000    0.000    0.000    0.000 
#
# Total GULP energy -156477.949153 kJ/mol
# GULP energy per Si atom -5588.498184 kJ/mol
# Density = 1.968228 g / cm^3
# Si number density = 19.727176 Si / 1000 Ang^3
#
#
#
# Elastic Constant Matrix: (Units=GPa)
#
#
# Indices 1 2 3 4 5 6 
#
# 1 64.6144 29.9275 35.0661 -0.0006 8.8311 -0.0085
# 2 29.9275 46.0141 18.2697 -0.0030 -2.0438 -0.0174
# 3 35.0661 18.2697 88.1150 0.0005 -0.6261 0.0001
# 4 -0.0006 -0.0030 0.0005 32.6476 0.0001 2.3205
# 5 8.8311 -2.0438 -0.6261 0.0001 25.0967 -0.0036
# 6 -0.0085 -0.0174 0.0001 2.3205 -0.0036 25.5486
#
#
#
# Elastic Compliance Matrix: (Units=1/GPa)
#
#
# Indices 1 2 3 4 5 6 
#
# 1 0.029055 -0.016122 -0.008303 -0.000001 -0.011744 -0.000003
# 2 -0.016122 0.032710 -0.000307 0.000001 0.008329 0.000018
# 3 -0.008303 -0.000307 0.014740 0.000000 0.003265 -0.000003
# 4 -0.000001 0.000001 0.000000 0.030829 0.000000 -0.002800
# 5 -0.011744 0.008329 0.003265 0.000000 0.044738 0.000008
# 6 -0.000003 0.000018 -0.000003 -0.002800 0.000008 0.039395
#
#
# Mechanical properties :
#
#
# Convention : Reuss Voigt Hill
#
# Bulk Modulus (GPa) = 36.98196 40.58556 38.78376
# Shear Modulus (GPa) = 20.00429 24.35725 22.18077
#
# Velocity S-wave (km/s) = 3.18787 3.51765 3.35681
# Velocity P-wave (km/s) = 5.68660 6.09234 5.89296
#
# Compressibility (1/GPa) = 0.02704021
#
# Stress axis : x y z
#
# Youngs Moduli (GPa) = 34.41742 30.57160 67.84231
#
# Poissons Ratio (x) = 0.49288 0.56332
# Poissons Ratio (y) = 0.55488 0.02082
# Poissons Ratio (z) = 0.28578 0.00938
#
# Static dielectric constant tensor:
#      x y z
#    x 1.686790 0.000000 -0.026040 
#    y 0.000000 1.661950 0.000000 
#    z -0.026040 0.000000 1.696970 
# 
# From -- ./inp_files/329615.got.cif
#   From: 2010.05.17/outbox.cif.g08.bks.cpg/sg12_165_cif.got.tgz:329615.got - 2010.06.03 13:09:07.
