data_PCOD9207709
_publ_section_title
;
Structure prediction by ZEFSAII (Michael W. Deem and Ramdas Pophale) SiO2 
 PCOD9207709
Probable space group: C 2/M
;
_chemical_formula_sum "Si O2"
_cell_formula_units_Z 56
_cell_length_a 23.339421
_cell_length_b 8.891287
_cell_length_c 14.983058
_cell_angle_alpha 90.000000
_cell_angle_beta 67.585371
_cell_angle_gamma 90.000000
_cell_volume 2874.338996
_symmetry_space_group_name_H-M "C 2/M"
_symmetry_group_IT_number 12
_symmetry_cell_setting 'monoclinic'
loop_
_space_group_symop_operation_xyz
x,y,z
-x,y,-z
-x,-y,-z
x,-y,z
1/2+x,1/2+y,z
1/2-x,1/2+y,-z
1/2-x,1/2-y,-z
1/2+x,1/2-y,z
loop_
_atom_site_type_symbol
_atom_site_label
_atom_site_fract_x
_atom_site_fract_y
_atom_site_fract_z
Si Si1 0.443554 0.183189 0.472054
Si Si2 0.669106 0.179524 0.965369
Si Si3 0.579100 0.178250 0.711657
Si Si4 0.327988 0.180206 0.662262
Si Si5 0.937574 0.179231 0.090482
Si Si6 0.273124 0.822592 0.394109
Si Si7 0.815200 0.179383 0.855452
O O1 0.500000 0.233764 0.500000
O O2 0.447455 0.232800 0.367402
O O3 0.379628 0.224864 0.558576
O O4 0.444214 0.000000 0.469013
O O5 0.658173 0.251819 0.069194
O O6 0.662555 0.000000 0.973992
O O7 0.621436 0.244676 0.921995
O O8 0.741036 0.212716 0.899209
O O9 0.556854 0.265034 0.811572
O O10 0.653415 0.194985 0.659656
O O11 0.565878 0.000000 0.729747
O O12 0.263400 0.244710 0.664609
O O13 0.342623 0.247295 0.750241
O O14 0.325869 0.000000 0.668320
O O15 0.929649 0.000000 0.092465
O O16 0.000000 0.218993 0.000000
O O17 0.250000 0.750000 0.500000
O O18 0.259328 0.000000 0.403002
O O19 0.822981 0.000000 0.850410
#
# Coordination Sequence:
#
# PCOD9207709 Si02
#       7
#     8   8   8   8   8   8   8
#     4   9  19  37  58  81 113 151 193 241 283 333
#     4  10  21  39  62  87 115 154 199 243 295 356
#     4  10  21  39  61  87 116 151 199 248 294 353
#     4  11  21  35  56  87 119 154 198 239 289 355
#     4  11  25  42  60  86 120 157 198 250 306 357
#     4  11  21  35  57  87 120 153 192 243 299 353
#     4  10  21  37  59  89 123 154 189 243 300 354
#
# _framework density 19.48274
#
# number of rings (size 3 to 8) (size 9 to 14) (size 15 to 20)
#    0.000    1.714    1.429    3.000    0.000    8.571 
#    0.000    1.429    0.000    3.000    0.000    0.000 
#    0.000    0.000    0.000    0.000    0.000    0.000 
#
# Total GULP energy -156498.256194 kJ/mol
# GULP energy per Si atom -5589.223435 kJ/mol
# Density = 1.943840 g / cm^3
# Si number density = 19.482740 Si / 1000 Ang^3
#
#
#
# Elastic Constant Matrix: (Units=GPa)
#
#
# Indices 1 2 3 4 5 6 
#
# 1 85.6645 25.8694 34.5201 0.0000 28.4410 0.0000
# 2 25.8694 45.7317 44.5745 0.0000 1.0646 0.0000
# 3 34.5201 44.5745 137.8975 0.0000 33.2712 0.0000
# 4 0.0000 0.0000 0.0000 34.0689 0.0000 5.6590
# 5 28.4410 1.0646 33.2712 0.0000 29.1076 0.0000
# 6 0.0000 0.0000 0.0000 5.6590 0.0000 20.7527
#
#
#
# Elastic Compliance Matrix: (Units=1/GPa)
#
#
# Indices 1 2 3 4 5 6 
#
# 1 0.027416 -0.024444 0.010060 0.000000 -0.037393 0.000000
# 2 -0.024444 0.059012 -0.025128 0.000000 0.050448 0.000000
# 3 0.010060 -0.025128 0.020720 0.000000 -0.032595 0.000000
# 4 0.000000 0.000000 0.000000 0.030745 0.000000 -0.008384
# 5 -0.037393 0.050448 -0.032595 0.000000 0.106304 0.000000
# 6 0.000000 0.000000 0.000000 -0.008384 0.000000 0.050473
#
#
# Mechanical properties :
#
#
# Convention : Reuss Voigt Hill
#
# Bulk Modulus (GPa) = 35.55580 53.24686 44.40133
# Shear Modulus (GPa) = 13.05256 27.74116 20.39686
#
# Velocity S-wave (km/s) = 2.59116 3.77753 3.23912
# Velocity P-wave (km/s) = 5.21935 6.81292 6.06867
#
# Compressibility (1/GPa) = 0.02812481
#
# Stress axis : x y z
#
# Youngs Moduli (GPa) = 36.47536 16.94579 48.26235
#
# Poissons Ratio (x) = 0.41422 -0.48553
# Poissons Ratio (y) = 0.89159 1.21273
# Poissons Ratio (z) = -0.36695 0.42581
#
# Static dielectric constant tensor:
#      x y z
#    x 1.679310 0.000000 0.002120 
#    y 0.000000 1.649410 0.000000 
#    z 0.002120 0.000000 1.678710 
# 
# From -- ./inp_files/238371.got.cif
#   From: 2010.05.17/outbox.cif.g08.bks.cpg/sg12_120_cif.got.tgz:238371.got - 2010.06.03 13:09:07.
