data_PCOD9207636
_publ_section_title
;
Structure prediction by ZEFSAII (Michael W. Deem and Ramdas Pophale) SiO2 
 PCOD9207636
Probable space group: C 2/M
;
_chemical_formula_sum "Si O2"
_cell_formula_units_Z 48
_cell_length_a 22.946333
_cell_length_b 18.590622
_cell_length_c 17.277095
_cell_angle_alpha 90.000000
_cell_angle_beta 161.802852
_cell_angle_gamma 90.000000
_cell_volume 2301.615203
_symmetry_space_group_name_H-M "C 2/M"
_symmetry_group_IT_number 12
_symmetry_cell_setting 'monoclinic'
loop_
_space_group_symop_operation_xyz
x,y,z
-x,y,-z
-x,-y,-z
x,-y,z
1/2+x,1/2+y,z
1/2-x,1/2+y,-z
1/2-x,1/2-y,-z
1/2+x,1/2-y,z
loop_
_atom_site_type_symbol
_atom_site_label
_atom_site_fract_x
_atom_site_fract_y
_atom_site_fract_z
Si Si1 0.920191 0.309050 0.729041
Si Si2 0.356640 0.921923 0.532200
Si Si3 0.032241 0.078802 0.864333
Si Si4 0.323212 0.848715 0.332516
Si Si5 0.212477 0.914385 0.583944
Si Si6 0.693424 0.306230 0.697638
O O1 0.750000 0.250000 0.500000
O O2 0.954846 0.353822 0.694365
O O3 0.849522 0.366926 0.703813
O O4 0.125787 0.291833 0.020700
O O5 0.160389 0.924168 0.330473
O O6 0.323874 0.906549 0.401283
O O7 0.447851 0.000000 0.658985
O O8 0.978895 0.092026 0.707751
O O9 0.122805 0.000000 0.983923
O O10 0.153297 0.136407 0.060718
O O11 0.500000 0.853754 0.500000
O O12 0.316979 0.769297 0.361951
O O13 0.210514 0.874883 0.663531
O O14 0.256623 0.000000 0.643036
O O15 0.500000 0.312850 0.500000
#
# Coordination Sequence:
#
# PCOD9207636 Si02
#       6
#     8   8   8   8   8   8
#     4  11  22  40  67  91 117 158 205 251 299 356
#     4  10  21  37  59  87 116 149 194 248 299 350
#     4   9  19  37  60  86 116 150 193 246 299 352
#     4  11  23  37  55  83 120 158 196 239 294 361
#     4  10  22  41  65  90 117 156 206 253 297 354
#     4  11  25  41  59  88 124 160 199 249 306 360
#
# _framework density 20.854918999999999
#
# number of rings (size 3 to 8) (size 9 to 14) (size 15 to 20)
#    0.000    1.667    0.000    6.000    0.000    7.667 
#    0.000    5.833    0.000    0.000    0.000    0.000 
#    0.000    0.000    0.000    0.000    0.000    0.000 
#
# Total GULP energy -133706.548430 kJ/mol
# GULP energy per Si atom -5571.106185 kJ/mol
# Density = 2.080745 g / cm^3
# Si number density = 20.854919 Si / 1000 Ang^3
#
#
#
# Elastic Constant Matrix: (Units=GPa)
#
#
# Indices 1 2 3 4 5 6 
#
# 1 4.4157 56.7691 109.7081 0.0000 -17.9957 0.0000
# 2 56.7691 136.6684 29.3913 0.0000 -17.8802 -0.0001
# 3 109.7081 29.3913 -3.6827 -0.0002 -17.5575 -0.0005
# 4 0.0000 0.0000 -0.0002 20.3491 0.0000 -20.4370
# 5 -17.9957 -17.8802 -17.5575 0.0000 20.4711 -0.0001
# 6 0.0000 -0.0001 -0.0005 -20.4370 -0.0001 6.3503
#
#
#
# Elastic Compliance Matrix: (Units=1/GPa)
#
#
# Indices 1 2 3 4 5 6 
#
# 1 0.002718 -0.002308 0.011941 -0.000001 0.010615 -0.000001
# 2 -0.002308 0.009560 -0.004442 0.000000 0.002511 0.000000
# 3 0.011941 -0.004442 0.003379 0.000000 0.009516 0.000000
# 4 -0.000001 0.000000 0.000000 -0.022015 -0.000001 -0.070851
# 5 0.010615 0.002511 0.009516 -0.000001 0.068535 -0.000001
# 6 -0.000001 0.000000 0.000000 -0.070851 -0.000001 -0.070546
#
#
# Mechanical properties :
#
#
# Convention : Reuss Voigt Hill
#
# Bulk Modulus (GPa) = 38.40453 58.79316 48.59885
# Shear Modulus (GPa) = -496.37333 5.53628 -245.41852
#
# Velocity S-wave (km/s) = -15.44439 1.63108 -10.85976
# Velocity P-wave (km/s) = 17.30849 5.63914 11.57117
#
# Compressibility (1/GPa) = 0.02603860
#
# Stress axis : x y z
#
# Youngs Moduli (GPa) = 367.90859 104.60747 295.97211
#
# Poissons Ratio (x) = 0.24147 -3.53431
# Poissons Ratio (y) = 0.84926 1.31467
# Poissons Ratio (z) = -4.39333 0.46465
#
# Static dielectric constant tensor:
#      x y z
#    x 1.721540 0.000000 -0.046660 
#    y 0.000000 1.823640 0.000000 
#    z -0.046660 0.000000 2.080550 
# 
# From -- ./inp_files/290580.got.cif
#   From: 2010.05.17/outbox.cif.g08.bks.cpg/sg12_146_cif.got.tgz:290580.got - 2010.06.03 13:09:07.
