data_PCOD9207559
_publ_section_title
;
Structure prediction by ZEFSAII (Michael W. Deem and Ramdas Pophale) SiO2 
 PCOD9207559
Probable space group: C 2/M
;
_chemical_formula_sum "Si O2"
_cell_formula_units_Z 56
_cell_length_a 25.609154
_cell_length_b 8.959468
_cell_length_c 15.553319
_cell_angle_alpha 90.000000
_cell_angle_beta 56.014720
_cell_angle_gamma 90.000000
_cell_volume 2959.034204
_symmetry_space_group_name_H-M "C 2/M"
_symmetry_group_IT_number 12
_symmetry_cell_setting 'monoclinic'
loop_
_space_group_symop_operation_xyz
x,y,z
-x,y,-z
-x,-y,-z
x,-y,z
1/2+x,1/2+y,z
1/2-x,1/2+y,-z
1/2-x,1/2-y,-z
1/2+x,1/2-y,z
loop_
_atom_site_type_symbol
_atom_site_label
_atom_site_fract_x
_atom_site_fract_y
_atom_site_fract_z
Si Si1 0.604462 0.323599 0.412829
Si Si2 0.509840 0.676546 0.349563
Si Si3 0.264944 0.178247 0.726956
Si Si4 0.408741 0.674411 0.994211
Si Si5 0.520360 0.175500 0.800153
Si Si6 0.717082 0.178530 0.947540
Si Si7 0.864158 0.826408 0.232589
O O1 0.620157 0.500000 0.397292
O O2 0.551999 0.301184 0.534489
O O3 0.569611 0.288336 0.354776
O O4 0.666789 0.227948 0.367049
O O5 0.512870 0.500000 0.324849
O O6 0.504481 0.773380 0.269710
O O7 0.250268 0.260706 0.830306
O O8 0.208791 0.216753 0.712211
O O9 0.261086 0.000000 0.744729
O O10 0.405639 0.500000 0.973513
O O11 0.476346 0.739723 0.909038
O O12 0.354898 0.765034 0.993377
O O13 0.392149 0.685939 0.110118
O O14 0.592038 0.228553 0.747195
O O15 0.515042 0.000000 0.816828
O O16 0.719947 0.000000 0.948089
O O17 0.750000 0.250000 0.000000
O O18 0.868227 0.000000 0.255056
#
# Coordination Sequence:
#
# PCOD9207559 Si02
#       7
#     8   8   8   8   8   8   8
#     4   9  19  38  63  86 109 145 189 233 284 340
#     4   9  20  39  60  83 113 147 187 233 283 340
#     4  10  21  37  59  84 113 149 185 229 287 341
#     4  10  21  38  58  80 111 152 191 231 283 335
#     4  12  24  35  55  86 116 148 190 238 283 331
#     4  11  22  36  54  80 115 150 189 233 275 329
#     4   9  20  39  58  79 110 152 193 229 279 339
#
# _framework density 18.925094999999999
#
# number of rings (size 3 to 8) (size 9 to 14) (size 15 to 20)
#    0.000    2.000    0.000    5.571    2.000    6.286 
#    0.000    2.143    0.000    0.000    0.000    0.000 
#    0.000    0.000    0.000    0.000    0.000    0.000 
#
# Total GULP energy -156424.101075 kJ/mol
# GULP energy per Si atom -5586.575038 kJ/mol
# Density = 1.888202 g / cm^3
# Si number density = 18.925095 Si / 1000 Ang^3
#
#
#
# Elastic Constant Matrix: (Units=GPa)
#
#
# Indices 1 2 3 4 5 6 
#
# 1 65.2585 29.4941 10.0890 0.0000 -23.7267 0.0000
# 2 29.4941 84.8714 13.0188 0.0000 -8.5483 0.0000
# 3 10.0890 13.0188 14.7035 0.0000 -11.4175 0.0000
# 4 0.0000 0.0000 0.0000 27.6900 0.0000 -7.1160
# 5 -23.7267 -8.5483 -11.4175 0.0000 23.9390 0.0000
# 6 0.0000 0.0000 0.0000 -7.1160 0.0000 26.8055
#
#
#
# Elastic Compliance Matrix: (Units=1/GPa)
#
#
# Indices 1 2 3 4 5 6 
#
# 1 0.028702 -0.008709 0.012217 0.000000 0.031164 0.000000
# 2 -0.008709 0.016307 -0.016905 0.000000 -0.010872 0.000000
# 3 0.012217 -0.016905 0.125961 0.000000 0.066148 0.000000
# 4 0.000000 0.000000 0.000000 0.038758 0.000000 0.010289
# 5 0.031164 -0.010872 0.066148 0.000000 0.100327 0.000000
# 6 0.000000 0.000000 0.000000 0.010289 0.000000 0.040037
#
#
# Mechanical properties :
#
#
# Convention : Reuss Voigt Hill
#
# Bulk Modulus (GPa) = 6.93600 30.00412 18.47006
# Shear Modulus (GPa) = 11.76619 23.16900 17.46759
#
# Velocity S-wave (km/s) = 2.49614 3.50272 3.04136
# Velocity P-wave (km/s) = 3.46130 5.67867 4.70255
#
# Compressibility (1/GPa) = 0.14417524
#
# Stress axis : x y z
#
# Youngs Moduli (GPa) = 34.84094 61.32233 7.93896
#
# Poissons Ratio (x) = 0.53408 -0.09699
# Poissons Ratio (y) = 0.30345 0.13421
# Poissons Ratio (z) = -0.42564 1.03663
#
# Static dielectric constant tensor:
#      x y z
#    x 1.664260 0.000000 -0.015580 
#    y 0.000000 1.628330 0.000000 
#    z -0.015580 0.000000 1.650780 
# 
# From -- ./inp_files/238375.got.cif
#   From: 2010.05.17/outbox.cif.g08.bks.cpg/sg12_120_cif.got.tgz:238375.got - 2010.06.03 13:09:07.
