data_PCOD9207112
_publ_section_title
;
Structure prediction by ZEFSAII (Michael W. Deem and Ramdas Pophale) SiO2 
 PCOD9207112
Probable space group: C 2/M
;
_chemical_formula_sum "Si O2"
_cell_formula_units_Z 40
_cell_length_a 27.913745
_cell_length_b 8.921272
_cell_length_c 9.661984
_cell_angle_alpha 90.000000
_cell_angle_beta 110.579831
_cell_angle_gamma 90.000000
_cell_volume 2252.537894
_symmetry_space_group_name_H-M "C 2/M"
_symmetry_group_IT_number 12
_symmetry_cell_setting 'monoclinic'
loop_
_space_group_symop_operation_xyz
x,y,z
-x,y,-z
-x,-y,-z
x,-y,z
1/2+x,1/2+y,z
1/2-x,1/2+y,-z
1/2-x,1/2-y,-z
1/2+x,1/2-y,z
loop_
_atom_site_type_symbol
_atom_site_label
_atom_site_fract_x
_atom_site_fract_y
_atom_site_fract_z
Si Si1 0.090539 0.319251 0.947875
Si Si2 0.796047 0.678536 0.631747
Si Si3 0.094099 0.821010 0.252655
Si Si4 0.994534 0.679910 0.655753
Si Si5 0.205375 0.677388 0.042922
O O1 0.091976 0.500000 0.972052
O O2 0.046279 0.286297 0.793500
O O3 0.081028 0.242585 0.086281
O O4 0.147052 0.272301 0.953424
O O5 0.799183 0.500000 0.612027
O O6 0.750000 0.750000 0.500000
O O7 0.850375 0.754046 0.653091
O O8 0.786950 0.704284 0.785972
O O9 0.051931 0.763303 0.317093
O O10 0.096034 0.000000 0.250800
O O11 0.986018 0.500000 0.656148
O O12 0.000000 0.719098 0.500000
O O13 0.207113 0.500000 0.020504
O O14 0.250000 0.750000 0.000000
#
# Coordination Sequence:
#
# PCOD9207112 Si02
#       5
#     8   8   8   8   8
#     4   9  19  37  57  77 106 145 187 226 267 323
#     4  10  21  38  58  82 111 144 183 224 269 322
#     4  11  22  36  56  82 110 143 183 225 272 326
#     4  10  21  37  57  81 109 144 184 227 278 329
#     4   9  19  34  53  79 109 142 181 223 267 318
#
# _framework density 17.757747999999999
#
# number of rings (size 3 to 8) (size 9 to 14) (size 15 to 20)
#    0.000    2.200    0.000    4.200    0.000    9.200 
#    0.000    2.000    0.000    0.000    0.000    0.000 
#    0.000    0.000    0.000    0.000    0.000    0.000 
#
# Total GULP energy -111661.984619 kJ/mol
# GULP energy per Si atom -5583.099231 kJ/mol
# Density = 1.771733 g / cm^3
# Si number density = 17.757748 Si / 1000 Ang^3
#
#
#
# Elastic Constant Matrix: (Units=GPa)
#
#
# Indices 1 2 3 4 5 6 
#
# 1 189.2095 93.1917 113.9371 0.0000 -6.3699 0.0000
# 2 93.1917 73.1192 75.5561 0.0000 4.1115 0.0000
# 3 113.9371 75.5561 120.0251 0.0000 17.8844 0.0000
# 4 0.0000 0.0000 0.0000 24.3306 0.0000 -2.7639
# 5 -6.3699 4.1115 17.8844 0.0000 31.1204 0.0000
# 6 0.0000 0.0000 0.0000 -2.7639 0.0000 36.1480
#
#
#
# Elastic Compliance Matrix: (Units=1/GPa)
#
#
# Indices 1 2 3 4 5 6 
#
# 1 0.019362 -0.012715 -0.012267 0.000000 0.012692 0.000000
# 2 -0.012715 0.050435 -0.020012 0.000000 0.002235 0.000000
# 3 -0.012267 -0.020012 0.035602 0.000000 -0.020327 0.000000
# 4 0.000000 0.000000 0.000000 0.041461 0.000000 0.003170
# 5 0.012692 0.002235 -0.020327 0.000000 0.046118 0.000000
# 6 0.000000 0.000000 0.000000 0.003170 0.000000 0.027906
#
#
# Mechanical properties :
#
#
# Convention : Reuss Voigt Hill
#
# Bulk Modulus (GPa) = 64.88467 105.30263 85.09365
# Shear Modulus (GPa) = 15.82240 24.96440 20.39340
#
# Velocity S-wave (km/s) = 2.98822 3.75351 3.39252
# Velocity P-wave (km/s) = 6.96592 8.84383 7.96045
#
# Compressibility (1/GPa) = 0.01541196
#
# Stress axis : x y z
#
# Youngs Moduli (GPa) = 51.64840 19.82759 28.08797
#
# Poissons Ratio (x) = 0.25211 0.34455
# Poissons Ratio (y) = 0.65671 0.56209
# Poissons Ratio (z) = 0.63356 0.39679
#
# Static dielectric constant tensor:
#      x y z
#    x 1.594220 0.000000 0.009150 
#    y 0.000000 1.598930 0.000000 
#    z 0.009150 0.000000 1.588170 
# 
# From -- ./inp_files/93038.got.cif
#   From: 2010.05.17/outbox.cif.g08.bks.cpg/sg12_47_cif.got.tgz:93038.got - 2010.06.03 13:09:07.
