data_PCOD9207403
_publ_section_title
;
Structure prediction by ZEFSAII (Michael W. Deem and Ramdas Pophale) SiO2 
 PCOD9207403
Probable space group: C 2/M
;
_chemical_formula_sum "Si O2"
_cell_formula_units_Z 64
_cell_length_a 30.786809
_cell_length_b 9.230712
_cell_length_c 11.351725
_cell_angle_alpha 90.000000
_cell_angle_beta 92.850961
_cell_angle_gamma 90.000000
_cell_volume 3221.987699
_symmetry_space_group_name_H-M "C 2/M"
_symmetry_group_IT_number 12
_symmetry_cell_setting 'monoclinic'
loop_
_space_group_symop_operation_xyz
x,y,z
-x,y,-z
-x,-y,-z
x,-y,z
1/2+x,1/2+y,z
1/2-x,1/2+y,-z
1/2-x,1/2-y,-z
1/2+x,1/2-y,z
loop_
_atom_site_type_symbol
_atom_site_label
_atom_site_fract_x
_atom_site_fract_y
_atom_site_fract_z
Si Si1 0.387464 0.170789 0.129469
Si Si2 0.186226 0.837087 0.743306
Si Si3 0.617491 0.327977 0.359462
Si Si4 0.361680 0.664426 0.898790
Si Si5 0.794515 0.836356 0.522446
Si Si6 0.530585 0.824935 0.391810
Si Si7 0.988905 0.674768 0.133663
Si Si8 0.759066 0.167640 0.880009
O O1 0.355516 0.258450 0.209716
O O2 0.438149 0.205590 0.149746
O O3 0.381367 0.000000 0.145910
O O4 0.374120 0.218630 0.996667
O O5 0.184457 0.845970 0.603719
O O6 0.229283 0.747759 0.781764
O O7 0.189810 0.000000 0.793753
O O8 0.616721 0.500000 0.388438
O O9 0.612744 0.314642 0.218376
O O10 0.666093 0.272713 0.395857
O O11 0.578197 0.244114 0.414357
O O12 0.369835 0.500000 0.944133
O O13 0.310364 0.673617 0.864737
O O14 0.750000 0.750000 0.500000
O O15 0.784549 0.000000 0.564677
O O16 0.500000 0.785743 0.500000
O O17 0.513347 0.778402 0.258246
O O18 0.533321 0.000000 0.390887
O O19 0.994774 0.500000 0.129723
O O20 0.000000 0.726977 0.000000
O O21 0.746076 0.000000 0.886961
O O22 0.750000 0.250000 0.000000
#
# Coordination Sequence:
#
# PCOD9207403 Si02
#       8
#     8   8   8   8   8   8   8   8
#     4  11  22  35  59  88 115 154 198 241 299 365
#     4  11  23  38  56  83 120 156 196 247 301 356
#     4  10  22  41  63  89 121 160 202 246 304 363
#     4  10  21  37  58  84 120 155 192 247 302 354
#     4  10  23  42  63  88 120 160 204 253 302 360
#     4  10  22  40  63  91 122 157 203 258 309 363
#     4   9  19  37  59  85 118 152 192 246 305 362
#     4  11  21  35  56  83 117 159 199 242 295 353
#
# _framework density 19.863515
#
# number of rings (size 3 to 8) (size 9 to 14) (size 15 to 20)
#    0.000    1.750    1.250    2.625    1.750    4.750 
#    0.000    1.250    0.000    3.375    0.000    0.000 
#    0.000    0.000    0.000    0.000    0.000    0.000 
#
# Total GULP energy -178578.992638 kJ/mol
# GULP energy per Si atom -5580.593520 kJ/mol
# Density = 1.981830 g / cm^3
# Si number density = 19.863515 Si / 1000 Ang^3
#
#
#
# Elastic Constant Matrix: (Units=GPa)
#
#
# Indices 1 2 3 4 5 6 
#
# 1 118.5586 49.7600 28.5865 0.0000 -2.1139 0.0000
# 2 49.7600 68.0381 14.8761 0.0000 -4.5424 0.0000
# 3 28.5865 14.8761 75.5507 0.0000 4.2491 0.0000
# 4 0.0000 0.0000 0.0000 15.7340 0.0000 1.1607
# 5 -2.1139 -4.5424 4.2491 0.0000 22.6312 0.0000
# 6 0.0000 0.0000 0.0000 1.1607 0.0000 23.1110
#
#
#
# Elastic Compliance Matrix: (Units=1/GPa)
#
#
# Indices 1 2 3 4 5 6 
#
# 1 0.012849 -0.008705 -0.003150 0.000000 0.000044 0.000000
# 2 -0.008705 0.021568 -0.001163 0.000000 0.003734 0.000000
# 3 -0.003150 -0.001163 0.014843 0.000000 -0.003315 0.000000
# 4 0.000000 0.000000 0.000000 0.063793 0.000000 -0.003204
# 5 0.000044 0.003734 -0.003315 0.000000 0.045563 0.000000
# 6 0.000000 0.000000 0.000000 -0.003204 0.000000 0.043430
#
#
# Mechanical properties :
#
#
# Convention : Reuss Voigt Hill
#
# Bulk Modulus (GPa) = 43.05973 49.84363 46.45168
# Shear Modulus (GPa) = 21.20231 23.55690 22.37960
#
# Velocity S-wave (km/s) = 3.27065 3.44748 3.36023
# Velocity P-wave (km/s) = 5.99898 6.40268 6.20412
#
# Compressibility (1/GPa) = 0.02322355
#
# Stress axis : x y z
#
# Youngs Moduli (GPa) = 77.82951 46.36544 67.36983
#
# Poissons Ratio (x) = 0.40362 0.21222
# Poissons Ratio (y) = 0.67752 0.07835
# Poissons Ratio (z) = 0.24516 0.05392
#
# Static dielectric constant tensor:
#      x y z
#    x 1.701700 0.000000 0.033800 
#    y 0.000000 1.689780 0.000000 
#    z 0.033800 0.000000 1.771250 
# 
# From -- ./inp_files/187472.got.cif
#   From: 2010.05.17/outbox.cif.g08.bks.cpg/sg12_94_cif.got.tgz:187472.got - 2010.06.03 13:09:07.
