data_PCOD9207956
_publ_section_title
;
Structure prediction by ZEFSAII (Michael W. Deem and Ramdas Pophale) SiO2 
 PCOD9207956
Probable space group: C 2/M
;
_chemical_formula_sum "Si O2"
_cell_formula_units_Z 56
_cell_length_a 30.272069
_cell_length_b 14.673857
_cell_length_c 5.215757
_cell_angle_alpha 90.000000
_cell_angle_beta 91.931771
_cell_angle_gamma 90.000000
_cell_volume 2315.564310
_symmetry_space_group_name_H-M "C 2/M"
_symmetry_group_IT_number 12
_symmetry_cell_setting 'monoclinic'
loop_
_space_group_symop_operation_xyz
x,y,z
-x,y,-z
-x,-y,-z
x,-y,z
1/2+x,1/2+y,z
1/2-x,1/2+y,-z
1/2-x,1/2-y,-z
1/2+x,1/2-y,z
loop_
_atom_site_type_symbol
_atom_site_label
_atom_site_fract_x
_atom_site_fract_y
_atom_site_fract_z
Si Si1 0.385953 0.269850 0.161445
Si Si2 0.101601 0.397259 0.475301
Si Si3 0.073689 0.895529 0.442612
Si Si4 0.760702 0.333308 0.200574
Si Si5 0.695622 0.099994 0.293846
Si Si6 0.165885 0.898136 0.137402
Si Si7 0.460352 0.221353 0.799899
O O1 0.382119 0.186656 0.349679
O O2 0.414727 0.353562 0.280140
O O3 0.341490 0.317588 0.067234
O O4 0.414805 0.229521 0.942731
O O5 0.098661 0.500000 0.582420
O O6 0.142388 0.400513 0.283980
O O7 0.052490 0.361834 0.387559
O O8 0.121989 0.892050 0.308142
O O9 0.039009 0.822171 0.324276
O O10 0.059142 0.000000 0.438437
O O11 0.785796 0.330336 0.482487
O O12 0.713452 0.378793 0.263717
O O13 0.750000 0.250000 0.000000
O O14 0.788331 0.390697 0.995387
O O15 0.710072 0.000000 0.392316
O O16 0.165635 0.000000 0.024677
O O17 0.500000 0.205386 0.000000
#
# Coordination Sequence:
#
# PCOD9207956 Si02
#       7
#     8   8   8   8   8   8   8
#     4  10  21  39  65  88 126 161 215 259 322 384
#     4  10  24  42  65  90 122 165 212 267 332 392
#     4   9  20  37  61  92 129 168 212 255 315 385
#     4  12  26  40  65  97 136 178 228 280 327 386
#     4  11  25  44  63  92 132 177 224 275 330 391
#     4  10  21  37  60  92 129 174 215 262 316 375
#     4  10  23  42  64  92 126 160 204 264 328 396
#
# _framework density 24.184170999999999
#
# number of rings (size 3 to 8) (size 9 to 14) (size 15 to 20)
#    0.000    1.714    0.000    3.000   10.000    4.000 
#    0.000    1.429    0.000    0.000    0.000    0.000 
#    0.000    0.000    0.000    0.000    0.000    0.000 
#
# Total GULP energy -156087.290095 kJ/mol
# GULP energy per Si atom -5574.546075 kJ/mol
# Density = 2.412913 g / cm^3
# Si number density = 24.184171 Si / 1000 Ang^3
#
#
#
# Elastic Constant Matrix: (Units=GPa)
#
#
# Indices 1 2 3 4 5 6 
#
# 1 85.7552 46.7214 20.9845 0.0000 25.9196 0.0000
# 2 46.7214 98.4850 4.6145 0.0000 6.8658 0.0000
# 3 20.9845 4.6145 65.9488 0.0000 6.6993 0.0000
# 4 0.0000 0.0000 0.0000 14.0390 0.0000 -8.5590
# 5 25.9196 6.8658 6.6993 0.0000 41.1642 0.0000
# 6 0.0000 0.0000 0.0000 -8.5590 0.0000 17.1226
#
#
#
# Elastic Compliance Matrix: (Units=1/GPa)
#
#
# Indices 1 2 3 4 5 6 
#
# 1 0.021107 -0.009015 -0.004970 0.000000 -0.010978 0.000000
# 2 -0.009015 0.014144 0.001568 0.000000 0.003062 0.000000
# 3 -0.004970 0.001568 0.016618 0.000000 0.000163 0.000000
# 4 0.000000 0.000000 0.000000 0.102452 0.000000 0.051212
# 5 -0.010978 0.003062 0.000163 0.000000 0.030668 0.000000
# 6 0.000000 0.000000 0.000000 0.051212 0.000000 0.084002
#
#
# Mechanical properties :
#
#
# Convention : Reuss Voigt Hill
#
# Bulk Modulus (GPa) = 36.98999 43.86999 40.42999
# Shear Modulus (GPa) = 16.51057 26.32306 21.41682
#
# Velocity S-wave (km/s) = 2.61569 3.30273 2.97908
# Velocity P-wave (km/s) = 4.94477 5.72044 5.34669
#
# Compressibility (1/GPa) = 0.02703434
#
# Stress axis : x y z
#
# Youngs Moduli (GPa) = 47.37782 70.70327 60.17411
#
# Poissons Ratio (x) = 0.63739 0.29907
# Poissons Ratio (y) = 0.42711 -0.09434
# Poissons Ratio (z) = 0.23547 -0.11085
#
# Static dielectric constant tensor:
#      x y z
#    x 1.910630 0.000000 -0.015730 
#    y 0.000000 2.011890 0.000000 
#    z -0.015730 0.000000 2.098870 
# 
# From -- ./inp_files/31500.got.cif
#   From: 2010.05.17/outbox.cif.g08.bks.cpg/sg12_16_cif.got.tgz:31500.got - 2010.06.03 13:09:07.
