data_PCOD9207618
_publ_section_title
;
Structure prediction by ZEFSAII (Michael W. Deem and Ramdas Pophale) SiO2 
 PCOD9207618
Probable space group: C 2/M
;
_chemical_formula_sum "Si O2"
_cell_formula_units_Z 56
_cell_length_a 31.824239
_cell_length_b 7.908160
_cell_length_c 12.269321
_cell_angle_alpha 90.000000
_cell_angle_beta 59.723404
_cell_angle_gamma 90.000000
_cell_volume 2666.658641
_symmetry_space_group_name_H-M "C 2/M"
_symmetry_group_IT_number 12
_symmetry_cell_setting 'monoclinic'
loop_
_space_group_symop_operation_xyz
x,y,z
-x,y,-z
-x,-y,-z
x,-y,z
1/2+x,1/2+y,z
1/2-x,1/2+y,-z
1/2-x,1/2-y,-z
1/2+x,1/2-y,z
loop_
_atom_site_type_symbol
_atom_site_label
_atom_site_fract_x
_atom_site_fract_y
_atom_site_fract_z
Si Si1 0.395422 0.798266 0.864600
Si Si2 0.830473 0.200264 0.411429
Si Si3 0.256272 0.204835 0.323946
Si Si4 0.519459 0.304701 0.089393
Si Si5 0.567873 0.803871 0.648931
Si Si6 0.786334 0.296040 0.048537
Si Si7 0.056550 0.705794 0.422073
O O1 0.433045 0.769810 0.914152
O O2 0.417495 0.730814 0.721447
O O3 0.391131 0.000000 0.857041
O O4 0.341262 0.731819 0.958149
O O5 0.794029 0.261423 0.554635
O O6 0.800738 0.235303 0.340659
O O7 0.882345 0.287445 0.350323
O O8 0.838318 0.000000 0.412813
O O9 0.264404 0.265058 0.191377
O O10 0.255874 0.000000 0.327502
O O11 0.531144 0.500000 0.052355
O O12 0.475536 0.290188 0.233291
O O13 0.500000 0.229332 0.000000
O O14 0.577504 0.743393 0.512485
O O15 0.552383 0.000000 0.662709
O O16 0.788916 0.500000 0.051857
O O17 0.750000 0.250000 0.000000
O O18 0.058183 0.500000 0.414886
O O19 0.000000 0.755266 0.500000
#
# Coordination Sequence:
#
# PCOD9207618 Si02
#       7
#     8   8   8   8   8   8   8
#     4  10  21  40  63  87 116 158 204 244 293 352
#     4  10  21  37  59  86 119 153 193 248 301 347
#     4   9  20  40  59  83 118 156 201 245 293 356
#     4  11  25  42  59  87 125 158 197 244 296 354
#     4  11  22  37  62  89 117 153 195 239 291 355
#     4  10  23  40  61  88 119 157 203 249 294 354
#     4   9  17  34  58  84 114 145 189 241 282 337
#
# _framework density 21.000063000000001
#
# number of rings (size 3 to 8) (size 9 to 14) (size 15 to 20)
#    0.000    2.000    1.429    1.286    4.000    2.857 
#    0.000    2.143    0.000    0.000    0.000    0.000 
#    0.000    0.000    0.000    0.000    0.000    0.000 
#
# Total GULP energy -156387.219420 kJ/mol
# GULP energy per Si atom -5585.257836 kJ/mol
# Density = 2.095227 g / cm^3
# Si number density = 21.000063 Si / 1000 Ang^3
#
#
#
# Elastic Constant Matrix: (Units=GPa)
#
#
# Indices 1 2 3 4 5 6 
#
# 1 117.4808 -9.6771 61.4156 0.0000 -8.3115 0.0000
# 2 -9.6771 16.5770 0.5084 0.0000 0.0075 0.0000
# 3 61.4156 0.5084 118.6479 0.0000 24.4556 0.0000
# 4 0.0000 0.0000 0.0000 10.1776 0.0000 -0.0416
# 5 -8.3115 0.0075 24.4556 0.0000 25.4931 0.0000
# 6 0.0000 0.0000 0.0000 -0.0416 0.0000 3.7286
#
#
#
# Elastic Compliance Matrix: (Units=1/GPa)
#
#
# Indices 1 2 3 4 5 6 
#
# 1 0.017210 0.010425 -0.012600 0.000000 0.017695 0.000000
# 2 0.010425 0.066649 -0.007950 0.000000 0.011006 0.000000
# 3 -0.012600 -0.007950 0.019733 0.000000 -0.023035 0.000000
# 4 0.000000 0.000000 0.000000 0.098260 0.000000 0.001096
# 5 0.017695 0.011006 -0.023035 0.000000 0.067090 0.000000
# 6 0.000000 0.000000 0.000000 0.001096 0.000000 0.268210
#
#
# Mechanical properties :
#
#
# Convention : Reuss Voigt Hill
#
# Bulk Modulus (GPa) = 11.99907 39.68883 25.84395
# Shear Modulus (GPa) = 8.54434 21.24377 14.89405
#
# Velocity S-wave (km/s) = 2.01930 3.18402 2.66604
# Velocity P-wave (km/s) = 3.34110 5.69717 4.67016
#
# Compressibility (1/GPa) = 0.08333980
#
# Stress axis : x y z
#
# Youngs Moduli (GPa) = 58.10691 15.00400 50.67758
#
# Poissons Ratio (x) = -0.15641 0.63855
# Poissons Ratio (y) = -0.60575 0.40290
# Poissons Ratio (z) = 0.73216 0.11929
#
# Static dielectric constant tensor:
#      x y z
#    x 1.716790 0.000000 0.019700 
#    y 0.000000 1.763780 0.000000 
#    z 0.019700 0.000000 1.762110 
# 
# From -- ./inp_files/187182.got.cif
#   From: 2010.05.17/outbox.cif.g08.bks.cpg/sg12_94_cif.got.tgz:187182.got - 2010.06.03 13:09:07.
