data_PCOD9207090
_publ_section_title
;
Structure prediction by ZEFSAII (Michael W. Deem and Ramdas Pophale) SiO2 
 PCOD9207090
Probable space group: C 2/M
;
_chemical_formula_sum "Si O2"
_cell_formula_units_Z 32
_cell_length_a 13.002028
_cell_length_b 10.854822
_cell_length_c 13.745151
_cell_angle_alpha 90.000000
_cell_angle_beta 44.761787
_cell_angle_gamma 90.000000
_cell_volume 1366.014060
_symmetry_space_group_name_H-M "C 2/M"
_symmetry_group_IT_number 12
_symmetry_cell_setting 'monoclinic'
loop_
_space_group_symop_operation_xyz
x,y,z
-x,y,-z
-x,-y,-z
x,-y,z
1/2+x,1/2+y,z
1/2-x,1/2+y,-z
1/2-x,1/2-y,-z
1/2+x,1/2-y,z
loop_
_atom_site_type_symbol
_atom_site_label
_atom_site_fract_x
_atom_site_fract_y
_atom_site_fract_z
Si Si1 0.088960 0.361904 0.167083
Si Si2 0.149294 0.691396 0.350758
Si Si3 0.513090 0.365788 0.874896
Si Si4 0.247074 0.133103 0.429630
O O1 0.146655 0.500000 0.103789
O O2 0.135587 0.324266 0.244764
O O3 0.312739 0.357161 0.265006
O O4 0.914869 0.378897 0.289396
O O5 0.590045 0.742493 0.096724
O O6 0.160176 0.826329 0.391805
O O7 0.000000 0.637720 0.500000
O O8 0.466036 0.500000 0.871175
O O9 0.500000 0.361061 0.000000
O O10 0.250000 0.250000 0.500000
O O11 0.196729 0.000000 0.502341
#
# Coordination Sequence:
#
# PCOD9207090 Si02
#       4
#     8   8   8   8
#     4  10  22  39  62  91 123 164 210 252 308 375
#     4  11  22  40  62  96 123 167 206 256 304 377
#     4  10  24  44  64  90 125 163 207 261 315 367
#     4  10  21  37  56  88 129 165 201 252 309 365
#
# _framework density 23.425820999999999
#
# number of rings (size 3 to 8) (size 9 to 14) (size 15 to 20)
#    0.000    1.750    2.500    0.750    0.000   10.000 
#    0.000    0.000    0.000    0.000    0.000    0.000 
#    0.000    0.000    0.000    0.000    0.000    0.000 
#
# Total GULP energy -89111.190663 kJ/mol
# GULP energy per Si atom -5569.449416 kJ/mol
# Density = 2.337250 g / cm^3
# Si number density = 23.425821 Si / 1000 Ang^3
#
#
#
# Elastic Constant Matrix: (Units=GPa)
#
#
# Indices 1 2 3 4 5 6 
#
# 1 124.1809 80.9423 27.2034 0.0000 -9.3105 0.0000
# 2 80.9423 231.4160 26.8378 0.0000 21.2126 0.0000
# 3 27.2034 26.8378 107.9816 0.0000 -27.9948 0.0000
# 4 0.0000 0.0000 0.0000 -12.5475 0.0000 37.2400
# 5 -9.3105 21.2126 -27.9948 0.0000 53.5588 0.0000
# 6 0.0000 0.0000 0.0000 37.2400 0.0000 -19.4577
#
#
#
# Elastic Compliance Matrix: (Units=1/GPa)
#
#
# Indices 1 2 3 4 5 6 
#
# 1 0.011146 -0.004056 -0.001019 0.000000 0.003011 0.000000
# 2 -0.004056 0.006293 -0.001586 0.000000 -0.004027 0.000000
# 3 -0.001019 -0.001586 0.011601 0.000000 0.006515 0.000000
# 4 0.000000 0.000000 0.000000 0.017028 0.000000 0.032590
# 5 0.003011 -0.004027 0.006515 0.000000 0.024195 0.000000
# 6 0.000000 0.000000 0.000000 0.032590 0.000000 0.010981
#
#
# Mechanical properties :
#
#
# Convention : Reuss Voigt Hill
#
# Bulk Modulus (GPa) = 63.62677 81.50503 72.56590
# Shear Modulus (GPa) = 50.09776 26.21705 38.15741
#
# Velocity S-wave (km/s) = 4.62948 3.34900 4.04029
# Velocity P-wave (km/s) = 7.46968 7.05852 7.26701
#
# Compressibility (1/GPa) = 0.01571666
#
# Stress axis : x y z
#
# Youngs Moduli (GPa) = 89.72063 158.90582 86.20149
#
# Poissons Ratio (x) = 0.64457 0.08784
# Poissons Ratio (y) = 0.36393 0.13672
# Poissons Ratio (z) = 0.09143 0.25204
#
# Static dielectric constant tensor:
#      x y z
#    x 1.881380 0.000000 -0.016590 
#    y 0.000000 2.029860 0.000000 
#    z -0.016590 0.000000 1.925760 
# 
# From -- ./inp_files/128003.got.cif
#   From: 2010.05.17/outbox.cif.g08.bks.cpg/sg12_65_cif.got.tgz:128003.got - 2010.06.03 13:09:07.
