data_PCOD9207065
_publ_section_title
;
Structure prediction by ZEFSAII (Michael W. Deem and Ramdas Pophale) SiO2 
 PCOD9207065
Probable space group: C 2/M
;
_chemical_formula_sum "Si O2"
_cell_formula_units_Z 64
_cell_length_a 30.957257
_cell_length_b 8.616668
_cell_length_c 26.576630
_cell_angle_alpha 90.000000
_cell_angle_beta 150.819272
_cell_angle_gamma 90.000000
_cell_volume 3456.488923
_symmetry_space_group_name_H-M "C 2/M"
_symmetry_group_IT_number 12
_symmetry_cell_setting 'monoclinic'
loop_
_space_group_symop_operation_xyz
x,y,z
-x,y,-z
-x,-y,-z
x,-y,z
1/2+x,1/2+y,z
1/2-x,1/2+y,-z
1/2-x,1/2-y,-z
1/2+x,1/2-y,z
loop_
_atom_site_type_symbol
_atom_site_label
_atom_site_fract_x
_atom_site_fract_y
_atom_site_fract_z
Si Si1 0.637254 0.314367 0.500231
Si Si2 0.492394 0.813053 0.714486
Si Si3 0.909134 0.186474 0.434749
Si Si4 0.692843 0.813589 0.894973
Si Si5 0.315463 0.186017 0.933940
Si Si6 0.169607 0.688057 0.266310
Si Si7 0.722044 0.683692 0.213192
Si Si8 0.492912 0.810887 0.829607
O O1 0.636967 0.500000 0.493832
O O2 0.584340 0.241723 0.400623
O O3 0.589190 0.277399 0.504247
O O4 0.739377 0.265671 0.612648
O O5 0.590514 0.762340 0.796408
O O6 0.478012 0.759382 0.757191
O O7 0.493013 0.000000 0.715454
O O8 0.824885 0.270947 0.325527
O O9 0.000000 0.227373 0.500000
O O10 0.895105 0.000000 0.415733
O O11 0.737904 0.756198 0.889480
O O12 0.694825 0.000000 0.898945
O O13 0.750000 0.750000 0.000000
O O14 0.309776 0.238726 0.870636
O O15 0.309911 0.000000 0.931153
O O16 0.409802 0.236151 0.053062
O O17 0.170109 0.500000 0.263470
O O18 0.173634 0.753236 0.213983
O O19 0.084377 0.739084 0.211183
O O20 0.711848 0.500000 0.199641
O O21 0.491762 0.000000 0.828399
#
# Coordination Sequence:
#
# PCOD9207065 Si02
#       8
#     8   8   8   8   8   8   8   8
#     4   9  19  34  54  84 114 145 187 233 282 335
#     4  10  21  37  56  83 117 151 189 230 280 339
#     4   9  19  37  58  81 110 149 195 237 279 339
#     4  11  22  38  58  84 118 155 192 237 288 341
#     4  11  22  39  61  85 115 154 198 237 284 344
#     4   9  19  40  64  82 109 150 196 240 284 341
#     4  11  23  38  56  85 120 149 186 236 294 346
#     4   9  19  38  62  84 108 149 199 240 281 340
#
# _framework density 18.515899999999998
#
# number of rings (size 3 to 8) (size 9 to 14) (size 15 to 20)
#    0.000    2.125    1.250    2.625    1.750    4.250 
#    0.000    4.375    0.000    0.000    0.000    0.000 
#    0.000    0.000    0.000    0.000    0.000    0.000 
#
# Total GULP energy -178667.246356 kJ/mol
# GULP energy per Si atom -5583.351449 kJ/mol
# Density = 1.847376 g / cm^3
# Si number density = 18.515900 Si / 1000 Ang^3
#
#
#
# Elastic Constant Matrix: (Units=GPa)
#
#
# Indices 1 2 3 4 5 6 
#
# 1 132.0718 22.7665 44.8668 0.0000 1.9013 0.0000
# 2 22.7665 29.3915 13.7145 0.0000 -3.2832 0.0000
# 3 44.8668 13.7145 54.1629 0.0000 -29.8929 0.0000
# 4 0.0000 0.0000 0.0000 30.4275 0.0000 -7.0021
# 5 1.9013 -3.2832 -29.8929 0.0000 30.8960 0.0000
# 6 0.0000 0.0000 0.0000 -7.0021 0.0000 26.1323
#
#
#
# Elastic Compliance Matrix: (Units=1/GPa)
#
#
# Indices 1 2 3 4 5 6 
#
# 1 0.022203 -0.003125 -0.039781 0.000000 -0.040187 0.000000
# 2 -0.003125 0.041019 -0.011342 0.000000 -0.006423 0.000000
# 3 -0.039781 -0.011342 0.117966 0.000000 0.115378 0.000000
# 4 0.000000 0.000000 0.000000 0.035025 0.000000 0.009385
# 5 -0.040187 -0.006423 0.115378 0.000000 0.145790 0.000000
# 6 0.000000 0.000000 0.000000 0.009385 0.000000 0.040781
#
#
# Mechanical properties :
#
#
# Convention : Reuss Voigt Hill
#
# Bulk Modulus (GPa) = 13.75669 42.03577 27.89623
# Shear Modulus (GPa) = 9.33688 26.44305 17.88997
#
# Velocity S-wave (km/s) = 2.24802 3.78316 3.11174
# Velocity P-wave (km/s) = 3.76615 6.46799 5.29239
#
# Compressibility (1/GPa) = 0.07269191
#
# Stress axis : x y z
#
# Youngs Moduli (GPa) = 45.03894 24.37876 8.47704
#
# Poissons Ratio (x) = 0.07619 0.33722
# Poissons Ratio (y) = 0.14076 0.09615
# Poissons Ratio (z) = 1.79168 0.27651
#
# Static dielectric constant tensor:
#      x y z
#    x 1.628280 0.000000 0.006230 
#    y 0.000000 1.632630 0.000000 
#    z 0.006230 0.000000 1.615070 
# 
# From -- ./inp_files/353553.got.cif
#   From: 2010.05.17/outbox.cif.g08.bks.cpg/sg12_177_cif.got.tgz:353553.got - 2010.06.03 13:09:07.
