data_PCOD9207756
_publ_section_title
;
Structure prediction by ZEFSAII (Michael W. Deem and Ramdas Pophale) SiO2 
 PCOD9207756
Probable space group: C 2/M
;
_chemical_formula_sum "Si O2"
_cell_formula_units_Z 64
_cell_length_a 17.440752
_cell_length_b 14.524164
_cell_length_c 23.519522
_cell_angle_alpha 90.000000
_cell_angle_beta 147.469464
_cell_angle_gamma 90.000000
_cell_volume 3203.793161
_symmetry_space_group_name_H-M "C 2/M"
_symmetry_group_IT_number 12
_symmetry_cell_setting 'monoclinic'
loop_
_space_group_symop_operation_xyz
x,y,z
-x,y,-z
-x,-y,-z
x,-y,z
1/2+x,1/2+y,z
1/2-x,1/2+y,-z
1/2-x,1/2-y,-z
1/2+x,1/2-y,z
loop_
_atom_site_type_symbol
_atom_site_label
_atom_site_fract_x
_atom_site_fract_y
_atom_site_fract_z
Si Si1 0.683801 0.261961 0.720408
Si Si2 0.436178 0.107393 0.703728
Si Si3 0.123142 0.103920 0.121270
Si Si4 0.889022 0.702573 0.560988
Si Si5 0.022001 0.106083 0.845335
Si Si6 0.267273 0.724138 0.644925
Si Si7 0.343910 0.888063 0.064368
Si Si8 0.942112 0.389677 0.901716
O O1 0.753481 0.178280 0.799381
O O2 0.521252 0.271850 0.636748
O O3 0.696915 0.233367 0.662610
O O4 0.787224 0.347530 0.794991
O O5 0.436700 0.127001 0.636771
O O6 0.315234 0.174191 0.654348
O O7 0.581948 0.132554 0.828820
O O8 0.408227 0.000000 0.697549
O O9 0.047784 0.104369 0.135693
O O10 0.174031 0.000000 0.140565
O O11 0.000000 0.127460 0.000000
O O12 0.750000 0.750000 0.500000
O O13 0.838158 0.676505 0.466059
O O14 0.914085 0.166609 0.741095
O O15 0.027764 0.000000 0.828334
O O16 0.182743 0.143644 0.952170
O O17 0.451643 0.856786 0.081878
O O18 0.335984 0.000000 0.056804
O O19 0.937224 0.500000 0.896078
O O20 0.000000 0.363133 0.000000
#
# Coordination Sequence:
#
# PCOD9207756 Si02
#       8
#     8   8   8   8   8   8   8   8
#     4  11  21  38  61  84 118 163 203 251 309 360
#     4  10  21  39  63  90 121 158 203 255 308 362
#     4   9  19  34  52  82 120 155 196 240 289 357
#     4  10  24  41  58  84 116 154 207 261 304 355
#     4   9  19  34  56  86 123 160 193 242 303 359
#     4  10  21  40  60  87 119 163 209 256 298 363
#     4   9  18  35  59  89 123 157 195 242 302 367
#     4  10  21  37  59  91 126 159 199 244 299 371
#
# _framework density 19.976320000000001
#
# number of rings (size 3 to 8) (size 9 to 14) (size 15 to 20)
#    0.000    2.250    1.250    0.750    1.750    3.500 
#    0.000    2.500    0.000    7.500    0.000    0.000 
#    0.000    0.000    0.000    0.000    0.000    0.000 
#
# Total GULP energy -178580.207056 kJ/mol
# GULP energy per Si atom -5580.631471 kJ/mol
# Density = 1.993085 g / cm^3
# Si number density = 19.976320 Si / 1000 Ang^3
#
#
#
# Elastic Constant Matrix: (Units=GPa)
#
#
# Indices 1 2 3 4 5 6 
#
# 1 48.3783 20.8204 52.3174 0.0006 2.3403 0.0002
# 2 20.8204 58.8922 29.6384 0.0011 -1.2764 0.0004
# 3 52.3174 29.6384 130.0632 0.0015 -6.4522 0.0005
# 4 0.0006 0.0011 0.0015 17.3656 0.0004 -7.8513
# 5 2.3403 -1.2764 -6.4522 0.0004 47.5282 0.0001
# 6 0.0002 0.0004 0.0005 -7.8513 0.0001 14.2756
#
#
#
# Elastic Compliance Matrix: (Units=1/GPa)
#
#
# Indices 1 2 3 4 5 6 
#
# 1 0.039516 -0.006729 -0.014565 0.000001 -0.004104 0.000001
# 2 -0.006729 0.020326 -0.001894 -0.000001 0.000620 -0.000001
# 3 -0.014565 -0.001894 0.014107 -0.000001 0.002581 -0.000001
# 4 0.000001 -0.000001 -0.000001 0.076643 -0.000001 0.042152
# 5 -0.004104 0.000620 0.002581 -0.000001 0.021609 -0.000001
# 6 0.000001 -0.000001 -0.000001 0.042152 -0.000001 0.093233
#
#
# Mechanical properties :
#
#
# Convention : Reuss Voigt Hill
#
# Bulk Modulus (GPa) = 36.26895 49.20956 42.73926
# Shear Modulus (GPa) = 15.57619 24.80438 20.19029
#
# Velocity S-wave (km/s) = 2.79540 3.52758 3.18262
# Velocity P-wave (km/s) = 5.34924 6.42489 5.91158
#
# Compressibility (1/GPa) = 0.02757179
#
# Stress axis : x y z
#
# Youngs Moduli (GPa) = 25.30603 49.19827 70.88582
#
# Poissons Ratio (x) = 0.33106 1.03248
# Poissons Ratio (y) = 0.17028 0.13428
# Poissons Ratio (z) = 0.36859 0.09320
#
# Static dielectric constant tensor:
#      x y z
#    x 1.729480 0.000000 -0.023140 
#    y 0.000000 1.715790 0.000000 
#    z -0.023140 0.000000 1.712020 
# 
# From -- ./inp_files/344072.got.cif
#   From: 2010.05.17/outbox.cif.g08.bks.cpg/sg12_173_cif.got.tgz:344072.got - 2010.06.03 13:09:07.
