data_PCOD9207410
_publ_section_title
;
Structure prediction by ZEFSAII (Michael W. Deem and Ramdas Pophale) SiO2 
 PCOD9207410
Probable space group: C 2/M
;
_chemical_formula_sum "Si O2"
_cell_formula_units_Z 40
_cell_length_a 8.937330
_cell_length_b 25.564646
_cell_length_c 9.448995
_cell_angle_alpha 90.000000
_cell_angle_beta 122.972065
_cell_angle_gamma 90.000000
_cell_volume 1811.181750
_symmetry_space_group_name_H-M "C 2/M"
_symmetry_group_IT_number 12
_symmetry_cell_setting 'monoclinic'
loop_
_space_group_symop_operation_xyz
x,y,z
-x,y,-z
-x,-y,-z
x,-y,z
1/2+x,1/2+y,z
1/2-x,1/2+y,-z
1/2-x,1/2-y,-z
1/2+x,1/2-y,z
loop_
_atom_site_type_symbol
_atom_site_label
_atom_site_fract_x
_atom_site_fract_y
_atom_site_fract_z
Si Si1 0.671894 0.174147 0.332086
Si Si2 0.793282 0.371894 0.104120
Si Si3 0.956653 0.869363 0.291433
Si Si4 0.290314 0.292684 0.689869
Si Si5 0.291224 0.061194 0.361964
O O1 0.496465 0.145516 0.187392
O O2 0.835552 0.137310 0.368709
O O3 0.704995 0.231342 0.283747
O O4 0.659807 0.188649 0.493717
O O5 0.726247 0.325649 0.175540
O O6 0.774481 0.423635 0.189279
O O7 0.682938 0.380095 0.906538
O O8 0.028041 0.811397 0.290630
O O9 0.127411 0.907913 0.353627
O O10 0.500000 0.076387 0.500000
O O11 0.274464 0.000000 0.383271
#
# Coordination Sequence:
#
# PCOD9207410 Si02
#       5
#     8   8   8   8   8
#     4  11  22  37  58  89 127 164 203 245 290 347
#     4  11  22  37  60  90 123 160 198 244 303 363
#     4  11  23  37  60  92 123 155 198 255 304 349
#     4  10  21  37  58  84 124 173 209 237 281 350
#     4  10  22  43  68  88 112 154 205 255 311 376
#
# _framework density 22.085028000000001
#
# number of rings (size 3 to 8) (size 9 to 14) (size 15 to 20)
#    0.000    1.400    0.000    7.800    0.000    9.600 
#    0.000    1.000    0.000   16.800    0.000    0.000 
#    0.000    0.000    0.000    0.000    0.000    0.000 
#
# Total GULP energy -111509.699565 kJ/mol
# GULP energy per Si atom -5575.484978 kJ/mol
# Density = 2.203476 g / cm^3
# Si number density = 22.085028 Si / 1000 Ang^3
#
#
#
# Elastic Constant Matrix: (Units=GPa)
#
#
# Indices 1 2 3 4 5 6 
#
# 1 182.7210 63.7510 46.0175 0.0000 19.5051 0.0000
# 2 63.7510 101.4793 22.0555 0.0000 9.0140 0.0000
# 3 46.0175 22.0555 52.6430 0.0000 8.9548 0.0000
# 4 0.0000 0.0000 0.0000 2.9893 0.0000 13.9895
# 5 19.5051 9.0140 8.9548 0.0000 35.2465 0.0000
# 6 0.0000 0.0000 0.0000 13.9895 0.0000 19.9561
#
#
#
# Elastic Compliance Matrix: (Units=1/GPa)
#
#
# Indices 1 2 3 4 5 6 
#
# 1 0.008435 -0.003935 -0.005332 0.000000 -0.002307 0.000000
# 2 -0.003935 0.012775 -0.001805 0.000000 -0.000631 0.000000
# 3 -0.005332 -0.001805 0.024909 0.000000 -0.002916 0.000000
# 4 0.000000 0.000000 0.000000 -0.146682 0.000000 0.102826
# 5 -0.002307 -0.000631 -0.002916 0.000000 0.030550 0.000000
# 6 0.000000 0.000000 0.000000 0.102826 0.000000 -0.021972
#
#
# Mechanical properties :
#
#
# Convention : Reuss Voigt Hill
#
# Bulk Modulus (GPa) = 41.71156 66.72127 54.21641
# Shear Modulus (GPa) = -80.84275 25.30632 -27.76821
#
# Velocity S-wave (km/s) = -6.05679 3.38873 -3.54973
# Velocity P-wave (km/s) = 5.47587 6.75189 2.79310
#
# Compressibility (1/GPa) = 0.02397417
#
# Stress axis : x y z
#
# Youngs Moduli (GPa) = 118.55439 78.27988 40.14570
#
# Poissons Ratio (x) = 0.30804 0.21407
# Poissons Ratio (y) = 0.46653 0.07246
# Poissons Ratio (z) = 0.63216 0.14129
#
# Static dielectric constant tensor:
#      x y z
#    x 1.856870 0.000000 0.025910 
#    y 0.000000 1.798330 0.000000 
#    z 0.025910 0.000000 1.951260 
# 
# From -- ./inp_files/41890.got.cif
#   From: 2010.05.17/outbox.cif.g08.bks.cpg/sg12_21_cif.got.tgz:41890.got - 2010.06.03 13:09:07.
