data_PCOD9207438
_publ_section_title
;
Structure prediction by ZEFSAII (Michael W. Deem and Ramdas Pophale) SiO2 
 PCOD9207438
Probable space group: C 2/M
;
_chemical_formula_sum "Si O2"
_cell_formula_units_Z 48
_cell_length_a 30.376973
_cell_length_b 10.127452
_cell_length_c 14.888523
_cell_angle_alpha 90.000000
_cell_angle_beta 151.174262
_cell_angle_gamma 90.000000
_cell_volume 2208.391263
_symmetry_space_group_name_H-M "C 2/M"
_symmetry_group_IT_number 12
_symmetry_cell_setting 'monoclinic'
loop_
_space_group_symop_operation_xyz
x,y,z
-x,y,-z
-x,-y,-z
x,-y,z
1/2+x,1/2+y,z
1/2-x,1/2+y,-z
1/2-x,1/2-y,-z
1/2+x,1/2-y,z
loop_
_atom_site_type_symbol
_atom_site_label
_atom_site_fract_x
_atom_site_fract_y
_atom_site_fract_z
Si Si1 0.170074 0.348890 0.467466
Si Si2 0.378964 0.651826 0.774421
Si Si3 0.419482 0.346697 0.037644
Si Si4 0.102812 0.147245 0.482572
Si Si5 0.304219 0.651653 0.986766
Si Si6 0.602542 0.228696 0.670361
O O1 0.136079 0.500000 0.413891
O O2 0.274832 0.355090 0.624052
O O3 0.122573 0.257224 0.307739
O O4 0.158621 0.267108 0.538519
O O5 0.403917 0.500000 0.790509
O O6 0.431278 0.701764 0.957059
O O7 0.395918 0.500000 0.977970
O O8 0.339895 0.286150 0.957295
O O9 0.507394 0.343668 0.258377
O O10 0.089921 0.168105 0.565822
O O11 0.141165 0.000000 0.534614
O O12 0.332874 0.500000 0.036938
O O13 0.195078 0.653612 0.804793
O O14 0.360084 0.715290 0.168668
O O15 0.500000 0.169259 0.500000
#
# Coordination Sequence:
#
# PCOD9207438 Si02
#       6
#     8   8   8   8   8   8
#     4  10  21  37  58  85 117 154 193 246 311 364
#     4   9  18  36  60  83 111 151 201 247 293 361
#     4   9  18  34  58  84 112 153 205 251 293 355
#     4  11  22  36  59  87 117 156 204 253 299 359
#     4  10  21  38  60  87 124 166 205 251 310 369
#     4  11  22  37  61  91 123 157 207 264 307 358
#
# _framework density 21.735278000000001
#
# number of rings (size 3 to 8) (size 9 to 14) (size 15 to 20)
#    0.000    2.000    1.667    2.000    0.000    4.333 
#    0.000    4.167    0.000    1.000    0.000    0.000 
#    0.000    0.000    0.000    0.000    0.000    0.000 
#
# Total GULP energy -133741.135461 kJ/mol
# GULP energy per Si atom -5572.547311 kJ/mol
# Density = 2.168581 g / cm^3
# Si number density = 21.735278 Si / 1000 Ang^3
#
#
#
# Elastic Constant Matrix: (Units=GPa)
#
#
# Indices 1 2 3 4 5 6 
#
# 1 98.4391 37.4466 36.0437 0.0000 -14.3129 0.0000
# 2 37.4466 96.2749 28.7468 0.0000 -3.9862 0.0000
# 3 36.0437 28.7468 139.4518 0.0000 -8.8550 0.0000
# 4 0.0000 0.0000 0.0000 10.1303 0.0000 -1.4492
# 5 -14.3129 -3.9862 -8.8550 0.0000 49.8520 0.0000
# 6 0.0000 0.0000 0.0000 -1.4492 0.0000 22.3172
#
#
#
# Elastic Compliance Matrix: (Units=1/GPa)
#
#
# Indices 1 2 3 4 5 6 
#
# 1 0.013063 -0.004268 -0.002306 0.000000 0.002999 0.000000
# 2 -0.004268 0.012474 -0.001500 0.000000 -0.000494 0.000000
# 3 -0.002306 -0.001500 0.008118 0.000000 0.000660 0.000000
# 4 0.000000 0.000000 0.000000 0.099639 0.000000 0.006470
# 5 0.002999 -0.000494 0.000660 0.000000 0.020998 0.000000
# 6 0.000000 0.000000 0.000000 0.006470 0.000000 0.045229
#
#
# Mechanical properties :
#
#
# Convention : Reuss Voigt Hill
#
# Bulk Modulus (GPa) = 57.11837 59.84890 58.48364
# Shear Modulus (GPa) = 22.57292 31.92181 27.24736
#
# Velocity S-wave (km/s) = 3.22613 3.83647 3.54446
# Velocity P-wave (km/s) = 6.34140 6.87167 6.61185
#
# Compressibility (1/GPa) = 0.01750750
#
# Stress axis : x y z
#
# Youngs Moduli (GPa) = 76.55448 80.16467 123.18272
#
# Poissons Ratio (x) = 0.34214 0.28406
# Poissons Ratio (y) = 0.32674 0.18474
# Poissons Ratio (z) = 0.17653 0.12022
#
# Static dielectric constant tensor:
#      x y z
#    x 1.879080 0.000000 0.039690 
#    y 0.000000 1.768550 0.000000 
#    z 0.039690 0.000000 1.844710 
# 
# From -- ./inp_files/250900.got.cif
#   From: 2010.05.17/outbox.cif.g08.bks.cpg/sg12_126_cif.got.tgz:250900.got - 2010.06.03 13:09:07.
