data_PCOD9207376
_publ_section_title
;
Structure prediction by ZEFSAII (Michael W. Deem and Ramdas Pophale) SiO2 
 PCOD9207376
Probable space group: C 2/M
;
_chemical_formula_sum "Si O2"
_cell_formula_units_Z 56
_cell_length_a 18.394977
_cell_length_b 8.423640
_cell_length_c 29.561284
_cell_angle_alpha 90.000000
_cell_angle_beta 38.910510
_cell_angle_gamma 90.000000
_cell_volume 2877.101260
_symmetry_space_group_name_H-M "C 2/M"
_symmetry_group_IT_number 12
_symmetry_cell_setting 'monoclinic'
loop_
_space_group_symop_operation_xyz
x,y,z
-x,y,-z
-x,-y,-z
x,-y,z
1/2+x,1/2+y,z
1/2-x,1/2+y,-z
1/2-x,1/2-y,-z
1/2+x,1/2-y,z
loop_
_atom_site_type_symbol
_atom_site_label
_atom_site_fract_x
_atom_site_fract_y
_atom_site_fract_z
Si Si1 0.201577 0.191969 0.071185
Si Si2 0.987666 0.307984 0.643264
Si Si3 0.868159 0.306201 0.072106
Si Si4 0.061964 0.809626 0.784691
Si Si5 0.227688 0.309627 0.784077
Si Si6 0.845174 0.309765 0.356288
Si Si7 0.914085 0.307953 0.501516
O O1 0.284207 0.245359 0.072193
O O2 0.069694 0.245354 0.142937
O O3 0.202029 0.000000 0.070886
O O4 0.250000 0.250000 0.000000
O O5 0.985686 0.500000 0.644135
O O6 0.858065 0.248283 0.713446
O O7 0.071372 0.254823 0.643360
O O8 0.037643 0.255600 0.570576
O O9 0.868242 0.500000 0.072063
O O10 0.820441 0.254615 0.143908
O O11 0.000000 0.254480 0.000000
O O12 0.145340 0.750491 0.784035
O O13 0.107502 0.751063 0.714381
O O14 0.062651 0.000000 0.784240
O O15 0.226629 0.500000 0.784405
O O16 0.845814 0.500000 0.355601
O O17 0.715058 0.251737 0.427558
O O18 0.911948 0.500000 0.502807
O O19 0.000000 0.255848 0.500000
#
# Coordination Sequence:
#
# PCOD9207376 Si02
#       7
#     8   8   8   8   8   8   8
#     4  10  21  37  58  84 114 151 192 235 287 343
#     4  10  22  39  58  85 121 155 188 233 290 346
#     4   9  18  34  56  82 113 147 185 232 284 338
#     4  11  23  39  58  82 117 156 193 238 293 348
#     4  11  22  37  61  88 113 149 196 241 287 343
#     4  11  23  38  59  87 117 152 196 242 283 334
#     4  10  21  38  60  84 114 155 194 233 290 348
#
# _framework density 19.464034999999999
#
# number of rings (size 3 to 8) (size 9 to 14) (size 15 to 20)
#    0.000    1.714    0.000    4.286    0.000    6.571 
#    0.000    1.429    0.000    3.857    0.000    0.000 
#    0.000    0.000    0.000    0.000    0.000    0.000 
#
# Total GULP energy -156550.635084 kJ/mol
# GULP energy per Si atom -5591.094110 kJ/mol
# Density = 1.941973 g / cm^3
# Si number density = 19.464035 Si / 1000 Ang^3
#
#
#
# Elastic Constant Matrix: (Units=GPa)
#
#
# Indices 1 2 3 4 5 6 
#
# 1 248.1248 32.3219 152.2033 -0.0001 0.0966 0.0002
# 2 32.3219 14.9184 30.3159 -0.0007 0.5088 -0.0021
# 3 152.2033 30.3159 245.9984 -0.0001 0.1781 0.0000
# 4 -0.0001 -0.0007 -0.0001 26.1382 0.0001 7.9609
# 5 0.0966 0.5088 0.1781 0.0001 47.1299 0.0000
# 6 0.0002 -0.0021 0.0000 7.9609 0.0000 -11.1161
#
#
#
# Elastic Compliance Matrix: (Units=1/GPa)
#
#
# Indices 1 2 3 4 5 6 
#
# 1 0.007273 -0.008827 -0.003412 -0.000001 0.000093 0.000001
# 2 -0.008827 0.100180 -0.006884 0.000007 -0.001037 -0.000014
# 3 -0.003412 -0.006884 0.007025 0.000000 0.000055 0.000001
# 4 -0.000001 0.000007 0.000000 0.031408 0.000000 0.022493
# 5 0.000093 -0.001037 0.000055 0.000000 0.021229 0.000000
# 6 0.000001 -0.000014 0.000001 0.022493 0.000000 -0.073851
#
#
# Mechanical properties :
#
#
# Convention : Reuss Voigt Hill
#
# Bulk Modulus (GPa) = 13.11792 104.30265 58.71028
# Shear Modulus (GPa) = 31.86363 32.04376 31.95370
#
# Velocity S-wave (km/s) = 4.05044 4.06187 4.05616
# Velocity P-wave (km/s) = 5.35060 8.70070 7.22257
#
# Compressibility (1/GPa) = 0.07623162
#
# Stress axis : x y z
#
# Youngs Moduli (GPa) = 137.49117 9.98207 142.35686
#
# Poissons Ratio (x) = 0.08811 0.48577
# Poissons Ratio (y) = 1.21362 0.97993
# Poissons Ratio (z) = 0.46916 0.06871
#
# Static dielectric constant tensor:
#      x y z
#    x 1.654270 0.000000 0.005530 
#    y 0.000000 1.673370 0.000000 
#    z 0.005530 0.000000 1.638450 
# 
# From -- ./inp_files/362881.got.cif
#   From: 2010.05.17/outbox.cif.g08.bks.cpg/sg12_182_cif.got.tgz:362881.got - 2010.06.03 13:09:07.
