data_PCOD9207684
_publ_section_title
;
Structure prediction by ZEFSAII (Michael W. Deem and Ramdas Pophale) SiO2 
 PCOD9207684
Probable space group: C 2/M
;
_chemical_formula_sum "Si O2"
_cell_formula_units_Z 56
_cell_length_a 10.430299
_cell_length_b 10.441635
_cell_length_c 28.231702
_cell_angle_alpha 90.000000
_cell_angle_beta 119.092092
_cell_angle_gamma 90.000000
_cell_volume 2686.791214
_symmetry_space_group_name_H-M "C 2/M"
_symmetry_group_IT_number 12
_symmetry_cell_setting 'monoclinic'
loop_
_space_group_symop_operation_xyz
x,y,z
-x,y,-z
-x,-y,-z
x,-y,z
1/2+x,1/2+y,z
1/2-x,1/2+y,-z
1/2-x,1/2-y,-z
1/2+x,1/2-y,z
loop_
_atom_site_type_symbol
_atom_site_label
_atom_site_fract_x
_atom_site_fract_y
_atom_site_fract_z
Si Si1 0.339932 0.351311 0.190469
Si Si2 0.745863 0.144761 0.659201
Si Si3 0.425841 0.351090 0.849007
Si Si4 0.383261 0.351283 0.020991
Si Si5 0.310424 0.636331 0.291523
Si Si6 0.905288 0.856989 0.598365
Si Si7 0.552205 0.137539 0.454959
O O1 0.294784 0.500000 0.171586
O O2 0.467585 0.318633 0.176231
O O3 0.205712 0.250069 0.166492
O O4 0.386333 0.352469 0.254165
O O5 0.764977 0.231539 0.708510
O O6 0.832612 0.206352 0.631119
O O7 0.583718 0.132976 0.606997
O O8 0.797479 0.000000 0.677495
O O9 0.374797 0.500000 0.834041
O O10 0.527981 0.346918 0.913894
O O11 0.332776 0.500000 0.004785
O O12 0.500000 0.322022 0.000000
O O13 0.250000 0.250000 0.000000
O O14 0.226965 0.500000 0.275930
O O15 0.427544 0.628230 0.355105
O O16 0.878566 0.770595 0.548704
O O17 0.843354 0.000000 0.582283
O O18 0.500000 0.144571 0.500000
O O19 0.629238 0.000000 0.462427
#
# Coordination Sequence:
#
# PCOD9207684 Si02
#       7
#     8   8   8   8   8   8   8
#     4  10  22  38  57  83 116 152 193 240 291 347
#     4   9  18  32  51  72  94 128 170 207 256 322
#     4  10  22  39  59  86 120 156 196 242 293 344
#     4  10  21  37  59  88 119 155 199 244 290 345
#     4   9  19  34  50  71  99 131 168 217 268 316
#     4   9  18  32  50  70  94 125 166 211 254 313
#     4   9  18  32  47  68  99 128 159 205 257 311
#
# _framework density 20.842706
#
# number of rings (size 3 to 8) (size 9 to 14) (size 15 to 20)
#    0.000    2.571    0.000    0.857    2.000    3.429 
#    0.000    0.000    0.000    0.000    0.000    0.000 
#    0.000    0.000    0.000    0.000    0.000    0.000 
#
# Total GULP energy -155911.517535 kJ/mol
# GULP energy per Si atom -5568.268483 kJ/mol
# Density = 2.079527 g / cm^3
# Si number density = 20.842706 Si / 1000 Ang^3
#
#
#
# Elastic Constant Matrix: (Units=GPa)
#
#
# Indices 1 2 3 4 5 6 
#
# 1 86.1322 72.1799 34.2918 0.0000 -11.8361 0.0000
# 2 72.1799 119.6805 58.2405 0.0000 -14.8018 0.0000
# 3 34.2918 58.2405 89.6280 0.0000 -16.6096 0.0000
# 4 0.0000 0.0000 0.0000 31.1783 0.0000 -13.2397
# 5 -11.8361 -14.8018 -16.6096 0.0000 39.7432 0.0000
# 6 0.0000 0.0000 0.0000 -13.2397 0.0000 21.2416
#
#
#
# Elastic Compliance Matrix: (Units=1/GPa)
#
#
# Indices 1 2 3 4 5 6 
#
# 1 0.023621 -0.014306 0.000623 0.000000 0.001967 0.000000
# 2 -0.014306 0.020950 -0.008112 0.000000 0.000152 0.000000
# 3 0.000623 -0.008112 0.016979 0.000000 0.004261 0.000000
# 4 0.000000 0.000000 0.000000 0.043618 0.000000 0.027187
# 5 0.001967 0.000152 0.004261 0.000000 0.027585 0.000000
# 6 0.000000 0.000000 0.000000 0.027187 0.000000 0.064023
#
#
# Mechanical properties :
#
#
# Convention : Reuss Voigt Hill
#
# Bulk Modulus (GPa) = 55.67543 69.42944 62.55243
# Shear Modulus (GPa) = 20.29631 27.14786 23.72208
#
# Velocity S-wave (km/s) = 3.12394 3.61295 3.37730
# Velocity P-wave (km/s) = 6.30731 7.12657 6.72942
#
# Compressibility (1/GPa) = 0.01796124
#
# Stress axis : x y z
#
# Youngs Moduli (GPa) = 42.33594 47.73382 58.89527
#
# Poissons Ratio (x) = 0.68286 -0.03670
# Poissons Ratio (y) = 0.60564 0.47773
# Poissons Ratio (z) = -0.02638 0.38719
#
# Static dielectric constant tensor:
#      x y z
#    x 1.772050 0.000000 0.037960 
#    y 0.000000 1.873580 0.000000 
#    z 0.037960 0.000000 1.754970 
# 
# From -- ./inp_files/357530.got.cif
#   From: 2010.05.17/outbox.cif.g08.bks.cpg/sg12_179_cif.got.tgz:357530.got - 2010.06.03 13:09:07.
