data_PCOD9207916
_publ_section_title
;
Structure prediction by ZEFSAII (Michael W. Deem and Ramdas Pophale) SiO2 
 PCOD9207916
Probable space group: C 2/M
;
_chemical_formula_sum "Si O2"
_cell_formula_units_Z 48
_cell_length_a 23.139040
_cell_length_b 11.824919
_cell_length_c 11.283750
_cell_angle_alpha 90.000000
_cell_angle_beta 52.829953
_cell_angle_gamma 90.000000
_cell_volume 2460.205010
_symmetry_space_group_name_H-M "C 2/M"
_symmetry_group_IT_number 12
_symmetry_cell_setting 'monoclinic'
loop_
_space_group_symop_operation_xyz
x,y,z
-x,y,-z
-x,-y,-z
x,-y,z
1/2+x,1/2+y,z
1/2-x,1/2+y,-z
1/2-x,1/2-y,-z
1/2+x,1/2-y,z
loop_
_atom_site_type_symbol
_atom_site_label
_atom_site_fract_x
_atom_site_fract_y
_atom_site_fract_z
Si Si1 0.649534 0.215944 0.698081
Si Si2 0.950656 0.500000 0.177801
Si Si3 0.220548 0.124510 0.152576
Si Si4 0.628849 0.204928 0.108413
Si Si5 0.964053 0.500000 0.677862
Si Si6 0.310792 0.626408 0.536664
Si Si7 0.423658 0.633767 0.025016
O O1 0.594934 0.113932 0.778642
O O2 0.639594 0.281085 0.586647
O O3 0.728812 0.160391 0.604464
O O4 0.636875 0.311598 0.813374
O O5 0.984349 0.500000 0.268652
O O6 0.000000 0.500000 0.000000
O O7 0.176410 0.215367 0.133655
O O8 0.188776 0.127069 0.323249
O O9 0.209966 0.000000 0.112646
O O10 0.307290 0.145727 0.048241
O O11 0.585085 0.111709 0.237158
O O12 0.579777 0.285262 0.085975
O O13 0.000000 0.500000 0.500000
O O14 0.327762 0.500000 0.472846
O O15 0.411562 0.500000 0.015387
O O16 0.500000 0.643965 0.000000
#
# Coordination Sequence:
#
# PCOD9207916 Si02
#       7
#     8   4   8   8   4   8   8
#     4  11  21  38  60  96 127 163 213 267 328 384
#     4  12  26  42  72  96 130 182 222 270 326 397
#     4  10  21  39  66  90 122 166 211 272 316 390
#     4  11  22  42  63  94 125 165 220 262 327 383
#     4  12  28  44  66  96 138 176 217 273 328 395
#     4  10  21  37  60  90 129 165 205 269 327 384
#     4  11  23  40  64  91 125 168 220 267 314 385
#
# _framework density 19.510569
#
# number of rings (size 3 to 8) (size 9 to 14) (size 15 to 20)
#    0.000    1.167    3.333    3.500    2.333    0.000 
#    0.000    0.000    0.000    1.000    0.000    0.000 
#    0.000    0.000    0.000    0.000    0.000    0.000 
#
# Total GULP energy -133899.979056 kJ/mol
# GULP energy per Si atom -5579.165794 kJ/mol
# Density = 1.946616 g / cm^3
# Si number density = 19.510569 Si / 1000 Ang^3
#
#
#
# Elastic Constant Matrix: (Units=GPa)
#
#
# Indices 1 2 3 4 5 6 
#
# 1 62.8136 40.8223 19.3683 0.0000 5.5378 0.0000
# 2 40.8223 169.3867 67.1150 0.0000 -1.3095 0.0000
# 3 19.3683 67.1150 105.5521 0.0000 9.4490 0.0000
# 4 0.0000 0.0000 0.0000 24.5368 0.0000 -2.5120
# 5 5.5378 -1.3095 9.4490 0.0000 20.7778 0.0000
# 6 0.0000 0.0000 0.0000 -2.5120 0.0000 28.7067
#
#
#
# Elastic Compliance Matrix: (Units=1/GPa)
#
#
# Indices 1 2 3 4 5 6 
#
# 1 0.019484 -0.004698 -0.000101 0.000000 -0.005443 0.000000
# 2 -0.004698 0.009196 -0.005367 0.000000 0.004273 0.000000
# 3 -0.000101 -0.005367 0.013482 0.000000 -0.006443 0.000000
# 4 0.000000 0.000000 0.000000 0.041124 0.000000 0.003599
# 5 -0.005443 0.004273 -0.006443 0.000000 0.052778 0.000000
# 6 0.000000 0.000000 0.000000 0.003599 0.000000 0.035150
#
#
# Mechanical properties :
#
#
# Convention : Reuss Voigt Hill
#
# Bulk Modulus (GPa) = 45.80931 65.81817 55.81374
# Shear Modulus (GPa) = 25.14809 28.83404 26.99107
#
# Velocity S-wave (km/s) = 3.59409 3.84848 3.72345
# Velocity P-wave (km/s) = 6.38384 7.31817 6.86691
#
# Compressibility (1/GPa) = 0.02182963
#
# Stress axis : x y z
#
# Youngs Moduli (GPa) = 51.32362 108.74822 74.17248
#
# Poissons Ratio (x) = 0.51088 0.00748
# Poissons Ratio (y) = 0.24111 0.39811
# Poissons Ratio (z) = 0.00518 0.58370
#
# Static dielectric constant tensor:
#      x y z
#    x 1.691930 0.000000 0.010730 
#    y 0.000000 1.675660 0.000000 
#    z 0.010730 0.000000 1.707490 
# 
# From -- ./inp_files/174428.got.cif
#   From: 2010.05.17/outbox.cif.g08.bks.cpg/sg12_88_cif.got.tgz:174428.got - 2010.06.03 13:09:07.
