data_PCOD9207808
_publ_section_title
;
Structure prediction by ZEFSAII (Michael W. Deem and Ramdas Pophale) SiO2 
 PCOD9207808
Probable space group: C 2/M
;
_chemical_formula_sum "Si O2"
_cell_formula_units_Z 56
_cell_length_a 13.876391
_cell_length_b 17.598684
_cell_length_c 12.678141
_cell_angle_alpha 90.000000
_cell_angle_beta 115.025401
_cell_angle_gamma 90.000000
_cell_volume 2805.421866
_symmetry_space_group_name_H-M "C 2/M"
_symmetry_group_IT_number 12
_symmetry_cell_setting 'monoclinic'
loop_
_space_group_symop_operation_xyz
x,y,z
-x,y,-z
-x,-y,-z
x,-y,z
1/2+x,1/2+y,z
1/2-x,1/2+y,-z
1/2-x,1/2-y,-z
1/2+x,1/2-y,z
loop_
_atom_site_type_symbol
_atom_site_label
_atom_site_fract_x
_atom_site_fract_y
_atom_site_fract_z
Si Si1 0.022387 0.157721 0.386984
Si Si2 0.243245 0.665250 0.594073
Si Si3 0.157186 0.910638 0.828265
Si Si4 0.046620 0.325312 0.343077
Si Si5 0.806960 0.814253 0.958609
Si Si6 0.659797 0.914808 0.746864
Si Si7 0.818776 0.294472 0.786032
O O1 0.949771 0.099966 0.288804
O O2 0.000000 0.150416 0.500000
O O3 0.146596 0.151834 0.415440
O O4 0.992602 0.243167 0.335652
O O5 0.145444 0.671802 0.469052
O O6 0.220723 0.598436 0.665641
O O7 0.254250 0.741328 0.671834
O O8 0.246261 0.858349 0.809085
O O9 0.185567 0.000000 0.849314
O O10 0.138210 0.871458 0.933969
O O11 0.090235 0.330379 0.244514
O O12 0.960525 0.388676 0.326252
O O13 0.715628 0.861223 0.857317
O O14 0.864096 0.765905 0.892637
O O15 0.750000 0.750000 0.000000
O O16 0.666205 0.000000 0.786567
#
# Coordination Sequence:
#
# PCOD9207808 Si02
#       7
#     8   8   8   8   8   8   8
#     4  11  21  38  62  87 115 150 198 246 287 339
#     4  10  21  37  60  86 116 155 198 241 280 337
#     4  11  22  37  59  87 120 154 187 235 301 359
#     4  11  20  36  62  87 115 155 199 240 285 340
#     4   9  19  40  63  82 109 150 199 245 285 336
#     4  11  23  38  57  86 123 156 189 237 295 352
#     4   9  19  37  60  86 114 150 198 246 285 334
#
# _framework density 19.961348000000001
#
# number of rings (size 3 to 8) (size 9 to 14) (size 15 to 20)
#    0.000    1.714    0.000    7.714    0.000    2.571 
#    0.000   17.857    0.000   12.857    0.000    0.000 
#    0.000    0.000    0.000    0.000    0.000    0.000 
#
# Total GULP energy -156334.752215 kJ/mol
# GULP energy per Si atom -5583.384008 kJ/mol
# Density = 1.991592 g / cm^3
# Si number density = 19.961348 Si / 1000 Ang^3
#
#
#
# Elastic Constant Matrix: (Units=GPa)
#
#
# Indices 1 2 3 4 5 6 
#
# 1 94.4901 35.3798 39.8024 0.0000 -15.1543 0.0000
# 2 35.3798 106.9840 39.8079 0.0000 -2.8508 0.0000
# 3 39.8024 39.8079 95.6758 0.0000 -24.0777 0.0000
# 4 0.0000 0.0000 0.0000 5.4759 0.0000 -2.1301
# 5 -15.1543 -2.8508 -24.0777 0.0000 21.0308 0.0000
# 6 0.0000 0.0000 0.0000 -2.1301 0.0000 4.8253
#
#
#
# Elastic Compliance Matrix: (Units=1/GPa)
#
#
# Indices 1 2 3 4 5 6 
#
# 1 0.014092 -0.003447 -0.002796 0.000000 0.006486 0.000000
# 2 -0.003447 0.012339 -0.005484 0.000000 -0.007090 0.000000
# 3 -0.002796 -0.005484 0.018546 0.000000 0.018475 0.000000
# 4 0.000000 0.000000 0.000000 0.220477 0.000000 0.097328
# 5 0.006486 -0.007090 0.018475 0.000000 0.072413 0.000000
# 6 0.000000 0.000000 0.000000 0.097328 0.000000 0.250206
#
#
# Mechanical properties :
#
#
# Convention : Reuss Voigt Hill
#
# Bulk Modulus (GPa) = 46.46205 58.56999 52.51602
# Shear Modulus (GPa) = 8.08145 18.41041 13.24593
#
# Velocity S-wave (km/s) = 2.01428 3.04024 2.57880
# Velocity P-wave (km/s) = 5.36063 6.45984 5.93573
#
# Compressibility (1/GPa) = 0.02152294
#
# Stress axis : x y z
#
# Youngs Moduli (GPa) = 70.96369 81.04552 53.91928
#
# Poissons Ratio (x) = 0.27936 0.15075
# Poissons Ratio (y) = 0.24461 0.29569
# Poissons Ratio (z) = 0.19841 0.44445
#
# Static dielectric constant tensor:
#      x y z
#    x 1.711170 0.000000 -0.010720 
#    y 0.000000 1.705430 0.000000 
#    z -0.010720 0.000000 1.725240 
# 
# From -- ./inp_files/146250.got.cif
#   From: 2010.05.17/outbox.cif.g08.bks.cpg/sg12_74_cif.got.tgz:146250.got - 2010.06.03 13:09:07.
