data_PCOD9207246
_publ_section_title
;
Structure prediction by ZEFSAII (Michael W. Deem and Ramdas Pophale) SiO2 
 PCOD9207246
Probable space group: C 2/M
;
_chemical_formula_sum "Si O2"
_cell_formula_units_Z 64
_cell_length_a 30.045118
_cell_length_b 9.336234
_cell_length_c 16.057194
_cell_angle_alpha 90.000000
_cell_angle_beta 133.188696
_cell_angle_gamma 90.000000
_cell_volume 3284.010827
_symmetry_space_group_name_H-M "C 2/M"
_symmetry_group_IT_number 12
_symmetry_cell_setting 'monoclinic'
loop_
_space_group_symop_operation_xyz
x,y,z
-x,y,-z
-x,-y,-z
x,-y,z
1/2+x,1/2+y,z
1/2-x,1/2+y,-z
1/2-x,1/2-y,-z
1/2+x,1/2-y,z
loop_
_atom_site_type_symbol
_atom_site_label
_atom_site_fract_x
_atom_site_fract_y
_atom_site_fract_z
Si Si1 0.436358 0.673442 0.378576
Si Si2 0.916159 0.170819 0.164631
Si Si3 0.724297 0.325100 0.051098
Si Si4 0.017160 0.338394 0.882116
Si Si5 0.401151 0.160715 0.853967
Si Si6 0.309129 0.161089 0.473988
Si Si7 0.806293 0.826643 0.296857
Si Si8 0.330236 0.657397 0.651237
O O1 0.500000 0.725585 0.500000
O O2 0.440687 0.500000 0.380486
O O3 0.425494 0.725609 0.270516
O O4 0.374942 0.703047 0.351494
O O5 0.968532 0.230199 0.172222
O O6 0.919371 0.000000 0.171094
O O7 0.848435 0.205757 0.043645
O O8 0.732500 0.500000 0.060274
O O9 0.759005 0.252369 0.173716
O O10 0.750000 0.250000 0.000000
O O11 0.017527 0.500000 0.849360
O O12 0.956447 0.321340 0.859002
O O13 0.070914 0.325756 0.019327
O O14 0.353742 0.279055 0.767712
O O15 0.375877 0.000000 0.811659
O O16 0.303544 0.259171 0.385363
O O17 0.346256 0.239231 0.594955
O O18 0.242024 0.147296 0.428328
O O19 0.331179 0.000000 0.483265
O O20 0.796458 0.000000 0.284369
O O21 0.355373 0.500000 0.667498
#
# Coordination Sequence:
#
# PCOD9207246 Si02
#       8
#     8   8   8   8   8   8   8   8
#     4   9  19  38  60  82 113 150 188 236 286 336
#     4  10  21  37  57  85 116 148 192 242 293 345
#     4  11  22  38  59  86 120 154 193 243 296 346
#     4   9  20  37  56  82 113 150 191 232 287 346
#     4   9  19  37  57  79 114 152 188 235 287 340
#     4  10  22  39  57  83 118 150 187 239 289 336
#     4  11  22  38  60  88 117 153 198 236 289 356
#     4  10  21  37  58  83 112 150 194 235 284 343
#
# _framework density 19.488365000000002
#
# number of rings (size 3 to 8) (size 9 to 14) (size 15 to 20)
#    0.000    2.125    1.250    2.250    1.750    4.500 
#    0.000    2.500    0.000    2.625    0.000    0.000 
#    0.000    0.000    0.000    0.000    0.000    0.000 
#
# Total GULP energy -178449.855600 kJ/mol
# GULP energy per Si atom -5576.557988 kJ/mol
# Density = 1.944401 g / cm^3
# Si number density = 19.488365 Si / 1000 Ang^3
#
#
#
# Elastic Constant Matrix: (Units=GPa)
#
#
# Indices 1 2 3 4 5 6 
#
# 1 42.8238 18.8429 12.4376 0.0000 -18.3851 0.0000
# 2 18.8429 72.3021 24.9709 0.0000 -2.3605 0.0000
# 3 12.4376 24.9709 66.4721 0.0000 1.9320 0.0000
# 4 0.0000 0.0000 0.0000 15.2230 0.0000 -0.6952
# 5 -18.3851 -2.3605 1.9320 0.0000 27.3416 0.0000
# 6 0.0000 0.0000 0.0000 -0.6952 0.0000 27.0435
#
#
#
# Elastic Compliance Matrix: (Units=1/GPa)
#
#
# Indices 1 2 3 4 5 6 
#
# 1 0.039532 -0.007613 -0.005301 0.000000 0.026299 0.000000
# 2 -0.007613 0.017448 -0.005035 0.000000 -0.003257 0.000000
# 3 -0.005301 -0.005035 0.018081 0.000000 -0.005277 0.000000
# 4 0.000000 0.000000 0.000000 0.065767 0.000000 0.001691
# 5 0.026299 -0.003257 -0.005277 0.000000 0.054350 0.000000
# 6 0.000000 0.000000 0.000000 0.001691 0.000000 0.037021
#
#
# Mechanical properties :
#
#
# Convention : Reuss Voigt Hill
#
# Bulk Modulus (GPa) = 25.53555 32.67788 29.10671
# Shear Modulus (GPa) = 17.78402 22.27807 20.03105
#
# Velocity S-wave (km/s) = 3.02411 3.38471 3.20948
# Velocity P-wave (km/s) = 5.03241 5.66386 5.35745
#
# Compressibility (1/GPa) = 0.03916109
#
# Stress axis : x y z
#
# Youngs Moduli (GPa) = 25.29608 57.31449 55.30743
#
# Poissons Ratio (x) = 0.43634 0.29320
# Poissons Ratio (y) = 0.19258 0.27849
# Poissons Ratio (z) = 0.13410 0.28859
#
# Static dielectric constant tensor:
#      x y z
#    x 1.692900 0.000000 0.037230 
#    y 0.000000 1.686900 0.000000 
#    z 0.037230 0.000000 1.694440 
# 
# From -- ./inp_files/250046.got.cif
#   From: 2010.05.17/outbox.cif.g08.bks.cpg/sg12_126_cif.got.tgz:250046.got - 2010.06.03 13:09:07.
