data_PCOD9207219
_publ_section_title
;
Structure prediction by ZEFSAII (Michael W. Deem and Ramdas Pophale) SiO2 
 PCOD9207219
Probable space group: C 2/M
;
_chemical_formula_sum "Si O2"
_cell_formula_units_Z 48
_cell_length_a 18.377004
_cell_length_b 8.476178
_cell_length_c 31.808896
_cell_angle_alpha 90.000000
_cell_angle_beta 30.000403
_cell_angle_gamma 90.000000
_cell_volume 2477.414468
_symmetry_space_group_name_H-M "C 2/M"
_symmetry_group_IT_number 12
_symmetry_cell_setting 'monoclinic'
loop_
_space_group_symop_operation_xyz
x,y,z
-x,y,-z
-x,-y,-z
x,-y,z
1/2+x,1/2+y,z
1/2-x,1/2+y,-z
1/2-x,1/2-y,-z
1/2+x,1/2-y,z
loop_
_atom_site_type_symbol
_atom_site_label
_atom_site_fract_x
_atom_site_fract_y
_atom_site_fract_z
Si Si1 0.667772 0.192528 0.915866
Si Si2 0.837075 0.189381 0.747301
Si Si3 0.831293 0.809109 0.585127
Si Si4 0.166069 0.190762 0.082950
Si Si5 0.166349 0.310846 0.582827
Si Si6 0.670288 0.689213 0.748724
O O1 0.751287 0.243076 0.832005
O O2 0.752155 0.243692 0.915560
O O3 0.667325 0.000000 0.916096
O O4 0.500000 0.244378 0.000000
O O5 0.753684 0.246245 0.747607
O O6 0.001321 0.251269 0.665548
O O7 0.840483 0.000000 0.745599
O O8 0.749527 0.758245 0.583529
O O9 0.749847 0.745370 0.666750
O O10 0.000000 0.759169 0.500000
O O11 0.828701 0.000000 0.588008
O O12 0.998012 0.242642 0.166908
O O13 0.167633 0.000000 0.081919
O O14 0.250000 0.250000 0.000000
O O15 0.166929 0.500000 0.581855
O O16 0.250000 0.250000 0.500000
O O17 0.672135 0.500000 0.749072
#
# Coordination Sequence:
#
# PCOD9207219 Si02
#       6
#     8   8   8   8   8   8
#     4   9  18  34  57  83 111 148 194 238 283 343
#     4  11  22  38  61  85 115 156 198 241 292 346
#     4  10  22  40  61  86 116 152 194 237 285 346
#     4  10  21  37  57  84 116 150 191 238 289 346
#     4  11  23  39  61  89 121 154 192 238 287 344
#     4  11  23  38  58  86 119 153 195 245 291 342
#
# _framework density 19.375038
#
# number of rings (size 3 to 8) (size 9 to 14) (size 15 to 20)
#    0.000    1.667    0.000    4.500    0.000    7.000 
#    0.000    1.667    0.000    4.500    0.000    0.000 
#    0.000    0.000    0.000    0.000    0.000    0.000 
#
# Total GULP energy -134193.972857 kJ/mol
# GULP energy per Si atom -5591.415536 kJ/mol
# Density = 1.933094 g / cm^3
# Si number density = 19.375038 Si / 1000 Ang^3
#
#
#
# Elastic Constant Matrix: (Units=GPa)
#
#
# Indices 1 2 3 4 5 6 
#
# 1 245.3865 39.8991 150.2151 0.0039 -0.4468 0.0313
# 2 39.8991 24.8481 37.6828 -0.0010 -0.7411 0.0061
# 3 150.2151 37.6828 243.7700 -0.0003 -0.6789 0.0006
# 4 0.0039 -0.0010 -0.0003 27.1219 -0.0029 11.1854
# 5 -0.4468 -0.7411 -0.6789 -0.0029 47.0706 0.0008
# 6 0.0313 0.0061 0.0006 11.1854 0.0008 11.7454
#
#
#
# Elastic Compliance Matrix: (Units=1/GPa)
#
#
# Indices 1 2 3 4 5 6 
#
# 1 0.007236 -0.006347 -0.003478 0.000009 -0.000081 -0.000024
# 2 -0.006347 0.058159 -0.005077 0.000014 0.000782 -0.000026
# 3 -0.003478 -0.005077 0.007030 -0.000007 -0.000012 0.000018
# 4 0.000009 0.000014 -0.000007 0.060718 0.000005 -0.057823
# 5 -0.000081 0.000782 -0.000012 0.000005 0.021256 -0.000006
# 6 -0.000024 -0.000026 0.000018 -0.057823 -0.000006 0.140207
#
#
# Mechanical properties :
#
#
# Convention : Reuss Voigt Hill
#
# Bulk Modulus (GPa) = 23.46261 107.73319 65.59790
# Shear Modulus (GPa) = 14.76590 36.26807 25.51699
#
# Velocity S-wave (km/s) = 2.76363 4.33124 3.63299
# Velocity P-wave (km/s) = 4.72435 8.98541 7.17834
#
# Compressibility (1/GPa) = 0.04262100
#
# Stress axis : x y z
#
# Youngs Moduli (GPa) = 138.19282 17.19421 142.24070
#
# Poissons Ratio (x) = 0.10913 0.49474
# Poissons Ratio (y) = 0.87712 0.72217
# Poissons Ratio (z) = 0.48066 0.08730
#
# Static dielectric constant tensor:
#      x y z
#    x 1.647880 0.000000 -0.010630 
#    y 0.000000 1.665650 0.000000 
#    z -0.010630 0.000000 1.635290 
# 
# From -- ./inp_files/274067.got.cif
#   From: 2010.05.17/outbox.cif.g08.bks.cpg/sg12_138_cif.got.tgz:274067.got - 2010.06.03 13:09:07.
