data_PCOD9207981
_publ_section_title
;
Structure prediction by ZEFSAII (Michael W. Deem and Ramdas Pophale) SiO2 
 PCOD9207981
Probable space group: C 2/M
;
_chemical_formula_sum "Si O2"
_cell_formula_units_Z 44
_cell_length_a 8.991847
_cell_length_b 27.521051
_cell_length_c 9.250251
_cell_angle_alpha 90.000000
_cell_angle_beta 104.055786
_cell_angle_gamma 90.000000
_cell_volume 2220.577384
_symmetry_space_group_name_H-M "C 2/M"
_symmetry_group_IT_number 12
_symmetry_cell_setting 'monoclinic'
loop_
_space_group_symop_operation_xyz
x,y,z
-x,y,-z
-x,-y,-z
x,-y,z
1/2+x,1/2+y,z
1/2-x,1/2+y,-z
1/2-x,1/2-y,-z
1/2+x,1/2-y,z
loop_
_atom_site_type_symbol
_atom_site_label
_atom_site_fract_x
_atom_site_fract_y
_atom_site_fract_z
Si Si1 0.358099 0.812309 0.731867
Si Si2 0.166141 0.593869 0.068448
Si Si3 0.500000 0.139879 0.500000
Si Si4 0.760473 0.872714 0.770560
Si Si5 0.516505 0.553051 0.829082
Si Si6 0.314844 0.766224 0.170444
O O1 0.354657 0.859726 0.832508
O O2 0.388682 0.828559 0.575776
O O3 0.509421 0.781468 0.807444
O O4 0.213445 0.778703 0.729619
O O5 0.304875 0.561802 0.161560
O O6 0.222994 0.612165 0.925710
O O7 0.000000 0.570596 0.000000
O O8 0.384521 0.113335 0.363877
O O9 0.767863 0.814246 0.783888
O O10 0.910474 0.901945 0.756660
O O11 0.465867 0.500000 0.762764
O O12 0.500000 0.551668 0.000000
O O13 0.250000 0.750000 0.000000
#
# Coordination Sequence:
#
# PCOD9207981 Si02
#       6
#     8   8   4   8   8   8
#     4  11  23  35  56  86 120 157 204 238 292 351
#     4  11  18  37  61  88 115 152 199 248 295 355
#     4  10  22  40  57  82 126 164 195 242 294 364
#     4  10  21  37  61  84 122 158 197 244 300 357
#     4   9  21  38  62  93 118 147 200 260 307 349
#     4  11  20  33  57  86 116 157 200 242 282 352
#
# _framework density 19.814665000000002
#
# number of rings (size 3 to 8) (size 9 to 14) (size 15 to 20)
#    0.000    1.636    5.455    0.545    2.545    4.727 
#    0.000    1.364    0.000    2.182    0.000    0.000 
#    0.000    0.000    0.000    0.000    0.000    0.000 
#
# Total GULP energy -122672.604411 kJ/mol
# GULP energy per Si atom -5576.027473 kJ/mol
# Density = 1.976957 g / cm^3
# Si number density = 19.814665 Si / 1000 Ang^3
#
#
#
# Elastic Constant Matrix: (Units=GPa)
#
#
# Indices 1 2 3 4 5 6 
#
# 1 89.6081 41.3640 6.3836 0.0000 -1.8414 0.0000
# 2 41.3640 62.2883 13.5825 0.0000 13.0269 0.0000
# 3 6.3836 13.5825 65.2210 0.0000 -6.6979 0.0000
# 4 0.0000 0.0000 0.0000 0.4094 0.0000 7.4378
# 5 -1.8414 13.0269 -6.6979 0.0000 25.8625 0.0000
# 6 0.0000 0.0000 0.0000 7.4378 0.0000 17.5830
#
#
#
# Elastic Compliance Matrix: (Units=1/GPa)
#
#
# Indices 1 2 3 4 5 6 
#
# 1 0.017683 -0.014062 0.002111 0.000000 0.008889 0.000000
# 2 -0.014062 0.030715 -0.006895 0.000000 -0.018258 0.000000
# 3 0.002111 -0.006895 0.017397 0.000000 0.008129 0.000000
# 4 0.000000 0.000000 0.000000 -0.365381 0.000000 0.154560
# 5 0.008889 -0.018258 0.008129 0.000000 0.050601 0.000000
# 6 0.000000 0.000000 0.000000 0.154560 0.000000 -0.008508
#
#
# Mechanical properties :
#
#
# Convention : Reuss Voigt Hill
#
# Bulk Modulus (GPa) = 35.58574 37.75305 36.66940
# Shear Modulus (GPa) = -23.76054 19.15681 -2.30187
#
# Velocity S-wave (km/s) = -3.46662 3.11271 -1.07899
# Velocity P-wave (km/s) = 1.40537 5.65801 4.12239
#
# Compressibility (1/GPa) = 0.02810114
#
# Stress axis : x y z
#
# Youngs Moduli (GPa) = 56.55079 32.55778 57.48242
#
# Poissons Ratio (x) = 0.45783 -0.12132
# Poissons Ratio (y) = 0.79523 0.39634
# Poissons Ratio (z) = -0.11935 0.22449
#
# Static dielectric constant tensor:
#      x y z
#    x 1.737080 0.000000 0.006510 
#    y 0.000000 1.701560 0.000000 
#    z 0.006510 0.000000 1.711480 
# 
# From -- ./inp_files/41841.got.cif
#   From: 2010.05.17/outbox.cif.g08.bks.cpg/sg12_21_cif.got.tgz:41841.got - 2010.06.03 13:09:07.
