data_PCOD9207137
_publ_section_title
;
Structure prediction by ZEFSAII (Michael W. Deem and Ramdas Pophale) SiO2 
 PCOD9207137
Probable space group: C 2/M
;
_chemical_formula_sum "Si O2"
_cell_formula_units_Z 56
_cell_length_a 24.148339
_cell_length_b 8.862836
_cell_length_c 15.031383
_cell_angle_alpha 90.000000
_cell_angle_beta 68.758102
_cell_angle_gamma 90.000000
_cell_volume 2998.488406
_symmetry_space_group_name_H-M "C 2/M"
_symmetry_group_IT_number 12
_symmetry_cell_setting 'monoclinic'
loop_
_space_group_symop_operation_xyz
x,y,z
-x,y,-z
-x,-y,-z
x,-y,z
1/2+x,1/2+y,z
1/2-x,1/2+y,-z
1/2-x,1/2-y,-z
1/2+x,1/2-y,z
loop_
_atom_site_type_symbol
_atom_site_label
_atom_site_fract_x
_atom_site_fract_y
_atom_site_fract_z
Si Si1 0.758507 0.680348 0.092668
Si Si2 0.562027 0.179327 0.170315
Si Si3 0.382788 0.679302 0.037778
Si Si4 0.360943 0.318979 0.726884
Si Si5 0.676399 0.181703 0.629992
Si Si6 0.068934 0.319282 0.820199
Si Si7 0.687207 0.317990 0.432270
O O1 0.764962 0.500000 0.082688
O O2 0.818480 0.750393 0.096838
O O3 0.700775 0.712759 0.185452
O O4 0.750000 0.750000 0.000000
O O5 0.587147 0.239395 0.248652
O O6 0.492621 0.210825 0.194271
O O7 0.571386 0.000000 0.158438
O O8 0.597527 0.259019 0.069632
O O9 0.379489 0.500000 0.037217
O O10 0.427334 0.736484 0.087772
O O11 0.369705 0.500000 0.724199
O O12 0.351130 0.271322 0.630702
O O13 0.625012 0.228661 0.727669
O O14 0.667269 0.248851 0.537241
O O15 0.743197 0.224471 0.621083
O O16 0.674619 0.000000 0.625677
O O17 0.072780 0.500000 0.833505
O O18 0.685191 0.500000 0.438857
#
# Coordination Sequence:
#
# PCOD9207137 Si02
#       7
#     8   8   8   8   8   8   8
#     4  11  21  35  56  82 113 148 184 227 276 327
#     4  11  23  38  57  79 109 149 192 236 277 330
#     4  12  24  37  56  83 113 149 188 232 283 334
#     4  10  21  37  57  81 114 151 185 225 279 334
#     4   9  18  36  60  84 110 139 177 229 281 332
#     4  10  22  40  59  80 108 147 191 234 283 331
#     4   9  18  34  58  86 112 141 175 221 280 337
#
# _framework density 18.676078
#
# number of rings (size 3 to 8) (size 9 to 14) (size 15 to 20)
#    0.000    1.714    1.429    3.429    0.000    6.857 
#    0.000    3.571    0.000    4.286    0.000    0.000 
#    0.000    0.000    0.000    0.000    0.000    0.000 
#
# Total GULP energy -156460.346628 kJ/mol
# GULP energy per Si atom -5587.869522 kJ/mol
# Density = 1.863357 g / cm^3
# Si number density = 18.676078 Si / 1000 Ang^3
#
#
#
# Elastic Constant Matrix: (Units=GPa)
#
#
# Indices 1 2 3 4 5 6 
#
# 1 107.8218 35.6880 30.6333 0.0000 29.7634 0.0000
# 2 35.6880 31.1319 13.0883 0.0000 8.2949 0.0000
# 3 30.6333 13.0883 48.1967 0.0000 22.0286 0.0000
# 4 0.0000 0.0000 0.0000 25.5073 0.0000 7.8348
# 5 29.7634 8.2949 22.0286 0.0000 34.9323 0.0000
# 6 0.0000 0.0000 0.0000 7.8348 0.0000 29.1549
#
#
#
# Elastic Compliance Matrix: (Units=1/GPa)
#
#
# Indices 1 2 3 4 5 6 
#
# 1 0.018574 -0.017584 -0.002396 0.000000 -0.010139 0.000000
# 2 -0.017584 0.053192 -0.006102 0.000000 0.006199 0.000000
# 3 -0.002396 -0.006102 0.031376 0.000000 -0.016295 0.000000
# 4 0.000000 0.000000 0.000000 0.042732 0.000000 -0.011483
# 5 -0.010139 0.006199 -0.016295 0.000000 0.046070 0.000000
# 6 0.000000 0.000000 0.000000 -0.011483 0.000000 0.037385
#
#
# Mechanical properties :
#
#
# Convention : Reuss Voigt Hill
#
# Bulk Modulus (GPa) = 19.61615 38.44107 29.02861
# Shear Modulus (GPa) = 16.75116 25.10162 20.92639
#
# Velocity S-wave (km/s) = 2.99813 3.67011 3.35101
# Velocity P-wave (km/s) = 4.74460 6.21187 5.52714
#
# Compressibility (1/GPa) = 0.05097841
#
# Stress axis : x y z
#
# Youngs Moduli (GPa) = 53.83781 18.79980 31.87105
#
# Poissons Ratio (x) = 0.33057 0.07638
# Poissons Ratio (y) = 0.94666 0.19448
# Poissons Ratio (z) = 0.12902 0.11472
#
# Static dielectric constant tensor:
#      x y z
#    x 1.662940 0.000000 0.000230 
#    y 0.000000 1.625910 0.000000 
#    z 0.000230 0.000000 1.622120 
# 
# From -- ./inp_files/238365.got.cif
#   From: 2010.05.17/outbox.cif.g08.bks.cpg/sg12_120_cif.got.tgz:238365.got - 2010.06.03 13:09:07.
