data_PCOD9207543
_publ_section_title
;
Structure prediction by ZEFSAII (Michael W. Deem and Ramdas Pophale) SiO2 
 PCOD9207543
Probable space group: C 2/M
;
_chemical_formula_sum "Si O2"
_cell_formula_units_Z 50
_cell_length_a 25.211904
_cell_length_b 7.660353
_cell_length_c 12.261615
_cell_angle_alpha 90.000000
_cell_angle_beta 114.128792
_cell_angle_gamma 90.000000
_cell_volume 2161.206706
_symmetry_space_group_name_H-M "C 2/M"
_symmetry_group_IT_number 12
_symmetry_cell_setting 'monoclinic'
loop_
_space_group_symop_operation_xyz
x,y,z
-x,y,-z
-x,-y,-z
x,-y,z
1/2+x,1/2+y,z
1/2-x,1/2+y,-z
1/2-x,1/2-y,-z
1/2+x,1/2-y,z
loop_
_atom_site_type_symbol
_atom_site_label
_atom_site_fract_x
_atom_site_fract_y
_atom_site_fract_z
Si Si1 0.670345 0.702546 0.408542
Si Si2 0.500000 0.500000 0.000000
Si Si3 0.259596 0.697426 0.325064
Si Si4 0.433195 0.789732 0.312532
Si Si5 0.916552 0.295594 0.049195
Si Si6 0.568675 0.209838 0.452525
Si Si7 0.211127 0.804822 0.068922
O O1 0.686202 0.500000 0.408984
O O2 0.700757 0.771826 0.544724
O O3 0.696031 0.800290 0.327942
O O4 0.603368 0.717322 0.379291
O O5 0.456060 0.657169 0.015696
O O6 0.277905 0.500000 0.318711
O O7 0.253576 0.796298 0.208392
O O8 0.414309 0.737835 0.175974
O O9 0.408756 0.726268 0.409354
O O10 0.501396 0.747640 0.381120
O O11 0.426470 0.000000 0.309793
O O12 0.937779 0.500000 0.062120
O O13 0.848365 0.297762 0.958874
O O14 0.573566 0.000000 0.454755
O O15 0.190930 0.000000 0.034061
O O16 0.250000 0.750000 0.000000
#
# Coordination Sequence:
#
# PCOD9207543 Si02
#       7
#     8   2   8   8   8   8   8
#     4  10  21  37  58  92 128 167 212 269 338 406
#     4  12  26  48  68 104 136 188 238 294 346 428
#     4  10  22  41  62  89 128 171 220 274 339 414
#     4   8  18  37  62  91 125 165 213 268 336 410
#     4  11  24  47  72 101 140 186 236 295 356 414
#     4   9  17  35  61  90 123 163 209 261 330 406
#     4  12  26  46  70 103 138 182 239 295 358 428
#
# _framework density 23.135223
#
# number of rings (size 3 to 8) (size 9 to 14) (size 15 to 20)
#    0.000    1.920    0.800    3.600    2.240    3.200 
#    5.760    4.000    0.000    0.000    0.000    0.000 
#    0.000    0.000    0.000    0.000    0.000    0.000 
#
# Total GULP energy -139239.288130 kJ/mol
# GULP energy per Si atom -5569.571525 kJ/mol
# Density = 2.308257 g / cm^3
# Si number density = 23.135223 Si / 1000 Ang^3
#
#
#
# Elastic Constant Matrix: (Units=GPa)
#
#
# Indices 1 2 3 4 5 6 
#
# 1 64.5873 15.7356 -7.4862 0.0000 -20.1221 0.0000
# 2 15.7356 102.8022 10.7030 0.0000 -3.5627 0.0000
# 3 -7.4862 10.7030 82.2695 0.0000 -11.0953 0.0000
# 4 0.0000 0.0000 0.0000 13.8100 0.0000 -1.7192
# 5 -20.1221 -3.5627 -11.0953 0.0000 21.3280 0.0000
# 6 0.0000 0.0000 0.0000 -1.7192 0.0000 30.3281
#
#
#
# Elastic Compliance Matrix: (Units=1/GPa)
#
#
# Indices 1 2 3 4 5 6 
#
# 1 0.025429 -0.003632 0.006388 0.000000 0.026708 0.000000
# 2 -0.003632 0.010402 -0.002056 0.000000 -0.002758 0.000000
# 3 0.006388 -0.002056 0.014810 0.000000 0.013388 0.000000
# 4 0.000000 0.000000 0.000000 0.072926 0.000000 0.004134
# 5 0.026708 -0.002758 0.013388 0.000000 0.078589 0.000000
# 6 0.000000 0.000000 0.000000 0.004134 0.000000 0.033207
#
#
# Mechanical properties :
#
#
# Convention : Reuss Voigt Hill
#
# Bulk Modulus (GPa) = 19.21516 31.95151 25.58333
# Shear Modulus (GPa) = 19.89587 28.47364 24.18476
#
# Velocity S-wave (km/s) = 2.93573 3.51201 3.23672
# Velocity P-wave (km/s) = 4.45140 5.50330 5.00506
#
# Compressibility (1/GPa) = 0.05204223
#
# Stress axis : x y z
#
# Youngs Moduli (GPa) = 39.32491 96.13750 67.52394
#
# Poissons Ratio (x) = 0.34916 -0.43138
# Poissons Ratio (y) = 0.14282 0.13881
# Poissons Ratio (z) = -0.25123 0.19763
#
# Static dielectric constant tensor:
#      x y z
#    x 1.826420 0.000000 -0.020250 
#    y 0.000000 1.849370 0.000000 
#    z -0.020250 0.000000 1.874180 
# 
# From -- ./inp_files/181200.got.cif
#   From: 2010.05.17/outbox.cif.g08.bks.cpg/sg12_91_cif.got.tgz:181200.got - 2010.06.03 13:09:07.
