data_PCOD9207791
_publ_section_title
;
Structure prediction by ZEFSAII (Michael W. Deem and Ramdas Pophale) SiO2 
 PCOD9207791
Probable space group: C 2/M
;
_chemical_formula_sum "Si O2"
_cell_formula_units_Z 56
_cell_length_a 19.874381
_cell_length_b 19.635674
_cell_length_c 16.238878
_cell_angle_alpha 90.000000
_cell_angle_beta 149.788345
_cell_angle_gamma 90.000000
_cell_volume 3188.837611
_symmetry_space_group_name_H-M "C 2/M"
_symmetry_group_IT_number 12
_symmetry_cell_setting 'monoclinic'
loop_
_space_group_symop_operation_xyz
x,y,z
-x,y,-z
-x,-y,-z
x,-y,z
1/2+x,1/2+y,z
1/2-x,1/2+y,-z
1/2-x,1/2-y,-z
1/2+x,1/2-y,z
loop_
_atom_site_type_symbol
_atom_site_label
_atom_site_fract_x
_atom_site_fract_y
_atom_site_fract_z
Si Si1 0.414522 0.182493 0.206653
Si Si2 0.341004 0.683336 0.835630
Si Si3 0.751251 0.791101 0.130144
Si Si4 0.084616 0.922505 0.672895
Si Si5 0.718436 0.418732 0.089479
Si Si6 0.446657 0.420149 0.701188
Si Si7 0.271147 0.183564 0.466272
O O1 0.373007 0.246596 0.220256
O O2 0.330913 0.118785 0.154074
O O3 0.571131 0.169058 0.370166
O O4 0.358464 0.201504 0.057486
O O5 0.304863 0.747952 0.853768
O O6 0.284127 0.617528 0.824358
O O7 0.280588 0.692439 0.681586
O O8 0.500000 0.675711 0.000000
O O9 0.803053 0.865172 0.208779
O O10 0.000000 0.918296 0.500000
O O11 0.992654 0.909752 0.655713
O O12 0.136816 0.000000 0.736465
O O13 0.735073 0.500000 0.110746
O O14 0.575924 0.403276 0.894558
O O15 0.418191 0.500000 0.682826
O O16 0.320541 0.375358 0.591956
O O17 0.250000 0.250000 0.500000
#
# Coordination Sequence:
#
# PCOD9207791 Si02
#       7
#     8   8   8   8   8   8   8
#     4  10  22  38  59  89 122 160 201 242 296 360
#     4  11  23  39  58  89 123 159 203 243 303 361
#     4  10  21  37  60  83 122 159 199 245 295 355
#     4  10  21  37  63  90 112 153 208 250 290 351
#     4  10  21  40  66  88 119 162 204 246 299 367
#     4  10  21  40  63  89 121 159 199 245 305 366
#     4  12  25  38  60  90 124 160 201 250 301 359
#
# _framework density 17.561257000000001
#
# number of rings (size 3 to 8) (size 9 to 14) (size 15 to 20)
#    0.000    1.571    2.857    1.714    6.000    3.143 
#    0.000    0.714    0.000    0.429    0.000    0.000 
#    0.000    0.000    0.000    0.000    0.000    0.000 
#
# Total GULP energy -156390.345195 kJ/mol
# GULP energy per Si atom -5585.369471 kJ/mol
# Density = 1.752129 g / cm^3
# Si number density = 17.561257 Si / 1000 Ang^3
#
#
#
# Elastic Constant Matrix: (Units=GPa)
#
#
# Indices 1 2 3 4 5 6 
#
# 1 93.1419 58.6864 50.2682 0.0000 -8.2518 0.0000
# 2 58.6864 109.1270 52.3283 0.0000 7.9858 0.0000
# 3 50.2682 52.3283 91.3387 0.0000 11.5554 0.0000
# 4 0.0000 0.0000 0.0000 26.1654 0.0000 6.5830
# 5 -8.2518 7.9858 11.5554 0.0000 40.2630 0.0000
# 6 0.0000 0.0000 0.0000 6.5830 0.0000 25.4311
#
#
#
# Elastic Compliance Matrix: (Units=1/GPa)
#
#
# Indices 1 2 3 4 5 6 
#
# 1 0.020708 -0.007959 -0.007859 0.000000 0.008078 0.000000
# 2 -0.007959 0.015701 -0.004166 0.000000 -0.003550 0.000000
# 3 -0.007859 -0.004166 0.018428 0.000000 -0.006073 0.000000
# 4 0.000000 0.000000 0.000000 0.040881 0.000000 -0.010582
# 5 0.008078 -0.003550 -0.006073 0.000000 0.028939 0.000000
# 6 0.000000 0.000000 0.000000 -0.010582 0.000000 0.042061
#
#
# Mechanical properties :
#
#
# Convention : Reuss Voigt Hill
#
# Bulk Modulus (GPa) = 67.24964 68.46372 67.85668
# Shear Modulus (GPa) = 23.62453 27.19355 25.40904
#
# Velocity S-wave (km/s) = 3.67176 3.93936 3.80791
# Velocity P-wave (km/s) = 7.50688 7.73057 7.61955
#
# Compressibility (1/GPa) = 0.01486997
#
# Stress axis : x y z
#
# Youngs Moduli (GPa) = 48.28977 63.68884 54.26393
#
# Poissons Ratio (x) = 0.50691 0.42646
# Poissons Ratio (y) = 0.38435 0.22606
# Poissons Ratio (z) = 0.37951 0.26532
#
# Static dielectric constant tensor:
#      x y z
#    x 1.592420 0.000000 -0.012690 
#    y 0.000000 1.596870 0.000000 
#    z -0.012690 0.000000 1.573250 
# 
# From -- ./inp_files/77365.got.cif
#   From: 2010.05.17/outbox.cif.g08.bks.cpg/sg12_39_cif.got.tgz:77365.got - 2010.06.03 13:09:07.
