data_PCOD9207944
_publ_section_title
;
Structure prediction by ZEFSAII (Michael W. Deem and Ramdas Pophale) SiO2 
 PCOD9207944
Probable space group: C 2/M
;
_chemical_formula_sum "Si O2"
_cell_formula_units_Z 50
_cell_length_a 17.308590
_cell_length_b 14.674844
_cell_length_c 10.504149
_cell_angle_alpha 90.000000
_cell_angle_beta 61.214644
_cell_angle_gamma 90.000000
_cell_volume 2338.369748
_symmetry_space_group_name_H-M "C 2/M"
_symmetry_group_IT_number 12
_symmetry_cell_setting 'monoclinic'
loop_
_space_group_symop_operation_xyz
x,y,z
-x,y,-z
-x,-y,-z
x,-y,z
1/2+x,1/2+y,z
1/2-x,1/2+y,-z
1/2-x,1/2-y,-z
1/2+x,1/2-y,z
loop_
_atom_site_type_symbol
_atom_site_label
_atom_site_fract_x
_atom_site_fract_y
_atom_site_fract_z
Si Si1 0.000000 0.500000 0.000000
Si Si2 0.296923 0.717602 0.835781
Si Si3 0.872988 0.355290 0.131909
Si Si4 0.006286 0.203420 0.345518
Si Si5 0.279382 0.097460 0.703360
Si Si6 0.076958 0.400701 0.623823
Si Si7 0.578408 0.648402 0.846841
O O1 0.066898 0.419160 0.002295
O O2 0.229568 0.648918 0.821211
O O3 0.394612 0.682587 0.777465
O O4 0.307478 0.810474 0.749034
O O5 0.250000 0.750000 0.000000
O O6 0.892515 0.397593 0.254295
O O7 0.903683 0.250852 0.113978
O O8 0.000000 0.176702 0.500000
O O9 0.980961 0.311414 0.358795
O O10 0.947377 0.157297 0.281849
O O11 0.333619 0.102379 0.529313
O O12 0.173613 0.101609 0.777152
O O13 0.302758 0.000000 0.745999
O O14 0.034459 0.500000 0.632971
O O15 0.500000 0.611517 0.000000
#
# Coordination Sequence:
#
# PCOD9207944 Si02
#       7
#     2   8   8   8   8   8   8
#     4  12  20  40  64 100 114 156 208 256 310 368
#     4  11  24  40  58  90 133 163 200 257 326 375
#     4  10  22  36  64  89 122 157 204 251 305 373
#     4  11  22  36  60  90 122 167 204 251 317 383
#     4  10  22  40  62  87 120 161 218 262 303 362
#     4  10  21  37  60  92 121 158 208 264 308 365
#     4  10  21  39  63  86 118 166 217 257 303 375
#
# _framework density 21.382418999999999
#
# number of rings (size 3 to 8) (size 9 to 14) (size 15 to 20)
#    0.000    1.600    3.200    1.920    4.480    3.200 
#    1.440    0.000    1.760    0.480    0.000    0.000 
#    0.000    0.000    0.000    0.000    0.000    0.000 
#
# Total GULP energy -139239.157879 kJ/mol
# GULP energy per Si atom -5569.566315 kJ/mol
# Density = 2.133375 g / cm^3
# Si number density = 21.382419 Si / 1000 Ang^3
#
#
#
# Elastic Constant Matrix: (Units=GPa)
#
#
# Indices 1 2 3 4 5 6 
#
# 1 69.8022 2.3809 -0.5769 0.0000 -12.8443 0.0000
# 2 2.3809 68.6248 -5.8187 0.0000 -5.7595 0.0000
# 3 -0.5769 -5.8187 88.2825 0.0000 -1.7160 0.0000
# 4 0.0000 0.0000 0.0000 -52.6203 0.0000 -56.3469
# 5 -12.8443 -5.7595 -1.7160 0.0000 41.4788 0.0000
# 6 0.0000 0.0000 0.0000 -56.3469 0.0000 -27.7990
#
#
#
# Elastic Compliance Matrix: (Units=1/GPa)
#
#
# Indices 1 2 3 4 5 6 
#
# 1 0.015196 -0.000118 0.000183 0.000000 0.004697 0.000000
# 2 -0.000118 0.014836 0.001017 0.000000 0.002066 0.000000
# 3 0.000183 0.001017 0.011409 0.000000 0.000670 0.000000
# 4 0.000000 0.000000 0.000000 0.016236 0.000000 -0.032909
# 5 0.004697 0.002066 0.000670 0.000000 0.025878 0.000000
# 6 0.000000 0.000000 0.000000 -0.032909 0.000000 0.030733
#
#
# Mechanical properties :
#
#
# Convention : Reuss Voigt Hill
#
# Bulk Modulus (GPa) = 22.93300 24.29779 23.61539
# Shear Modulus (GPa) = 39.47676 7.59352 23.53514
#
# Velocity S-wave (km/s) = 4.30143 1.88653 3.32124
# Velocity P-wave (km/s) = 5.95132 4.01665 5.07699
#
# Compressibility (1/GPa) = 0.04360528
#
# Stress axis : x y z
#
# Youngs Moduli (GPa) = 65.80684 67.40500 87.65370
#
# Poissons Ratio (x) = 0.00792 -0.01603
# Poissons Ratio (y) = 0.00773 -0.08916
# Poissons Ratio (z) = -0.01203 -0.06856
#
# Static dielectric constant tensor:
#      x y z
#    x 1.765770 0.000000 0.019670 
#    y 0.000000 1.794040 0.000000 
#    z 0.019670 0.000000 1.853750 
# 
# From -- ./inp_files/155920.got.cif
#   From: 2010.05.17/outbox.cif.g08.bks.cpg/sg12_78_cif.got.tgz:155920.got - 2010.06.03 13:09:07.
