data_PCOD9207868
_publ_section_title
;
Structure prediction by ZEFSAII (Michael W. Deem and Ramdas Pophale) SiO2 
 PCOD9207868
Probable space group: C 2/M
;
_chemical_formula_sum "Si O2"
_cell_formula_units_Z 56
_cell_length_a 27.963951
_cell_length_b 9.110328
_cell_length_c 18.965115
_cell_angle_alpha 90.000000
_cell_angle_beta 143.465086
_cell_angle_gamma 90.000000
_cell_volume 2876.292448
_symmetry_space_group_name_H-M "C 2/M"
_symmetry_group_IT_number 12
_symmetry_cell_setting 'monoclinic'
loop_
_space_group_symop_operation_xyz
x,y,z
-x,y,-z
-x,-y,-z
x,-y,z
1/2+x,1/2+y,z
1/2-x,1/2+y,-z
1/2-x,1/2-y,-z
1/2+x,1/2-y,z
loop_
_atom_site_type_symbol
_atom_site_label
_atom_site_fract_x
_atom_site_fract_y
_atom_site_fract_z
Si Si1 0.225125 0.825923 0.897561
Si Si2 0.039615 0.172893 0.696828
Si Si3 0.767555 0.175805 0.805509
Si Si4 0.425186 0.175684 0.961301
Si Si5 0.172910 0.325413 0.440895
Si Si6 0.504531 0.175010 0.802531
Si Si7 0.882948 0.675808 0.467970
O O1 0.129351 0.805547 0.774873
O O2 0.268247 0.750047 0.882947
O O3 0.242769 0.000000 0.920750
O O4 0.250000 0.750000 0.000000
O O5 0.036014 0.241850 0.771035
O O6 0.969420 0.247695 0.568079
O O7 0.023862 0.000000 0.682810
O O8 0.842581 0.239030 0.850442
O O9 0.682892 0.214005 0.668323
O O10 0.773144 0.000000 0.817243
O O11 0.412188 0.000000 0.939056
O O12 0.500000 0.215118 0.000000
O O13 0.451238 0.207929 0.072549
O O14 0.184416 0.500000 0.452068
O O15 0.250000 0.250000 0.500000
O O16 0.090129 0.290359 0.302401
O O17 0.155195 0.284870 0.501084
O O18 0.510926 0.000000 0.796427
O O19 0.894999 0.500000 0.481389
#
# Coordination Sequence:
#
# PCOD9207868 Si02
#       7
#     8   8   8   8   8   8   8
#     4  11  24  41  63  92 123 156 198 247 298 354
#     4  10  21  37  60  89 116 148 195 246 294 346
#     4  11  24  41  61  88 121 158 200 246 297 356
#     4  10  22  39  60  85 116 158 201 244 300 358
#     4   9  18  32  52  78 107 144 189 237 285 338
#     4   9  19  36  55  79 114 151 189 235 290 352
#     4   9  21  40  58  81 119 159 195 238 296 358
#
# _framework density 19.469508000000001
#
# number of rings (size 3 to 8) (size 9 to 14) (size 15 to 20)
#    0.000    2.143    0.000    3.000    2.000    9.429 
#    0.000    2.857    0.000    0.000    0.000    0.000 
#    0.000    0.000    0.000    0.000    0.000    0.000 
#
# Total GULP energy -156411.200884 kJ/mol
# GULP energy per Si atom -5586.114317 kJ/mol
# Density = 1.942519 g / cm^3
# Si number density = 19.469508 Si / 1000 Ang^3
#
#
#
# Elastic Constant Matrix: (Units=GPa)
#
#
# Indices 1 2 3 4 5 6 
#
# 1 74.4566 44.2900 40.0290 0.0000 17.2239 0.0000
# 2 44.2900 49.7118 50.0555 0.0000 10.5407 0.0000
# 3 40.0290 50.0555 104.5552 0.0000 3.8722 0.0000
# 4 0.0000 0.0000 0.0000 27.2785 0.0000 6.7342
# 5 17.2239 10.5407 3.8722 0.0000 20.2902 0.0000
# 6 0.0000 0.0000 0.0000 6.7342 0.0000 24.2616
#
#
#
# Elastic Compliance Matrix: (Units=1/GPa)
#
#
# Indices 1 2 3 4 5 6 
#
# 1 0.031699 -0.026421 0.001008 0.000000 -0.013375 0.000000
# 2 -0.026421 0.067472 -0.021874 0.000000 -0.008449 0.000000
# 3 0.001008 -0.021874 0.019398 0.000000 0.006805 0.000000
# 4 0.000000 0.000000 0.000000 0.039356 0.000000 -0.010924
# 5 -0.013375 -0.008449 0.006805 0.000000 0.063729 0.000000
# 6 0.000000 0.000000 0.000000 -0.010924 0.000000 0.044250
#
#
# Mechanical properties :
#
#
# Convention : Reuss Voigt Hill
#
# Bulk Modulus (GPa) = 41.67324 55.27473 48.47398
# Shear Modulus (GPa) = 13.56945 20.65601 17.11273
#
# Velocity S-wave (km/s) = 2.64286 3.26074 2.96793
# Velocity P-wave (km/s) = 5.54651 6.52906 6.05774
#
# Compressibility (1/GPa) = 0.02399622
#
# Stress axis : x y z
#
# Youngs Moduli (GPa) = 31.54674 14.82100 51.55115
#
# Poissons Ratio (x) = 0.39159 -0.05198
# Poissons Ratio (y) = 0.83350 1.12762
# Poissons Ratio (z) = -0.03181 0.32419
#
# Static dielectric constant tensor:
#      x y z
#    x 1.667020 0.000000 0.011960 
#    y 0.000000 1.650280 0.000000 
#    z 0.011960 0.000000 1.699650 
# 
# From -- ./inp_files/292510.got.cif
#   From: 2010.05.17/outbox.cif.g08.bks.cpg/sg12_147_cif.got.tgz:292510.got - 2010.06.03 13:09:07.
