data_PCOD9207489
_publ_section_title
;
Structure prediction by ZEFSAII (Michael W. Deem and Ramdas Pophale) SiO2 
 PCOD9207489
Probable space group: C 2/M
;
_chemical_formula_sum "Si O2"
_cell_formula_units_Z 40
_cell_length_a 16.657569
_cell_length_b 15.698645
_cell_length_c 23.077448
_cell_angle_alpha 90.000000
_cell_angle_beta 160.912849
_cell_angle_gamma 90.000000
_cell_volume 1973.409725
_symmetry_space_group_name_H-M "C 2/M"
_symmetry_group_IT_number 12
_symmetry_cell_setting 'monoclinic'
loop_
_space_group_symop_operation_xyz
x,y,z
-x,y,-z
-x,-y,-z
x,-y,z
1/2+x,1/2+y,z
1/2-x,1/2+y,-z
1/2-x,1/2-y,-z
1/2+x,1/2-y,z
loop_
_atom_site_type_symbol
_atom_site_label
_atom_site_fract_x
_atom_site_fract_y
_atom_site_fract_z
Si Si1 0.850919 0.897406 0.957776
Si Si2 0.167646 0.294724 0.384052
Si Si3 0.358195 0.397527 0.293189
Si Si4 0.535325 0.680052 0.849084
Si Si5 0.656775 0.901729 0.031954
O O1 0.590217 0.846125 0.782789
O O2 0.812295 0.000000 0.938197
O O3 0.012568 0.858316 0.120774
O O4 0.000000 0.883659 0.000000
O O5 0.250000 0.250000 0.500000
O O6 0.384116 0.358802 0.514694
O O7 0.153073 0.225396 0.322501
O O8 0.383203 0.500000 0.311998
O O9 0.283472 0.367858 0.176783
O O10 0.118423 0.367673 0.165711
O O11 0.665425 0.607320 0.900062
O O12 0.750000 0.750000 0.000000
O O13 0.617822 0.000000 0.018393
#
# Coordination Sequence:
#
# PCOD9207489 Si02
#       5
#     8   8   8   8   8
#     4  10  23  44  64  82 117 172 219 251 292 356
#     4  11  21  36  61  94 127 154 194 256 313 361
#     4   9  18  33  58  90 120 155 191 235 298 365
#     4  10  21  37  58  87 119 160 201 245 308 359
#     4   9  17  33  58  85 117 156 194 235 294 365
#
# _framework density 20.269485
#
# number of rings (size 3 to 8) (size 9 to 14) (size 15 to 20)
#    0.000    2.200    2.000    2.400    0.000    3.200 
#    0.000    9.000    0.000   13.200    0.000    0.000 
#    0.000    0.000    0.000    0.000    0.000    0.000 
#
# Total GULP energy -111425.803662 kJ/mol
# GULP energy per Si atom -5571.290183 kJ/mol
# Density = 2.022335 g / cm^3
# Si number density = 20.269485 Si / 1000 Ang^3
#
#
#
# Elastic Constant Matrix: (Units=GPa)
#
#
# Indices 1 2 3 4 5 6 
#
# 1 123.6418 50.2997 49.3966 0.0091 -11.8981 0.0076
# 2 50.2997 85.7541 50.3818 0.0459 -3.9447 0.0104
# 3 49.3966 50.3818 118.5669 0.0525 0.2919 0.0042
# 4 0.0091 0.0459 0.0525 32.0152 0.0081 -10.0034
# 5 -11.8981 -3.9447 0.2919 0.0081 29.7647 0.0044
# 6 0.0076 0.0104 0.0042 -10.0034 0.0044 18.2934
#
#
#
# Elastic Compliance Matrix: (Units=1/GPa)
#
#
# Indices 1 2 3 4 5 6 
#
# 1 0.011600 -0.005031 -0.002705 0.000008 0.003997 0.000002
# 2 -0.005031 0.017859 -0.005494 -0.000021 0.000410 -0.000018
# 3 -0.002705 -0.005494 0.011900 -0.000012 -0.001926 -0.000004
# 4 0.000008 -0.000021 -0.000012 0.037672 -0.000013 0.020600
# 5 0.003997 0.000410 -0.001926 -0.000013 0.035268 -0.000017
# 6 0.000002 -0.000018 -0.000004 0.020600 -0.000017 0.065930
#
#
# Mechanical properties :
#
#
# Convention : Reuss Voigt Hill
#
# Bulk Modulus (GPa) = 67.11481 69.79098 68.45290
# Shear Modulus (GPa) = 23.62364 27.87365 25.74864
#
# Velocity S-wave (km/s) = 3.41761 3.71233 3.56802
# Velocity P-wave (km/s) = 6.98259 7.27197 7.12875
#
# Compressibility (1/GPa) = 0.01489984
#
# Stress axis : x y z
#
# Youngs Moduli (GPa) = 86.20884 55.99525 84.03411
#
# Poissons Ratio (x) = 0.28172 0.22728
# Poissons Ratio (y) = 0.43372 0.46165
# Poissons Ratio (z) = 0.23316 0.30761
#
# Static dielectric constant tensor:
#      x y z
#    x 1.886870 -0.000150 -0.037020 
#    y -0.000150 1.604280 -0.000020 
#    z -0.037020 -0.000020 1.751960 
# 
# From -- ./inp_files/61379.got.cif
#   From: 2010.05.17/outbox.cif.g08.bks.cpg/sg12_31_cif.got.tgz:61379.got - 2010.06.03 13:09:07.
