data_PCOD9207174
_publ_section_title
;
Structure prediction by ZEFSAII (Michael W. Deem and Ramdas Pophale) SiO2 
 PCOD9207174
Probable space group: C 2/M
;
_chemical_formula_sum "Si O2"
_cell_formula_units_Z 64
_cell_length_a 24.103940
_cell_length_b 7.665609
_cell_length_c 15.432148
_cell_angle_alpha 90.000000
_cell_angle_beta 87.383813
_cell_angle_gamma 90.000000
_cell_volume 2848.447279
_symmetry_space_group_name_H-M "C 2/M"
_symmetry_group_IT_number 12
_symmetry_cell_setting 'monoclinic'
loop_
_space_group_symop_operation_xyz
x,y,z
-x,y,-z
-x,-y,-z
x,-y,z
1/2+x,1/2+y,z
1/2-x,1/2+y,-z
1/2-x,1/2-y,-z
1/2+x,1/2-y,z
loop_
_atom_site_type_symbol
_atom_site_label
_atom_site_fract_x
_atom_site_fract_y
_atom_site_fract_z
Si Si1 0.466472 0.709360 0.655484
Si Si2 0.094669 0.705722 0.666337
Si Si3 0.615113 0.290545 0.186319
Si Si4 0.357046 0.786350 0.154633
Si Si5 0.732078 0.694268 0.405856
Si Si6 0.260711 0.714398 0.784235
Si Si7 0.936990 0.290515 0.995632
Si Si8 0.118456 0.705867 0.475440
O O1 0.467581 0.500000 0.656327
O O2 0.528492 0.772794 0.667538
O O3 0.424778 0.774026 0.733697
O O4 0.440443 0.767723 0.566219
O O5 0.107148 0.500000 0.664316
O O6 0.118924 0.774354 0.754406
O O7 0.118422 0.775436 0.573657
O O8 0.616997 0.500000 0.194614
O O9 0.678547 0.226736 0.189765
O O10 0.588186 0.247879 0.096280
O O11 0.292403 0.735329 0.155163
O O12 0.396004 0.724967 0.073922
O O13 0.358713 0.000000 0.154206
O O14 0.753986 0.500000 0.397016
O O15 0.750000 0.750000 0.500000
O O16 0.748838 0.779475 0.314028
O O17 0.665280 0.701460 0.414928
O O18 0.262112 0.500000 0.782325
O O19 0.939646 0.500000 0.005111
O O20 0.000000 0.223354 0.000000
O O21 0.131413 0.500000 0.474643
#
# Coordination Sequence:
#
# PCOD9207174 Si02
#       8
#     8   8   8   8   8   8   8   8
#     4  11  22  37  56  82 115 154 193 236 292 349
#     4  10  21  37  57  83 113 151 195 239 288 349
#     4  10  21  38  59  83 113 151 192 235 290 351
#     4   9  18  35  59  82 110 149 191 233 286 346
#     4  11  21  36  57  82 116 157 202 246 291 344
#     4   9  18  36  58  80 112 153 193 234 285 348
#     4  10  21  37  59  88 116 144 186 239 292 344
#     4  11  22  36  56  84 115 150 196 242 290 348
#
# _framework density 22.468381000000001
#
# number of rings (size 3 to 8) (size 9 to 14) (size 15 to 20)
#    0.000    1.875    1.250    3.000    0.000    7.250 
#    0.000    0.625    0.000    2.250    0.000    0.000 
#    0.000    0.000    0.000    0.000    0.000    0.000 
#
# Total GULP energy -178839.007983 kJ/mol
# GULP energy per Si atom -5588.718999 kJ/mol
# Density = 2.241724 g / cm^3
# Si number density = 22.468381 Si / 1000 Ang^3
#
#
#
# Elastic Constant Matrix: (Units=GPa)
#
#
# Indices 1 2 3 4 5 6 
#
# 1 110.0840 -5.5857 37.2669 0.0000 -13.5828 0.0000
# 2 -5.5857 39.3838 0.5713 0.0000 -4.1431 0.0000
# 3 37.2669 0.5713 124.6345 0.0000 -9.1782 0.0000
# 4 0.0000 0.0000 0.0000 17.9727 0.0000 3.6776
# 5 -13.5828 -4.1431 -9.1782 0.0000 43.1664 0.0000
# 6 0.0000 0.0000 0.0000 3.6776 0.0000 10.1794
#
#
#
# Elastic Compliance Matrix: (Units=1/GPa)
#
#
# Indices 1 2 3 4 5 6 
#
# 1 0.010528 0.001837 -0.002945 0.000000 0.002863 0.000000
# 2 0.001837 0.025971 -0.000449 0.000000 0.002975 0.000000
# 3 -0.002945 -0.000449 0.008975 0.000000 0.000938 0.000000
# 4 0.000000 0.000000 0.000000 0.060081 0.000000 -0.021706
# 5 0.002863 0.002975 0.000938 0.000000 0.024552 0.000000
# 6 0.000000 0.000000 0.000000 -0.021706 0.000000 0.106079
#
#
# Mechanical properties :
#
#
# Convention : Reuss Voigt Hill
#
# Bulk Modulus (GPa) = 23.60793 37.62302 30.61548
# Shear Modulus (GPa) = 19.72999 30.38704 25.05852
#
# Velocity S-wave (km/s) = 2.96653 3.68154 3.34320
# Velocity P-wave (km/s) = 4.71844 5.90363 5.34399
#
# Compressibility (1/GPa) = 0.04235865
#
# Stress axis : x y z
#
# Youngs Moduli (GPa) = 94.98922 38.50421 111.41637
#
# Poissons Ratio (x) = -0.07073 0.32817
# Poissons Ratio (y) = -0.17449 0.05005
# Poissons Ratio (z) = 0.27978 0.01730
#
# Static dielectric constant tensor:
#      x y z
#    x 1.832020 0.000000 -0.006060 
#    y 0.000000 1.852500 0.000000 
#    z -0.006060 0.000000 1.808090 
# 
# From -- ./inp_files/238720.got.cif
#   From: 2010.05.17/outbox.cif.g08.bks.cpg/sg12_120_cif.got.tgz:238720.got - 2010.06.03 13:09:07.
