data_PCOD9207687
_publ_section_title
;
Structure prediction by ZEFSAII (Michael W. Deem and Ramdas Pophale) SiO2 
 PCOD9207687
Probable space group: C 2/M
;
_chemical_formula_sum "Si O2"
_cell_formula_units_Z 64
_cell_length_a 8.938267
_cell_length_b 25.931251
_cell_length_c 15.641983
_cell_angle_alpha 90.000000
_cell_angle_beta 56.221149
_cell_angle_gamma 90.000000
_cell_volume 3013.483253
_symmetry_space_group_name_H-M "C 2/M"
_symmetry_group_IT_number 12
_symmetry_cell_setting 'monoclinic'
loop_
_space_group_symop_operation_xyz
x,y,z
-x,y,-z
-x,-y,-z
x,-y,z
1/2+x,1/2+y,z
1/2-x,1/2+y,-z
1/2-x,1/2-y,-z
1/2+x,1/2-y,z
loop_
_atom_site_type_symbol
_atom_site_label
_atom_site_fract_x
_atom_site_fract_y
_atom_site_fract_z
Si Si1 0.565940 0.895137 0.890254
Si Si2 0.813996 0.437462 0.613269
Si Si3 0.586097 0.740873 0.241125
Si Si4 0.191292 0.107410 0.423674
Si Si5 0.460057 0.941230 0.744099
Si Si6 0.484229 0.225001 0.100451
Si Si7 0.544165 0.371763 0.292610
Si Si8 0.617172 0.798676 0.549963
O O1 0.478435 0.917911 0.832184
O O2 0.498308 0.836245 0.911931
O O3 0.785042 0.894206 0.815118
O O4 0.500000 0.919664 0.000000
O O5 0.793924 0.500000 0.616629
O O6 0.627106 0.409685 0.646684
O O7 0.000000 0.426786 0.500000
O O8 0.843351 0.419302 0.702618
O O9 0.609596 0.753128 0.133730
O O10 0.790377 0.733845 0.205259
O O11 0.489976 0.685197 0.278680
O O12 0.499570 0.784066 0.328873
O O13 0.340092 0.065227 0.357968
O O14 0.859435 0.137613 0.646821
O O15 0.269711 0.150133 0.463063
O O16 0.000000 0.081520 0.500000
O O17 0.406472 0.000000 0.770408
O O18 0.500000 0.246802 0.000000
O O19 0.500000 0.803368 0.500000
O O20 0.750000 0.750000 0.500000
#
# Coordination Sequence:
#
# PCOD9207687 Si02
#       8
#     8   8   8   8   8   8   8   8
#     4   9  20  40  63  86 117 156 199 250 302 357
#     4  10  22  41  63  89 122 157 196 248 307 364
#     4  11  21  36  55  83 118 152 193 242 286 341
#     4  11  23  39  58  84 119 158 204 249 294 356
#     4  10  22  39  60  88 118 152 198 248 304 366
#     4  10  21  38  59  83 113 151 195 241 291 344
#     4  10  21  37  59  88 120 156 203 247 295 362
#     4  12  24  38  58  86 122 163 201 240 293 352
#
# _framework density 21.237880000000001
#
# number of rings (size 3 to 8) (size 9 to 14) (size 15 to 20)
#    0.000    1.625    0.000    6.000    0.000    7.000 
#    0.000    1.250    0.000    1.500    0.000    0.000 
#    0.000    0.000    0.000    0.000    0.000    0.000 
#
# Total GULP energy -178416.194651 kJ/mol
# GULP energy per Si atom -5575.506083 kJ/mol
# Density = 2.118954 g / cm^3
# Si number density = 21.237880 Si / 1000 Ang^3
#
#
#
# Elastic Constant Matrix: (Units=GPa)
#
#
# Indices 1 2 3 4 5 6 
#
# 1 129.6179 33.0094 48.2948 0.0000 21.3390 0.0000
# 2 33.0094 42.9401 18.9900 0.0000 -1.6491 0.0000
# 3 48.2948 18.9900 95.1625 0.0000 24.0029 0.0000
# 4 0.0000 0.0000 0.0000 2.6620 0.0000 8.3007
# 5 21.3390 -1.6491 24.0029 0.0000 29.5959 0.0000
# 6 0.0000 0.0000 0.0000 8.3007 0.0000 22.1018
#
#
#
# Elastic Compliance Matrix: (Units=1/GPa)
#
#
# Indices 1 2 3 4 5 6 
#
# 1 0.011956 -0.008275 -0.002673 0.000000 -0.006914 0.000000
# 2 -0.008275 0.032472 -0.005333 0.000000 0.012100 0.000000
# 3 -0.002673 -0.005333 0.015737 0.000000 -0.011133 0.000000
# 4 0.000000 0.000000 0.000000 -2.195651 0.000000 0.824608
# 5 -0.006914 0.012100 -0.011133 0.000000 0.048477 0.000000
# 6 0.000000 0.000000 0.000000 0.824608 0.000000 -0.264448
#
#
# Mechanical properties :
#
#
# Convention : Reuss Voigt Hill
#
# Bulk Modulus (GPa) = 36.22451 52.03433 44.12942
# Shear Modulus (GPa) = -2.16479 22.03370 9.93445
#
# Velocity S-wave (km/s) = -1.01070 3.22447 2.16515
# Velocity P-wave (km/s) = 3.96630 6.19814 5.20329
#
# Compressibility (1/GPa) = 0.02760562
#
# Stress axis : x y z
#
# Youngs Moduli (GPa) = 83.63719 30.79540 63.54480
#
# Poissons Ratio (x) = 0.25483 0.16983
# Poissons Ratio (y) = 0.69209 0.33886
# Poissons Ratio (z) = 0.22353 0.16422
#
# Static dielectric constant tensor:
#      x y z
#    x 1.798460 0.000000 0.012630 
#    y 0.000000 1.758950 0.000000 
#    z 0.012630 0.000000 1.879490 
# 
# From -- ./inp_files/201287.got.cif
#   From: 2010.05.17/outbox.cif.g08.bks.cpg/sg12_101_cif.got.tgz:201287.got - 2010.06.03 13:09:07.
