data_PCOD9207501
_publ_section_title
;
Structure prediction by ZEFSAII (Michael W. Deem and Ramdas Pophale) SiO2 
 PCOD9207501
Probable space group: C 2/M
;
_chemical_formula_sum "Si O2"
_cell_formula_units_Z 56
_cell_length_a 14.807342
_cell_length_b 8.791167
_cell_length_c 24.201809
_cell_angle_alpha 90.000000
_cell_angle_beta 81.361183
_cell_angle_gamma 90.000000
_cell_volume 3114.699593
_symmetry_space_group_name_H-M "C 2/M"
_symmetry_group_IT_number 12
_symmetry_cell_setting 'monoclinic'
loop_
_space_group_symop_operation_xyz
x,y,z
-x,y,-z
-x,-y,-z
x,-y,z
1/2+x,1/2+y,z
1/2-x,1/2+y,-z
1/2-x,1/2-y,-z
1/2+x,1/2-y,z
loop_
_atom_site_type_symbol
_atom_site_label
_atom_site_fract_x
_atom_site_fract_y
_atom_site_fract_z
Si Si1 0.185711 0.182460 0.854152
Si Si2 0.059229 0.818211 0.761519
Si Si3 0.516620 0.817913 0.934203
Si Si4 0.095694 0.319389 0.639381
Si Si5 0.612716 0.682566 0.146338
Si Si6 0.542846 0.680618 0.435052
Si Si7 0.236219 0.318726 0.440196
O O1 0.138279 0.216885 0.799218
O O2 0.112771 0.249221 0.904527
O O3 0.286972 0.250058 0.851827
O O4 0.189350 0.000000 0.859454
O O5 0.074739 0.730618 0.703538
O O6 0.961344 0.782090 0.798638
O O7 0.061430 0.000000 0.751229
O O8 0.435726 0.748709 0.904044
O O9 0.518393 0.000000 0.926467
O O10 0.500000 0.784407 0.000000
O O11 0.105269 0.500000 0.634543
O O12 0.185834 0.238814 0.607863
O O13 0.017383 0.260575 0.605616
O O14 0.618652 0.500000 0.141346
O O15 0.500000 0.701810 0.500000
O O16 0.547765 0.500000 0.424358
O O17 0.641003 0.756570 0.427090
O O18 0.237802 0.500000 0.444130
O O19 0.250000 0.250000 0.500000
#
# Coordination Sequence:
#
# PCOD9207501 Si02
#       7
#     8   8   8   8   8   8   8
#     4  10  21  38  62  88 118 158 200 246 297 349
#     4   9  21  41  60  83 117 154 197 247 295 346
#     4  10  21  37  58  87 123 161 202 248 296 348
#     4  12  25  40  62  90 120 155 193 239 295 354
#     4  10  21  38  62  88 118 158 199 246 298 349
#     4  11  23  40  63  87 115 152 190 235 288 344
#     4  12  24  40  62  87 117 151 190 235 286 348
#
# _framework density 17.979261999999999
#
# number of rings (size 3 to 8) (size 9 to 14) (size 15 to 20)
#    0.000    1.429    1.429    5.143    0.000    6.857 
#    0.000    2.857    0.000    0.000    0.000    0.000 
#    0.000    0.000    0.000    0.000    0.000    0.000 
#
# Total GULP energy -156480.548357 kJ/mol
# GULP energy per Si atom -5588.591013 kJ/mol
# Density = 1.793834 g / cm^3
# Si number density = 17.979262 Si / 1000 Ang^3
#
#
#
# Elastic Constant Matrix: (Units=GPa)
#
#
# Indices 1 2 3 4 5 6 
#
# 1 204.1456 103.1003 92.5847 0.0000 3.3427 0.0000
# 2 103.1003 159.3673 114.5730 0.0000 -2.1541 0.0000
# 3 92.5847 114.5730 149.3367 0.0000 -6.7474 0.0000
# 4 0.0000 0.0000 0.0000 30.0367 0.0000 -0.0746
# 5 3.3427 -2.1541 -6.7474 0.0000 12.6849 0.0000
# 6 0.0000 0.0000 0.0000 -0.0746 0.0000 35.7537
#
#
#
# Elastic Compliance Matrix: (Units=1/GPa)
#
#
# Indices 1 2 3 4 5 6 
#
# 1 0.007737 -0.003307 -0.002436 0.000000 -0.003896 0.000000
# 2 -0.003307 0.015552 -0.009962 0.000000 -0.001787 0.000000
# 3 -0.002436 -0.009962 0.016191 0.000000 0.007563 0.000000
# 4 0.000000 0.000000 0.000000 0.033293 0.000000 0.000069
# 5 -0.003896 -0.001787 0.007563 0.000000 0.083580 0.000000
# 6 0.000000 0.000000 0.000000 0.000069 0.000000 0.027969
#
#
# Mechanical properties :
#
#
# Convention : Reuss Voigt Hill
#
# Bulk Modulus (GPa) = 123.90693 125.92952 124.91822
# Shear Modulus (GPa) = 22.89143 29.20117 26.04630
#
# Velocity S-wave (km/s) = 3.57208 4.03446 3.81029
# Velocity P-wave (km/s) = 9.27789 9.58624 9.43333
#
# Compressibility (1/GPa) = 0.00807057
#
# Stress axis : x y z
#
# Youngs Moduli (GPa) = 129.24918 64.29931 61.76175
#
# Poissons Ratio (x) = 0.21264 0.15043
# Poissons Ratio (y) = 0.42743 0.61529
# Poissons Ratio (z) = 0.31480 0.64057
#
# Static dielectric constant tensor:
#      x y z
#    x 1.582320 0.000000 -0.003120 
#    y 0.000000 1.597980 0.000000 
#    z -0.003120 0.000000 1.591700 
# 
# From -- ./inp_files/309041.got.cif
#   From: 2010.05.17/outbox.cif.g08.bks.cpg/sg12_155_cif.got.tgz:309041.got - 2010.06.03 13:09:07.
