data_PCOD9207187
_publ_section_title
;
Structure prediction by ZEFSAII (Michael W. Deem and Ramdas Pophale) SiO2 
 PCOD9207187
Probable space group: C 2/M
;
_chemical_formula_sum "Si O2"
_cell_formula_units_Z 56
_cell_length_a 26.693653
_cell_length_b 8.873630
_cell_length_c 12.836515
_cell_angle_alpha 90.000000
_cell_angle_beta 72.695361
_cell_angle_gamma 90.000000
_cell_volume 2902.953540
_symmetry_space_group_name_H-M "C 2/M"
_symmetry_group_IT_number 12
_symmetry_cell_setting 'monoclinic'
loop_
_space_group_symop_operation_xyz
x,y,z
-x,y,-z
-x,-y,-z
x,-y,z
1/2+x,1/2+y,z
1/2-x,1/2+y,-z
1/2-x,1/2-y,-z
1/2+x,1/2-y,z
loop_
_atom_site_type_symbol
_atom_site_label
_atom_site_fract_x
_atom_site_fract_y
_atom_site_fract_z
Si Si1 0.276361 0.679528 0.382850
Si Si2 0.635148 0.820255 0.953791
Si Si3 0.043535 0.322906 0.622832
Si Si4 0.892795 0.820469 0.238970
Si Si5 0.854555 0.178025 0.842088
Si Si6 0.076950 0.677411 0.373612
Si Si7 0.248675 0.180567 0.833585
O O1 0.276895 0.500000 0.395820
O O2 0.250000 0.750000 0.500000
O O3 0.336644 0.727335 0.324326
O O4 0.245909 0.711647 0.293729
O O5 0.602605 0.760565 0.875139
O O6 0.693399 0.752087 0.900203
O O7 0.636625 0.000000 0.954532
O O8 0.617853 0.755752 0.075899
O O9 0.053062 0.500000 0.638394
O O10 0.062719 0.225909 0.707499
O O11 0.074602 0.283743 0.497289
O O12 0.982256 0.306689 0.633273
O O13 0.890713 0.000000 0.223954
O O14 0.885221 0.222233 0.718648
O O15 0.796579 0.247110 0.865276
O O16 0.851869 0.000000 0.858787
O O17 0.091579 0.500000 0.355250
O O18 0.247001 0.000000 0.849472
#
# Coordination Sequence:
#
# PCOD9207187 Si02
#       7
#     8   8   8   8   8   8   8
#     4   9  20  34  50  76 112 148 184 227 271 324
#     4  11  22  39  60  83 112 151 194 236 281 337
#     4   9  19  38  63  86 113 150 189 231 285 340
#     4  10  21  37  57  83 115 150 187 231 285 339
#     4  12  24  37  57  85 116 151 191 236 285 336
#     4   9  20  39  60  86 116 147 189 237 281 335
#     4  10  21  38  56  80 114 153 191 233 282 332
#
# _framework density 19.290697999999999
#
# number of rings (size 3 to 8) (size 9 to 14) (size 15 to 20)
#    0.000    2.000    0.000    5.571    2.000    4.571 
#    0.000    2.143    0.000    4.286    0.000    0.000 
#    0.000    0.000    0.000    0.000    0.000    0.000 
#
# Total GULP energy -156428.142676 kJ/mol
# GULP energy per Si atom -5586.719381 kJ/mol
# Density = 1.924679 g / cm^3
# Si number density = 19.290698 Si / 1000 Ang^3
#
#
#
# Elastic Constant Matrix: (Units=GPa)
#
#
# Indices 1 2 3 4 5 6 
#
# 1 30.5015 25.2672 8.9158 0.0000 22.6230 0.0000
# 2 25.2672 100.4668 32.7859 0.0000 15.8851 0.0000
# 3 8.9158 32.7859 44.8677 0.0000 14.7685 0.0000
# 4 0.0000 0.0000 0.0000 31.1111 0.0000 1.2860
# 5 22.6230 15.8851 14.7685 0.0000 26.9868 0.0000
# 6 0.0000 0.0000 0.0000 1.2860 0.0000 26.1581
#
#
#
# Elastic Compliance Matrix: (Units=1/GPa)
#
#
# Indices 1 2 3 4 5 6 
#
# 1 0.117284 -0.022137 0.025545 0.000000 -0.099268 0.000000
# 2 -0.022137 0.017452 -0.013515 0.000000 0.015681 0.000000
# 3 0.025545 -0.013515 0.038442 0.000000 -0.034497 0.000000
# 4 0.000000 0.000000 0.000000 0.032208 0.000000 -0.001583
# 5 -0.099268 0.015681 -0.034497 0.000000 0.129920 0.000000
# 6 0.000000 0.000000 0.000000 -0.001583 0.000000 0.038307
#
#
# Mechanical properties :
#
#
# Convention : Reuss Voigt Hill
#
# Bulk Modulus (GPa) = 6.53751 34.41932 20.47841
# Shear Modulus (GPa) = 11.24060 24.10901 17.67480
#
# Velocity S-wave (km/s) = 2.41653 3.53905 3.03022
# Velocity P-wave (km/s) = 3.34402 5.88056 4.78348
#
# Compressibility (1/GPa) = 0.15296343
#
# Stress axis : x y z
#
# Youngs Moduli (GPa) = 8.52631 57.29955 26.01306
#
# Poissons Ratio (x) = 1.26846 -0.66451
# Poissons Ratio (y) = 0.18875 0.35157
# Poissons Ratio (z) = -0.21781 0.77442
#
# Static dielectric constant tensor:
#      x y z
#    x 1.676150 0.000000 0.007120 
#    y 0.000000 1.640470 0.000000 
#    z 0.007120 0.000000 1.693720 
# 
# From -- ./inp_files/180718.got.cif
#   From: 2010.05.17/outbox.cif.g08.bks.cpg/sg12_91_cif.got.tgz:180718.got - 2010.06.03 13:09:07.
