data_PCOD9207848
_publ_section_title
;
Structure prediction by ZEFSAII (Michael W. Deem and Ramdas Pophale) SiO2 
 PCOD9207848
Probable space group: C 2/M
;
_chemical_formula_sum "Si O2"
_cell_formula_units_Z 40
_cell_length_a 12.257861
_cell_length_b 13.464268
_cell_length_c 9.637321
_cell_angle_alpha 90.000000
_cell_angle_beta 76.580934
_cell_angle_gamma 90.000000
_cell_volume 1547.148865
_symmetry_space_group_name_H-M "C 2/M"
_symmetry_group_IT_number 12
_symmetry_cell_setting 'monoclinic'
loop_
_space_group_symop_operation_xyz
x,y,z
-x,y,-z
-x,-y,-z
x,-y,z
1/2+x,1/2+y,z
1/2-x,1/2+y,-z
1/2-x,1/2-y,-z
1/2+x,1/2-y,z
loop_
_atom_site_type_symbol
_atom_site_label
_atom_site_fract_x
_atom_site_fract_y
_atom_site_fract_z
Si Si1 0.611829 0.311045 0.882924
Si Si2 0.378510 0.111037 0.485418
Si Si3 0.531665 0.309719 0.325303
Si Si4 0.842724 0.388926 0.800991
Si Si5 0.779275 0.384536 0.227100
O O1 0.573177 0.339138 0.738171
O O2 0.722300 0.368347 0.903389
O O3 0.651055 0.195409 0.881799
O O4 0.500000 0.331344 0.000000
O O5 0.500000 0.149157 0.500000
O O6 0.311029 0.110144 0.645988
O O7 0.314146 0.151187 0.373594
O O8 0.404976 0.000000 0.433375
O O9 0.500000 0.325671 0.500000
O O10 0.570011 0.203187 0.233397
O O11 0.646032 0.369627 0.264623
O O12 0.885456 0.500000 0.823906
O O13 0.806110 0.500000 0.192961
#
# Coordination Sequence:
#
# PCOD9207848 Si02
#       5
#     8   8   8   8   8
#     4  11  25  42  59  86 124 161 199 247 302 355
#     4   9  16  30  57  91 120 148 190 244 297 349
#     4  11  23  40  64  92 122 156 197 249 302 353
#     4  10  21  37  60  88 118 156 202 245 292 357
#     4  10  22  39  61  90 121 157 203 248 295 356
#
# _framework density 25.854009000000001
#
# number of rings (size 3 to 8) (size 9 to 14) (size 15 to 20)
#    0.000    1.800    0.000    4.200    0.000   12.000 
#    0.000    2.000    0.000    0.000    0.000    0.000 
#    0.000    0.000    0.000    0.000    0.000    0.000 
#
# Total GULP energy -111365.378886 kJ/mol
# GULP energy per Si atom -5568.268944 kJ/mol
# Density = 2.579516 g / cm^3
# Si number density = 25.854009 Si / 1000 Ang^3
#
#
#
# Elastic Constant Matrix: (Units=GPa)
#
#
# Indices 1 2 3 4 5 6 
#
# 1 144.6292 -5.5151 31.7732 0.0000 -7.1884 0.0000
# 2 -5.5151 30.2053 -7.9603 0.0000 0.0357 0.0000
# 3 31.7732 -7.9603 90.5369 0.0000 -13.4241 0.0000
# 4 0.0000 0.0000 0.0000 9.5589 0.0000 -4.4871
# 5 -7.1884 0.0357 -13.4241 0.0000 59.7198 0.0000
# 6 0.0000 0.0000 0.0000 -4.4871 0.0000 19.3443
#
#
#
# Elastic Compliance Matrix: (Units=1/GPa)
#
#
# Indices 1 2 3 4 5 6 
#
# 1 0.007512 0.000706 -0.002525 0.000000 0.000336 0.000000
# 2 0.000706 0.033985 0.002845 0.000000 0.000704 0.000000
# 3 -0.002525 0.002845 0.012554 0.000000 0.002516 0.000000
# 4 0.000000 0.000000 0.000000 0.117398 0.000000 0.027232
# 5 0.000336 0.000704 0.002516 0.000000 0.017351 0.000000
# 6 0.000000 0.000000 0.000000 0.027232 0.000000 0.058011
#
#
# Mechanical properties :
#
#
# Convention : Reuss Voigt Hill
#
# Bulk Modulus (GPa) = 17.82411 33.55189 25.68800
# Shear Modulus (GPa) = 18.97822 34.19618 26.58720
#
# Velocity S-wave (km/s) = 2.71228 3.64079 3.21028
# Velocity P-wave (km/s) = 4.08873 5.53890 4.86812
#
# Compressibility (1/GPa) = 0.05610377
#
# Stress axis : x y z
#
# Youngs Moduli (GPa) = 133.11192 29.42513 79.65323
#
# Poissons Ratio (x) = -0.02077 0.20108
# Poissons Ratio (y) = -0.09397 -0.22659
# Poissons Ratio (z) = 0.33604 -0.08371
#
# Static dielectric constant tensor:
#      x y z
#    x 1.972880 0.000000 0.050880 
#    y 0.000000 2.147160 0.000000 
#    z 0.050880 0.000000 2.356790 
# 
# From -- ./inp_files/130355.got.cif
#   From: 2010.05.17/outbox.cif.g08.bks.cpg/sg12_66_cif.got.tgz:130355.got - 2010.06.03 13:09:07.
