data_PCOD9207375
_publ_section_title
;
Structure prediction by ZEFSAII (Michael W. Deem and Ramdas Pophale) SiO2 
 PCOD9207375
Probable space group: C 2/M
;
_chemical_formula_sum "Si O2"
_cell_formula_units_Z 40
_cell_length_a 10.350438
_cell_length_b 8.851251
_cell_length_c 22.598956
_cell_angle_alpha 90.000000
_cell_angle_beta 83.284700
_cell_angle_gamma 90.000000
_cell_volume 2056.184110
_symmetry_space_group_name_H-M "C 2/M"
_symmetry_group_IT_number 12
_symmetry_cell_setting 'monoclinic'
loop_
_space_group_symop_operation_xyz
x,y,z
-x,y,-z
-x,-y,-z
x,-y,z
1/2+x,1/2+y,z
1/2-x,1/2+y,-z
1/2-x,1/2-y,-z
1/2+x,1/2-y,z
loop_
_atom_site_type_symbol
_atom_site_label
_atom_site_fract_x
_atom_site_fract_y
_atom_site_fract_z
Si Si1 0.996699 0.819362 0.631227
Si Si2 0.138501 0.818231 0.965491
Si Si3 0.589344 0.819158 0.239601
Si Si4 0.224629 0.319086 0.436993
Si Si5 0.368281 0.317826 0.171312
O O1 0.902947 0.750009 0.586341
O O2 0.147350 0.784484 0.609163
O O3 0.952813 0.753663 0.696337
O O4 0.982791 0.000000 0.631950
O O5 0.147479 0.772939 0.896344
O O6 0.147701 0.000000 0.966947
O O7 0.250000 0.750000 0.000000
O O8 0.000000 0.773280 0.000000
O O9 0.491291 0.760345 0.194741
O O10 0.736905 0.779599 0.213880
O O11 0.581443 0.000000 0.244570
O O12 0.211746 0.500000 0.441693
O O13 0.250000 0.250000 0.500000
O O14 0.385241 0.500000 0.172762
#
# Coordination Sequence:
#
# PCOD9207375 Si02
#       5
#     8   8   8   8   8
#     4  11  24  41  61  87 119 153 191 237 286 337
#     4  10  21  37  58  84 114 150 191 235 286 342
#     4  11  23  38  59  86 114 150 194 236 284 341
#     4  11  24  41  62  89 119 152 192 236 283 338
#     4  10  22  39  57  83 118 150 188 239 287 338
#
# _framework density 19.453512
#
# number of rings (size 3 to 8) (size 9 to 14) (size 15 to 20)
#    0.000    1.400    0.000    4.800    0.000   13.200 
#    0.000    0.000    0.000    0.000    0.000    0.000 
#    0.000    0.000    0.000    0.000    0.000    0.000 
#
# Total GULP energy -111890.077531 kJ/mol
# GULP energy per Si atom -5594.503877 kJ/mol
# Density = 1.940924 g / cm^3
# Si number density = 19.453512 Si / 1000 Ang^3
#
#
#
# Elastic Constant Matrix: (Units=GPa)
#
#
# Indices 1 2 3 4 5 6 
#
# 1 63.1117 16.8303 -27.7161 0.0000 3.4692 0.0000
# 2 16.8303 25.8805 2.2050 0.0000 -7.7378 0.0000
# 3 -27.7161 2.2050 54.7683 0.0000 -1.3398 0.0000
# 4 0.0000 0.0000 0.0000 34.5989 0.0000 10.1176
# 5 3.4692 -7.7378 -1.3398 0.0000 41.5147 0.0000
# 6 0.0000 0.0000 0.0000 10.1176 0.0000 34.8360
#
#
#
# Elastic Compliance Matrix: (Units=1/GPa)
#
#
# Indices 1 2 3 4 5 6 
#
# 1 0.028646 -0.021704 0.015225 0.000000 -0.005948 0.000000
# 2 -0.021704 0.057481 -0.013002 0.000000 0.012108 0.000000
# 3 0.015225 -0.013002 0.026417 0.000000 -0.002843 0.000000
# 4 0.000000 0.000000 0.000000 0.031585 0.000000 -0.009173
# 5 -0.005948 0.012108 -0.002843 0.000000 0.026750 0.000000
# 6 0.000000 0.000000 0.000000 -0.009173 0.000000 0.031370
#
#
# Mechanical properties :
#
#
# Convention : Reuss Voigt Hill
#
# Bulk Modulus (GPa) = 13.59013 14.04434 13.81723
# Shear Modulus (GPa) = 18.81542 32.35267 25.58404
#
# Velocity S-wave (km/s) = 3.11336 4.08251 3.63042
# Velocity P-wave (km/s) = 4.46375 5.42748 4.96904
#
# Compressibility (1/GPa) = 0.07358283
#
# Stress axis : x y z
#
# Youngs Moduli (GPa) = 34.90894 17.39692 37.85395
#
# Poissons Ratio (x) = 0.37759 -0.57632
# Poissons Ratio (y) = 0.75767 0.49216
# Poissons Ratio (z) = -0.53148 0.22619
#
# Static dielectric constant tensor:
#      x y z
#    x 1.638920 0.000000 -0.015490 
#    y 0.000000 1.531180 0.000000 
#    z -0.015490 0.000000 1.659290 
# 
# From -- ./inp_files/303436.got.cif
#   From: 2010.05.17/outbox.cif.g08.bks.cpg/sg12_152_cif.got.tgz:303436.got - 2010.06.03 13:09:07.
