data_PCOD9207673
_publ_section_title
;
Structure prediction by ZEFSAII (Michael W. Deem and Ramdas Pophale) SiO2 
 PCOD9207673
Probable space group: C 2/M
;
_chemical_formula_sum "Si O2"
_cell_formula_units_Z 64
_cell_length_a 22.910601
_cell_length_b 20.887809
_cell_length_c 9.518390
_cell_angle_alpha 90.000000
_cell_angle_beta 131.148050
_cell_angle_gamma 90.000000
_cell_volume 3430.004306
_symmetry_space_group_name_H-M "C 2/M"
_symmetry_group_IT_number 12
_symmetry_cell_setting 'monoclinic'
loop_
_space_group_symop_operation_xyz
x,y,z
-x,y,-z
-x,-y,-z
x,-y,z
1/2+x,1/2+y,z
1/2-x,1/2+y,-z
1/2-x,1/2-y,-z
1/2+x,1/2-y,z
loop_
_atom_site_type_symbol
_atom_site_label
_atom_site_fract_x
_atom_site_fract_y
_atom_site_fract_z
Si Si1 0.483564 0.884335 0.633945
Si Si2 0.706664 0.841432 0.398760
Si Si3 0.512725 0.267926 0.680733
Si Si4 0.379421 0.928136 0.953548
Si Si5 0.239838 0.073183 0.956834
Si Si6 0.306848 0.074396 0.375239
Si Si7 0.326919 0.288406 0.162239
Si Si8 0.355515 0.723363 0.523862
O O1 0.500000 0.906231 0.500000
O O2 0.497973 0.808216 0.662434
O O3 0.395302 0.902179 0.521077
O O4 0.541084 0.914272 0.839115
O O5 0.645425 0.878786 0.205522
O O6 0.735001 0.884116 0.573806
O O7 0.664729 0.779918 0.400284
O O8 0.783967 0.824314 0.435175
O O9 0.500000 0.291834 0.500000
O O10 0.604538 0.278354 0.842782
O O11 0.445933 0.297253 0.674536
O O12 0.381008 0.000000 0.897532
O O13 0.312099 0.924461 0.964745
O O14 0.272780 0.082516 0.166091
O O15 0.207185 0.000000 0.895461
O O16 0.187349 0.135427 0.844660
O O17 0.303512 0.000000 0.405000
O O18 0.349337 0.258261 0.349147
O O19 0.250000 0.250000 0.000000
#
# Coordination Sequence:
#
# PCOD9207673 Si02
#       8
#     8   8   8   8   8   8   8   8
#     4  11  20  35  56  84 119 156 196 244 295 351
#     4  11  22  38  57  80 120 155 199 237 297 354
#     4   9  20  35  58  85 113 145 194 247 292 346
#     4  11  22  36  56  84 117 159 201 243 290 355
#     4  10  21  37  59  88 117 150 203 255 297 348
#     4  11  22  37  58  83 117 162 199 235 294 366
#     4  11  20  35  65  93 115 152 204 252 304 351
#     4  10  21  39  58  81 116 157 190 251 298 352
#
# _framework density 18.658868999999999
#
# number of rings (size 3 to 8) (size 9 to 14) (size 15 to 20)
#    0.000    1.500    3.750    2.250    1.750    1.000 
#    0.000    1.250    0.000    4.875    0.000    1.750 
#    0.000    0.000    0.000    0.000    0.000    0.000 
#
# Total GULP energy -178473.254025 kJ/mol
# GULP energy per Si atom -5577.289188 kJ/mol
# Density = 1.861640 g / cm^3
# Si number density = 18.658869 Si / 1000 Ang^3
#
#
#
# Elastic Constant Matrix: (Units=GPa)
#
#
# Indices 1 2 3 4 5 6 
#
# 1 105.7221 17.6459 18.1827 0.0000 15.2422 0.0000
# 2 17.6459 68.4838 25.7565 0.0000 5.5858 0.0000
# 3 18.1827 25.7565 62.7012 0.0000 0.1063 0.0000
# 4 0.0000 0.0000 0.0000 30.1857 0.0000 -0.0054
# 5 15.2422 5.5858 0.1063 0.0000 29.1091 0.0000
# 6 0.0000 0.0000 0.0000 -0.0054 0.0000 4.1209
#
#
#
# Elastic Compliance Matrix: (Units=1/GPa)
#
#
# Indices 1 2 3 4 5 6 
#
# 1 0.010921 -0.001399 -0.002583 0.000000 -0.005441 0.000000
# 2 -0.001399 0.017770 -0.006889 0.000000 -0.002652 0.000000
# 3 -0.002583 -0.006889 0.019523 0.000000 0.002603 0.000000
# 4 0.000000 0.000000 0.000000 0.033128 0.000000 0.000044
# 5 -0.005441 -0.002652 0.002603 0.000000 0.037702 0.000000
# 6 0.000000 0.000000 0.000000 0.000044 0.000000 0.242666
#
#
# Mechanical properties :
#
#
# Convention : Reuss Voigt Hill
#
# Bulk Modulus (GPa) = 37.77639 40.00858 38.89248
# Shear Modulus (GPa) = 12.74612 24.37127 18.55869
#
# Velocity S-wave (km/s) = 2.61648 3.61799 3.15720
# Velocity P-wave (km/s) = 5.42381 6.24034 5.84635
#
# Compressibility (1/GPa) = 0.02647156
#
# Stress axis : x y z
#
# Youngs Moduli (GPa) = 91.56777 56.27526 51.22067
#
# Poissons Ratio (x) = 0.07871 0.13231
# Poissons Ratio (y) = 0.12807 0.35288
# Poissons Ratio (z) = 0.23654 0.38770
#
# Static dielectric constant tensor:
#      x y z
#    x 1.706060 0.000000 0.018340 
#    y 0.000000 1.671790 0.000000 
#    z 0.018340 0.000000 1.670700 
# 
# From -- ./inp_files/99150.got.cif
#   From: 2010.05.17/outbox.cif.g08.bks.cpg/sg12_50_cif.got.tgz:99150.got - 2010.06.03 13:09:07.
