data_PCOD9207624
_publ_section_title
;
Structure prediction by ZEFSAII (Michael W. Deem and Ramdas Pophale) SiO2 
 PCOD9207624
Probable space group: C 2/M
;
_chemical_formula_sum "Si O2"
_cell_formula_units_Z 56
_cell_length_a 27.418904
_cell_length_b 22.330646
_cell_length_c 5.167846
_cell_angle_alpha 90.000000
_cell_angle_beta 123.016639
_cell_angle_gamma 90.000000
_cell_volume 2653.202594
_symmetry_space_group_name_H-M "C 2/M"
_symmetry_group_IT_number 12
_symmetry_cell_setting 'monoclinic'
loop_
_space_group_symop_operation_xyz
x,y,z
-x,y,-z
-x,-y,-z
x,-y,z
1/2+x,1/2+y,z
1/2-x,1/2+y,-z
1/2-x,1/2-y,-z
1/2+x,1/2-y,z
loop_
_atom_site_type_symbol
_atom_site_label
_atom_site_fract_x
_atom_site_fract_y
_atom_site_fract_z
Si Si1 0.212137 0.862923 0.087282
Si Si2 0.153481 0.349546 0.508487
Si Si3 0.940430 0.431368 0.992068
Si Si4 0.562607 0.388430 0.231717
Si Si5 0.814258 0.934330 0.488559
Si Si6 0.410689 0.312793 0.193639
Si Si7 0.093845 0.316918 0.849714
O O1 0.278216 0.846892 0.339739
O O2 0.196078 0.914428 0.247690
O O3 0.210610 0.887355 0.790153
O O4 0.159960 0.815295 0.974074
O O5 0.117772 0.411160 0.337176
O O6 0.139535 0.332909 0.760273
O O7 0.123105 0.305698 0.214085
O O8 0.934957 0.500000 0.069449
O O9 0.941857 0.377995 0.206616
O O10 0.000000 0.427601 0.000000
O O11 0.616840 0.432281 0.362313
O O12 0.565365 0.357219 0.518580
O O13 0.500000 0.416027 0.000000
O O14 0.573325 0.338233 0.041018
O O15 0.789879 0.000000 0.370111
O O16 0.433521 0.245975 0.304021
#
# Coordination Sequence:
#
# PCOD9207624 Si02
#       7
#     8   8   8   8   8   8   8
#     4  10  21  38  58  87 123 155 194 244 299 345
#     4  10  22  39  58  89 115 150 199 238 293 357
#     4   9  22  43  61  82 117 153 192 247 301 351
#     4  10  21  38  58  87 121 158 198 240 293 342
#     4  10  21  37  59  86 120 160 199 241 289 342
#     4  10  21  38  59  87 122 156 192 245 297 348
#     4  10  22  39  60  89 112 151 199 235 296 357
#
# _framework density 21.106566000000001
#
# number of rings (size 3 to 8) (size 9 to 14) (size 15 to 20)
#    0.857    1.286    0.000    2.571    0.000    4.286 
#    2.571    1.429    0.000    5.143    0.000    0.000 
#    0.000    0.000    0.000    0.000    0.000    0.000 
#
# Total GULP energy -156040.243439 kJ/mol
# GULP energy per Si atom -5572.865837 kJ/mol
# Density = 2.105853 g / cm^3
# Si number density = 21.106566 Si / 1000 Ang^3
#
#
#
# Elastic Constant Matrix: (Units=GPa)
#
#
# Indices 1 2 3 4 5 6 
#
# 1 63.5461 3.2147 22.9220 0.0000 9.1253 0.0000
# 2 3.2147 73.3401 -7.1019 0.0000 -9.0696 0.0000
# 3 22.9220 -7.1019 55.7443 0.0000 4.2332 0.0000
# 4 0.0000 0.0000 0.0000 50.1039 0.0000 1.8966
# 5 9.1253 -9.0696 4.2332 0.0000 42.6180 0.0000
# 6 0.0000 0.0000 0.0000 1.8966 0.0000 1.6878
#
#
#
# Elastic Compliance Matrix: (Units=1/GPa)
#
#
# Indices 1 2 3 4 5 6 
#
# 1 0.019227 -0.002073 -0.007884 0.000000 -0.003775 0.000000
# 2 -0.002073 0.014365 0.002435 0.000000 0.003259 0.000000
# 3 -0.007884 0.002435 0.021486 0.000000 0.000072 0.000000
# 4 0.000000 0.000000 0.000000 0.020845 0.000000 -0.023424
# 5 -0.003775 0.003259 0.000072 0.000000 0.024959 0.000000
# 6 0.000000 0.000000 0.000000 -0.023424 0.000000 0.618817
#
#
# Mechanical properties :
#
#
# Convention : Reuss Voigt Hill
#
# Bulk Modulus (GPa) = 24.97858 25.63335 25.30597
# Shear Modulus (GPa) = 6.68372 30.45499 18.56935
#
# Velocity S-wave (km/s) = 1.78144 3.80269 2.96934
# Velocity P-wave (km/s) = 4.01143 5.60818 4.87562
#
# Compressibility (1/GPa) = 0.04003429
#
# Stress axis : x y z
#
# Youngs Moduli (GPa) = 52.00926 69.61464 46.54285
#
# Poissons Ratio (x) = 0.14431 0.36693
# Poissons Ratio (y) = 0.10782 -0.11333
# Poissons Ratio (z) = 0.41003 -0.16951
#
# Static dielectric constant tensor:
#      x y z
#    x 1.739710 0.000000 0.026810 
#    y 0.000000 1.735170 0.000000 
#    z 0.026810 0.000000 1.763910 
# 
# From -- ./inp_files/29235.got.cif
#   From: 2010.05.17/outbox.cif.g08.bks.cpg/sg12_15_cif.got.tgz:29235.got - 2010.06.03 13:09:07.
