data_PCOD9207726
_publ_section_title
;
Structure prediction by ZEFSAII (Michael W. Deem and Ramdas Pophale) SiO2 
 PCOD9207726
Probable space group: C 2/M
;
_chemical_formula_sum "Si O2"
_cell_formula_units_Z 64
_cell_length_a 16.480730
_cell_length_b 16.696543
_cell_length_c 18.235523
_cell_angle_alpha 90.000000
_cell_angle_beta 144.658530
_cell_angle_gamma 90.000000
_cell_volume 2902.589968
_symmetry_space_group_name_H-M "C 2/M"
_symmetry_group_IT_number 12
_symmetry_cell_setting 'monoclinic'
loop_
_space_group_symop_operation_xyz
x,y,z
-x,y,-z
-x,-y,-z
x,-y,z
1/2+x,1/2+y,z
1/2-x,1/2+y,-z
1/2-x,1/2-y,-z
1/2+x,1/2-y,z
loop_
_atom_site_type_symbol
_atom_site_label
_atom_site_fract_x
_atom_site_fract_y
_atom_site_fract_z
Si Si1 0.152637 0.623728 0.082087
Si Si2 0.052984 0.910790 0.353685
Si Si3 0.104377 0.135473 0.636256
Si Si4 0.071463 0.406261 0.634607
Si Si5 0.810015 0.669949 0.505940
Si Si6 0.678611 0.409858 0.938501
Si Si7 0.726829 0.709998 0.282740
Si Si8 0.422681 0.299612 0.011350
O O1 0.264972 0.595226 0.225439
O O2 0.202800 0.598790 0.037628
O O3 0.153963 0.721148 0.077224
O O4 0.000000 0.601097 0.000000
O O5 0.218106 0.901535 0.471630
O O6 0.994946 0.846121 0.367842
O O7 0.966798 0.901018 0.214918
O O8 0.017622 0.000000 0.354582
O O9 0.172392 0.213564 0.650828
O O10 0.000000 0.096872 0.500000
O O11 0.087366 0.500000 0.665803
O O12 0.215319 0.357241 0.730804
O O13 0.000000 0.404446 0.500000
O O14 0.970501 0.357546 0.615899
O O15 0.750000 0.750000 0.500000
O O16 0.754206 0.676004 0.382557
O O17 0.685593 0.500000 0.972700
O O18 0.670512 0.348618 0.000088
O O19 0.563225 0.731309 0.156658
O O20 0.500000 0.343761 0.000000
#
# Coordination Sequence:
#
# PCOD9207726 Si02
#       8
#     8   8   8   8   8   8   8   8
#     4  10  21  41  67  94 126 166 208 260 323 375
#     4  10  21  37  59  89 126 165 203 255 319 378
#     4  11  21  38  63  93 123 157 211 260 306 371
#     4   9  19  33  52  80 116 157 197 244 299 358
#     4  11  20  34  56  88 122 161 203 254 307 372
#     4  10  22  39  63  95 125 162 213 262 315 383
#     4  11  20  36  59  86 120 155 206 254 305 362
#     4  11  21  40  65  88 122 167 210 261 317 377
#
# _framework density 22.049275000000002
#
# number of rings (size 3 to 8) (size 9 to 14) (size 15 to 20)
#    0.000    1.625    3.750    3.375    0.000    1.750 
#    0.000    0.000    0.000    0.000    0.000    0.000 
#    0.000    0.000    0.000    0.000    0.000    0.000 
#
# Total GULP energy -178291.720633 kJ/mol
# GULP energy per Si atom -5571.616270 kJ/mol
# Density = 2.199909 g / cm^3
# Si number density = 22.049275 Si / 1000 Ang^3
#
#
#
# Elastic Constant Matrix: (Units=GPa)
#
#
# Indices 1 2 3 4 5 6 
#
# 1 110.7597 39.2889 33.1473 0.0000 24.6720 0.0000
# 2 39.2889 94.0364 14.5416 0.0000 12.8910 0.0000
# 3 33.1473 14.5416 80.8366 0.0000 8.8303 0.0000
# 4 0.0000 0.0000 0.0000 1.4361 0.0000 6.1321
# 5 24.6720 12.8910 8.8303 0.0000 26.2406 0.0000
# 6 0.0000 0.0000 0.0000 6.1321 0.0000 19.5298
#
#
#
# Elastic Compliance Matrix: (Units=1/GPa)
#
#
# Indices 1 2 3 4 5 6 
#
# 1 0.013696 -0.003792 -0.003873 0.000000 -0.009711 0.000000
# 2 -0.003792 0.012628 -0.000445 0.000000 -0.002489 0.000000
# 3 -0.003873 -0.000445 0.014137 0.000000 -0.000897 0.000000
# 4 0.000000 0.000000 0.000000 -2.043662 0.000001 0.641686
# 5 -0.009711 -0.002489 -0.000897 0.000001 0.048764 0.000000
# 6 0.000000 0.000000 0.000000 0.641686 0.000000 -0.150278
#
#
# Mechanical properties :
#
#
# Convention : Reuss Voigt Hill
#
# Bulk Modulus (GPa) = 41.25226 51.06537 46.15882
# Shear Modulus (GPa) = -2.40337 22.68496 10.14080
#
# Velocity S-wave (km/s) = -1.04516 3.21102 2.14689
# Velocity P-wave (km/s) = 4.15852 6.07926 5.20820
#
# Compressibility (1/GPa) = 0.02424109
#
# Stress axis : x y z
#
# Youngs Moduli (GPa) = 73.01426 79.18600 70.73713
#
# Poissons Ratio (x) = 0.30028 0.27397
# Poissons Ratio (y) = 0.27688 0.03147
# Poissons Ratio (z) = 0.28279 0.03523
#
# Static dielectric constant tensor:
#      x y z
#    x 1.827230 0.000000 -0.008860 
#    y 0.000000 1.799850 0.000000 
#    z -0.008860 0.000000 1.828330 
# 
# From -- ./inp_files/271734.got.cif
#   From: 2010.05.17/outbox.cif.g08.bks.cpg/sg12_136_cif.got.tgz:271734.got - 2010.06.03 13:09:07.
