data_PCOD9207872
_publ_section_title
;
Structure prediction by ZEFSAII (Michael W. Deem and Ramdas Pophale) SiO2 
 PCOD9207872
Probable space group: C 2/M
;
_chemical_formula_sum "Si O2"
_cell_formula_units_Z 56
_cell_length_a 9.757986
_cell_length_b 13.499277
_cell_length_c 26.972032
_cell_angle_alpha 90.000000
_cell_angle_beta 58.546626
_cell_angle_gamma 90.000000
_cell_volume 3030.864565
_symmetry_space_group_name_H-M "C 2/M"
_symmetry_group_IT_number 12
_symmetry_cell_setting 'monoclinic'
loop_
_space_group_symop_operation_xyz
x,y,z
-x,y,-z
-x,-y,-z
x,-y,z
1/2+x,1/2+y,z
1/2-x,1/2+y,-z
1/2-x,1/2-y,-z
1/2+x,1/2-y,z
loop_
_atom_site_type_symbol
_atom_site_label
_atom_site_fract_x
_atom_site_fract_y
_atom_site_fract_z
Si Si1 0.739182 0.227526 0.819083
Si Si2 0.558495 0.758578 0.623153
Si Si3 0.875230 0.754900 0.899738
Si Si4 0.891660 0.880741 0.569706
Si Si5 0.185289 0.612277 0.270776
Si Si6 0.655302 0.383734 0.002874
Si Si7 0.489704 0.610376 0.279668
O O1 0.767451 0.227756 0.872177
O O2 0.550093 0.227150 0.847065
O O3 0.814780 0.325411 0.779538
O O4 0.836162 0.141351 0.773135
O O5 0.723931 0.822582 0.588165
O O6 0.487950 0.688355 0.592097
O O7 0.422936 0.835857 0.666972
O O8 0.573244 0.684744 0.666976
O O9 0.875915 0.850225 0.935124
O O10 0.804090 0.671340 0.949401
O O11 0.000000 0.882077 0.500000
O O12 0.867843 0.000000 0.588281
O O13 0.133159 0.500000 0.272981
O O14 0.366461 0.613775 0.257269
O O15 0.677022 0.500000 0.995690
O O16 0.500000 0.354555 0.000000
O O17 0.491719 0.500000 0.299839
#
# Coordination Sequence:
#
# PCOD9207872 Si02
#       7
#     8   8   8   8   8   8   8
#     4  11  22  37  58  86 118 149 185 241 298 352
#     4  11  21  42  63  90 127 168 207 259 313 368
#     4  11  22  39  58  84 115 146 187 241 289 349
#     4  11  24  41  64  95 129 169 216 264 315 369
#     4  10  21  37  61  89 117 158 203 241 299 370
#     4  10  22  39  61  83 107 150 195 233 291 356
#     4  10  21  37  60  89 119 156 200 246 304 363
#
# _framework density 18.476576000000001
#
# number of rings (size 3 to 8) (size 9 to 14) (size 15 to 20)
#    0.000    1.429    4.286    1.286    0.000    2.286 
#    0.000    2.143    0.000    3.429    0.000    0.000 
#    0.000    0.000    0.000    0.000    0.000    0.000 
#
# Total GULP energy -156062.251441 kJ/mol
# GULP energy per Si atom -5573.651837 kJ/mol
# Density = 1.843452 g / cm^3
# Si number density = 18.476576 Si / 1000 Ang^3
#
#
#
# Elastic Constant Matrix: (Units=GPa)
#
#
# Indices 1 2 3 4 5 6 
#
# 1 47.7402 27.1955 7.0441 0.0000 -3.4070 0.0000
# 2 27.1955 95.5957 30.0246 0.0000 -10.1969 0.0000
# 3 7.0441 30.0246 67.5605 0.0000 -9.6904 0.0000
# 4 0.0000 0.0000 0.0000 14.3131 0.0000 2.2110
# 5 -3.4070 -10.1969 -9.6904 0.0000 40.3993 0.0000
# 6 0.0000 0.0000 0.0000 2.2110 0.0000 24.4389
#
#
#
# Elastic Compliance Matrix: (Units=1/GPa)
#
#
# Indices 1 2 3 4 5 6 
#
# 1 0.025029 -0.007292 0.000693 0.000000 0.000437 0.000000
# 2 -0.007292 0.014415 -0.005398 0.000000 0.001729 0.000000
# 3 0.000693 -0.005398 0.017545 0.000000 0.002904 0.000000
# 4 0.000000 0.000000 0.000000 0.070856 0.000000 -0.006410
# 5 0.000437 0.001729 0.002904 0.000000 0.025923 0.000000
# 6 0.000000 0.000000 0.000000 -0.006410 0.000000 0.041498
#
#
# Mechanical properties :
#
#
# Convention : Reuss Voigt Hill
#
# Bulk Modulus (GPa) = 30.30610 37.71387 34.00998
# Shear Modulus (GPa) = 21.71483 25.60573 23.66028
#
# Velocity S-wave (km/s) = 3.43193 3.72674 3.58237
# Velocity P-wave (km/s) = 5.66941 6.24293 5.96307
#
# Compressibility (1/GPa) = 0.03299666
#
# Stress axis : x y z
#
# Youngs Moduli (GPa) = 39.95317 69.37294 56.99720
#
# Poissons Ratio (x) = 0.50584 -0.03953
# Poissons Ratio (y) = 0.29133 0.30766
# Poissons Ratio (z) = -0.02771 0.37447
#
# Static dielectric constant tensor:
#      x y z
#    x 1.656290 0.000000 0.000310 
#    y 0.000000 1.649700 0.000000 
#    z 0.000310 0.000000 1.611220 
# 
# From -- ./inp_files/300126.got.cif
#   From: 2010.05.17/outbox.cif.g08.bks.cpg/sg12_151_cif.got.tgz:300126.got - 2010.06.03 13:09:07.
