data_PCOD9207095
_publ_section_title
;
Structure prediction by ZEFSAII (Michael W. Deem and Ramdas Pophale) SiO2 
 PCOD9207095
Probable space group: C 2/M
;
_chemical_formula_sum "Si O2"
_cell_formula_units_Z 64
_cell_length_a 34.772884
_cell_length_b 9.247406
_cell_length_c 19.329176
_cell_angle_alpha 90.000000
_cell_angle_beta 146.675740
_cell_angle_gamma 90.000000
_cell_volume 3414.634196
_symmetry_space_group_name_H-M "C 2/M"
_symmetry_group_IT_number 12
_symmetry_cell_setting 'monoclinic'
loop_
_space_group_symop_operation_xyz
x,y,z
-x,y,-z
-x,-y,-z
x,-y,z
1/2+x,1/2+y,z
1/2-x,1/2+y,-z
1/2-x,1/2-y,-z
1/2+x,1/2-y,z
loop_
_atom_site_type_symbol
_atom_site_label
_atom_site_fract_x
_atom_site_fract_y
_atom_site_fract_z
Si Si1 0.213734 0.172588 0.344901
Si Si2 0.357760 0.167428 0.182573
Si Si3 0.486218 0.170965 0.739655
Si Si4 0.131999 0.169189 0.940910
Si Si5 0.026923 0.663000 0.438485
Si Si6 0.854621 0.170706 0.316559
Si Si7 0.259059 0.669429 0.770507
Si Si8 0.142811 0.673269 0.359911
O O1 0.212399 0.209693 0.262101
O O2 0.158063 0.252195 0.309783
O O3 0.290713 0.208783 0.491144
O O4 0.204382 0.000000 0.337498
O O5 0.339906 0.245245 0.083884
O O6 0.442953 0.171282 0.314812
O O7 0.332723 0.251451 0.212487
O O8 0.335681 0.000000 0.149960
O O9 0.556792 0.263077 0.846833
O O10 0.454864 0.183019 0.615038
O O11 0.428661 0.215390 0.709226
O O12 0.503084 0.000000 0.773933
O O13 0.124627 0.000000 0.912111
O O14 0.182558 0.182493 0.082495
O O15 0.047638 0.500000 0.491592
O O16 0.067756 0.776916 0.545903
O O17 0.804922 0.232038 0.301902
O O18 0.850456 0.000000 0.303500
O O19 0.236861 0.500000 0.733838
O O20 0.858147 0.500000 0.649668
#
# Coordination Sequence:
#
# PCOD9207095 Si02
#       8
#     8   8   8   8   8   8   8   8
#     4   9  18  34  55  78 106 139 173 211 257 311
#     4  10  21  38  58  77 104 143 177 210 262 322
#     4   9  18  34  56  79 107 145 179 209 259 323
#     4  10  21  37  57  79 102 133 179 230 266 299
#     4   9  18  34  55  78 107 143 176 207 256 321
#     4  12  24  34  52  82 109 135 173 223 268 308
#     4  10  22  40  57  73 102 144 181 215 264 321
#     4   9  17  31  54  83 110 136 170 211 257 311
#
# _framework density 18.742857999999998
#
# number of rings (size 3 to 8) (size 9 to 14) (size 15 to 20)
#    0.000    2.250    0.000    3.750    0.000    8.500 
#    0.000    3.125    0.000    3.750    0.000    0.000 
#    0.000    0.000    0.000    0.000    0.000    0.000 
#
# Total GULP energy -178733.747368 kJ/mol
# GULP energy per Si atom -5585.429605 kJ/mol
# Density = 1.870020 g / cm^3
# Si number density = 18.742858 Si / 1000 Ang^3
#
#
#
# Elastic Constant Matrix: (Units=GPa)
#
#
# Indices 1 2 3 4 5 6 
#
# 1 99.2514 41.4024 16.5370 0.0000 -22.7414 0.0000
# 2 41.4024 91.1184 34.8233 0.0000 -13.6112 0.0000
# 3 16.5370 34.8233 44.1096 0.0000 -12.2119 0.0000
# 4 0.0000 0.0000 0.0000 23.5902 0.0000 -2.0624
# 5 -22.7414 -13.6112 -12.2119 0.0000 25.4241 0.0000
# 6 0.0000 0.0000 0.0000 -2.0624 0.0000 33.6500
#
#
#
# Elastic Compliance Matrix: (Units=1/GPa)
#
#
# Indices 1 2 3 4 5 6 
#
# 1 0.014686 -0.005854 0.002174 0.000000 0.011047 0.000000
# 2 -0.005854 0.018229 -0.012623 0.000000 -0.001540 0.000000
# 3 0.002174 -0.012623 0.035165 0.000000 0.012077 0.000000
# 4 0.000000 0.000000 0.000000 0.042619 0.000000 0.002612
# 5 0.011047 -0.001540 0.012077 0.000000 0.054190 0.000000
# 6 0.000000 0.000000 0.000000 0.002612 0.000000 0.029878
#
#
# Mechanical properties :
#
#
# Convention : Reuss Voigt Hill
#
# Bulk Modulus (GPa) = 28.18954 46.66719 37.42836
# Shear Modulus (GPa) = 20.90326 25.98063 23.44194
#
# Velocity S-wave (km/s) = 3.34318 3.72716 3.54038
# Velocity P-wave (km/s) = 5.47497 6.59356 6.06013
#
# Compressibility (1/GPa) = 0.03547416
#
# Stress axis : x y z
#
# Youngs Moduli (GPa) = 68.09080 54.85881 28.43750
#
# Poissons Ratio (x) = 0.32113 -0.06182
# Poissons Ratio (y) = 0.39859 0.35896
# Poissons Ratio (z) = -0.14801 0.69247
#
# Static dielectric constant tensor:
#      x y z
#    x 1.653310 0.000000 0.006960 
#    y 0.000000 1.628980 0.000000 
#    z 0.006960 0.000000 1.649580 
# 
# From -- ./inp_files/295685.got.cif
#   From: 2010.05.17/outbox.cif.g08.bks.cpg/sg12_148_cif.got.tgz:295685.got - 2010.06.03 13:09:07.
