data_PCOD9207998
_publ_section_title
;
Structure prediction by ZEFSAII (Michael W. Deem and Ramdas Pophale) SiO2 
 PCOD9207998
Probable space group: C 2/M
;
_chemical_formula_sum "Si O2"
_cell_formula_units_Z 52
_cell_length_a 8.079783
_cell_length_b 15.915232
_cell_length_c 29.717253
_cell_angle_alpha 90.000000
_cell_angle_beta 139.457367
_cell_angle_gamma 90.000000
_cell_volume 2483.955589
_symmetry_space_group_name_H-M "C 2/M"
_symmetry_group_IT_number 12
_symmetry_cell_setting 'monoclinic'
loop_
_space_group_symop_operation_xyz
x,y,z
-x,y,-z
-x,-y,-z
x,-y,z
1/2+x,1/2+y,z
1/2-x,1/2+y,-z
1/2-x,1/2-y,-z
1/2+x,1/2-y,z
loop_
_atom_site_type_symbol
_atom_site_label
_atom_site_fract_x
_atom_site_fract_y
_atom_site_fract_z
Si Si1 0.780946 0.500000 0.346124
Si Si2 0.006016 0.330541 0.146891
Si Si3 0.281458 0.177592 0.250880
Si Si4 0.525090 0.208939 0.053044
Si Si5 0.663576 0.280823 0.651902
Si Si6 0.141141 0.654116 0.575926
Si Si7 0.679746 0.000000 0.751822
Si Si8 0.838840 0.500000 0.769578
O O1 0.888679 0.578944 0.395642
O O2 0.871260 0.500000 0.312883
O O3 0.469461 0.500000 0.286816
O O4 0.729998 0.285437 0.094150
O O5 0.185059 0.255859 0.202276
O O6 0.068519 0.343261 0.107260
O O7 0.051882 0.415155 0.184290
O O8 0.250431 0.206904 0.295910
O O9 0.583954 0.168427 0.306664
O O10 0.170841 0.088532 0.212730
O O11 0.500000 0.162619 0.000000
O O12 0.250000 0.250000 0.000000
O O13 0.442256 0.333458 0.629027
O O14 0.560755 0.238604 0.585286
O O15 0.000000 0.641109 0.500000
O O16 0.454189 0.000000 0.742545
#
# Coordination Sequence:
#
# PCOD9207998 Si02
#       8
#     4   8   8   8   8   8   4   4
#     4  12  25  42  62  92 132 165 213 278 342 386
#     4  11  22  40  68  96 131 175 220 264 326 393
#     4  11  21  38  62  93 124 164 209 274 341 384
#     4   9  20  40  64  93 132 177 213 254 304 373
#     4  10  21  37  61  87 121 158 211 275 337 385
#     4  11  22  40  61  85 120 170 218 263 326 412
#     4  12  24  39  61  92 134 162 210 268 346 400
#     4  12  26  43  65 102 134 168 217 282 336 386
#
# _framework density 20.934352000000001
#
# number of rings (size 3 to 8) (size 9 to 14) (size 15 to 20)
#    0.000    1.231    1.538    6.231    2.154    0.000 
#    0.000    3.846    0.000    5.538    0.000    0.000 
#    0.000    0.000    0.000    0.000    0.000    0.000 
#
# Total GULP energy -145059.854182 kJ/mol
# GULP energy per Si atom -5579.225161 kJ/mol
# Density = 2.088670 g / cm^3
# Si number density = 20.934352 Si / 1000 Ang^3
#
#
#
# Elastic Constant Matrix: (Units=GPa)
#
#
# Indices 1 2 3 4 5 6 
#
# 1 105.9987 27.7308 39.8076 0.0000 -31.2946 0.0000
# 2 27.7308 117.6932 42.6097 0.0000 -15.0960 0.0000
# 3 39.8076 42.6097 95.6628 0.0001 -29.8965 -0.0001
# 4 0.0000 0.0000 0.0001 8.4140 0.0000 -13.8886
# 5 -31.2946 -15.0960 -29.8965 0.0000 47.3096 0.0000
# 6 0.0000 0.0000 -0.0001 -13.8886 0.0000 16.3908
#
#
#
# Elastic Compliance Matrix: (Units=1/GPa)
#
#
# Indices 1 2 3 4 5 6 
#
# 1 0.012622 -0.001167 -0.002791 0.000000 0.006213 0.000000
# 2 -0.001167 0.010247 -0.004110 0.000000 -0.000099 0.000000
# 3 -0.002791 -0.004110 0.015524 0.000000 0.006653 0.000000
# 4 0.000000 0.000000 0.000000 -0.298114 -0.000001 -0.252605
# 5 0.006213 -0.000099 0.006653 -0.000001 0.029420 0.000000
# 6 0.000000 0.000000 0.000000 -0.252605 0.000000 -0.153033
#
#
# Mechanical properties :
#
#
# Convention : Reuss Voigt Hill
#
# Bulk Modulus (GPa) = 44.92602 59.96122 52.44362
# Shear Modulus (GPa) = -13.89736 28.36998 7.23631
#
# Velocity S-wave (km/s) = -2.57933 3.68528 1.86123
# Velocity P-wave (km/s) = 3.55477 6.84201 5.45204
#
# Compressibility (1/GPa) = 0.02225882
#
# Stress axis : x y z
#
# Youngs Moduli (GPa) = 79.22842 97.59286 64.41505
#
# Poissons Ratio (x) = 0.11385 0.17977
# Poissons Ratio (y) = 0.09243 0.26471
# Poissons Ratio (z) = 0.22111 0.40106
#
# Static dielectric constant tensor:
#      x y z
#    x 1.795910 0.000000 -0.034340 
#    y 0.000000 1.771680 0.000000 
#    z -0.034340 0.000000 1.770210 
# 
# From -- ./inp_files/372508.got.cif
#   From: 2010.05.17/outbox.cif.g08.bks.cpg/sg12_187_cif.got.tgz:372508.got - 2010.06.03 13:09:07.
