data_PCOD9207523
_publ_section_title
;
Structure prediction by ZEFSAII (Michael W. Deem and Ramdas Pophale) SiO2 
 PCOD9207523
Probable space group: C 2/M
;
_chemical_formula_sum "Si O2"
_cell_formula_units_Z 56
_cell_length_a 25.024242
_cell_length_b 7.757924
_cell_length_c 12.474049
_cell_angle_alpha 90.000000
_cell_angle_beta 79.140521
_cell_angle_gamma 90.000000
_cell_volume 2378.297392
_symmetry_space_group_name_H-M "C 2/M"
_symmetry_group_IT_number 12
_symmetry_cell_setting 'monoclinic'
loop_
_space_group_symop_operation_xyz
x,y,z
-x,y,-z
-x,-y,-z
x,-y,z
1/2+x,1/2+y,z
1/2-x,1/2+y,-z
1/2-x,1/2-y,-z
1/2+x,1/2-y,z
loop_
_atom_site_type_symbol
_atom_site_label
_atom_site_fract_x
_atom_site_fract_y
_atom_site_fract_z
Si Si1 0.345964 0.801302 0.236671
Si Si2 0.592577 0.805256 0.991489
Si Si3 0.927725 0.799421 0.377810
Si Si4 0.725945 0.300557 0.310802
Si Si5 0.889583 0.208998 0.615797
Si Si6 0.463779 0.796687 0.783522
Si Si7 0.306066 0.696766 0.925072
O O1 0.382139 0.798398 0.328210
O O2 0.286524 0.722866 0.283824
O O3 0.334956 0.000000 0.205826
O O4 0.383625 0.724543 0.126938
O O5 0.549274 0.726784 0.091905
O O6 0.645969 0.811255 0.046866
O O7 0.573944 0.000000 0.971212
O O8 0.927970 0.743632 0.501502
O O9 0.984316 0.781231 0.294952
O O10 0.911958 0.000000 0.383744
O O11 0.732173 0.500000 0.345241
O O12 0.671897 0.228643 0.388154
O O13 0.705164 0.297562 0.196274
O O14 0.914451 0.271679 0.718191
O O15 0.887577 0.000000 0.625644
O O16 0.473153 0.000000 0.792457
O O17 0.320225 0.500000 0.948075
O O18 0.250000 0.750000 0.000000
#
# Coordination Sequence:
#
# PCOD9207523 Si02
#       7
#     8   8   8   8   8   8   8
#     4  10  21  40  61  83 119 159 193 231 288 356
#     4  10  21  37  58  89 120 150 191 241 297 349
#     4  11  25  42  59  82 117 158 202 246 288 342
#     4   9  18  34  59  87 116 153 189 228 289 352
#     4  10  21  40  63  88 118 152 193 243 296 346
#     4  11  23  39  63  91 117 147 195 250 297 349
#     4  11  19  31  55  86 121 156 191 235 291 351
#
# _framework density 23.546254999999999
#
# number of rings (size 3 to 8) (size 9 to 14) (size 15 to 20)
#    0.000    1.714    2.857    1.714    0.000    5.143 
#    0.000    3.571    0.000    0.000    0.000    0.000 
#    0.000    0.000    0.000    0.000    0.000    0.000 
#
# Total GULP energy -156285.068651 kJ/mol
# GULP energy per Si atom -5581.609595 kJ/mol
# Density = 2.349266 g / cm^3
# Si number density = 23.546255 Si / 1000 Ang^3
#
#
#
# Elastic Constant Matrix: (Units=GPa)
#
#
# Indices 1 2 3 4 5 6 
#
# 1 59.2979 -1.7959 29.7584 0.0000 -11.4777 0.0000
# 2 -1.7959 52.0976 4.8546 0.0000 -1.3583 0.0000
# 3 29.7584 4.8546 72.0118 0.0000 -19.6349 0.0000
# 4 0.0000 0.0000 0.0000 7.3546 0.0000 5.9242
# 5 -11.4777 -1.3583 -19.6349 0.0000 39.4643 0.0000
# 6 0.0000 0.0000 0.0000 5.9242 0.0000 17.4638
#
#
#
# Elastic Compliance Matrix: (Units=1/GPa)
#
#
# Indices 1 2 3 4 5 6 
#
# 1 0.021557 0.001585 -0.008435 0.000000 0.002127 0.000000
# 2 0.001585 0.019433 -0.001917 0.000000 0.000176 0.000000
# 3 -0.008435 -0.001917 0.019454 0.000000 0.007160 0.000000
# 4 0.000000 0.000000 0.000000 0.187092 0.000000 -0.063467
# 5 0.002127 0.000176 0.007160 0.000000 0.029526 0.000000
# 6 0.000000 0.000000 0.000000 -0.063467 0.000000 0.078791
#
#
# Mechanical properties :
#
#
# Convention : Reuss Voigt Hill
#
# Bulk Modulus (GPa) = 23.30535 27.67128 25.48831
# Shear Modulus (GPa) = 12.89689 22.89588 17.89639
#
# Velocity S-wave (km/s) = 2.34289 3.12168 2.75990
# Velocity P-wave (km/s) = 4.15187 4.97701 4.58305
#
# Compressibility (1/GPa) = 0.04290861
#
# Stress axis : x y z
#
# Youngs Moduli (GPa) = 46.38898 51.45996 51.40400
#
# Poissons Ratio (x) = -0.08154 0.43359
# Poissons Ratio (y) = -0.07351 0.09853
# Poissons Ratio (z) = 0.39129 0.09864
#
# Static dielectric constant tensor:
#      x y z
#    x 1.889630 0.000000 -0.092670 
#    y 0.000000 1.926890 0.000000 
#    z -0.092670 0.000000 1.899520 
# 
# From -- ./inp_files/180685.got.cif
#   From: 2010.05.17/outbox.cif.g08.bks.cpg/sg12_91_cif.got.tgz:180685.got - 2010.06.03 13:09:07.
