data_PCOD9207371
_publ_section_title
;
Structure prediction by ZEFSAII (Michael W. Deem and Ramdas Pophale) SiO2 
 PCOD9207371
Probable space group: C 2/M
;
_chemical_formula_sum "Si O2"
_cell_formula_units_Z 48
_cell_length_a 18.632819
_cell_length_b 8.617688
_cell_length_c 28.144685
_cell_angle_alpha 90.000000
_cell_angle_beta 145.775409
_cell_angle_gamma 90.000000
_cell_volume 2541.795545
_symmetry_space_group_name_H-M "C 2/M"
_symmetry_group_IT_number 12
_symmetry_cell_setting 'monoclinic'
loop_
_space_group_symop_operation_xyz
x,y,z
-x,y,-z
-x,-y,-z
x,-y,z
1/2+x,1/2+y,z
1/2-x,1/2+y,-z
1/2-x,1/2-y,-z
1/2+x,1/2-y,z
loop_
_atom_site_type_symbol
_atom_site_label
_atom_site_fract_x
_atom_site_fract_y
_atom_site_fract_z
Si Si1 0.646973 0.689208 0.083310
Si Si2 0.767757 0.686379 0.249701
Si Si3 0.894373 0.313816 0.751566
Si Si4 0.947827 0.814159 0.591010
Si Si5 0.282638 0.685799 0.592895
Si Si6 0.190109 0.687589 0.918752
O O1 0.646615 0.500000 0.082847
O O2 0.712424 0.737869 0.168332
O O3 0.727759 0.739971 0.081795
O O4 0.500000 0.740227 0.000000
O O5 0.768972 0.500000 0.251221
O O6 0.677982 0.747349 0.242435
O O7 0.910775 0.747741 0.334554
O O8 0.889860 0.500000 0.750341
O O9 0.827438 0.255278 0.667038
O O10 0.042667 0.264560 0.833158
O O11 0.853864 0.748389 0.499283
O O12 0.882748 0.770658 0.605892
O O13 0.950683 0.000000 0.589454
O O14 0.278268 0.500000 0.593510
O O15 0.193745 0.500000 0.921789
O O16 0.250000 0.750000 0.000000
#
# Coordination Sequence:
#
# PCOD9207371 Si02
#       6
#     8   8   8   8   8   8
#     4   9  18  34  57  83 111 145 186 231 279 333
#     4  11  22  37  59  84 113 151 195 238 283 342
#     4  11  23  38  56  82 118 154 191 238 289 336
#     4  10  21  38  60  86 117 149 185 235 290 340
#     4  10  21  38  61  87 114 149 193 234 279 342
#     4  10  21  37  58  84 114 149 188 232 284 340
#
# _framework density 18.884288000000002
#
# number of rings (size 3 to 8) (size 9 to 14) (size 15 to 20)
#    0.000    1.833    0.000    4.000    0.000    6.667 
#    0.000    5.000    0.000    4.500    0.000    0.000 
#    0.000    0.000    0.000    0.000    0.000    0.000 
#
# Total GULP energy -134144.317734 kJ/mol
# GULP energy per Si atom -5589.346572 kJ/mol
# Density = 1.884131 g / cm^3
# Si number density = 18.884288 Si / 1000 Ang^3
#
#
#
# Elastic Constant Matrix: (Units=GPa)
#
#
# Indices 1 2 3 4 5 6 
#
# 1 105.7211 0.2185 74.4982 0.0001 34.1585 0.0001
# 2 0.2185 15.8126 10.1818 0.0000 19.8464 0.0000
# 3 74.4982 10.1818 153.5257 0.0001 33.2029 0.0001
# 4 0.0001 0.0000 0.0001 22.3373 0.0000 -6.3017
# 5 34.1585 19.8464 33.2029 0.0000 25.2598 0.0000
# 6 0.0001 0.0000 0.0001 -6.3017 0.0000 26.5381
#
#
#
# Elastic Compliance Matrix: (Units=1/GPa)
#
#
# Indices 1 2 3 4 5 6 
#
# 1 0.003436 -0.036842 -0.006258 0.000000 0.032526 0.000000
# 2 -0.036842 -0.085041 -0.002386 0.000001 0.119772 0.000001
# 3 -0.006258 -0.002386 0.010441 0.000000 -0.003387 0.000000
# 4 0.000000 0.000001 0.000000 0.047983 -0.000001 0.011394
# 5 0.032526 0.119772 -0.003387 -0.000001 -0.094049 -0.000001
# 6 0.000000 0.000001 0.000000 0.011394 -0.000001 0.040387
#
#
# Mechanical properties :
#
#
# Convention : Reuss Voigt Hill
#
# Bulk Modulus (GPa) = -6.16769 49.42848 21.63039
# Shear Modulus (GPa) = -125.26230 27.50442 -48.87894
#
# Velocity S-wave (km/s) = -8.15325 3.82051 -5.09309
# Velocity P-wave (km/s) = 9.58682 6.75966 4.80698
#
# Compressibility (1/GPa) = -0.16213514
#
# Stress axis : x y z
#
# Youngs Moduli (GPa) = 291.05572 -11.75909 95.77561
#
# Poissons Ratio (x) = -0.43322 0.59939
# Poissons Ratio (y) = 10.72293 0.22851
# Poissons Ratio (z) = 1.82151 -0.02806
#
# Static dielectric constant tensor:
#      x y z
#    x 1.629570 0.000000 0.006800 
#    y 0.000000 1.637650 0.000000 
#    z 0.006800 0.000000 1.618890 
# 
# From -- ./inp_files/378553.got.cif
#   From: 2010.05.17/outbox.cif.g08.bks.cpg/sg12_190_cif.got.tgz:378553.got - 2010.06.03 13:09:07.
