data_PCOD9207556
_publ_section_title
;
Structure prediction by ZEFSAII (Michael W. Deem and Ramdas Pophale) SiO2 
 PCOD9207556
Probable space group: C 2/M
;
_chemical_formula_sum "Si O2"
_cell_formula_units_Z 56
_cell_length_a 16.180476
_cell_length_b 18.442446
_cell_length_c 11.021812
_cell_angle_alpha 90.000000
_cell_angle_beta 117.918242
_cell_angle_gamma 90.000000
_cell_volume 2906.207916
_symmetry_space_group_name_H-M "C 2/M"
_symmetry_group_IT_number 12
_symmetry_cell_setting 'monoclinic'
loop_
_space_group_symop_operation_xyz
x,y,z
-x,y,-z
-x,-y,-z
x,-y,z
1/2+x,1/2+y,z
1/2-x,1/2+y,-z
1/2-x,1/2-y,-z
1/2+x,1/2-y,z
loop_
_atom_site_type_symbol
_atom_site_label
_atom_site_fract_x
_atom_site_fract_y
_atom_site_fract_z
Si Si1 0.275644 0.837347 0.850626
Si Si2 0.226699 0.168579 0.189155
Si Si3 0.038999 0.336975 0.889143
Si Si4 0.890704 0.585974 0.429430
Si Si5 0.372919 0.083285 0.695607
Si Si6 0.128824 0.085832 0.896780
Si Si7 0.532916 0.317152 0.163787
O O1 0.255012 0.752072 0.832638
O O2 0.320641 0.864808 0.755150
O O3 0.187357 0.885626 0.822995
O O4 0.351937 0.845935 0.011688
O O5 0.321246 0.130518 0.296598
O O6 0.144207 0.173745 0.234831
O O7 0.178583 0.123975 0.046810
O O8 0.005741 0.259679 0.812711
O O9 0.983941 0.400409 0.785108
O O10 0.000000 0.337853 0.000000
O O11 0.887157 0.500000 0.398162
O O12 0.852829 0.595377 0.540876
O O13 0.000000 0.608127 0.500000
O O14 0.353894 0.000000 0.715028
O O15 0.023969 0.117046 0.818194
O O16 0.130862 0.000000 0.910392
O O17 0.500000 0.315215 0.000000
#
# Coordination Sequence:
#
# PCOD9207556 Si02
#       7
#     8   8   8   8   8   8   8
#     4  11  21  36  59  89 123 154 196 244 310 360
#     4  11  21  39  63  84 116 163 201 246 301 353
#     4   9  16  33  55  83 118 150 185 240 290 351
#     4  10  24  42  59  87 119 155 206 254 293 349
#     4  10  21  37  59  83 122 163 195 245 301 358
#     4  11  23  34  57  93 124 154 195 249 305 365
#     4   9  17  35  55  84 116 150 191 243 295 350
#
# _framework density 19.269096000000001
#
# number of rings (size 3 to 8) (size 9 to 14) (size 15 to 20)
#    0.000    1.857    5.714    1.286    2.000    6.857 
#    0.000    0.000    0.000    0.000    0.000    3.000 
#    0.000    0.000    0.000    0.000    0.000    0.000 
#
# Total GULP energy -156166.632717 kJ/mol
# GULP energy per Si atom -5577.379740 kJ/mol
# Density = 1.922524 g / cm^3
# Si number density = 19.269096 Si / 1000 Ang^3
#
#
#
# Elastic Constant Matrix: (Units=GPa)
#
#
# Indices 1 2 3 4 5 6 
#
# 1 63.6563 1.1411 -1.5975 0.0000 2.5724 0.0000
# 2 1.1411 74.0641 7.6466 0.0000 -12.5552 0.0000
# 3 -1.5975 7.6466 37.0152 0.0000 2.8478 0.0000
# 4 0.0000 0.0000 0.0000 13.6258 0.0000 6.1064
# 5 2.5724 -12.5552 2.8478 0.0000 20.1506 0.0000
# 6 0.0000 0.0000 0.0000 6.1064 0.0000 27.5128
#
#
#
# Elastic Compliance Matrix: (Units=1/GPa)
#
#
# Indices 1 2 3 4 5 6 
#
# 1 0.015859 -0.000807 0.001057 0.000000 -0.002677 0.000000
# 2 -0.000807 0.015711 -0.004086 0.000000 0.010469 0.000000
# 3 0.001057 -0.004086 0.028421 0.000000 -0.006697 0.000000
# 4 0.000000 0.000000 0.000000 0.081497 0.000000 -0.018088
# 5 -0.002677 0.010469 -0.006697 0.000000 0.057438 0.000000
# 6 0.000000 0.000000 0.000000 -0.018088 0.000000 0.040361
#
#
# Mechanical properties :
#
#
# Convention : Reuss Voigt Hill
#
# Bulk Modulus (GPa) = 19.11377 21.01289 20.06333
# Shear Modulus (GPa) = 18.91093 23.42752 21.16922
#
# Velocity S-wave (km/s) = 3.13615 3.49063 3.31812
# Velocity P-wave (km/s) = 4.80154 5.21293 5.01146
#
# Compressibility (1/GPa) = 0.05231831
#
# Stress axis : x y z
#
# Youngs Moduli (GPa) = 63.05754 63.65021 35.18543
#
# Poissons Ratio (x) = 0.05138 -0.03720
# Poissons Ratio (y) = 0.05090 0.14376
# Poissons Ratio (z) = -0.06666 0.26006
#
# Static dielectric constant tensor:
#      x y z
#    x 1.739690 0.000000 -0.008200 
#    y 0.000000 1.662560 0.000000 
#    z -0.008200 0.000000 1.676660 
# 
# From -- ./inp_files/145678.got.cif
#   From: 2010.05.17/outbox.cif.g08.bks.cpg/sg12_73_cif.got.tgz:145678.got - 2010.06.03 13:09:07.
