data_PCOD9207139
_publ_section_title
;
Structure prediction by ZEFSAII (Michael W. Deem and Ramdas Pophale) SiO2 
 PCOD9207139
Probable space group: C 2/M
;
_chemical_formula_sum "Si O2"
_cell_formula_units_Z 64
_cell_length_a 28.633644
_cell_length_b 8.513680
_cell_length_c 13.470282
_cell_angle_alpha 90.000000
_cell_angle_beta 89.776610
_cell_angle_gamma 90.000000
_cell_volume 3283.729166
_symmetry_space_group_name_H-M "C 2/M"
_symmetry_group_IT_number 12
_symmetry_cell_setting 'monoclinic'
loop_
_space_group_symop_operation_xyz
x,y,z
-x,y,-z
-x,-y,-z
x,-y,z
1/2+x,1/2+y,z
1/2-x,1/2+y,-z
1/2-x,1/2-y,-z
1/2+x,1/2-y,z
loop_
_atom_site_type_symbol
_atom_site_label
_atom_site_fract_x
_atom_site_fract_y
_atom_site_fract_z
Si Si1 0.054923 0.310235 0.607988
Si Si2 0.304601 0.689713 0.283196
Si Si3 0.556018 0.188950 0.389345
Si Si4 0.393862 0.187924 0.193841
Si Si5 0.303408 0.812887 0.713499
Si Si6 0.803202 0.188321 0.502813
Si Si7 0.891649 0.812809 0.804231
Si Si8 0.053817 0.189935 0.000322
O O1 0.060044 0.500000 0.605846
O O2 0.071360 0.253393 0.499079
O O3 0.080671 0.251541 0.705899
O O4 0.999544 0.279491 0.616621
O O5 0.305595 0.500000 0.278265
O O6 0.340166 0.760384 0.204402
O O7 0.250434 0.740200 0.272910
O O8 0.321741 0.736879 0.394383
O O9 0.581218 0.262869 0.295396
O O10 0.562539 0.000000 0.385352
O O11 0.396913 0.000000 0.192186
O O12 0.419321 0.254330 0.097456
O O13 0.321880 0.756743 0.605336
O O14 0.339323 0.752389 0.794698
O O15 0.303012 0.000000 0.712346
O O16 0.750000 0.250000 0.500000
O O17 0.803919 0.000000 0.508135
O O18 0.919433 0.755479 0.900805
O O19 0.889411 0.000000 0.808161
O O20 0.053476 0.000000 0.001216
O O21 0.000000 0.243848 0.000000
#
# Coordination Sequence:
#
# PCOD9207139 Si02
#       8
#     8   8   8   8   8   8   8   8
#     4   8  17  33  53  82 115 148 184 227 281 343
#     4   9  20  37  55  80 116 156 194 233 283 343
#     4   9  17  34  57  79 113 153 185 223 283 351
#     4  11  22  35  58  89 116 147 195 243 287 342
#     4  10  21  37  57  81 114 157 200 241 290 346
#     4   9  17  31  52  80 115 155 197 238 282 335
#     4  11  23  37  57  86 115 145 193 244 292 349
#     4  10  23  44  65  84 113 153 193 239 296 353
#
# _framework density 19.490037000000001
#
# number of rings (size 3 to 8) (size 9 to 14) (size 15 to 20)
#    0.000    2.375    0.000    3.750    1.750    4.250 
#    0.000    3.125    0.000    0.000    0.000    0.000 
#    0.000    0.000    0.000    0.000    0.000    0.000 
#
# Total GULP energy -178602.963360 kJ/mol
# GULP energy per Si atom -5581.342605 kJ/mol
# Density = 1.944568 g / cm^3
# Si number density = 19.490037 Si / 1000 Ang^3
#
#
#
# Elastic Constant Matrix: (Units=GPa)
#
#
# Indices 1 2 3 4 5 6 
#
# 1 121.5102 22.8396 94.7508 0.0000 2.9024 0.0000
# 2 22.8396 22.2369 24.8653 0.0000 3.3762 0.0000
# 3 94.7508 24.8653 153.6373 0.0000 2.9416 0.0000
# 4 0.0000 0.0000 0.0000 25.8160 0.0000 -3.7474
# 5 2.9024 3.3762 2.9416 0.0000 38.6957 0.0000
# 6 0.0000 0.0000 0.0000 -3.7474 0.0000 23.6317
#
#
#
# Elastic Compliance Matrix: (Units=1/GPa)
#
#
# Indices 1 2 3 4 5 6 
#
# 1 0.016671 -0.006877 -0.009169 0.000000 0.000047 0.000000
# 2 -0.006877 0.058408 -0.005132 0.000000 -0.004190 0.000000
# 3 -0.009169 -0.005132 0.012991 0.000000 0.000148 0.000000
# 4 0.000000 0.000000 0.000000 0.039648 0.000000 0.006287
# 5 0.000047 -0.004190 0.000148 0.000000 0.026194 0.000000
# 6 0.000000 0.000000 0.000000 0.006287 0.000000 0.043313
#
#
# Mechanical properties :
#
#
# Convention : Reuss Voigt Hill
#
# Bulk Modulus (GPa) = 21.87472 64.69952 43.28712
# Shear Modulus (GPa) = 19.62167 27.95726 23.78947
#
# Velocity S-wave (km/s) = 3.17638 3.79151 3.49749
# Velocity P-wave (km/s) = 4.96995 7.24125 6.21032
#
# Compressibility (1/GPa) = 0.04571487
#
# Stress axis : x y z
#
# Youngs Moduli (GPa) = 59.98304 17.12090 76.97366
#
# Poissons Ratio (x) = 0.11774 0.70580
# Poissons Ratio (y) = 0.41251 0.39500
# Poissons Ratio (z) = 0.55001 0.08786
#
# Static dielectric constant tensor:
#      x y z
#    x 1.694310 0.000000 0.020950 
#    y 0.000000 1.656840 0.000000 
#    z 0.020950 0.000000 1.681150 
# 
# From -- ./inp_files/187631.got.cif
#   From: 2010.05.17/outbox.cif.g08.bks.cpg/sg12_94_cif.got.tgz:187631.got - 2010.06.03 13:09:07.
