data_PCOD9207522
_publ_section_title
;
Structure prediction by ZEFSAII (Michael W. Deem and Ramdas Pophale) SiO2 
 PCOD9207522
Probable space group: C 2/M
;
_chemical_formula_sum "Si O2"
_cell_formula_units_Z 40
_cell_length_a 21.142665
_cell_length_b 8.476211
_cell_length_c 15.108523
_cell_angle_alpha 90.000000
_cell_angle_beta 49.043707
_cell_angle_gamma 90.000000
_cell_volume 2044.801372
_symmetry_space_group_name_H-M "C 2/M"
_symmetry_group_IT_number 12
_symmetry_cell_setting 'monoclinic'
loop_
_space_group_symop_operation_xyz
x,y,z
-x,y,-z
-x,-y,-z
x,-y,z
1/2+x,1/2+y,z
1/2-x,1/2+y,-z
1/2-x,1/2-y,-z
1/2+x,1/2-y,z
loop_
_atom_site_type_symbol
_atom_site_label
_atom_site_fract_x
_atom_site_fract_y
_atom_site_fract_z
Si Si1 0.025622 0.322842 0.220787
Si Si2 0.435283 0.311282 0.139289
Si Si3 0.744046 0.319031 0.747813
Si Si4 0.424034 0.311437 0.632921
Si Si5 0.799677 0.322028 0.034882
O O1 0.992365 0.500000 0.266129
O O2 0.056927 0.254886 0.286107
O O3 0.965746 0.224417 0.211003
O O4 0.106673 0.334037 0.084159
O O5 0.430282 0.500000 0.131297
O O6 0.339138 0.248226 0.222385
O O7 0.500000 0.255203 0.000000
O O8 0.755592 0.500000 0.709479
O O9 0.835568 0.240341 0.670611
O O10 0.712022 0.302728 0.877449
O O11 0.500000 0.260008 0.500000
O O12 0.424429 0.500000 0.638850
O O13 0.770776 0.500000 0.086422
O O14 0.750000 0.250000 0.000000
#
# Coordination Sequence:
#
# PCOD9207522 Si02
#       5
#     8   8   8   8   8
#     4  11  23  37  59  90 123 158 197 244 295 352
#     4  10  21  37  58  88 128 164 193 233 293 360
#     4  11  22  37  60  89 121 159 198 242 297 352
#     4  11  25  44  65  86 113 155 205 256 304 351
#     4  11  21  32  53  87 123 157 193 241 299 356
#
# _framework density 19.561803000000001
#
# number of rings (size 3 to 8) (size 9 to 14) (size 15 to 20)
#    0.000    1.200    4.000    2.400    0.000    5.200 
#    0.000    1.000    0.000    0.000    0.000    0.000 
#    0.000    0.000    0.000    0.000    0.000    0.000 
#
# Total GULP energy -111359.180568 kJ/mol
# GULP energy per Si atom -5567.959028 kJ/mol
# Density = 1.951728 g / cm^3
# Si number density = 19.561803 Si / 1000 Ang^3
#
#
#
# Elastic Constant Matrix: (Units=GPa)
#
#
# Indices 1 2 3 4 5 6 
#
# 1 134.1492 11.9793 26.3041 0.0000 -27.6222 0.0000
# 2 11.9793 36.6962 9.2441 0.0000 -8.5284 0.0000
# 3 26.3041 9.2441 77.2451 0.0000 -25.1436 0.0000
# 4 0.0000 0.0000 0.0000 19.9509 0.0000 -4.9962
# 5 -27.6222 -8.5284 -25.1436 0.0000 17.0906 0.0000
# 6 0.0000 0.0000 0.0000 -4.9962 0.0000 21.2681
#
#
#
# Elastic Compliance Matrix: (Units=1/GPa)
#
#
# Indices 1 2 3 4 5 6 
#
# 1 0.011887 0.001101 0.004323 0.000000 0.026121 0.000000
# 2 0.001101 0.031187 0.002951 0.000000 0.021685 0.000000
# 3 0.004323 0.002951 0.026624 0.000000 0.047628 0.000000
# 4 0.000000 0.000000 0.000000 0.053256 0.000000 0.012511
# 5 0.026121 0.021685 0.047628 0.000000 0.181620 0.000000
# 6 0.000000 0.000000 0.000000 0.012511 0.000000 0.049958
#
#
# Mechanical properties :
#
#
# Convention : Reuss Voigt Hill
#
# Bulk Modulus (GPa) = 11.56754 38.12729 24.84741
# Shear Modulus (GPa) = 13.63895 25.03279 19.33587
#
# Velocity S-wave (km/s) = 2.64336 3.58114 3.14737
# Velocity P-wave (km/s) = 3.90419 6.05247 5.09289
#
# Compressibility (1/GPa) = 0.08644879
#
# Stress axis : x y z
#
# Youngs Moduli (GPa) = 84.12588 32.06419 37.56070
#
# Poissons Ratio (x) = -0.03531 -0.16237
# Poissons Ratio (y) = -0.09265 -0.11084
# Poissons Ratio (z) = -0.36367 -0.09462
#
# Static dielectric constant tensor:
#      x y z
#    x 2.031750 0.000000 0.089520 
#    y 0.000000 1.710120 0.000000 
#    z 0.089520 0.000000 1.741590 
# 
# From -- ./inp_files/229647.got.cif
#   From: 2010.05.17/outbox.cif.g08.bks.cpg/sg12_115_cif.got.tgz:229647.got - 2010.06.03 13:09:07.
