data_PCOD9207776
_publ_section_title
;
Structure prediction by ZEFSAII (Michael W. Deem and Ramdas Pophale) SiO2 
 PCOD9207776
Probable space group: C 2/M
;
_chemical_formula_sum "Si O2"
_cell_formula_units_Z 48
_cell_length_a 9.541057
_cell_length_b 20.932558
_cell_length_c 11.600450
_cell_angle_alpha 90.000000
_cell_angle_beta 108.398248
_cell_angle_gamma 90.000000
_cell_volume 2198.404048
_symmetry_space_group_name_H-M "C 2/M"
_symmetry_group_IT_number 12
_symmetry_cell_setting 'monoclinic'
loop_
_space_group_symop_operation_xyz
x,y,z
-x,y,-z
-x,-y,-z
x,-y,z
1/2+x,1/2+y,z
1/2-x,1/2+y,-z
1/2-x,1/2-y,-z
1/2+x,1/2-y,z
loop_
_atom_site_type_symbol
_atom_site_label
_atom_site_fract_x
_atom_site_fract_y
_atom_site_fract_z
Si Si1 0.858502 0.767793 0.184417
Si Si2 0.827377 0.801311 0.433626
Si Si3 0.198184 0.572270 0.806094
Si Si4 0.887321 0.179142 0.870632
Si Si5 0.666816 0.886708 0.059960
Si Si6 0.358064 0.073438 0.688701
O O1 0.841673 0.765067 0.315694
O O2 0.758975 0.710531 0.114121
O O3 0.783652 0.833025 0.124222
O O4 0.024849 0.770117 0.183641
O O5 0.750000 0.750000 0.500000
O O6 0.734972 0.867686 0.390415
O O7 0.000000 0.817874 0.500000
O O8 0.228303 0.500000 0.783073
O O9 0.324278 0.618275 0.789441
O O10 0.033216 0.588483 0.721067
O O11 0.202170 0.579020 0.947800
O O12 0.000000 0.161161 0.000000
O O13 0.662874 0.927334 0.177112
O O14 0.500000 0.860175 0.000000
O O15 0.329657 0.000000 0.640015
#
# Coordination Sequence:
#
# PCOD9207776 Si02
#       6
#     8   8   8   8   8   8
#     4  11  24  39  60  92 129 165 215 268 331 370
#     4  11  25  45  70  97 121 165 220 284 336 378
#     4  10  21  37  59  92 137 181 211 246 310 391
#     4  12  24  37  60  95 133 175 208 259 310 390
#     4   9  17  33  59  92 129 172 211 251 306 386
#     4   9  20  39  66  96 130 169 214 268 328 390
#
# _framework density 21.834021
#
# number of rings (size 3 to 8) (size 9 to 14) (size 15 to 20)
#    0.000    1.667    1.667    2.500    9.333    2.667 
#    0.000    0.833    0.000    3.500    0.000    0.000 
#    0.000    0.000    0.000    0.000    0.000    0.000 
#
# Total GULP energy -133902.796864 kJ/mol
# GULP energy per Si atom -5579.283203 kJ/mol
# Density = 2.178433 g / cm^3
# Si number density = 21.834021 Si / 1000 Ang^3
#
#
#
# Elastic Constant Matrix: (Units=GPa)
#
#
# Indices 1 2 3 4 5 6 
#
# 1 113.4607 59.2800 43.0894 0.0000 13.9798 0.0000
# 2 59.2800 115.7174 40.2715 0.0000 21.3083 0.0000
# 3 43.0894 40.2715 65.5605 0.0000 10.7137 0.0000
# 4 0.0000 0.0000 0.0000 26.1345 0.0000 7.4522
# 5 13.9798 21.3083 10.7137 0.0000 34.7103 0.0000
# 6 0.0000 0.0000 0.0000 7.4522 0.0000 30.0006
#
#
#
# Elastic Compliance Matrix: (Units=1/GPa)
#
#
# Indices 1 2 3 4 5 6 
#
# 1 0.013657 -0.004808 -0.005904 0.000000 -0.000727 0.000000
# 2 -0.004808 0.013541 -0.004334 0.000000 -0.005038 0.000000
# 3 -0.005904 -0.004334 0.022087 0.000000 -0.001779 0.000000
# 4 0.000000 0.000000 0.000000 0.041181 0.000000 -0.010229
# 5 -0.000727 -0.005038 -0.001779 0.000000 0.032744 0.000000
# 6 0.000000 0.000000 0.000000 -0.010229 0.000000 0.035874
#
#
# Mechanical properties :
#
#
# Convention : Reuss Voigt Hill
#
# Bulk Modulus (GPa) = 52.10484 64.44671 58.27577
# Shear Modulus (GPa) = 25.56575 28.30893 26.93734
#
# Velocity S-wave (km/s) = 3.42557 3.60467 3.51626
# Velocity P-wave (km/s) = 6.28983 6.84877 6.57524
#
# Compressibility (1/GPa) = 0.01919207
#
# Stress axis : x y z
#
# Youngs Moduli (GPa) = 73.22031 73.85010 45.27602
#
# Poissons Ratio (x) = 0.35506 0.26732
# Poissons Ratio (y) = 0.35203 0.19624
# Poissons Ratio (z) = 0.43231 0.32010
#
# Static dielectric constant tensor:
#      x y z
#    x 1.857800 0.000000 -0.018280 
#    y 0.000000 1.827720 0.000000 
#    z -0.018280 0.000000 1.874570 
# 
# From -- ./inp_files/122543.got.cif
#   From: 2010.05.17/outbox.cif.g08.bks.cpg/sg12_62_cif.got.tgz:122543.got - 2010.06.03 13:09:07.
