data_PCOD9207480
_publ_section_title
;
Structure prediction by ZEFSAII (Michael W. Deem and Ramdas Pophale) SiO2 
 PCOD9207480
Probable space group: C 2/M
;
_chemical_formula_sum "Si O2"
_cell_formula_units_Z 40
_cell_length_a 31.350616
_cell_length_b 8.526780
_cell_length_c 15.754579
_cell_angle_alpha 90.000000
_cell_angle_beta 28.037989
_cell_angle_gamma 90.000000
_cell_volume 1979.649731
_symmetry_space_group_name_H-M "C 2/M"
_symmetry_group_IT_number 12
_symmetry_cell_setting 'monoclinic'
loop_
_space_group_symop_operation_xyz
x,y,z
-x,y,-z
-x,-y,-z
x,-y,z
1/2+x,1/2+y,z
1/2-x,1/2+y,-z
1/2-x,1/2-y,-z
1/2+x,1/2-y,z
loop_
_atom_site_type_symbol
_atom_site_label
_atom_site_fract_x
_atom_site_fract_y
_atom_site_fract_z
Si Si1 0.749179 0.679034 0.407728
Si Si2 0.711012 0.813756 0.299105
Si Si3 0.025580 0.187786 0.551054
Si Si4 0.912385 0.686653 0.905503
Si Si5 0.432541 0.320017 0.039784
O O1 0.718041 0.500000 0.464902
O O2 0.750000 0.750000 0.500000
O O3 0.699339 0.770337 0.419494
O O4 0.853689 0.696499 0.196661
O O5 0.626969 0.742157 0.396083
O O6 0.712805 0.000000 0.286460
O O7 0.807873 0.744269 0.098232
O O8 0.000000 0.231891 0.500000
O O9 0.956871 0.263986 0.739051
O O10 0.019862 0.000000 0.568940
O O11 0.916380 0.500000 0.908510
O O12 0.966806 0.772446 0.886731
O O13 0.396886 0.500000 0.098230
O O14 0.500000 0.314411 0.000000
#
# Coordination Sequence:
#
# PCOD9207480 Si02
#       5
#     8   8   8   8   8
#     4  11  22  37  58  86 123 163 209 255 306 370
#     4  11  23  42  66  93 128 167 211 263 318 378
#     4  11  25  45  69  96 126 165 214 266 322 381
#     4  11  23  41  65  93 129 168 210 262 317 380
#     4  10  21  37  58  86 122 163 207 254 306 368
#
# _framework density 20.205594000000001
#
# number of rings (size 3 to 8) (size 9 to 14) (size 15 to 20)
#    0.000    1.200    0.000    9.000    2.800    4.000 
#    0.000    0.000    0.000    0.000    0.000    0.000 
#    0.000    0.000    0.000    0.000    0.000    0.000 
#
# Total GULP energy -111760.759183 kJ/mol
# GULP energy per Si atom -5588.037959 kJ/mol
# Density = 2.015961 g / cm^3
# Si number density = 20.205594 Si / 1000 Ang^3
#
#
#
# Elastic Constant Matrix: (Units=GPa)
#
#
# Indices 1 2 3 4 5 6 
#
# 1 169.1852 47.9865 60.4814 0.0000 14.4467 0.0000
# 2 47.9865 113.8949 26.0482 0.0000 11.2092 0.0000
# 3 60.4814 26.0482 89.1711 0.0000 17.7285 0.0000
# 4 0.0000 0.0000 0.0000 32.7942 0.0000 2.7120
# 5 14.4467 11.2092 17.7285 0.0000 35.4510 0.0000
# 6 0.0000 0.0000 0.0000 2.7120 0.0000 32.4113
#
#
#
# Elastic Compliance Matrix: (Units=1/GPa)
#
#
# Indices 1 2 3 4 5 6 
#
# 1 0.008368 -0.002377 -0.004945 0.000000 -0.000186 0.000000
# 2 -0.002377 0.010185 -0.001017 0.000000 -0.001744 0.000000
# 3 -0.004945 -0.001017 0.015991 0.000000 -0.005660 0.000000
# 4 0.000000 0.000000 0.000000 0.030706 0.000000 -0.002569
# 5 -0.000186 -0.001744 -0.005660 0.000000 0.031666 0.000000
# 6 0.000000 0.000000 0.000000 -0.002569 0.000000 0.031068
#
#
# Mechanical properties :
#
#
# Convention : Reuss Voigt Hill
#
# Bulk Modulus (GPa) = 55.96517 71.25371 63.60944
# Shear Modulus (GPa) = 33.19701 35.98032 34.58867
#
# Velocity S-wave (km/s) = 4.05774 4.22442 4.14192
# Velocity P-wave (km/s) = 7.05065 7.68995 7.37723
#
# Compressibility (1/GPa) = 0.01786826
#
# Stress axis : x y z
#
# Youngs Moduli (GPa) = 119.49861 98.17916 62.53710
#
# Poissons Ratio (x) = 0.23333 0.30923
# Poissons Ratio (y) = 0.28400 0.06358
# Poissons Ratio (z) = 0.59088 0.09982
#
# Static dielectric constant tensor:
#      x y z
#    x 1.731710 0.000000 0.018120 
#    y 0.000000 1.680670 0.000000 
#    z 0.018120 0.000000 1.743380 
# 
# From -- ./inp_files/249514.got.cif
#   From: 2010.05.17/outbox.cif.g08.bks.cpg/sg12_125_cif.got.tgz:249514.got - 2010.06.03 13:09:07.
