data_PCOD9207919
_publ_section_title
;
Structure prediction by ZEFSAII (Michael W. Deem and Ramdas Pophale) SiO2 
 PCOD9207919
Probable space group: C 2/M
;
_chemical_formula_sum "Si O2"
_cell_formula_units_Z 56
_cell_length_a 22.957167
_cell_length_b 19.643103
_cell_length_c 5.548372
_cell_angle_alpha 90.000000
_cell_angle_beta 96.968347
_cell_angle_gamma 90.000000
_cell_volume 2483.556592
_symmetry_space_group_name_H-M "C 2/M"
_symmetry_group_IT_number 12
_symmetry_cell_setting 'monoclinic'
loop_
_space_group_symop_operation_xyz
x,y,z
-x,y,-z
-x,-y,-z
x,-y,z
1/2+x,1/2+y,z
1/2-x,1/2+y,-z
1/2-x,1/2-y,-z
1/2+x,1/2-y,z
loop_
_atom_site_type_symbol
_atom_site_label
_atom_site_fract_x
_atom_site_fract_y
_atom_site_fract_z
Si Si1 0.069801 0.703514 0.525556
Si Si2 0.656218 0.211328 0.965689
Si Si3 0.037799 0.424075 0.266066
Si Si4 0.151206 0.076672 0.982926
Si Si5 0.136826 0.822144 0.332532
Si Si6 0.522969 0.420067 0.759531
Si Si7 0.731574 0.317984 0.745700
O O1 0.105194 0.678162 0.780654
O O2 0.076558 0.643758 0.328110
O O3 0.098155 0.777484 0.493010
O O4 0.000000 0.713592 0.500000
O O5 0.705245 0.244705 0.813578
O O6 0.629475 0.275514 0.092175
O O7 0.699123 0.175724 0.180934
O O8 0.065464 0.500000 0.264537
O O9 0.000000 0.425460 0.500000
O O10 0.000000 0.416424 0.000000
O O11 0.127738 0.102397 0.231071
O O12 0.172083 0.000000 0.007847
O O13 0.093167 0.081003 0.791743
O O14 0.200395 0.125124 0.895949
O O15 0.202917 0.824735 0.469062
O O16 0.500000 0.389544 0.500000
O O17 0.504367 0.500000 0.755130
O O18 0.500000 0.388675 0.000000
#
# Coordination Sequence:
#
# PCOD9207919 Si02
#       7
#     8   8   8   8   8   8   8
#     4  10  22  37  61  92 130 166 205 265 320 389
#     4   9  19  38  60  85 116 154 202 263 326 389
#     4   9  19  36  61  90 124 170 210 250 316 395
#     4  10  22  39  59  84 121 167 216 269 325 382
#     4  10  21  37  60  91 117 165 213 267 324 387
#     4   9  19  36  56  79 112 160 211 255 308 375
#     4   9  19  38  60  84 110 155 212 263 326 386
#
# _framework density 22.548306
#
# number of rings (size 3 to 8) (size 9 to 14) (size 15 to 20)
#    0.000    2.571    0.000    0.429    6.000    1.714 
#    7.714    0.714    0.000    1.286    0.000    0.000 
#    0.000    0.000    0.000    0.000    0.000    0.000 
#
# Total GULP energy -155940.099735 kJ/mol
# GULP energy per Si atom -5569.289276 kJ/mol
# Density = 2.249698 g / cm^3
# Si number density = 22.548306 Si / 1000 Ang^3
#
#
#
# Elastic Constant Matrix: (Units=GPa)
#
#
# Indices 1 2 3 4 5 6 
#
# 1 91.3517 24.4488 28.2954 0.0000 22.6171 0.0000
# 2 24.4488 109.3745 19.9103 0.0000 7.7262 0.0000
# 3 28.2954 19.9103 140.9530 0.0000 29.6077 0.0000
# 4 0.0000 0.0000 0.0000 25.7759 0.0000 -0.7061
# 5 22.6171 7.7262 29.6077 0.0000 41.9584 0.0000
# 6 0.0000 0.0000 0.0000 -0.7061 0.0000 13.9368
#
#
#
# Elastic Compliance Matrix: (Units=1/GPa)
#
#
# Indices 1 2 3 4 5 6 
#
# 1 0.013411 -0.002374 -0.001092 0.000000 -0.006021 0.000000
# 2 -0.002374 0.009835 -0.000941 0.000000 0.000132 0.000000
# 3 -0.001092 -0.000941 0.008555 0.000000 -0.005275 0.000000
# 4 0.000000 0.000000 0.000000 0.038850 0.000000 0.001968
# 5 -0.006021 0.000132 -0.005275 0.000000 0.030777 0.000000
# 6 0.000000 0.000000 0.000000 0.001968 0.000000 0.071852
#
#
# Mechanical properties :
#
#
# Convention : Reuss Voigt Hill
#
# Bulk Modulus (GPa) = 43.50015 54.10979 48.80497
# Shear Modulus (GPa) = 26.34977 34.26921 30.30949
#
# Velocity S-wave (km/s) = 3.42218 3.90271 3.67031
# Velocity P-wave (km/s) = 5.91176 6.66015 6.29708
#
# Compressibility (1/GPa) = 0.02298843
#
# Stress axis : x y z
#
# Youngs Moduli (GPa) = 74.56552 101.67383 116.89610
#
# Poissons Ratio (x) = 0.24134 0.12766
# Poissons Ratio (y) = 0.17699 0.10995
# Poissons Ratio (z) = 0.08143 0.09563
#
# Static dielectric constant tensor:
#      x y z
#    x 1.907890 0.000000 -0.042680 
#    y 0.000000 1.889250 0.000000 
#    z -0.042680 0.000000 1.967080 
# 
# From -- ./inp_files/25683.got.cif
#   From: 2010.05.17/outbox.cif.g08.bks.cpg/sg12_13_cif.got.tgz:25683.got - 2010.06.03 13:09:07.
