data_PCOD9207334
_publ_section_title
;
Structure prediction by ZEFSAII (Michael W. Deem and Ramdas Pophale) SiO2 
 PCOD9207334
Probable space group: C 2/M
;
_chemical_formula_sum "Si O2"
_cell_formula_units_Z 48
_cell_length_a 20.877857
_cell_length_b 8.777666
_cell_length_c 25.494072
_cell_angle_alpha 90.000000
_cell_angle_beta 145.218280
_cell_angle_gamma 90.000000
_cell_volume 2665.157908
_symmetry_space_group_name_H-M "C 2/M"
_symmetry_group_IT_number 12
_symmetry_cell_setting 'monoclinic'
loop_
_space_group_symop_operation_xyz
x,y,z
-x,y,-z
-x,-y,-z
x,-y,z
1/2+x,1/2+y,z
1/2-x,1/2+y,-z
1/2-x,1/2-y,-z
1/2+x,1/2-y,z
loop_
_atom_site_type_symbol
_atom_site_label
_atom_site_fract_x
_atom_site_fract_y
_atom_site_fract_z
Si Si1 0.327843 0.317218 0.207152
Si Si2 0.157090 0.318391 0.898967
Si Si3 0.417501 0.818000 0.792899
Si Si4 0.782391 0.683869 0.603478
Si Si5 0.424014 0.316398 0.602977
Si Si6 0.396081 0.682261 0.893338
O O1 0.320638 0.500000 0.202520
O O2 0.333014 0.258260 0.151043
O O3 0.446240 0.271174 0.313457
O O4 0.219655 0.249778 0.162732
O O5 0.172302 0.500000 0.903890
O O6 0.035032 0.290963 0.842198
O O7 0.250000 0.250000 0.000000
O O8 0.320342 0.768427 0.686893
O O9 0.414678 0.735718 0.846441
O O10 0.407345 0.000000 0.794940
O O11 0.790320 0.500000 0.607268
O O12 0.658439 0.728334 0.500154
O O13 0.868637 0.748351 0.618291
O O14 0.420282 0.500000 0.604649
O O15 0.391002 0.500000 0.892131
O O16 0.500000 0.733021 0.000000
#
# Coordination Sequence:
#
# PCOD9207334 Si02
#       6
#     8   8   8   8   8   8
#     4  11  22  37  58  85 115 149 188 231 282 340
#     4  11  22  36  56  84 114 146 187 236 285 334
#     4  10  21  37  58  83 112 148 187 230 282 337
#     4   9  17  33  56  84 116 148 183 227 279 333
#     4   9  18  32  55  86 116 147 184 226 277 334
#     4  11  25  42  59  79 108 150 195 239 286 339
#
# _framework density 18.010190000000001
#
# number of rings (size 3 to 8) (size 9 to 14) (size 15 to 20)
#    0.000    1.833    1.667    2.500    0.000    6.667 
#    0.000    0.833    0.000    5.000    0.000    0.000 
#    0.000    0.000    0.000    0.000    0.000    0.000 
#
# Total GULP energy -134010.595196 kJ/mol
# GULP energy per Si atom -5583.774800 kJ/mol
# Density = 1.796920 g / cm^3
# Si number density = 18.010190 Si / 1000 Ang^3
#
#
#
# Elastic Constant Matrix: (Units=GPa)
#
#
# Indices 1 2 3 4 5 6 
#
# 1 66.2328 32.3693 38.7018 0.0000 -10.9313 0.0000
# 2 32.3693 32.0236 37.1014 0.0000 0.0431 0.0000
# 3 38.7018 37.1014 147.4048 0.0000 -12.7709 0.0000
# 4 0.0000 0.0000 0.0000 23.5420 0.0000 -0.6900
# 5 -10.9313 0.0431 -12.7709 0.0000 31.5327 0.0000
# 6 0.0000 0.0000 0.0000 -0.6900 0.0000 33.7553
#
#
#
# Elastic Compliance Matrix: (Units=1/GPa)
#
#
# Indices 1 2 3 4 5 6 
#
# 1 0.033799 -0.035468 0.001111 0.000000 0.012215 0.000000
# 2 -0.035468 0.081989 -0.012850 0.000000 -0.017612 0.000000
# 3 0.001111 -0.012850 0.010116 0.000000 0.004500 0.000000
# 4 0.000000 0.000000 0.000000 0.042503 0.000000 0.000869
# 5 0.012215 -0.017612 0.004500 0.000000 0.037794 0.000000
# 6 0.000000 0.000000 0.000000 0.000869 0.000000 0.029643
#
#
# Mechanical properties :
#
#
# Convention : Reuss Voigt Hill
#
# Bulk Modulus (GPa) = 31.75466 51.33399 41.54433
# Shear Modulus (GPa) = 14.67337 26.93191 20.80264
#
# Velocity S-wave (km/s) = 2.85744 3.87120 3.40229
# Velocity P-wave (km/s) = 5.34382 6.96751 6.20897
#
# Compressibility (1/GPa) = 0.03149144
#
# Stress axis : x y z
#
# Youngs Moduli (GPa) = 29.58698 12.19678 98.84923
#
# Poissons Ratio (x) = 0.43259 -0.10987
# Poissons Ratio (y) = 1.04938 1.27021
# Poissons Ratio (z) = -0.03288 0.15673
#
# Static dielectric constant tensor:
#      x y z
#    x 1.568230 0.000000 0.001130 
#    y 0.000000 1.605370 0.000000 
#    z 0.001130 0.000000 1.647380 
# 
# From -- ./inp_files/365356.got.cif
#   From: 2010.05.17/outbox.cif.g08.bks.cpg/sg12_183_cif.got.tgz:365356.got - 2010.06.03 13:09:07.
