data_PCOD9207703
_publ_section_title
;
Structure prediction by ZEFSAII (Michael W. Deem and Ramdas Pophale) SiO2 
 PCOD9207703
Probable space group: C 2/M
;
_chemical_formula_sum "Si O2"
_cell_formula_units_Z 64
_cell_length_a 20.152155
_cell_length_b 8.174442
_cell_length_c 32.266040
_cell_angle_alpha 90.000000
_cell_angle_beta 36.959678
_cell_angle_gamma 90.000000
_cell_volume 3195.820772
_symmetry_space_group_name_H-M "C 2/M"
_symmetry_group_IT_number 12
_symmetry_cell_setting 'monoclinic'
loop_
_space_group_symop_operation_xyz
x,y,z
-x,y,-z
-x,-y,-z
x,-y,z
1/2+x,1/2+y,z
1/2-x,1/2+y,-z
1/2-x,1/2-y,-z
1/2+x,1/2-y,z
loop_
_atom_site_type_symbol
_atom_site_label
_atom_site_fract_x
_atom_site_fract_y
_atom_site_fract_z
Si Si1 0.133372 0.301899 0.039811
Si Si2 0.018519 0.312743 0.298338
Si Si3 0.108741 0.302152 0.471913
Si Si4 0.154857 0.804670 0.683799
Si Si5 0.901374 0.698344 0.195021
Si Si6 0.625551 0.308707 0.556117
Si Si7 0.739900 0.192473 0.812981
Si Si8 0.873426 0.311182 0.049746
O O1 0.126682 0.500000 0.042134
O O2 0.024783 0.248560 0.119555
O O3 0.250000 0.250000 0.000000
O O4 0.131126 0.238165 0.993698
O O5 0.051446 0.500000 0.276100
O O6 0.940267 0.261495 0.299250
O O7 0.948657 0.290708 0.374967
O O8 0.129528 0.210603 0.249340
O O9 0.113362 0.500000 0.474232
O O10 0.223898 0.249483 0.392831
O O11 0.097177 0.223804 0.522732
O O12 0.000000 0.262000 0.500000
O O13 0.132196 0.757450 0.742647
O O14 0.153225 0.000000 0.681346
O O15 0.899754 0.500000 0.197177
O O16 0.816671 0.755006 0.201064
O O17 0.616013 0.500000 0.571155
O O18 0.750000 0.250000 0.500000
O O19 0.691317 0.266943 0.879643
O O20 0.709452 0.000000 0.828806
O O21 0.832867 0.500000 0.065679
O O22 0.000000 0.317226 0.000000
#
# Coordination Sequence:
#
# PCOD9207703 Si02
#       8
#     8   8   8   8   8   8   8   8
#     4  10  21  37  59  89 121 160 205 253 308 366
#     4  12  26  43  64  91 127 165 205 257 311 364
#     4  10  23  43  66  94 127 163 206 258 310 361
#     4  11  24  42  64  89 124 166 209 253 307 372
#     4  10  22  40  61  88 128 165 204 257 311 368
#     4  12  24  42  68  96 125 161 207 256 308 367
#     4  10  21  39  64  93 123 161 209 257 307 371
#     4   9  16  34  63  88 115 155 205 255 305 361
#
# _framework density 20.026153999999998
#
# number of rings (size 3 to 8) (size 9 to 14) (size 15 to 20)
#    0.000    1.500    2.500    2.625    3.500    1.750 
#    0.000    0.000    0.000    0.750    0.000    0.000 
#    0.000    0.000    0.000    0.000    0.000    0.000 
#
# Total GULP energy -178709.606427 kJ/mol
# GULP energy per Si atom -5584.675201 kJ/mol
# Density = 1.998057 g / cm^3
# Si number density = 20.026154 Si / 1000 Ang^3
#
#
#
# Elastic Constant Matrix: (Units=GPa)
#
#
# Indices 1 2 3 4 5 6 
#
# 1 126.4540 4.3232 46.0487 0.0013 13.6505 0.0288
# 2 4.3232 23.3628 -13.1864 0.0064 6.8232 0.0049
# 3 46.0487 -13.1864 112.1645 0.0009 17.1483 0.0005
# 4 0.0013 0.0064 0.0009 20.1778 -0.0017 1.5973
# 5 13.6505 6.8232 17.1483 -0.0017 38.9043 0.0004
# 6 0.0288 0.0049 0.0005 1.5973 0.0004 16.2093
#
#
#
# Elastic Compliance Matrix: (Units=1/GPa)
#
#
# Indices 1 2 3 4 5 6 
#
# 1 0.009710 -0.004014 -0.004337 0.000002 -0.000791 -0.000016
# 2 -0.004014 0.052526 0.009668 -0.000017 -0.012065 -0.000007
# 3 -0.004337 0.009668 0.012716 -0.000004 -0.005779 0.000005
# 4 0.000002 -0.000017 -0.000004 0.049949 0.000006 -0.004922
# 5 -0.000791 -0.012065 -0.005779 0.000006 0.030645 0.000004
# 6 -0.000016 -0.000007 0.000005 -0.004922 0.000004 0.062178
#
#
# Mechanical properties :
#
#
# Convention : Reuss Voigt Hill
#
# Bulk Modulus (GPa) = 12.88904 37.37246 25.13075
# Shear Modulus (GPa) = 20.75090 30.04466 25.39778
#
# Velocity S-wave (km/s) = 3.22248 3.87754 3.56509
# Velocity P-wave (km/s) = 4.50510 6.22490 5.43348
#
# Compressibility (1/GPa) = 0.07758528
#
# Stress axis : x y z
#
# Youngs Moduli (GPa) = 102.98534 19.03814 78.63984
#
# Poissons Ratio (x) = 0.07642 0.34109
# Poissons Ratio (y) = 0.41336 -0.76026
# Poissons Ratio (z) = 0.44668 -0.18405
#
# Static dielectric constant tensor:
#      x y z
#    x 1.717510 0.000000 -0.014040 
#    y 0.000000 1.722220 0.000000 
#    z -0.014040 0.000000 1.690320 
# 
# From -- ./inp_files/378123.got.cif
#   From: 2010.05.17/outbox.cif.g08.bks.cpg/sg12_190_cif.got.tgz:378123.got - 2010.06.03 13:09:07.
