data_PCOD9207135
_publ_section_title
;
Structure prediction by ZEFSAII (Michael W. Deem and Ramdas Pophale) SiO2 
 PCOD9207135
Probable space group: C 2/M
;
_chemical_formula_sum "Si O2"
_cell_formula_units_Z 56
_cell_length_a 8.890379
_cell_length_b 16.110450
_cell_length_c 29.789121
_cell_angle_alpha 90.000000
_cell_angle_beta 41.745050
_cell_angle_gamma 90.000000
_cell_volume 2840.799947
_symmetry_space_group_name_H-M "C 2/M"
_symmetry_group_IT_number 12
_symmetry_cell_setting 'monoclinic'
loop_
_space_group_symop_operation_xyz
x,y,z
-x,y,-z
-x,-y,-z
x,-y,z
1/2+x,1/2+y,z
1/2-x,1/2+y,-z
1/2-x,1/2-y,-z
1/2+x,1/2-y,z
loop_
_atom_site_type_symbol
_atom_site_label
_atom_site_fract_x
_atom_site_fract_y
_atom_site_fract_z
Si Si1 0.753748 0.500000 0.425897
Si Si2 0.324506 0.336020 0.342185
Si Si3 0.491713 0.842082 0.075310
Si Si4 0.383233 0.000000 0.574103
Si Si5 0.631736 0.657918 0.075311
Si Si6 0.198982 0.403107 0.790276
Si Si7 0.035437 0.336020 0.657815
Si Si8 0.849641 0.596893 0.790276
O O1 0.500000 0.500000 0.500000
O O2 0.925659 0.500000 0.429736
O O3 0.809341 0.416486 0.385825
O O4 0.261533 0.416486 0.385823
O O5 0.572247 0.351832 0.266406
O O6 0.144139 0.330510 0.342343
O O7 0.330879 0.250000 0.367647
O O8 0.554323 0.750001 0.078272
O O9 0.292296 0.837817 0.083082
O O10 0.410598 0.891489 0.136640
O O11 0.712152 0.875714 0.999999
O O12 0.500000 0.000000 0.500000
O O13 0.406202 0.608512 0.136641
O O14 0.253450 0.500000 0.771699
O O15 0.019537 0.377608 0.792186
O O16 0.904284 0.351832 0.733593
O O17 0.888059 0.500000 0.771699
#
# Coordination Sequence:
#
# PCOD9207135 Si02
#       8
#     4   8   8   4   8   8   8   8
#     4  10  24  44  68  96 131 168 205 252 306 365
#     4  11  23  42  66  95 128 167 211 256 308 367
#     4  10  21  37  57  81 113 155 202 254 311 370
#     4  10  24  44  68  96 131 168 205 252 306 365
#     4  10  21  37  57  81 113 155 202 254 311 370
#     4  11  23  38  59  87 119 159 205 257 312 366
#     4  11  23  42  66  95 128 167 211 256 308 367
#     4  11  23  38  59  87 119 159 205 257 312 366
#
# _framework density 19.712758000000001
#
# number of rings (size 3 to 8) (size 9 to 14) (size 15 to 20)
#    0.000    1.429    1.429    3.429    0.000    6.857 
#    0.000    5.714    0.000    0.000    0.000    0.000 
#    0.000    0.000    0.000    0.000    0.000    0.000 
#
# Total GULP energy -156526.843778 kJ/mol
# GULP energy per Si atom -5590.244421 kJ/mol
# Density = 1.966789 g / cm^3
# Si number density = 19.712758 Si / 1000 Ang^3
#
#
#
# Elastic Constant Matrix: (Units=GPa)
#
#
# Indices 1 2 3 4 5 6 
#
# 1 82.8239 50.4109 46.6963 0.0358 -1.8393 -0.0010
# 2 50.4109 123.2253 61.8496 -0.0011 -0.5558 0.0003
# 3 46.6963 61.8496 121.0956 -0.0132 -0.0170 0.0001
# 4 0.0358 -0.0011 -0.0132 337.4848 -0.0109 -14.8308
# 5 -1.8393 -0.5558 -0.0170 -0.0109 36.8852 0.0003
# 6 -0.0010 0.0003 0.0001 -14.8308 0.0003 33.1597
#
#
#
# Elastic Compliance Matrix: (Units=1/GPa)
#
#
# Indices 1 2 3 4 5 6 
#
# 1 0.017531 -0.005077 -0.004167 -0.000002 0.000796 0.000000
# 2 -0.005077 0.012384 -0.004367 0.000000 -0.000069 0.000000
# 3 -0.004167 -0.004367 0.012096 0.000001 -0.000268 0.000000
# 4 -0.000002 0.000000 0.000001 0.003023 0.000001 0.001352
# 5 0.000796 -0.000069 -0.000268 0.000001 0.027150 0.000000
# 6 0.000000 0.000000 0.000000 0.001352 0.000000 0.030762
#
#
# Mechanical properties :
#
#
# Convention : Reuss Voigt Hill
#
# Bulk Modulus (GPa) = 67.62358 71.67316 69.64837
# Shear Modulus (GPa) = 37.01081 92.71849 64.86465
#
# Velocity S-wave (km/s) = 4.33772 6.86563 5.74250
# Velocity P-wave (km/s) = 7.71147 9.96428 8.90936
#
# Compressibility (1/GPa) = 0.01478774
#
# Stress axis : x y z
#
# Youngs Moduli (GPa) = 57.04239 80.75034 82.67534
#
# Poissons Ratio (x) = 0.40994 0.34452
# Poissons Ratio (y) = 0.28958 0.36108
# Poissons Ratio (z) = 0.23771 0.35267
#
# Static dielectric constant tensor:
#      x y z
#    x 1.660450 0.000000 -0.000350 
#    y 0.000000 1.705220 0.000000 
#    z -0.000350 0.000000 1.667670 
# 
# From -- ./inp_files/356703.got.cif
#   From: 2010.05.17/outbox.cif.g08.bks.cpg/sg12_179_cif.got.tgz:356703.got - 2010.06.03 13:09:07.
