data_PCOD9207119
_publ_section_title
;
Structure prediction by ZEFSAII (Michael W. Deem and Ramdas Pophale) SiO2 
 PCOD9207119
Probable space group: C 2/M
;
_chemical_formula_sum "Si O2"
_cell_formula_units_Z 56
_cell_length_a 8.946460
_cell_length_b 19.655576
_cell_length_c 18.386888
_cell_angle_alpha 90.000000
_cell_angle_beta 104.080381
_cell_angle_gamma 90.000000
_cell_volume 3136.151144
_symmetry_space_group_name_H-M "C 2/M"
_symmetry_group_IT_number 12
_symmetry_cell_setting 'monoclinic'
loop_
_space_group_symop_operation_xyz
x,y,z
-x,y,-z
-x,-y,-z
x,-y,z
1/2+x,1/2+y,z
1/2-x,1/2+y,-z
1/2-x,1/2-y,-z
1/2+x,1/2-y,z
loop_
_atom_site_type_symbol
_atom_site_label
_atom_site_fract_x
_atom_site_fract_y
_atom_site_fract_z
Si Si1 0.887664 0.580820 0.420764
Si Si2 0.528334 0.176920 0.701171
Si Si3 0.382899 0.176400 0.122485
Si Si4 0.172837 0.176920 0.701171
Si Si5 0.679340 0.580125 1.000000
Si Si6 0.239585 0.676401 0.122485
Si Si7 0.533099 0.580820 0.420764
O O1 0.908713 0.500000 0.411723
O O2 0.711483 0.592850 0.422967
O O3 0.000000 0.601524 0.500000
O O4 0.927030 0.621353 0.352803
O O5 0.600252 0.162851 0.789304
O O6 0.345026 0.179874 0.690051
O O7 0.592110 0.250000 0.684219
O O8 0.283597 0.118880 0.071486
O O9 0.302272 0.249999 0.104546
O O10 0.554949 0.179227 0.109899
O O11 0.189052 0.162852 0.789305
O O12 0.074228 0.121353 0.647197
O O13 0.716026 0.500000 0.999999
O O14 0.500000 0.587136 0.000000
O O15 0.712111 0.618881 0.928515
O O16 0.500000 0.601523 0.500000
O O17 0.503009 0.500000 0.411722
#
# Coordination Sequence:
#
# PCOD9207119 Si02
#       7
#     8   8   8   8   8   8   8
#     4  10  21  37  57  81 111 147 185 226 273 326
#     4  10  21  37  58  84 112 143 182 227 274 325
#     4  10  21  38  60  83 110 145 183 225 273 327
#     4  10  21  37  58  84 112 143 182 227 274 325
#     4  11  24  39  56  81 113 147 184 227 272 321
#     4  10  21  38  60  83 110 145 183 225 273 327
#     4  10  21  37  57  81 111 147 185 226 273 326
#
# _framework density 17.856283000000001
#
# number of rings (size 3 to 8) (size 9 to 14) (size 15 to 20)
#    0.000    1.857    0.000    3.429    0.000    8.000 
#    0.000    8.571    0.000    0.000    0.000    0.000 
#    0.000    0.000    0.000    0.000    0.000    0.000 
#
# Total GULP energy -156456.726928 kJ/mol
# GULP energy per Si atom -5587.740247 kJ/mol
# Density = 1.781564 g / cm^3
# Si number density = 17.856283 Si / 1000 Ang^3
#
#
#
# Elastic Constant Matrix: (Units=GPa)
#
#
# Indices 1 2 3 4 5 6 
#
# 1 109.1676 91.0694 85.7771 0.0000 -2.2997 0.0000
# 2 91.0694 126.1012 97.7488 0.0000 -0.3187 0.0000
# 3 85.7771 97.7488 113.7666 0.0000 2.0801 0.0000
# 4 0.0000 0.0000 0.0000 47.4030 0.0000 -0.5451
# 5 -2.2997 -0.3187 2.0801 0.0000 35.6277 0.0000
# 6 0.0000 0.0000 0.0000 -0.5451 0.0000 35.9606
#
#
#
# Elastic Compliance Matrix: (Units=1/GPa)
#
#
# Indices 1 2 3 4 5 6 
#
# 1 0.026971 -0.011010 -0.010918 0.000000 0.002280 0.000000
# 2 -0.011010 0.028309 -0.016031 0.000000 0.000479 0.000000
# 3 -0.010918 -0.016031 0.030844 0.000000 -0.002649 0.000000
# 4 0.000000 0.000000 0.000000 0.021099 0.000000 0.000320
# 5 0.002280 0.000479 -0.002649 0.000000 0.028374 0.000000
# 6 0.000000 0.000000 0.000000 0.000320 0.000000 0.027813
#
#
# Mechanical properties :
#
#
# Convention : Reuss Voigt Hill
#
# Bulk Modulus (GPa) = 97.96802 99.80289 98.88545
# Shear Modulus (GPa) = 20.59901 28.76094 24.67997
#
# Velocity S-wave (km/s) = 3.40015 4.01769 3.72175
# Velocity P-wave (km/s) = 8.39039 8.80546 8.60043
#
# Compressibility (1/GPa) = 0.01020741
#
# Stress axis : x y z
#
# Youngs Moduli (GPa) = 37.07678 35.32428 32.42114
#
# Poissons Ratio (x) = 0.38891 0.35396
# Poissons Ratio (y) = 0.40820 0.51975
# Poissons Ratio (z) = 0.40479 0.56629
#
# Static dielectric constant tensor:
#      x y z
#    x 1.592080 0.000000 -0.000190 
#    y 0.000000 1.574540 0.000000 
#    z -0.000190 0.000000 1.596180 
# 
# From -- ./inp_files/257186.got.cif
#   From: 2010.05.17/outbox.cif.g08.bks.cpg/sg12_129_cif.got.tgz:257186.got - 2010.06.03 13:09:07.
