data_PCOD9207229
_publ_section_title
;
Structure prediction by ZEFSAII (Michael W. Deem and Ramdas Pophale) SiO2 
 PCOD9207229
Probable space group: C 2/M
;
_chemical_formula_sum "Si O2"
_cell_formula_units_Z 56
_cell_length_a 21.722040
_cell_length_b 8.727615
_cell_length_c 18.428603
_cell_angle_alpha 90.000000
_cell_angle_beta 56.974965
_cell_angle_gamma 90.000000
_cell_volume 2929.251857
_symmetry_space_group_name_H-M "C 2/M"
_symmetry_group_IT_number 12
_symmetry_cell_setting 'monoclinic'
loop_
_space_group_symop_operation_xyz
x,y,z
-x,y,-z
-x,-y,-z
x,-y,z
1/2+x,1/2+y,z
1/2-x,1/2+y,-z
1/2-x,1/2-y,-z
1/2+x,1/2-y,z
loop_
_atom_site_type_symbol
_atom_site_label
_atom_site_fract_x
_atom_site_fract_y
_atom_site_fract_z
Si Si1 0.641934 0.183456 0.721787
Si Si2 0.364240 0.681586 0.933302
Si Si3 0.294068 0.680438 0.701276
Si Si4 0.666989 0.317865 0.553556
Si Si5 0.081658 0.317861 0.470262
Si Si6 0.491931 0.815084 0.089303
Si Si7 0.268059 0.819775 0.871907
O O1 0.723924 0.217417 0.696505
O O2 0.630590 0.267728 0.653051
O O3 0.584457 0.224750 0.822092
O O4 0.636438 0.000000 0.713702
O O5 0.363758 0.500000 0.918862
O O6 0.442988 0.739648 0.907106
O O7 0.333092 0.771739 0.884364
O O8 0.306855 0.710504 0.035739
O O9 0.309534 0.500000 0.684113
O O10 0.363231 0.776308 0.630122
O O11 0.272939 0.721715 0.796484
O O12 0.673060 0.500000 0.544519
O O13 0.750000 0.250000 0.500000
O O14 0.617964 0.257580 0.518230
O O15 0.079170 0.500000 0.483597
O O16 0.000000 0.265450 0.500000
O O17 0.499139 0.000000 0.086510
O O18 0.500000 0.767353 0.000000
O O19 0.271645 0.000000 0.852761
#
# Coordination Sequence:
#
# PCOD9207229 Si02
#       7
#     8   8   8   8   8   8   8
#     4  10  22  39  62  92 123 162 208 254 310 373
#     4  10  21  37  57  84 117 156 203 253 304 360
#     4  11  22  38  63  91 120 156 202 253 304 370
#     4  12  24  41  67  94 125 165 211 262 316 377
#     4  11  25  44  66  93 127 164 204 257 319 379
#     4  10  21  38  60  87 123 163 202 249 307 368
#     4  10  21  37  59  84 116 158 201 249 305 368
#
# _framework density 19.117509999999999
#
# number of rings (size 3 to 8) (size 9 to 14) (size 15 to 20)
#    0.000    1.429    1.429    3.857    0.000    6.571 
#    0.000    1.429    0.000    0.000    0.000    0.000 
#    0.000    0.000    0.000    0.000    0.000    0.000 
#
# Total GULP energy -156503.586845 kJ/mol
# GULP energy per Si atom -5589.413816 kJ/mol
# Density = 1.907400 g / cm^3
# Si number density = 19.117510 Si / 1000 Ang^3
#
#
#
# Elastic Constant Matrix: (Units=GPa)
#
#
# Indices 1 2 3 4 5 6 
#
# 1 104.6306 35.9082 25.1184 0.0001 -9.5645 -0.0001
# 2 35.9082 38.1762 26.3773 0.0005 -6.0723 -0.0005
# 3 25.1184 26.3773 62.0729 0.0001 5.8890 0.0000
# 4 0.0001 0.0005 0.0001 12.5022 0.0000 14.9980
# 5 -9.5645 -6.0723 5.8890 0.0000 28.7110 0.0000
# 6 -0.0001 -0.0005 0.0000 14.9980 0.0000 25.7652
#
#
#
# Elastic Compliance Matrix: (Units=1/GPa)
#
#
# Indices 1 2 3 4 5 6 
#
# 1 0.014235 -0.012622 -0.000605 0.000002 0.002197 -0.000001
# 2 -0.012622 0.052250 -0.018097 -0.000010 0.010558 0.000007
# 3 -0.000605 -0.018097 0.024912 0.000003 -0.009139 -0.000002
# 4 0.000002 -0.000010 0.000003 0.265126 -0.000002 -0.154331
# 5 0.002197 0.010558 -0.009139 -0.000002 0.039669 0.000001
# 6 -0.000001 0.000007 -0.000002 -0.154331 0.000001 0.128648
#
#
# Mechanical properties :
#
#
# Convention : Reuss Voigt Hill
#
# Bulk Modulus (GPa) = 34.78431 42.18750 38.48590
# Shear Modulus (GPa) = 8.37420 21.22741 14.80081
#
# Velocity S-wave (km/s) = 2.09521 3.33583 2.78547
# Velocity P-wave (km/s) = 4.90792 6.07885 5.52449
#
# Compressibility (1/GPa) = 0.02874860
#
# Stress axis : x y z
#
# Youngs Moduli (GPa) = 70.24795 19.13889 40.14098
#
# Poissons Ratio (x) = 0.24157 0.02430
# Poissons Ratio (y) = 0.88667 0.72643
# Poissons Ratio (z) = 0.04252 0.34636
#
# Static dielectric constant tensor:
#      x y z
#    x 1.636550 0.000000 -0.000990 
#    y 0.000000 1.640540 0.000000 
#    z -0.000990 0.000000 1.662400 
# 
# From -- ./inp_files/280906.got.cif
#   From: 2010.05.17/outbox.cif.g08.bks.cpg/sg12_141_cif.got.tgz:280906.got - 2010.06.03 13:09:07.
