data_PCOD9207313
_publ_section_title
;
Structure prediction by ZEFSAII (Michael W. Deem and Ramdas Pophale) SiO2 
 PCOD9207313
Probable space group: C 2/M
;
_chemical_formula_sum "Si O2"
_cell_formula_units_Z 58
_cell_length_a 10.504347
_cell_length_b 14.662809
_cell_length_c 15.763525
_cell_angle_alpha 90.000000
_cell_angle_beta 102.888997
_cell_angle_gamma 90.000000
_cell_volume 2366.774609
_symmetry_space_group_name_H-M "C 2/M"
_symmetry_group_IT_number 12
_symmetry_cell_setting 'monoclinic'
loop_
_space_group_symop_operation_xyz
x,y,z
-x,y,-z
-x,-y,-z
x,-y,z
1/2+x,1/2+y,z
1/2-x,1/2+y,-z
1/2-x,1/2-y,-z
1/2+x,1/2-y,z
loop_
_atom_site_type_symbol
_atom_site_label
_atom_site_fract_x
_atom_site_fract_y
_atom_site_fract_z
Si Si1 0.137553 0.646101 0.316631
Si Si2 0.408206 0.349599 0.405205
Si Si3 0.130622 0.390407 0.125338
Si Si4 0.125970 0.366849 0.637696
Si Si5 0.832888 0.611352 0.054020
Si Si6 0.000000 0.500000 0.500000
Si Si7 0.926089 0.889529 0.903342
Si Si8 0.585725 0.354422 0.284161
O O1 0.260326 0.613777 0.389791
O O2 0.179180 0.635089 0.224845
O O3 0.110974 0.752791 0.321221
O O4 0.997818 0.604209 0.321402
O O5 0.500000 0.359823 0.500000
O O6 0.384803 0.241336 0.382477
O O7 0.484529 0.392910 0.336844
O O8 0.130473 0.500000 0.122307
O O9 0.979292 0.359559 0.097088
O O10 0.197926 0.360459 0.047738
O O11 0.267078 0.392808 0.695891
O O12 0.100828 0.420688 0.548291
O O13 0.831938 0.500000 0.055046
O O14 0.722919 0.640977 0.102742
O O15 0.970951 0.854662 0.819009
O O16 0.933816 0.000000 0.900558
O O17 0.000000 0.861482 0.000000
#
# Coordination Sequence:
#
# PCOD9207313 Si02
#       8
#     8   8   8   8   8   2   8   8
#     4  10  22  38  61  89 122 158 205 245 304 368
#     4  10  22  42  64  86 123 166 201 241 310 376
#     4   9  17  32  56  83 113 151 195 248 302 352
#     4  10  23  39  65  91 120 155 204 259 300 361
#     4   8  16  32  55  81 110 147 196 248 302 349
#     4  12  24  36  68 102 118 146 218 260 314 352
#     4  10  21  37  58  81 115 160 206 245 300 364
#     4  10  23  41  61  89 124 162 203 251 311 365
#
# _framework density 24.505925000000001
#
# number of rings (size 3 to 8) (size 9 to 14) (size 15 to 20)
#    0.000    2.345    0.690    1.655    5.793    1.655 
#    2.483    0.690    0.000    1.655    0.000    0.000 
#    0.000    0.000    0.000    0.000    0.000    0.000 
#
# Total GULP energy -161751.673592 kJ/mol
# GULP energy per Si atom -5577.643917 kJ/mol
# Density = 2.445015 g / cm^3
# Si number density = 24.505925 Si / 1000 Ang^3
#
#
#
# Elastic Constant Matrix: (Units=GPa)
#
#
# Indices 1 2 3 4 5 6 
#
# 1 89.5509 15.6507 52.7435 0.0000 -8.9151 0.0000
# 2 15.6507 61.2832 -13.0557 0.0000 0.7369 0.0000
# 3 52.7435 -13.0557 91.3950 0.0000 -1.6082 0.0000
# 4 0.0000 0.0000 0.0000 25.8615 0.0000 1.1673
# 5 -8.9151 0.7369 -1.6082 0.0000 42.0272 0.0000
# 6 0.0000 0.0000 0.0000 1.1673 0.0000 -7.1789
#
#
#
# Elastic Compliance Matrix: (Units=1/GPa)
#
#
# Indices 1 2 3 4 5 6 
#
# 1 0.020631 -0.008085 -0.012990 0.000000 0.004021 0.000000
# 2 -0.008085 0.020000 0.007491 0.000000 -0.001779 0.000000
# 3 -0.012990 0.007491 0.019470 0.000000 -0.002142 0.000000
# 4 0.000000 0.000000 0.000000 0.038386 0.000000 0.006241
# 5 0.004021 -0.001779 -0.002142 0.000000 0.024596 0.000000
# 6 0.000000 0.000000 0.000000 0.006241 0.000000 -0.138282
#
#
# Mechanical properties :
#
#
# Convention : Reuss Voigt Hill
#
# Bulk Modulus (GPa) = 30.36370 39.21182 34.78776
# Shear Modulus (GPa) = 217.90131 24.60132 121.25131
#
# Velocity S-wave (km/s) = 9.43985 3.17186 7.04172
# Velocity P-wave (km/s) = 11.45564 5.42678 8.96331
#
# Compressibility (1/GPa) = 0.03293406
#
# Stress axis : x y z
#
# Youngs Moduli (GPa) = 48.47084 50.00085 51.35987
#
# Poissons Ratio (x) = 0.40423 0.66717
# Poissons Ratio (y) = 0.39187 -0.38475
# Poissons Ratio (z) = 0.62964 -0.37457
#
# Static dielectric constant tensor:
#      x y z
#    x 2.008730 0.000000 -0.016130 
#    y 0.000000 1.972200 0.000000 
#    z -0.016130 0.000000 1.954460 
# 
# From -- ./inp_files/206217.got.cif
#   From: 2010.05.17/outbox.cif.g08.bks.cpg/sg12_104_cif.got.tgz:206217.got - 2010.06.03 13:09:07.
