data_PCOD9207568
_publ_section_title
;
Structure prediction by ZEFSAII (Michael W. Deem and Ramdas Pophale) SiO2 
 PCOD9207568
Probable space group: C 2/M
;
_chemical_formula_sum "Si O2"
_cell_formula_units_Z 48
_cell_length_a 19.604199
_cell_length_b 9.170825
_cell_length_c 12.080106
_cell_angle_alpha 90.000000
_cell_angle_beta 97.598599
_cell_angle_gamma 90.000000
_cell_volume 2152.770694
_symmetry_space_group_name_H-M "C 2/M"
_symmetry_group_IT_number 12
_symmetry_cell_setting 'monoclinic'
loop_
_space_group_symop_operation_xyz
x,y,z
-x,y,-z
-x,-y,-z
x,-y,z
1/2+x,1/2+y,z
1/2-x,1/2+y,-z
1/2-x,1/2-y,-z
1/2+x,1/2-y,z
loop_
_atom_site_type_symbol
_atom_site_label
_atom_site_fract_x
_atom_site_fract_y
_atom_site_fract_z
Si Si1 0.625492 0.668594 0.867405
Si Si2 0.574966 0.830271 0.400048
Si Si3 0.533162 0.331678 0.181673
Si Si4 0.361195 0.173249 0.363622
Si Si5 0.657153 0.827362 0.088159
Si Si6 0.228019 0.332824 0.329442
O O1 0.645712 0.500000 0.862065
O O2 0.544166 0.674156 0.879647
O O3 0.629954 0.747767 0.750958
O O4 0.666223 0.745736 0.974688
O O5 0.533821 0.727920 0.307839
O O6 0.583196 0.787928 0.529980
O O7 0.653626 0.824793 0.370762
O O8 0.552111 0.000000 0.386691
O O9 0.556666 0.500000 0.183400
O O10 0.586109 0.231772 0.126270
O O11 0.285189 0.223374 0.385450
O O12 0.363601 0.000000 0.351414
O O13 0.713274 0.801330 0.196249
O O14 0.652665 0.000000 0.069598
O O15 0.252407 0.500000 0.346186
#
# Coordination Sequence:
#
# PCOD9207568 Si02
#       6
#     8   8   8   8   8   8
#     4  11  24  39  55  80 115 151 186 226 275 331
#     4   9  20  38  59  84 112 144 185 230 275 327
#     4  10  21  37  59  85 111 144 186 229 275 327
#     4  11  23  37  56  83 113 148 188 228 275 328
#     4  10  21  38  61  86 111 143 184 229 277 328
#     4   9  19  37  59  83 111 142 180 228 279 330
#
# _framework density 22.296847
#
# number of rings (size 3 to 8) (size 9 to 14) (size 15 to 20)
#    0.000    2.000    0.000    4.000    0.000   10.667 
#    0.000    3.333    0.000    0.000    0.000    0.000 
#    0.000    0.000    0.000    0.000    0.000    0.000 
#
# Total GULP energy -134266.126635 kJ/mol
# GULP energy per Si atom -5594.421943 kJ/mol
# Density = 2.224610 g / cm^3
# Si number density = 22.296847 Si / 1000 Ang^3
#
#
#
# Elastic Constant Matrix: (Units=GPa)
#
#
# Indices 1 2 3 4 5 6 
#
# 1 50.9855 12.4786 0.6874 0.0000 5.5012 0.0000
# 2 12.4786 85.2585 62.7161 0.0000 20.2609 0.0000
# 3 0.6874 62.7161 148.2445 0.0000 4.9334 0.0000
# 4 0.0000 0.0000 0.0000 29.4015 0.0000 0.0552
# 5 5.5012 20.2609 4.9334 0.0000 32.0451 0.0000
# 6 0.0000 0.0000 0.0000 0.0552 0.0000 26.9339
#
#
#
# Elastic Compliance Matrix: (Units=1/GPa)
#
#
# Indices 1 2 3 4 5 6 
#
# 1 0.020686 -0.003877 0.001589 0.000000 -0.001345 0.000000
# 2 -0.003877 0.021402 -0.008653 0.000000 -0.011534 0.000000
# 3 0.001589 -0.008653 0.010278 0.000000 0.003616 0.000000
# 4 0.000000 0.000000 0.000000 0.034012 0.000000 -0.000070
# 5 -0.001345 -0.011534 0.003616 0.000000 0.038173 0.000000
# 6 0.000000 0.000000 0.000000 -0.000070 0.000000 0.037128
#
#
# Mechanical properties :
#
#
# Convention : Reuss Voigt Hill
#
# Bulk Modulus (GPa) = 32.80235 48.47250 40.63742
# Shear Modulus (GPa) = 25.81007 31.58320 28.69663
#
# Velocity S-wave (km/s) = 3.40599 3.76771 3.59141
# Velocity P-wave (km/s) = 5.49648 6.38078 5.95507
#
# Compressibility (1/GPa) = 0.03048562
#
# Stress axis : x y z
#
# Youngs Moduli (GPa) = 48.34194 46.72387 97.29055
#
# Poissons Ratio (x) = 0.18115 -0.15460
# Poissons Ratio (y) = 0.18742 0.84182
# Poissons Ratio (z) = -0.07682 0.40428
#
# Static dielectric constant tensor:
#      x y z
#    x 1.889740 0.000000 -0.051000 
#    y 0.000000 1.733700 0.000000 
#    z -0.051000 0.000000 1.840100 
# 
# From -- ./inp_files/172330.got.cif
#   From: 2010.05.17/outbox.cif.g08.bks.cpg/sg12_87_cif.got.tgz:172330.got - 2010.06.03 13:09:07.
