data_PCOD9207488
_publ_section_title
;
Structure prediction by ZEFSAII (Michael W. Deem and Ramdas Pophale) SiO2 
 PCOD9207488
Probable space group: C 2/M
;
_chemical_formula_sum "Si O2"
_cell_formula_units_Z 58
_cell_length_a 23.761231
_cell_length_b 7.685196
_cell_length_c 25.437288
_cell_angle_alpha 90.000000
_cell_angle_beta 34.750127
_cell_angle_gamma 90.000000
_cell_volume 2647.698127
_symmetry_space_group_name_H-M "C 2/M"
_symmetry_group_IT_number 12
_symmetry_cell_setting 'monoclinic'
loop_
_space_group_symop_operation_xyz
x,y,z
-x,y,-z
-x,-y,-z
x,-y,z
1/2+x,1/2+y,z
1/2-x,1/2+y,-z
1/2-x,1/2-y,-z
1/2+x,1/2-y,z
loop_
_atom_site_type_symbol
_atom_site_label
_atom_site_fract_x
_atom_site_fract_y
_atom_site_fract_z
Si Si1 0.807095 0.707835 0.903180
Si Si2 0.031000 0.198553 0.722467
Si Si3 0.856946 0.703703 0.259865
Si Si4 0.766355 0.295223 0.818852
Si Si5 0.869838 0.210240 0.567982
Si Si6 0.421363 0.798531 0.101255
Si Si7 0.500000 0.000000 0.500000
Si Si8 0.004003 0.790379 0.364689
O O1 0.821621 0.500000 0.888245
O O2 0.914322 0.793726 0.822914
O O3 0.754971 0.763322 0.888654
O O4 0.750000 0.750000 0.000000
O O5 0.039005 0.277098 0.657868
O O6 0.087037 0.278887 0.728399
O O7 0.065347 0.000000 0.693307
O O8 0.848548 0.500000 0.254516
O O9 0.743896 0.760136 0.351385
O O10 0.912187 0.781680 0.166617
O O11 0.745898 0.500000 0.831667
O O12 0.687542 0.206926 0.841146
O O13 0.882180 0.266343 0.717682
O O14 0.917111 0.343712 0.572492
O O15 0.931137 0.254799 0.467931
O O16 0.880220 0.000000 0.570711
O O17 0.452877 0.000000 0.083685
O O18 0.500000 0.718987 0.000000
O O19 0.006820 0.000000 0.359775
#
# Coordination Sequence:
#
# PCOD9207488 Si02
#       8
#     8   8   8   8   8   8   2   8
#     4  10  21  37  58  87 119 156 203 257 317 367
#     4  10  21  38  62  90 123 163 207 257 311 381
#     4  10  23  42  61  89 127 166 208 257 320 371
#     4  10  22  37  59  89 119 151 200 257 306 365
#     4  10  24  43  65  97 133 169 213 266 318 379
#     4  10  23  41  60  83 115 162 207 245 306 378
#     4  12  26  40  68  98 130 172 222 256 324 370
#     4   9  20  40  63  91 125 163 202 251 316 371
#
# _framework density 21.905822000000001
#
# number of rings (size 3 to 8) (size 9 to 14) (size 15 to 20)
#    0.000    2.069    0.000    1.448    5.793    3.586 
#    0.000    0.000    0.000    0.000    0.000    0.000 
#    0.000    0.000    0.000    0.000    0.000    0.000 
#
# Total GULP energy -161635.513431 kJ/mol
# GULP energy per Si atom -5573.638394 kJ/mol
# Density = 2.185596 g / cm^3
# Si number density = 21.905822 Si / 1000 Ang^3
#
#
#
# Elastic Constant Matrix: (Units=GPa)
#
#
# Indices 1 2 3 4 5 6 
#
# 1 105.1876 1.6504 45.3503 -0.0193 12.7741 0.0348
# 2 1.6504 44.8091 11.1181 -0.0351 7.5172 0.0472
# 3 45.3503 11.1181 108.7018 -0.0088 29.9327 0.0223
# 4 -0.0193 -0.0351 -0.0088 -28.7600 0.0074 20.9560
# 5 12.7741 7.5172 29.9327 0.0074 32.7125 -0.0197
# 6 0.0348 0.0472 0.0223 20.9560 -0.0197 -6.9435
#
#
#
# Elastic Compliance Matrix: (Units=1/GPa)
#
#
# Indices 1 2 3 4 5 6 
#
# 1 0.011621 0.000824 -0.004854 -0.000024 -0.000286 -0.000022
# 2 0.000824 0.023390 -0.001561 -0.000079 -0.004269 -0.000067
# 3 -0.004854 -0.001561 0.014389 -0.000024 -0.010912 -0.000030
# 4 -0.000024 -0.000079 -0.000024 0.028997 0.000095 0.087514
# 5 -0.000286 -0.004269 -0.010912 0.000095 0.041647 0.000104
# 6 -0.000022 -0.000067 -0.000030 0.087514 0.000104 0.120104
#
#
# Mechanical properties :
#
#
# Convention : Reuss Voigt Hill
#
# Bulk Modulus (GPa) = 26.16469 41.65956 33.91213
# Shear Modulus (GPa) = 18.93446 12.77379 15.85412
#
# Velocity S-wave (km/s) = 2.94319 2.41741 2.69316
# Velocity P-wave (km/s) = 4.84973 5.18177 5.01850
#
# Compressibility (1/GPa) = 0.03821944
#
# Stress axis : x y z
#
# Youngs Moduli (GPa) = 86.04853 42.75342 69.49744
#
# Poissons Ratio (x) = -0.03524 0.33734
# Poissons Ratio (y) = -0.07093 0.10847
# Poissons Ratio (z) = 0.41768 0.06673
#
# Static dielectric constant tensor:
#      x y z
#    x 1.832450 -0.000020 0.064950 
#    y -0.000020 1.851650 0.000010 
#    z 0.064950 0.000010 1.825870 
# 
# From -- ./inp_files/346506.got.cif
#   From: 2010.05.17/outbox.cif.g08.bks.cpg/sg12_174_cif.got.tgz:346506.got - 2010.06.03 13:09:07.
