data_PCOD9207816
_publ_section_title
;
Structure prediction by ZEFSAII (Michael W. Deem and Ramdas Pophale) SiO2 
 PCOD9207816
Probable space group: C 2/M
;
_chemical_formula_sum "Si O2"
_cell_formula_units_Z 60
_cell_length_a 11.198578
_cell_length_b 18.525440
_cell_length_c 15.938136
_cell_angle_alpha 90.000000
_cell_angle_beta 71.975748
_cell_angle_gamma 90.000000
_cell_volume 3144.238585
_symmetry_space_group_name_H-M "C 2/M"
_symmetry_group_IT_number 12
_symmetry_cell_setting 'monoclinic'
loop_
_space_group_symop_operation_xyz
x,y,z
-x,y,-z
-x,-y,-z
x,-y,z
1/2+x,1/2+y,z
1/2-x,1/2+y,-z
1/2-x,1/2-y,-z
1/2+x,1/2-y,z
loop_
_atom_site_type_symbol
_atom_site_label
_atom_site_fract_x
_atom_site_fract_y
_atom_site_fract_z
Si Si1 0.369098 0.313007 0.660478
Si Si2 0.359851 0.085004 0.261519
Si Si3 0.000000 0.710721 0.500000
Si Si4 0.461145 0.194467 0.101636
Si Si5 0.794083 0.282944 0.834257
Si Si6 0.343528 0.918018 0.523469
Si Si7 0.053912 0.078707 0.581539
Si Si8 0.867128 0.419281 0.719841
O O1 0.255091 0.369664 0.673351
O O2 0.409830 0.260514 0.575701
O O3 0.338814 0.266282 0.747402
O O4 0.492771 0.360130 0.649856
O O5 0.400529 0.128833 0.168807
O O6 0.485836 0.087310 0.289488
O O7 0.327601 0.000000 0.256326
O O8 0.912143 0.652157 0.472206
O O9 0.347029 0.253477 0.115651
O O10 0.591307 0.218243 0.121900
O O11 0.500000 0.171682 0.000000
O O12 0.793599 0.362247 0.792681
O O13 0.199186 0.912735 0.536889
O O14 0.352147 0.911625 0.623041
O O15 0.383382 0.000000 0.488950
O O16 0.000000 0.082933 0.500000
O O17 0.026909 0.000000 0.623440
O O18 0.826203 0.500000 0.750402
#
# Coordination Sequence:
#
# PCOD9207816 Si02
#       8
#     8   8   4   8   8   8   8   8
#     4  11  22  37  56  82 114 156 190 238 286 338
#     4   9  20  38  61  86 115 147 189 236 287 346
#     4  12  23  38  55  80 116 150 200 246 275 338
#     4  10  21  38  64  92 118 151 187 233 299 358
#     4  10  21  37  60  86 123 151 189 239 290 351
#     4  10  22  38  55  75 108 151 201 248 284 327
#     4  10  22  39  54  74 107 151 198 243 287 331
#     4   9  18  36  59  82 109 150 191 235 287 337
#
# _framework density 19.082521
#
# number of rings (size 3 to 8) (size 9 to 14) (size 15 to 20)
#    0.000    2.000    2.000    1.000    1.867    2.933 
#    2.400    4.000    0.000    0.400    0.000    0.000 
#    0.000    0.000    0.000    0.000    0.000    0.000 
#
# Total GULP energy -167201.458931 kJ/mol
# GULP energy per Si atom -5573.381964 kJ/mol
# Density = 1.903909 g / cm^3
# Si number density = 19.082521 Si / 1000 Ang^3
#
#
#
# Elastic Constant Matrix: (Units=GPa)
#
#
# Indices 1 2 3 4 5 6 
#
# 1 114.3227 48.8500 31.8264 0.0000 2.7980 0.0000
# 2 48.8500 141.4339 42.8129 0.0000 -8.9263 0.0000
# 3 31.8264 42.8129 90.5312 0.0000 -2.6890 0.0000
# 4 0.0000 0.0000 0.0000 13.4816 0.0000 -9.0890
# 5 2.7980 -8.9263 -2.6890 0.0000 20.6032 0.0000
# 6 0.0000 0.0000 0.0000 -9.0890 0.0000 24.5652
#
#
#
# Elastic Compliance Matrix: (Units=1/GPa)
#
#
# Indices 1 2 3 4 5 6 
#
# 1 0.010872 -0.003233 -0.002387 0.000000 -0.003189 0.000000
# 2 -0.003233 0.009412 -0.003193 0.000000 0.004100 0.000000
# 3 -0.002387 -0.003193 0.013416 0.000000 0.000692 0.000000
# 4 0.000000 0.000000 0.000000 0.098828 0.000000 0.036566
# 5 -0.003189 0.004100 0.000692 0.000000 0.050836 0.000000
# 6 0.000000 0.000000 0.000000 0.036566 0.000000 0.054237
#
#
# Mechanical properties :
#
#
# Convention : Reuss Voigt Hill
#
# Bulk Modulus (GPa) = 62.21880 65.91850 64.06865
# Shear Modulus (GPa) = 19.18757 26.58322 22.88540
#
# Velocity S-wave (km/s) = 3.17441 3.73643 3.46683
# Velocity P-wave (km/s) = 6.79056 7.29613 7.04788
#
# Compressibility (1/GPa) = 0.01607231
#
# Stress axis : x y z
#
# Youngs Moduli (GPa) = 91.98331 106.24172 74.53977
#
# Poissons Ratio (x) = 0.34353 0.17796
# Poissons Ratio (y) = 0.29743 0.23798
# Poissons Ratio (z) = 0.21961 0.33920
#
# Static dielectric constant tensor:
#      x y z
#    x 1.738090 0.000000 -0.049410 
#    y 0.000000 1.713460 0.000000 
#    z -0.049410 0.000000 1.740520 
# 
# From -- ./inp_files/206644.got.cif
#   From: 2010.05.17/outbox.cif.g08.bks.cpg/sg12_104_cif.got.tgz:206644.got - 2010.06.03 13:09:07.
