data_PCOD9207268
_publ_section_title
;
Structure prediction by ZEFSAII (Michael W. Deem and Ramdas Pophale) SiO2 
 PCOD9207268
Probable space group: C 2/M
;
_chemical_formula_sum "Si O2"
_cell_formula_units_Z 40
_cell_length_a 15.172774
_cell_length_b 7.988883
_cell_length_c 31.720767
_cell_angle_alpha 90.000000
_cell_angle_beta 147.853201
_cell_angle_gamma 90.000000
_cell_volume 2045.879708
_symmetry_space_group_name_H-M "C 2/M"
_symmetry_group_IT_number 12
_symmetry_cell_setting 'monoclinic'
loop_
_space_group_symop_operation_xyz
x,y,z
-x,y,-z
-x,-y,-z
x,-y,z
1/2+x,1/2+y,z
1/2-x,1/2+y,-z
1/2-x,1/2-y,-z
1/2+x,1/2-y,z
loop_
_atom_site_type_symbol
_atom_site_label
_atom_site_fract_x
_atom_site_fract_y
_atom_site_fract_z
Si Si1 0.754559 0.303769 0.292416
Si Si2 0.393569 0.302163 0.996330
Si Si3 0.540917 0.803410 0.885583
Si Si4 0.816827 0.295567 0.411589
Si Si5 0.386038 0.700647 0.589852
O O1 0.713450 0.500000 0.277538
O O2 0.617369 0.219560 0.207882
O O3 0.765817 0.236627 0.344721
O O4 0.938217 0.281433 0.348508
O O5 0.374533 0.500000 0.980246
O O6 0.206824 0.235537 0.929353
O O7 0.500000 0.232540 0.000000
O O8 0.479746 0.278400 0.076751
O O9 0.568042 0.000000 0.904498
O O10 0.823412 0.500000 0.412768
O O11 0.686882 0.247700 0.394632
O O12 0.000000 0.239640 0.500000
O O13 0.404620 0.500000 0.596749
O O14 0.250000 0.750000 0.500000
#
# Coordination Sequence:
#
# PCOD9207268 Si02
#       5
#     8   8   8   8   8
#     4  11  22  38  58  80 112 152 192 236 282 331
#     4   9  19  38  63  87 115 150 185 227 278 335
#     4  10  21  37  57  86 119 148 184 230 281 338
#     4   9  18  35  56  77 106 146 188 229 281 337
#     4  11  21  36  57  81 109 144 189 236 285 337
#
# _framework density 19.551492
#
# number of rings (size 3 to 8) (size 9 to 14) (size 15 to 20)
#    0.000    2.000    2.000    1.800    0.000    2.800 
#    0.000    9.000    0.000    0.000    0.000    0.000 
#    0.000    0.000    0.000    0.000    0.000    0.000 
#
# Total GULP energy -111638.371903 kJ/mol
# GULP energy per Si atom -5581.918595 kJ/mol
# Density = 1.950699 g / cm^3
# Si number density = 19.551492 Si / 1000 Ang^3
#
#
#
# Elastic Constant Matrix: (Units=GPa)
#
#
# Indices 1 2 3 4 5 6 
#
# 1 172.2024 -6.8385 59.9864 0.0000 -12.7540 0.0000
# 2 -6.8385 16.7310 -17.6905 0.0000 2.5767 0.0001
# 3 59.9864 -17.6905 125.2614 0.0000 -8.0062 0.0000
# 4 0.0000 0.0000 0.0000 22.3731 0.0000 -0.5172
# 5 -12.7540 2.5767 -8.0062 0.0000 17.2167 0.0000
# 6 0.0000 0.0001 0.0000 -0.5172 0.0000 18.0727
#
#
#
# Elastic Compliance Matrix: (Units=1/GPa)
#
#
# Indices 1 2 3 4 5 6 
#
# 1 0.007231 -0.001233 -0.003383 0.000000 0.003968 0.000000
# 2 -0.001233 0.071095 0.010196 0.000000 -0.006812 0.000000
# 3 -0.003383 0.010196 0.011116 0.000000 0.001137 0.000000
# 4 0.000000 0.000000 0.000000 0.044726 0.000000 0.001280
# 5 0.003968 -0.006812 0.001137 0.000000 0.062571 0.000000
# 6 0.000000 0.000000 0.000000 0.001280 0.000000 0.055369
#
#
# Mechanical properties :
#
#
# Convention : Reuss Voigt Hill
#
# Bulk Modulus (GPa) = 9.94028 42.78995 26.36512
# Shear Modulus (GPa) = 18.21618 30.11499 24.16559
#
# Velocity S-wave (km/s) = 3.05569 3.92891 3.51949
# Velocity P-wave (km/s) = 4.18866 6.52036 5.47996
#
# Compressibility (1/GPa) = 0.10060074
#
# Stress axis : x y z
#
# Youngs Moduli (GPa) = 138.30251 14.06571 89.95998
#
# Poissons Ratio (x) = 0.01734 0.30435
# Poissons Ratio (y) = 0.17050 -0.91720
# Poissons Ratio (z) = 0.46790 -0.14341
#
# Static dielectric constant tensor:
#      x y z
#    x 1.689930 0.000000 0.002710 
#    y 0.000000 1.721340 0.000000 
#    z 0.002710 0.000000 1.646390 
# 
# From -- ./inp_files/211183.got.cif
#   From: 2010.05.17/outbox.cif.g08.bks.cpg/sg12_106_cif.got.tgz:211183.got - 2010.06.03 13:09:07.
