data_PCOD9207160
_publ_section_title
;
Structure prediction by ZEFSAII (Michael W. Deem and Ramdas Pophale) SiO2 
 PCOD9207160
Probable space group: C 2/M
;
_chemical_formula_sum "Si O2"
_cell_formula_units_Z 64
_cell_length_a 24.629664
_cell_length_b 8.706568
_cell_length_c 22.204630
_cell_angle_alpha 90.000000
_cell_angle_beta 46.444629
_cell_angle_gamma 90.000000
_cell_volume 3450.742562
_symmetry_space_group_name_H-M "C 2/M"
_symmetry_group_IT_number 12
_symmetry_cell_setting 'monoclinic'
loop_
_space_group_symop_operation_xyz
x,y,z
-x,y,-z
-x,-y,-z
x,-y,z
1/2+x,1/2+y,z
1/2-x,1/2+y,-z
1/2-x,1/2-y,-z
1/2+x,1/2-y,z
loop_
_atom_site_type_symbol
_atom_site_label
_atom_site_fract_x
_atom_site_fract_y
_atom_site_fract_z
Si Si1 0.534796 0.185520 0.271746
Si Si2 0.946917 0.183969 0.096337
Si Si3 0.315664 0.683324 0.788308
Si Si4 0.709462 0.316535 0.971927
Si Si5 0.239584 0.685200 0.603195
Si Si6 0.548540 0.184360 0.120259
Si Si7 0.712000 0.184743 0.760634
Si Si8 0.133354 0.685270 0.574645
O O1 0.602467 0.255595 0.257902
O O2 0.542350 0.228337 0.195348
O O3 0.452957 0.233265 0.357459
O O4 0.539650 0.000000 0.270713
O O5 0.862189 0.241246 0.154419
O O6 0.980869 0.254156 0.131531
O O7 0.948524 0.000000 0.098369
O O8 0.000000 0.232031 0.000000
O O9 0.313961 0.500000 0.797931
O O10 0.257469 0.759477 0.878984
O O11 0.284469 0.719043 0.745789
O O12 0.708748 0.500000 0.974909
O O13 0.750000 0.250000 0.000000
O O14 0.625300 0.253160 0.035584
O O15 0.242458 0.500000 0.601420
O O16 0.222435 0.737086 0.683882
O O17 0.175071 0.731358 0.604934
O O18 0.317094 0.747767 0.517059
O O19 0.550426 0.000000 0.115691
O O20 0.701637 0.000000 0.768484
O O21 0.135520 0.500000 0.570097
#
# Coordination Sequence:
#
# PCOD9207160 Si02
#       8
#     8   8   8   8   8   8   8   8
#     4  10  21  37  57  82 114 149 186 233 287 339
#     4  11  24  39  56  83 116 150 188 236 287 336
#     4  11  23  38  58  83 112 151 196 240 284 338
#     4  12  23  37  56  81 113 150 192 237 283 335
#     4   9  18  36  60  85 112 144 182 231 284 341
#     4  11  22  37  59  84 112 150 190 235 288 339
#     4  10  22  40  60  82 112 153 196 233 283 346
#     4   9  18  34  58  87 114 142 180 230 287 343
#
# _framework density 18.546731999999999
#
# number of rings (size 3 to 8) (size 9 to 14) (size 15 to 20)
#    0.000    1.625    1.250    3.750    0.000    7.500 
#    0.000    3.125    0.000    3.750    0.000    0.000 
#    0.000    0.000    0.000    0.000    0.000    0.000 
#
# Total GULP energy -178828.473643 kJ/mol
# GULP energy per Si atom -5588.389801 kJ/mol
# Density = 1.850452 g / cm^3
# Si number density = 18.546732 Si / 1000 Ang^3
#
#
#
# Elastic Constant Matrix: (Units=GPa)
#
#
# Indices 1 2 3 4 5 6 
#
# 1 119.0517 36.4909 58.3854 0.0005 -13.6605 -0.0013
# 2 36.4909 36.9499 30.5079 0.0006 -2.2385 -0.0037
# 3 58.3854 30.5079 120.3899 0.0002 -9.6214 -0.0007
# 4 0.0005 0.0006 0.0002 27.2074 -0.0002 -7.0978
# 5 -13.6605 -2.2385 -9.6214 -0.0002 35.5357 0.0004
# 6 -0.0013 -0.0037 -0.0007 -7.0978 0.0004 27.1816
#
#
#
# Elastic Compliance Matrix: (Units=1/GPa)
#
#
# Indices 1 2 3 4 5 6 
#
# 1 0.013846 -0.010306 -0.003812 0.000000 0.003641 -0.000001
# 2 -0.010306 0.041896 -0.005851 0.000001 -0.002907 0.000005
# 3 -0.003812 -0.005851 0.011746 0.000000 0.001346 -0.000001
# 4 0.000000 0.000001 0.000000 0.039442 0.000000 0.010299
# 5 0.003641 -0.002907 0.001346 0.000000 0.029722 -0.000001
# 6 -0.000001 0.000005 -0.000001 0.010299 -0.000001 0.039479
#
#
# Mechanical properties :
#
#
# Convention : Reuss Voigt Hill
#
# Bulk Modulus (GPa) = 36.29857 58.57331 47.43594
# Shear Modulus (GPa) = 22.19737 28.05210 25.12474
#
# Velocity S-wave (km/s) = 3.46328 3.89332 3.68458
# Velocity P-wave (km/s) = 5.96710 7.20143 6.61313
#
# Compressibility (1/GPa) = 0.02754929
#
# Stress axis : x y z
#
# Youngs Moduli (GPa) = 72.22305 23.86842 85.13870
#
# Poissons Ratio (x) = 0.24598 0.32458
# Poissons Ratio (y) = 0.74431 0.49817
# Poissons Ratio (z) = 0.27534 0.13966
#
# Static dielectric constant tensor:
#      x y z
#    x 1.649070 0.000000 0.004500 
#    y 0.000000 1.624720 0.000000 
#    z 0.004500 0.000000 1.621000 
# 
# From -- ./inp_files/324096.got.cif
#   From: 2010.05.17/outbox.cif.g08.bks.cpg/sg12_163_cif.got.tgz:324096.got - 2010.06.03 13:09:07.
