data_PCOD9207025
_publ_section_title
;
Structure prediction by ZEFSAII (Michael W. Deem and Ramdas Pophale) SiO2 
 PCOD9207025
Probable space group: C 2/M
;
_chemical_formula_sum "Si O2"
_cell_formula_units_Z 64
_cell_length_a 25.629731
_cell_length_b 8.322078
_cell_length_c 15.640798
_cell_angle_alpha 90.000000
_cell_angle_beta 108.446095
_cell_angle_gamma 90.000000
_cell_volume 3164.665558
_symmetry_space_group_name_H-M "C 2/M"
_symmetry_group_IT_number 12
_symmetry_cell_setting 'monoclinic'
loop_
_space_group_symop_operation_xyz
x,y,z
-x,y,-z
-x,-y,-z
x,-y,z
1/2+x,1/2+y,z
1/2-x,1/2+y,-z
1/2-x,1/2-y,-z
1/2+x,1/2-y,z
loop_
_atom_site_type_symbol
_atom_site_label
_atom_site_fract_x
_atom_site_fract_y
_atom_site_fract_z
Si Si1 0.730287 0.184002 0.752219
Si Si2 0.779274 0.816262 0.433114
Si Si3 0.348815 0.808691 0.808322
Si Si4 0.422530 0.307546 0.699059
Si Si5 0.060973 0.307822 0.010345
Si Si6 0.104164 0.306530 0.690897
Si Si7 0.539525 0.690060 0.820443
Si Si8 0.602404 0.191090 0.495874
O O1 0.733329 0.199696 0.651537
O O2 0.787102 0.267913 0.807270
O O3 0.668198 0.248094 0.736354
O O4 0.731845 0.000000 0.781422
O O5 0.750000 0.750000 0.500000
O O6 0.843659 0.800049 0.483479
O O7 0.763906 0.000000 0.404738
O O8 0.368806 0.741110 0.726379
O O9 0.352885 0.000000 0.803393
O O10 0.392365 0.746139 0.901341
O O11 0.423439 0.500000 0.690466
O O12 0.476068 0.254433 0.780969
O O13 0.428686 0.230141 0.608048
O O14 0.059690 0.500000 0.020367
O O15 0.070208 0.270141 0.915835
O O16 0.000000 0.242986 0.000000
O O17 0.104014 0.500000 0.699823
O O18 0.067748 0.230059 0.745291
O O19 0.082618 0.273785 0.582800
O O20 0.539614 0.500000 0.834138
O O21 0.615635 0.000000 0.502140
#
# Coordination Sequence:
#
# PCOD9207025 Si02
#       8
#     8   8   8   8   8   8   8   8
#     4  10  21  38  58  83 115 153 193 238 290 344
#     4  11  20  32  51  76 110 151 193 240 289 342
#     4  11  22  37  61  91 119 152 193 241 294 349
#     4  11  23  37  55  86 123 157 192 240 297 350
#     4  10  21  40  64  89 118 152 191 237 292 353
#     4   9  21  41  62  82 113 157 201 240 285 342
#     4  11  24  39  61  89 118 153 194 243 295 347
#     4  10  21  37  56  81 112 153 200 243 286 339
#
# _framework density 20.223306000000001
#
# number of rings (size 3 to 8) (size 9 to 14) (size 15 to 20)
#    0.000    1.625    1.250    4.500    0.000    6.250 
#    0.000    3.125    0.000    0.000    0.000    0.000 
#    0.000    0.000    0.000    0.000    0.000    0.000 
#
# Total GULP energy -178507.062370 kJ/mol
# GULP energy per Si atom -5578.345699 kJ/mol
# Density = 2.017728 g / cm^3
# Si number density = 20.223306 Si / 1000 Ang^3
#
#
#
# Elastic Constant Matrix: (Units=GPa)
#
#
# Indices 1 2 3 4 5 6 
#
# 1 39.5303 1.5402 8.7862 0.0000 3.7466 0.0000
# 2 1.5402 36.1203 0.9025 0.0000 0.9018 0.0000
# 3 8.7862 0.9025 84.8895 0.0000 8.3259 0.0000
# 4 0.0000 0.0000 0.0000 17.2521 0.0000 2.1486
# 5 3.7466 0.9018 8.3259 0.0000 30.4476 0.0000
# 6 0.0000 0.0000 0.0000 2.1486 0.0000 24.6768
#
#
#
# Elastic Compliance Matrix: (Units=1/GPa)
#
#
# Indices 1 2 3 4 5 6 
#
# 1 0.026118 -0.000990 -0.002446 0.000000 -0.002516 0.000000
# 2 -0.000990 0.027747 -0.000127 0.000000 -0.000665 0.000000
# 3 -0.002446 -0.000127 0.012335 0.000000 -0.003068 0.000000
# 4 0.000000 0.000000 0.000000 0.058599 0.000000 -0.005102
# 5 -0.002516 -0.000665 -0.003068 0.000000 0.034012 0.000000
# 6 0.000000 0.000000 0.000000 -0.005102 0.000000 0.040968
#
#
# Mechanical properties :
#
#
# Convention : Reuss Voigt Hill
#
# Bulk Modulus (GPa) = 16.92782 20.33310 18.63046
# Shear Modulus (GPa) = 22.06561 24.42939 23.24750
#
# Velocity S-wave (km/s) = 3.30676 3.47937 3.39416
# Velocity P-wave (km/s) = 4.79251 5.12030 4.95912
#
# Compressibility (1/GPa) = 0.05907435
#
# Stress axis : x y z
#
# Youngs Moduli (GPa) = 38.28825 36.03959 81.06698
#
# Poissons Ratio (x) = 0.03567 0.19829
# Poissons Ratio (y) = 0.03790 0.01032
# Poissons Ratio (z) = 0.09365 0.00459
#
# Static dielectric constant tensor:
#      x y z
#    x 1.767270 0.000000 0.068380 
#    y 0.000000 1.693380 0.000000 
#    z 0.068380 0.000000 1.734490 
# 
# From -- ./inp_files/244264.got.cif
#   From: 2010.05.17/outbox.cif.g08.bks.cpg/sg12_123_cif.got.tgz:244264.got - 2010.06.03 13:09:07.
