data_PCOD9207576
_publ_section_title
;
Structure prediction by ZEFSAII (Michael W. Deem and Ramdas Pophale) SiO2 
 PCOD9207576
Probable space group: C 2/M
;
_chemical_formula_sum "Si O2"
_cell_formula_units_Z 64
_cell_length_a 16.505686
_cell_length_b 19.881964
_cell_length_c 15.061921
_cell_angle_alpha 90.000000
_cell_angle_beta 39.372218
_cell_angle_gamma 90.000000
_cell_volume 3135.494968
_symmetry_space_group_name_H-M "C 2/M"
_symmetry_group_IT_number 12
_symmetry_cell_setting 'monoclinic'
loop_
_space_group_symop_operation_xyz
x,y,z
-x,y,-z
-x,-y,-z
x,-y,z
1/2+x,1/2+y,z
1/2-x,1/2+y,-z
1/2-x,1/2-y,-z
1/2+x,1/2-y,z
loop_
_atom_site_type_symbol
_atom_site_label
_atom_site_fract_x
_atom_site_fract_y
_atom_site_fract_z
Si Si1 0.707002 0.077101 0.678161
Si Si2 0.762507 0.424646 0.824006
Si Si3 0.352689 0.311275 0.649442
Si Si4 0.738234 0.423992 0.563443
Si Si5 0.146438 0.329079 0.404955
Si Si6 0.453673 0.423866 0.857665
Si Si7 0.089683 0.578130 0.115588
Si Si8 0.786892 0.187426 0.904393
O O1 0.762707 0.126569 0.703337
O O2 0.786316 0.086444 0.519767
O O3 0.560239 0.088184 0.773480
O O4 0.718566 0.000000 0.697480
O O5 0.783041 0.500000 0.770410
O O6 0.783527 0.369960 0.731842
O O7 0.859377 0.415865 0.825700
O O8 0.621595 0.420945 0.985863
O O9 0.500000 0.326737 0.500000
O O10 0.309529 0.247501 0.627552
O O11 0.334558 0.290341 0.767323
O O12 0.790077 0.500000 0.528372
O O13 0.833301 0.369889 0.522605
O O14 0.605367 0.418974 0.728640
O O15 0.000000 0.326901 0.500000
O O16 0.424382 0.500000 0.846647
O O17 0.395386 0.361817 0.852688
O O18 0.118151 0.500000 0.065781
O O19 0.167002 0.636197 0.999513
O O20 0.750000 0.250000 0.000000
#
# Coordination Sequence:
#
# PCOD9207576 Si02
#       8
#     8   8   8   8   8   8   8   8
#     4  10  22  40  61  86 115 148 193 243 289 342
#     4   9  17  33  58  85 113 148 190 236 287 344
#     4  11  25  41  58  84 117 154 193 237 292 346
#     4  10  21  37  59  85 113 151 194 236 287 345
#     4  11  23  37  54  80 116 152 191 239 289 346
#     4   9  19  36  57  82 113 148 188 236 290 344
#     4   9  19  37  61  86 114 148 186 237 296 342
#     4  11  22  38  62  88 116 153 195 236 283 346
#
# _framework density 20.411449999999999
#
# number of rings (size 3 to 8) (size 9 to 14) (size 15 to 20)
#    0.000    2.000    0.000    4.500    0.000    6.750 
#    0.000    4.375    0.000    0.000    0.000    0.000 
#    0.000    0.000    0.000    0.000    0.000    0.000 
#
# Total GULP energy -178607.673357 kJ/mol
# GULP energy per Si atom -5581.489792 kJ/mol
# Density = 2.036499 g / cm^3
# Si number density = 20.411450 Si / 1000 Ang^3
#
#
#
# Elastic Constant Matrix: (Units=GPa)
#
#
# Indices 1 2 3 4 5 6 
#
# 1 42.2369 35.9240 16.2280 0.0001 -1.4521 -0.0001
# 2 35.9240 101.8794 21.7149 0.0000 -0.4120 0.0000
# 3 16.2280 21.7149 70.4586 0.0001 -4.3553 0.0000
# 4 0.0001 0.0000 0.0001 26.3299 -0.0001 -0.6159
# 5 -1.4521 -0.4120 -4.3553 -0.0001 24.7397 0.0000
# 6 -0.0001 0.0000 0.0000 -0.6159 0.0000 20.2489
#
#
#
# Elastic Compliance Matrix: (Units=1/GPa)
#
#
# Indices 1 2 3 4 5 6 
#
# 1 0.035173 -0.011437 -0.004510 0.000000 0.001080 0.000000
# 2 -0.011437 0.014228 -0.001797 0.000000 -0.000751 0.000000
# 3 -0.004510 -0.001797 0.015941 0.000000 0.002512 0.000000
# 4 0.000000 0.000000 0.000000 0.038007 0.000000 0.001156
# 5 0.001080 -0.000751 0.002512 0.000000 0.040914 0.000000
# 6 0.000000 0.000000 0.000000 0.001156 0.000000 0.049420
#
#
# Mechanical properties :
#
#
# Convention : Reuss Voigt Hill
#
# Bulk Modulus (GPa) = 33.49574 40.25651 36.87612
# Shear Modulus (GPa) = 20.90976 23.64425 22.27700
#
# Velocity S-wave (km/s) = 3.20412 3.40719 3.30721
# Velocity P-wave (km/s) = 5.48948 5.93666 5.71744
#
# Compressibility (1/GPa) = 0.02985454
#
# Stress axis : x y z
#
# Youngs Moduli (GPa) = 28.43059 70.28186 62.73312
#
# Poissons Ratio (x) = 0.80382 0.28290
# Poissons Ratio (y) = 0.32516 0.11275
# Poissons Ratio (z) = 0.12821 0.12632
#
# Static dielectric constant tensor:
#      x y z
#    x 1.720660 0.000000 -0.001070 
#    y 0.000000 1.736320 0.000000 
#    z -0.001070 0.000000 1.750150 
# 
# From -- ./inp_files/226828.got.cif
#   From: 2010.05.17/outbox.cif.g08.bks.cpg/sg12_114_cif.got.tgz:226828.got - 2010.06.03 13:09:07.
