data_PCOD9207704
_publ_section_title
;
Structure prediction by ZEFSAII (Michael W. Deem and Ramdas Pophale) SiO2 
 PCOD9207704
Probable space group: C 2/M
;
_chemical_formula_sum "Si O2"
_cell_formula_units_Z 48
_cell_length_a 28.470994
_cell_length_b 11.639963
_cell_length_c 21.285315
_cell_angle_alpha 90.000000
_cell_angle_beta 16.685034
_cell_angle_gamma 90.000000
_cell_volume 2025.270870
_symmetry_space_group_name_H-M "C 2/M"
_symmetry_group_IT_number 12
_symmetry_cell_setting 'monoclinic'
loop_
_space_group_symop_operation_xyz
x,y,z
-x,y,-z
-x,-y,-z
x,-y,z
1/2+x,1/2+y,z
1/2-x,1/2+y,-z
1/2-x,1/2-y,-z
1/2+x,1/2-y,z
loop_
_atom_site_type_symbol
_atom_site_label
_atom_site_fract_x
_atom_site_fract_y
_atom_site_fract_z
Si Si1 0.365767 0.838986 0.408775
Si Si2 0.493847 0.374073 0.932129
Si Si3 0.486353 0.873682 0.917043
Si Si4 0.330623 0.369795 0.526581
Si Si5 0.801543 0.375120 0.960018
Si Si6 0.985442 0.132769 0.586070
O O1 0.181666 0.869156 0.664994
O O2 0.421698 0.874505 0.268312
O O3 0.381005 0.702739 0.401426
O O4 0.506081 0.881445 0.275734
O O5 0.425667 0.500000 0.000572
O O6 0.408668 0.253682 0.020641
O O7 0.500000 0.372949 0.000000
O O8 0.634415 0.868919 0.778153
O O9 0.404831 0.000000 0.028139
O O10 0.383986 0.500000 0.451329
O O11 0.410569 0.322048 0.487943
O O12 0.752847 0.500000 0.992801
O O13 0.750000 0.250000 0.000000
O O14 0.703470 0.372283 0.151482
O O15 0.000000 0.190052 0.500000
O O16 0.040460 0.000000 0.509586
#
# Coordination Sequence:
#
# PCOD9207704 Si02
#       6
#     8   8   8   8   8   8
#     4  11  21  37  60  88 121 158 200 249 297 355
#     4  10  21  38  59  84 119 162 200 237 294 359
#     4  10  21  37  59  89 122 154 195 249 303 349
#     4   9  17  32  57  87 119 155 195 242 296 352
#     4  11  22  38  61  88 117 157 202 248 299 351
#     4   9  18  35  58  84 114 153 201 245 292 350
#
# _framework density 23.700534000000001
#
# number of rings (size 3 to 8) (size 9 to 14) (size 15 to 20)
#    0.000    2.000    1.667    3.500    0.000    2.333 
#    6.000    0.000    0.000    0.500    0.000    0.000 
#    0.000    0.000    0.000    0.000    0.000    0.000 
#
# Total GULP energy -133723.548696 kJ/mol
# GULP energy per Si atom -5571.814529 kJ/mol
# Density = 2.364659 g / cm^3
# Si number density = 23.700534 Si / 1000 Ang^3
#
#
#
# Elastic Constant Matrix: (Units=GPa)
#
#
# Indices 1 2 3 4 5 6 
#
# 1 66.6386 32.8883 14.1085 -0.0003 5.2372 0.0004
# 2 32.8883 226.4762 14.1757 -0.0002 9.7587 0.0002
# 3 14.1085 14.1757 76.4615 -0.0001 3.5684 0.0003
# 4 -0.0003 -0.0002 -0.0001 13.9728 0.0001 6.2688
# 5 5.2372 9.7587 3.5684 0.0001 31.6386 -0.0002
# 6 0.0004 0.0002 0.0003 6.2688 -0.0002 20.5294
#
#
#
# Elastic Compliance Matrix: (Units=1/GPa)
#
#
# Indices 1 2 3 4 5 6 
#
# 1 0.016784 -0.002196 -0.002605 0.000001 -0.001807 0.000000
# 2 -0.002196 0.004808 -0.000436 0.000000 -0.001070 0.000000
# 3 -0.002605 -0.000436 0.013686 0.000000 -0.000978 0.000000
# 4 0.000001 0.000000 0.000000 0.082929 -0.000001 -0.025323
# 5 -0.001807 -0.001070 -0.000978 -0.000001 0.032346 0.000001
# 6 0.000000 0.000000 0.000000 -0.025323 0.000001 0.056443
#
#
# Mechanical properties :
#
#
# Convention : Reuss Voigt Hill
#
# Bulk Modulus (GPa) = 40.31994 54.65793 47.48894
# Shear Modulus (GPa) = 22.14951 33.78843 27.96897
#
# Velocity S-wave (km/s) = 3.06037 3.77986 3.43898
# Velocity P-wave (km/s) = 5.43479 6.49321 5.98744
#
# Compressibility (1/GPa) = 0.02480163
#
# Stress axis : x y z
#
# Youngs Moduli (GPa) = 59.58085 207.99364 73.06893
#
# Poissons Ratio (x) = 0.45683 0.19037
# Poissons Ratio (y) = 0.13086 0.03187
# Poissons Ratio (z) = 0.15523 0.09071
#
# Static dielectric constant tensor:
#      x y z
#    x 1.969820 0.000000 -0.000020 
#    y 0.000000 2.014990 0.000000 
#    z -0.000020 0.000000 1.909650 
# 
# From -- ./inp_files/330014.got.cif
#   From: 2010.05.17/outbox.cif.g08.bks.cpg/sg12_166_cif.got.tgz:330014.got - 2010.06.03 13:09:07.
