data_PCOD9207664
_publ_section_title
;
Structure prediction by ZEFSAII (Michael W. Deem and Ramdas Pophale) SiO2 
 PCOD9207664
Probable space group: C 2/M
;
_chemical_formula_sum "Si O2"
_cell_formula_units_Z 58
_cell_length_a 26.831524
_cell_length_b 7.849698
_cell_length_c 29.644821
_cell_angle_alpha 90.000000
_cell_angle_beta 153.744206
_cell_angle_gamma 90.000000
_cell_volume 2762.116555
_symmetry_space_group_name_H-M "C 2/M"
_symmetry_group_IT_number 12
_symmetry_cell_setting 'monoclinic'
loop_
_space_group_symop_operation_xyz
x,y,z
-x,y,-z
-x,-y,-z
x,-y,z
1/2+x,1/2+y,z
1/2-x,1/2+y,-z
1/2-x,1/2-y,-z
1/2+x,1/2-y,z
loop_
_atom_site_type_symbol
_atom_site_label
_atom_site_fract_x
_atom_site_fract_y
_atom_site_fract_z
Si Si1 0.547891 0.189537 0.917320
Si Si2 0.452054 0.690082 0.180157
Si Si3 0.947992 0.705332 0.328903
Si Si4 0.643114 0.208437 0.165383
Si Si5 0.288715 0.193243 0.120953
Si Si6 0.400134 0.304251 0.388941
Si Si7 0.620793 0.798130 0.393727
Si Si8 0.500000 0.500000 0.000000
O O1 0.532311 0.195615 0.850964
O O2 0.437994 0.231110 0.856862
O O3 0.583385 0.000000 0.959528
O O4 0.655479 0.303177 0.015849
O O5 0.451834 0.500000 0.161745
O O6 0.338272 0.716821 0.116847
O O7 0.551588 0.714192 0.296921
O O8 0.941873 0.500000 0.330813
O O9 0.846158 0.759711 0.213104
O O10 0.941489 0.793849 0.371206
O O11 0.059036 0.746434 0.390311
O O12 0.771091 0.258469 0.282305
O O13 0.640736 0.000000 0.151645
O O14 0.592332 0.344881 0.088629
O O15 0.330191 0.000000 0.149802
O O16 0.500000 0.223147 0.500000
O O17 0.389100 0.500000 0.395521
O O18 0.750000 0.750000 0.500000
O O19 0.609336 0.000000 0.378498
#
# Coordination Sequence:
#
# PCOD9207664 Si02
#       8
#     8   8   8   8   8   8   8   2
#     4  11  23  39  59  87 127 165 204 257 318 377
#     4  11  22  37  58  86 122 161 206 250 306 380
#     4   9  21  38  60  90 119 155 205 257 309 378
#     4  10  26  45  66 100 133 171 222 275 335 397
#     4  10  21  37  59  87 123 161 207 253 311 382
#     4  10  23  44  66  91 127 168 215 270 330 390
#     4  10  21  39  60  88 121 155 199 250 308 368
#     4  12  26  44  74  94 136 172 222 274 344 386
#
# _framework density 20.998389
#
# number of rings (size 3 to 8) (size 9 to 14) (size 15 to 20)
#    0.000    1.793    0.000    3.931    4.828    4.690 
#    0.000    1.379    0.000    0.000    0.000    0.000 
#    0.000    0.000    0.000    0.000    0.000    0.000 
#
# Total GULP energy -161598.296266 kJ/mol
# GULP energy per Si atom -5572.355044 kJ/mol
# Density = 2.095060 g / cm^3
# Si number density = 20.998389 Si / 1000 Ang^3
#
#
#
# Elastic Constant Matrix: (Units=GPa)
#
#
# Indices 1 2 3 4 5 6 
#
# 1 74.0532 9.5549 55.0107 0.0000 4.6863 0.0000
# 2 9.5549 68.4045 26.4495 0.0008 8.7720 0.0011
# 3 55.0107 26.4495 159.9454 -0.0001 23.1157 -0.0001
# 4 0.0000 0.0008 -0.0001 18.1009 -0.0001 -1.4464
# 5 4.6863 8.7720 23.1157 -0.0001 22.8719 0.0000
# 6 0.0000 0.0011 -0.0001 -1.4464 0.0000 19.7407
#
#
#
# Elastic Compliance Matrix: (Units=1/GPa)
#
#
# Indices 1 2 3 4 5 6 
#
# 1 0.018328 -0.000375 -0.006698 0.000000 0.003158 0.000000
# 2 -0.000375 0.015937 -0.001914 -0.000001 -0.004101 -0.000001
# 3 -0.006698 -0.001914 0.010033 0.000000 -0.008034 0.000000
# 4 0.000000 -0.000001 0.000000 0.055571 0.000000 0.004072
# 5 0.003158 -0.004101 -0.008034 0.000000 0.052767 0.000000
# 6 0.000000 -0.000001 0.000000 0.004072 0.000000 0.050955
#
#
# Mechanical properties :
#
#
# Convention : Reuss Voigt Hill
#
# Bulk Modulus (GPa) = 37.98694 53.82591 45.90643
# Shear Modulus (GPa) = 21.70696 26.23524 23.97110
#
# Velocity S-wave (km/s) = 3.21868 3.53851 3.38238
# Velocity P-wave (km/s) = 5.65180 6.51028 6.09617
#
# Compressibility (1/GPa) = 0.02632484
#
# Stress axis : x y z
#
# Youngs Moduli (GPa) = 54.56143 62.74616 99.66778
#
# Poissons Ratio (x) = 0.02354 0.66757
# Poissons Ratio (y) = 0.02047 0.19073
# Poissons Ratio (z) = 0.36545 0.12008
#
# Static dielectric constant tensor:
#      x y z
#    x 1.730230 0.000000 -0.004390 
#    y 0.000000 1.770440 0.000000 
#    z -0.004390 0.000000 1.754480 
# 
# From -- ./inp_files/180920.got.cif
#   From: 2010.05.17/outbox.cif.g08.bks.cpg/sg12_91_cif.got.tgz:180920.got - 2010.06.03 13:09:07.
