data_PCOD9207209
_publ_section_title
;
Structure prediction by ZEFSAII (Michael W. Deem and Ramdas Pophale) SiO2 
 PCOD9207209
Probable space group: C 2/M
;
_chemical_formula_sum "Si O2"
_cell_formula_units_Z 64
_cell_length_a 14.565745
_cell_length_b 12.569844
_cell_length_c 26.281871
_cell_angle_alpha 90.000000
_cell_angle_beta 139.555886
_cell_angle_gamma 90.000000
_cell_volume 3121.524973
_symmetry_space_group_name_H-M "C 2/M"
_symmetry_group_IT_number 12
_symmetry_cell_setting 'monoclinic'
loop_
_space_group_symop_operation_xyz
x,y,z
-x,y,-z
-x,-y,-z
x,-y,z
1/2+x,1/2+y,z
1/2-x,1/2+y,-z
1/2-x,1/2-y,-z
1/2+x,1/2-y,z
loop_
_atom_site_type_symbol
_atom_site_label
_atom_site_fract_x
_atom_site_fract_y
_atom_site_fract_z
Si Si1 0.789315 0.873990 0.580126
Si Si2 0.972624 0.282132 0.584767
Si Si3 0.907636 0.794355 0.887210
Si Si4 0.366694 0.384881 0.406177
Si Si5 0.514191 0.874047 0.155170
Si Si6 0.811837 0.875758 0.953977
Si Si7 0.101988 0.274770 0.296608
Si Si8 0.873388 0.617863 0.261903
O O1 0.883748 0.804301 0.580473
O O2 0.630432 0.834720 0.500164
O O3 0.841152 0.836749 0.657872
O O4 0.802986 0.000000 0.578262
O O5 0.099073 0.213472 0.614960
O O6 0.041925 0.369277 0.650201
O O7 0.931261 0.677860 0.873996
O O8 0.845414 0.805889 0.918052
O O9 0.790957 0.854328 0.804088
O O10 0.061183 0.849724 0.953824
O O11 0.500000 0.388162 0.500000
O O12 0.358530 0.500000 0.377156
O O13 0.217181 0.358383 0.368789
O O14 0.344632 0.859346 0.090038
O O15 0.586186 0.808239 0.231591
O O16 0.543788 0.000000 0.171992
O O17 0.822900 0.000000 0.943399
O O18 0.950679 0.299119 0.257492
O O19 0.890401 0.500000 0.247460
#
# Coordination Sequence:
#
# PCOD9207209 Si02
#       8
#     8   8   8   8   8   8   8   8
#     4  10  21  39  58  81 116 156 199 255 317 368
#     4  10  21  37  57  84 112 151 204 251 308 377
#     4  11  21  38  66 100 129 160 212 263 306 375
#     4  11  21  35  55  79 108 146 197 253 303 359
#     4  11  23  41  66  95 129 173 213 258 316 373
#     4  10  21  41  69  97 132 169 206 257 314 377
#     4  11  22  39  59  85 120 159 208 255 305 373
#     4  11  21  36  62  90 119 158 203 256 311 369
#
# _framework density 20.502800000000001
#
# number of rings (size 3 to 8) (size 9 to 14) (size 15 to 20)
#    0.000    1.375    2.500    4.500    0.000    0.000 
#    0.000    8.750    0.000    3.000    0.000    0.000 
#    0.000    0.000    0.000    0.000    0.000    0.000 
#
# Total GULP energy -178528.601268 kJ/mol
# GULP energy per Si atom -5579.018790 kJ/mol
# Density = 2.045613 g / cm^3
# Si number density = 20.502800 Si / 1000 Ang^3
#
#
#
# Elastic Constant Matrix: (Units=GPa)
#
#
# Indices 1 2 3 4 5 6 
#
# 1 50.4965 29.7724 24.6186 0.0000 2.1620 0.0000
# 2 29.7724 104.1855 41.8655 0.0000 -3.2995 0.0000
# 3 24.6186 41.8655 122.3135 0.0000 24.0126 0.0000
# 4 0.0000 0.0000 0.0000 19.7746 0.0000 0.8065
# 5 2.1620 -3.2995 24.0126 0.0000 26.5180 0.0000
# 6 0.0000 0.0000 0.0000 0.8065 0.0000 25.3372
#
#
#
# Elastic Compliance Matrix: (Units=1/GPa)
#
#
# Indices 1 2 3 4 5 6 
#
# 1 0.024709 -0.005880 -0.002945 0.000000 -0.000079 0.000000
# 2 -0.005880 0.013337 -0.004623 0.000000 0.006325 0.000000
# 3 -0.002945 -0.004623 0.012669 0.000000 -0.011807 0.000000
# 4 0.000000 0.000000 0.000000 0.050636 0.000000 -0.001612
# 5 -0.000079 0.006325 -0.011807 0.000000 0.049195 0.000000
# 6 0.000000 0.000000 0.000000 -0.001612 0.000000 0.039519
#
#
# Mechanical properties :
#
#
# Convention : Reuss Voigt Hill
#
# Bulk Modulus (GPa) = 41.98475 52.16761 47.07618
# Shear Modulus (GPa) = 22.23205 26.37525 24.30365
#
# Velocity S-wave (km/s) = 3.29651 3.59056 3.44667
# Velocity P-wave (km/s) = 5.91704 6.53367 6.23299
#
# Compressibility (1/GPa) = 0.02381817
#
# Stress axis : x y z
#
# Youngs Moduli (GPa) = 40.47033 74.98148 78.93385
#
# Poissons Ratio (x) = 0.44090 0.23248
# Poissons Ratio (y) = 0.23797 0.36492
# Poissons Ratio (z) = 0.11919 0.34665
#
# Static dielectric constant tensor:
#      x y z
#    x 1.780950 0.000000 -0.007870 
#    y 0.000000 1.690180 0.000000 
#    z -0.007870 0.000000 1.780930 
# 
# From -- ./inp_files/361060.got.cif
#   From: 2010.05.17/outbox.cif.g08.bks.cpg/sg12_181_cif.got.tgz:361060.got - 2010.06.03 13:09:07.
