data_PCOD9207801
_publ_section_title
;
Structure prediction by ZEFSAII (Michael W. Deem and Ramdas Pophale) SiO2 
 PCOD9207801
Probable space group: C 2/M
;
_chemical_formula_sum "Si O2"
_cell_formula_units_Z 48
_cell_length_a 22.536393
_cell_length_b 11.543295
_cell_length_c 17.365535
_cell_angle_alpha 90.000000
_cell_angle_beta 143.749468
_cell_angle_gamma 90.000000
_cell_volume 2671.301049
_symmetry_space_group_name_H-M "C 2/M"
_symmetry_group_IT_number 12
_symmetry_cell_setting 'monoclinic'
loop_
_space_group_symop_operation_xyz
x,y,z
-x,y,-z
-x,-y,-z
x,-y,z
1/2+x,1/2+y,z
1/2-x,1/2+y,-z
1/2-x,1/2-y,-z
1/2+x,1/2-y,z
loop_
_atom_site_type_symbol
_atom_site_label
_atom_site_fract_x
_atom_site_fract_y
_atom_site_fract_z
Si Si1 0.660705 0.000000 0.203247
Si Si2 0.612432 0.863637 0.592876
Si Si3 0.589989 0.230957 0.871572
Si Si4 0.050146 0.500000 0.927696
Si Si5 0.783834 0.362417 0.135872
Si Si6 0.117792 0.135346 0.334529
Si Si7 0.764698 0.788963 0.391721
O O1 0.722713 0.886510 0.291056
O O2 0.560402 0.000000 0.150714
O O3 0.627157 0.000000 0.079705
O O4 0.500000 0.831339 0.500000
O O5 0.683058 0.847782 0.741302
O O6 0.654003 0.789134 0.566530
O O7 0.611486 0.000000 0.571409
O O8 0.565807 0.114093 0.893062
O O9 0.633319 0.193906 0.833826
O O10 0.490446 0.308179 0.763853
O O11 0.678782 0.301401 0.006708
O O12 0.778124 0.500000 0.113792
O O13 0.185241 0.151565 0.481546
O O14 0.174986 0.207065 0.328071
O O15 0.109632 0.000000 0.306958
#
# Coordination Sequence:
#
# PCOD9207801 Si02
#       7
#     4   8   8   4   8   8   8
#     4  11  22  40  61  88 123 156 196 245 294 355
#     4  10  21  39  60  86 115 155 195 244 290 350
#     4  11  21  38  60  89 118 158 198 242 294 353
#     4  11  22  38  62  88 120 163 198 241 297 350
#     4  10  21  37  60  85 119 154 200 243 291 346
#     4  11  23  38  61  88 119 155 197 249 296 352
#     4  11  22  40  61  87 119 156 198 243 299 353
#
# _framework density 17.968772000000001
#
# number of rings (size 3 to 8) (size 9 to 14) (size 15 to 20)
#    0.000    1.333    3.333    3.000    0.000    0.000 
#    1.500    0.417    0.000    4.000    0.000    0.000 
#    0.000    0.000    0.000    0.000    0.000    0.000 
#
# Total GULP energy -134121.576033 kJ/mol
# GULP energy per Si atom -5588.399001 kJ/mol
# Density = 1.792787 g / cm^3
# Si number density = 17.968772 Si / 1000 Ang^3
#
#
#
# Elastic Constant Matrix: (Units=GPa)
#
#
# Indices 1 2 3 4 5 6 
#
# 1 46.1711 19.8184 -8.5302 0.0000 15.5396 0.0000
# 2 19.8184 101.1355 15.8569 0.0000 12.4721 0.0000
# 3 -8.5302 15.8569 27.2958 0.0000 13.4346 0.0000
# 4 0.0000 0.0000 0.0000 30.9902 0.0000 4.8628
# 5 15.5396 12.4721 13.4346 0.0000 27.2471 0.0000
# 6 0.0000 0.0000 0.0000 4.8628 0.0000 23.6135
#
#
#
# Elastic Compliance Matrix: (Units=1/GPa)
#
#
# Indices 1 2 3 4 5 6 
#
# 1 0.049786 -0.011127 0.044223 0.000000 -0.045106 0.000000
# 2 -0.011127 0.013492 -0.015052 0.000000 0.007592 0.000000
# 3 0.044223 -0.015052 0.090084 0.000000 -0.062749 0.000000
# 4 0.000000 0.000000 0.000000 0.033346 0.000000 -0.006867
# 5 -0.045106 0.007592 -0.062749 0.000000 0.089890 0.000000
# 6 0.000000 0.000000 0.000000 -0.006867 0.000000 0.043763
#
#
# Mechanical properties :
#
#
# Convention : Reuss Voigt Hill
#
# Bulk Modulus (GPa) = 5.27844 25.43252 15.35548
# Shear Modulus (GPa) = 14.39169 26.20065 20.29617
#
# Velocity S-wave (km/s) = 2.83314 3.82268 3.36449
# Velocity P-wave (km/s) = 3.69407 5.80244 4.86387
#
# Compressibility (1/GPa) = 0.18944994
#
# Stress axis : x y z
#
# Youngs Moduli (GPa) = 20.08593 74.11831 11.10076
#
# Poissons Ratio (x) = 0.82474 -0.49091
# Poissons Ratio (y) = 0.22350 0.16709
# Poissons Ratio (z) = -0.88826 1.11562
#
# Static dielectric constant tensor:
#      x y z
#    x 1.585350 0.000000 0.000490 
#    y 0.000000 1.583390 0.000000 
#    z 0.000490 0.000000 1.593560 
# 
# From -- ./inp_files/165478.got.cif
#   From: 2010.05.17/outbox.cif.g08.bks.cpg/sg12_83_cif.got.tgz:165478.got - 2010.06.03 13:09:07.
