data_PCOD9207182
_publ_section_title
;
Structure prediction by ZEFSAII (Michael W. Deem and Ramdas Pophale) SiO2 
 PCOD9207182
Probable space group: C 2/M
;
_chemical_formula_sum "Si O2"
_cell_formula_units_Z 48
_cell_length_a 9.906815
_cell_length_b 7.754504
_cell_length_c 25.242992
_cell_angle_alpha 90.000000
_cell_angle_beta 89.299873
_cell_angle_gamma 90.000000
_cell_volume 1939.083373
_symmetry_space_group_name_H-M "C 2/M"
_symmetry_group_IT_number 12
_symmetry_cell_setting 'monoclinic'
loop_
_space_group_symop_operation_xyz
x,y,z
-x,y,-z
-x,-y,-z
x,-y,z
1/2+x,1/2+y,z
1/2-x,1/2+y,-z
1/2-x,1/2-y,-z
1/2+x,1/2-y,z
loop_
_atom_site_type_symbol
_atom_site_label
_atom_site_fract_x
_atom_site_fract_y
_atom_site_fract_z
Si Si1 0.580027 0.701084 0.726708
Si Si2 0.690143 0.706842 0.557383
Si Si3 0.941350 0.699194 0.620232
Si Si4 0.669132 0.209919 0.888928
Si Si5 0.582089 0.297476 0.048813
Si Si6 0.824209 0.799620 0.784772
O O1 0.601799 0.500000 0.737881
O O2 0.514742 0.714318 0.669312
O O3 0.723117 0.788764 0.735381
O O4 0.467634 0.777096 0.767574
O O5 0.678015 0.500000 0.561602
O O6 0.750000 0.750000 0.500000
O O7 0.545724 0.786553 0.570997
O O8 0.798673 0.768823 0.600689
O O9 0.921390 0.500000 0.635010
O O10 0.520462 0.277845 0.901384
O O11 0.771789 0.269905 0.935011
O O12 0.739800 0.271306 0.834612
O O13 0.663154 0.000000 0.888683
O O14 0.600891 0.500000 0.038011
O O15 0.500000 0.217801 0.000000
O O16 0.849038 0.000000 0.796718
#
# Coordination Sequence:
#
# PCOD9207182 Si02
#       6
#     8   8   8   8   8   8
#     4  11  23  39  61  87 115 151 193 236 287 344
#     4  11  24  41  63  91 121 156 197 239 287 342
#     4  11  24  41  61  88 121 155 195 241 287 340
#     4  10  21  37  57  83 114 149 191 235 283 342
#     4  10  21  37  57  83 115 149 188 236 286 338
#     4  10  22  39  58  83 116 151 189 237 288 340
#
# _framework density 24.753962000000001
#
# number of rings (size 3 to 8) (size 9 to 14) (size 15 to 20)
#    0.000    1.500    0.000    4.500    0.000   11.667 
#    0.000    0.000    0.000    0.000    0.000    0.000 
#    0.000    0.000    0.000    0.000    0.000    0.000 
#
# Total GULP energy -134340.126571 kJ/mol
# GULP energy per Si atom -5597.505274 kJ/mol
# Density = 2.469762 g / cm^3
# Si number density = 24.753962 Si / 1000 Ang^3
#
#
#
# Elastic Constant Matrix: (Units=GPa)
#
#
# Indices 1 2 3 4 5 6 
#
# 1 107.9674 -9.0878 -12.1204 0.0000 2.8629 0.0000
# 2 -9.0878 53.2708 -6.2755 0.0000 7.1718 0.0000
# 3 -12.1204 -6.2755 68.4906 0.0000 2.3504 0.0000
# 4 0.0000 0.0000 0.0000 23.4474 0.0000 -5.8028
# 5 2.8629 7.1718 2.3504 0.0000 43.8359 0.0000
# 6 0.0000 0.0000 0.0000 -5.8028 0.0000 16.8069
#
#
#
# Elastic Compliance Matrix: (Units=1/GPa)
#
#
# Indices 1 2 3 4 5 6 
#
# 1 0.009678 0.002022 0.001935 0.000000 -0.001067 0.000000
# 2 0.002022 0.019860 0.002298 0.000000 -0.003504 0.000000
# 3 0.001935 0.002298 0.015199 0.000000 -0.001317 0.000000
# 4 0.000000 0.000000 0.000000 0.046633 0.000000 0.016101
# 5 -0.001067 -0.003504 -0.001317 0.000000 0.023526 0.000000
# 6 0.000000 0.000000 0.000000 0.016101 0.000000 0.065058
#
#
# Mechanical properties :
#
#
# Convention : Reuss Voigt Hill
#
# Bulk Modulus (GPa) = 17.46860 19.41793 18.44326
# Shear Modulus (GPa) = 26.80601 33.96555 30.38578
#
# Velocity S-wave (km/s) = 3.29431 3.70824 3.50739
# Velocity P-wave (km/s) = 4.64136 5.11822 4.88561
#
# Compressibility (1/GPa) = 0.05724558
#
# Stress axis : x y z
#
# Youngs Moduli (GPa) = 103.32982 50.35364 65.79542
#
# Poissons Ratio (x) = -0.10184 -0.12728
# Poissons Ratio (y) = -0.20898 -0.15119
# Poissons Ratio (z) = -0.19989 -0.11570
#
# Static dielectric constant tensor:
#      x y z
#    x 1.913670 0.000000 -0.002090 
#    y 0.000000 1.916060 0.000000 
#    z -0.002090 0.000000 2.047520 
# 
# From -- ./inp_files/371858.got.cif
#   From: 2010.05.17/outbox.cif.g08.bks.cpg/sg12_186_cif.got.tgz:371858.got - 2010.06.03 13:09:07.
