data_PCOD9207566
_publ_section_title
;
Structure prediction by ZEFSAII (Michael W. Deem and Ramdas Pophale) SiO2 
 PCOD9207566
Probable space group: C 2/M
;
_chemical_formula_sum "Si O2"
_cell_formula_units_Z 48
_cell_length_a 9.452999
_cell_length_b 19.782712
_cell_length_c 17.940752
_cell_angle_alpha 90.000000
_cell_angle_beta 38.845839
_cell_angle_gamma 90.000000
_cell_volume 2104.364210
_symmetry_space_group_name_H-M "C 2/M"
_symmetry_group_IT_number 12
_symmetry_cell_setting 'monoclinic'
loop_
_space_group_symop_operation_xyz
x,y,z
-x,y,-z
-x,-y,-z
x,-y,z
1/2+x,1/2+y,z
1/2-x,1/2+y,-z
1/2-x,1/2-y,-z
1/2+x,1/2-y,z
loop_
_atom_site_type_symbol
_atom_site_label
_atom_site_fract_x
_atom_site_fract_y
_atom_site_fract_z
Si Si1 0.866691 0.423852 0.400806
Si Si2 0.082500 0.427122 0.799219
Si Si3 0.260062 0.719821 0.913654
Si Si4 0.056724 0.286392 0.667433
Si Si5 0.056129 0.837217 0.382989
Si Si6 0.258354 0.925663 0.055642
O O1 0.911858 0.500000 0.411628
O O2 0.903774 0.429160 0.295928
O O3 0.002879 0.353444 0.356977
O O4 0.613235 0.399391 0.527894
O O5 0.166904 0.500000 0.791192
O O6 0.252745 0.368249 0.749759
O O7 0.840471 0.418273 0.935747
O O8 0.385476 0.768377 0.804031
O O9 0.250000 0.750000 0.000000
O O10 0.363444 0.643738 0.873390
O O11 0.000000 0.712773 0.000000
O O12 0.291913 0.304218 0.612978
O O13 0.065160 0.221176 0.612352
O O14 0.150224 0.000000 0.109275
O O15 0.500000 0.927920 0.000000
#
# Coordination Sequence:
#
# PCOD9207566 Si02
#       6
#     8   8   8   8   8   8
#     4  10  21  37  59  85 109 141 191 241 279 325
#     4   9  16  29  51  79 107 137 182 234 273 313
#     4  11  21  36  57  83 115 152 191 232 280 332
#     4  11  22  36  58  85 115 147 185 232 281 336
#     4  11  21  36  57  85 115 146 182 230 287 337
#     4   9  17  30  50  77 108 142 183 230 276 323
#
# _framework density 22.809740000000001
#
# number of rings (size 3 to 8) (size 9 to 14) (size 15 to 20)
#    0.000    1.833    0.000    8.000    0.000    4.000 
#    0.000    0.833    0.000    8.000    0.000    0.000 
#    0.000    0.000    0.000    0.000    0.000    0.000 
#
# Total GULP energy -133612.122925 kJ/mol
# GULP energy per Si atom -5567.171789 kJ/mol
# Density = 2.275782 g / cm^3
# Si number density = 22.809740 Si / 1000 Ang^3
#
#
#
# Elastic Constant Matrix: (Units=GPa)
#
#
# Indices 1 2 3 4 5 6 
#
# 1 24.8495 9.4190 -1.8020 -0.0006 9.8396 0.0008
# 2 9.4190 177.2948 6.7304 -0.0002 -7.6669 0.0006
# 3 -1.8020 6.7304 42.0250 -0.0004 -7.2910 0.0010
# 4 -0.0006 -0.0002 -0.0004 40.3196 0.0004 0.3744
# 5 9.8396 -7.6669 -7.2910 0.0004 22.9192 -0.0006
# 6 0.0008 0.0006 0.0010 0.3744 -0.0006 20.0031
#
#
#
# Elastic Compliance Matrix: (Units=1/GPa)
#
#
# Indices 1 2 3 4 5 6 
#
# 1 0.050827 -0.003665 -0.001304 0.000001 -0.023462 -0.000003
# 2 -0.003665 0.006003 -0.000526 0.000000 0.003414 0.000000
# 3 -0.001304 -0.000526 0.025286 0.000000 0.008428 -0.000001
# 4 0.000001 0.000000 0.000000 0.024806 -0.000001 -0.000464
# 5 -0.023462 0.003414 0.008428 -0.000001 0.057527 0.000002
# 6 -0.000003 0.000000 -0.000001 -0.000464 0.000002 0.050001
#
#
# Mechanical properties :
#
#
# Convention : Reuss Voigt Hill
#
# Bulk Modulus (GPa) = 14.05987 30.31825 22.18906
# Shear Modulus (GPa) = 20.06831 31.96984 26.01908
#
# Velocity S-wave (km/s) = 2.96938 3.74784 3.38109
# Velocity P-wave (km/s) = 4.23482 5.66119 4.99914
#
# Compressibility (1/GPa) = 0.07112441
#
# Stress axis : x y z
#
# Youngs Moduli (GPa) = 19.67458 166.59276 39.54783
#
# Poissons Ratio (x) = 0.61061 0.05157
# Poissons Ratio (y) = 0.07211 0.02081
# Poissons Ratio (z) = 0.02566 0.08766
#
# Static dielectric constant tensor:
#      x y z
#    x 1.866690 0.000000 0.070210 
#    y 0.000000 1.973970 0.000000 
#    z 0.070210 0.000000 1.980620 
# 
# From -- ./inp_files/306457.got.cif
#   From: 2010.05.17/outbox.cif.g08.bks.cpg/sg12_154_cif.got.tgz:306457.got - 2010.06.03 13:09:07.
