data_PCOD9207789
_publ_section_title
;
Structure prediction by ZEFSAII (Michael W. Deem and Ramdas Pophale) SiO2 
 PCOD9207789
Probable space group: C 2/M
;
_chemical_formula_sum "Si O2"
_cell_formula_units_Z 40
_cell_length_a 12.217052
_cell_length_b 21.033405
_cell_length_c 9.837139
_cell_angle_alpha 90.000000
_cell_angle_beta 131.971424
_cell_angle_gamma 90.000000
_cell_volume 1879.373958
_symmetry_space_group_name_H-M "C 2/M"
_symmetry_group_IT_number 12
_symmetry_cell_setting 'monoclinic'
loop_
_space_group_symop_operation_xyz
x,y,z
-x,y,-z
-x,-y,-z
x,-y,z
1/2+x,1/2+y,z
1/2-x,1/2+y,-z
1/2-x,1/2-y,-z
1/2+x,1/2-y,z
loop_
_atom_site_type_symbol
_atom_site_label
_atom_site_fract_x
_atom_site_fract_y
_atom_site_fract_z
Si Si1 0.879460 0.674401 0.728832
Si Si2 0.543687 0.425338 0.879486
Si Si3 0.642900 0.426054 0.532759
Si Si4 0.159852 0.718824 0.611661
Si Si5 0.706733 0.823742 0.938564
O O1 0.784130 0.613960 0.687901
O O2 0.850417 0.687430 0.543969
O O3 0.799552 0.734664 0.730697
O O4 0.053192 0.666511 0.889124
O O5 0.590541 0.500000 0.906908
O O6 0.404813 0.417594 0.663996
O O7 0.500000 0.413300 0.000000
O O8 0.666455 0.375180 0.931552
O O9 0.500000 0.406779 0.500000
O O10 0.668466 0.500000 0.579802
O O11 0.174441 0.671747 0.750011
O O12 0.000000 0.752617 0.500000
O O13 0.750000 0.750000 0.000000
#
# Coordination Sequence:
#
# PCOD9207789 Si02
#       5
#     8   8   8   8   8
#     4  10  21  37  60  83 115 163 195 247 301 362
#     4  10  23  43  65  88 123 165 204 255 311 363
#     4  10  22  40  64  89 117 161 208 247 298 372
#     4   9  20  37  56  84 118 154 199 243 300 360
#     4  11  25  36  57  94 123 155 200 260 306 364
#
# _framework density 21.283684000000001
#
# number of rings (size 3 to 8) (size 9 to 14) (size 15 to 20)
#    0.000    2.000    0.000    1.800   14.000    0.800 
#    0.000    0.000    0.000   10.800    0.000    0.000 
#    0.000    0.000    0.000    0.000    0.000    0.000 
#
# Total GULP energy -111742.367202 kJ/mol
# GULP energy per Si atom -5587.118360 kJ/mol
# Density = 2.123524 g / cm^3
# Si number density = 21.283684 Si / 1000 Ang^3
#
#
#
# Elastic Constant Matrix: (Units=GPa)
#
#
# Indices 1 2 3 4 5 6 
#
# 1 106.1569 36.3777 25.1017 0.0000 21.5866 0.0000
# 2 36.3777 100.9953 35.6189 0.0000 43.8029 0.0000
# 3 25.1017 35.6189 56.8218 0.0000 21.6585 0.0000
# 4 0.0000 0.0000 0.0000 -20.8218 0.0000 8.7563
# 5 21.5866 43.8029 21.6585 0.0000 57.8527 0.0000
# 6 0.0000 0.0000 0.0000 8.7563 0.0000 25.6643
#
#
#
# Elastic Compliance Matrix: (Units=1/GPa)
#
#
# Indices 1 2 3 4 5 6 
#
# 1 0.011209 -0.002478 -0.002939 0.000000 -0.001206 0.000000
# 2 -0.002478 0.017146 -0.005899 0.000000 -0.009849 0.000000
# 3 -0.002939 -0.005899 0.023883 0.000000 -0.003378 0.000000
# 4 0.000000 0.000000 0.000000 -0.042000 0.000000 0.014330
# 5 -0.001206 -0.009849 -0.003378 0.000000 0.026457 0.000000
# 6 0.000000 0.000000 0.000000 0.014330 0.000000 0.034075
#
#
# Mechanical properties :
#
#
# Convention : Reuss Voigt Hill
#
# Bulk Modulus (GPa) = 33.77699 50.90786 42.34243
# Shear Modulus (GPa) = 48.41621 23.66408 36.04015
#
# Velocity S-wave (km/s) = 4.77467 3.33805 4.11946
# Velocity P-wave (km/s) = 6.80448 6.23116 6.52412
#
# Compressibility (1/GPa) = 0.02960595
#
# Stress axis : x y z
#
# Youngs Moduli (GPa) = 89.21145 58.32195 41.87138
#
# Poissons Ratio (x) = 0.14452 0.12305
# Poissons Ratio (y) = 0.22106 0.24702
# Poissons Ratio (z) = 0.26217 0.34406
#
# Static dielectric constant tensor:
#      x y z
#    x 1.803670 0.000000 -0.034880 
#    y 0.000000 1.742770 0.000000 
#    z -0.034880 0.000000 1.795930 
# 
# From -- ./inp_files/48485.got.cif
#   From: 2010.05.17/outbox.cif.g08.bks.cpg/sg12_25_cif.got.tgz:48485.got - 2010.06.03 13:09:07.
