data_PCOD9207727
_publ_section_title
;
Structure prediction by ZEFSAII (Michael W. Deem and Ramdas Pophale) SiO2 
 PCOD9207727
Probable space group: C 2/M
;
_chemical_formula_sum "Si O2"
_cell_formula_units_Z 56
_cell_length_a 29.657262
_cell_length_b 8.829882
_cell_length_c 12.809031
_cell_angle_alpha 90.000000
_cell_angle_beta 58.342530
_cell_angle_gamma 90.000000
_cell_volume 2855.185426
_symmetry_space_group_name_H-M "C 2/M"
_symmetry_group_IT_number 12
_symmetry_cell_setting 'monoclinic'
loop_
_space_group_symop_operation_xyz
x,y,z
-x,y,-z
-x,-y,-z
x,-y,z
1/2+x,1/2+y,z
1/2-x,1/2+y,-z
1/2-x,1/2-y,-z
1/2+x,1/2-y,z
loop_
_atom_site_type_symbol
_atom_site_label
_atom_site_fract_x
_atom_site_fract_y
_atom_site_fract_z
Si Si1 0.191868 0.819858 0.583258
Si Si2 0.544473 0.677319 0.033368
Si Si3 0.114606 0.680184 0.505223
Si Si4 0.104250 0.318353 0.281558
Si Si5 0.697722 0.817413 0.012511
Si Si6 0.345473 0.179637 0.155216
Si Si7 0.500218 0.320945 0.319659
O O1 0.250000 0.750000 0.500000
O O2 0.153633 0.761507 0.537886
O O3 0.168941 0.765987 0.722071
O O4 0.194799 0.000000 0.576295
O O5 0.560926 0.500000 0.007840
O O6 0.519774 0.703663 0.177081
O O7 0.500000 0.701959 0.000000
O O8 0.594672 0.781423 0.950398
O O9 0.118339 0.500000 0.516342
O O10 0.126851 0.714072 0.369053
O O11 0.054479 0.734210 0.596500
O O12 0.096420 0.500000 0.283032
O O13 0.146052 0.270323 0.142186
O O14 0.047949 0.238774 0.333354
O O15 0.699938 0.000000 0.014540
O O16 0.750000 0.750000 0.000000
O O17 0.690144 0.773891 0.900939
O O18 0.339535 0.000000 0.179010
O O19 0.492036 0.500000 0.345653
#
# Coordination Sequence:
#
# PCOD9207727 Si02
#       7
#     8   8   8   8   8   8   8
#     4  12  27  47  69  94 128 166 212 265 318 379
#     4  10  21  37  59  89 126 168 211 259 313 369
#     4  11  24  42  66  94 128 172 218 263 319 379
#     4  10  22  42  64  92 130 171 212 262 319 380
#     4  10  23  41  64  95 128 165 212 262 318 379
#     4  11  23  42  67  96 127 164 211 259 314 379
#     4  11  22  37  61  95 132 171 215 263 318 378
#
# _framework density 19.613439
#
# number of rings (size 3 to 8) (size 9 to 14) (size 15 to 20)
#    0.000    1.286    1.429    3.857    2.000    6.571 
#    0.000    0.000    0.000    0.000    0.000    0.000 
#    0.000    0.000    0.000    0.000    0.000    0.000 
#
# Total GULP energy -156631.729501 kJ/mol
# GULP energy per Si atom -5593.990339 kJ/mol
# Density = 1.956880 g / cm^3
# Si number density = 19.613439 Si / 1000 Ang^3
#
#
#
# Elastic Constant Matrix: (Units=GPa)
#
#
# Indices 1 2 3 4 5 6 
#
# 1 116.3280 44.2629 33.2989 0.0000 23.8870 0.0000
# 2 44.2629 72.8769 40.7798 0.0000 20.1276 0.0000
# 3 33.2989 40.7798 73.9183 0.0000 24.7000 0.0000
# 4 0.0000 0.0000 0.0000 27.7452 0.0000 -4.1494
# 5 23.8870 20.1276 24.7000 0.0000 34.8654 0.0000
# 6 0.0000 0.0000 0.0000 -4.1494 0.0000 40.2163
#
#
#
# Elastic Compliance Matrix: (Units=1/GPa)
#
#
# Indices 1 2 3 4 5 6 
#
# 1 0.011823 -0.005519 -0.000838 0.000000 -0.004321 0.000000
# 2 -0.005519 0.023072 -0.009243 0.000000 -0.002990 0.000000
# 3 -0.000838 -0.009243 0.022312 0.000000 -0.009897 0.000000
# 4 0.000000 0.000000 0.000000 0.036607 0.000000 0.003777
# 5 -0.004321 -0.002990 -0.009897 0.000000 0.040379 0.000000
# 6 0.000000 0.000000 0.000000 0.003777 0.000000 0.025255
#
#
# Mechanical properties :
#
#
# Convention : Reuss Voigt Hill
#
# Bulk Modulus (GPa) = 38.44992 55.53404 46.99198
# Shear Modulus (GPa) = 25.08553 30.21748 27.65151
#
# Velocity S-wave (km/s) = 3.58019 3.92937 3.75884
# Velocity P-wave (km/s) = 6.06108 6.99731 6.54596
#
# Compressibility (1/GPa) = 0.02600786
#
# Stress axis : x y z
#
# Youngs Moduli (GPa) = 84.57789 43.34308 44.81853
#
# Poissons Ratio (x) = 0.23921 0.03754
# Poissons Ratio (y) = 0.46679 0.41426
# Poissons Ratio (z) = 0.07084 0.40062
#
# Static dielectric constant tensor:
#      x y z
#    x 1.647550 0.000000 0.017130 
#    y 0.000000 1.660890 0.000000 
#    z 0.017130 0.000000 1.684330 
# 
# From -- ./inp_files/180691.got.cif
#   From: 2010.05.17/outbox.cif.g08.bks.cpg/sg12_91_cif.got.tgz:180691.got - 2010.06.03 13:09:07.
