data_PCOD9207661
_publ_section_title
;
Structure prediction by ZEFSAII (Michael W. Deem and Ramdas Pophale) SiO2 
 PCOD9207661
Probable space group: C 2/M
;
_chemical_formula_sum "Si O2"
_cell_formula_units_Z 48
_cell_length_a 9.878280
_cell_length_b 10.176100
_cell_length_c 28.392427
_cell_angle_alpha 90.000000
_cell_angle_beta 114.682688
_cell_angle_gamma 90.000000
_cell_volume 2593.309724
_symmetry_space_group_name_H-M "C 2/M"
_symmetry_group_IT_number 12
_symmetry_cell_setting 'monoclinic'
loop_
_space_group_symop_operation_xyz
x,y,z
-x,y,-z
-x,-y,-z
x,-y,z
1/2+x,1/2+y,z
1/2-x,1/2+y,-z
1/2-x,1/2-y,-z
1/2+x,1/2-y,z
loop_
_atom_site_type_symbol
_atom_site_label
_atom_site_fract_x
_atom_site_fract_y
_atom_site_fract_z
Si Si1 0.651508 0.500000 0.551822
Si Si2 0.975816 0.500000 0.552527
Si Si3 0.994616 0.652951 0.147595
Si Si4 0.385197 0.151476 0.025822
Si Si5 0.559910 0.344216 0.316350
Si Si6 0.843325 0.844343 0.198127
Si Si7 0.622369 0.259152 0.619376
O O1 0.500000 0.500000 0.500000
O O2 0.801340 0.500000 0.542022
O O3 0.647628 0.371828 0.584382
O O4 0.000000 0.500000 0.500000
O O5 0.053943 0.629152 0.585550
O O6 0.961039 0.500000 0.154393
O O7 0.169011 0.676316 0.182840
O O8 0.963767 0.670660 0.087649
O O9 0.896366 0.752868 0.163322
O O10 0.333036 0.000000 0.016404
O O11 0.500000 0.170775 0.000000
O O12 0.250000 0.250000 0.000000
O O13 0.585335 0.500000 0.318754
O O14 0.445025 0.311569 0.258007
O O15 0.487970 0.307405 0.355904
O O16 0.717771 0.273348 0.334751
O O17 0.862323 0.000000 0.190013
#
# Coordination Sequence:
#
# PCOD9207661 Si02
#       7
#     4   4   8   8   8   8   8
#     4  12  28  44  68  96 122 166 206 244 306 362
#     4  12  28  44  66  96 128 162 202 250 302 363
#     4  10  21  39  59  89 125 158 206 257 303 361
#     4  10  21  37  59  87 121 164 207 254 305 361
#     4  11  23  41  66  93 123 158 204 253 303 365
#     4  10  22  40  62  89 120 162 202 251 310 363
#     4  12  24  44  66  93 126 159 203 252 302 362
#
# _framework density 18.509167000000001
#
# number of rings (size 3 to 8) (size 9 to 14) (size 15 to 20)
#    0.000    1.167    3.333    2.500    2.333    4.333 
#    3.000    0.000    0.000    0.000    0.000    0.000 
#    0.000    0.000    0.000    0.000    0.000    0.000 
#
# Total GULP energy -134160.105583 kJ/mol
# GULP energy per Si atom -5590.004399 kJ/mol
# Density = 1.846704 g / cm^3
# Si number density = 18.509167 Si / 1000 Ang^3
#
#
#
# Elastic Constant Matrix: (Units=GPa)
#
#
# Indices 1 2 3 4 5 6 
#
# 1 62.3380 22.9023 -4.3539 0.0000 7.4587 0.0000
# 2 22.9023 71.3548 18.9659 0.0000 2.7761 0.0000
# 3 -4.3539 18.9659 46.6590 0.0000 5.7788 0.0000
# 4 0.0000 0.0000 0.0000 -6.1388 0.0000 24.9181
# 5 7.4587 2.7761 5.7788 0.0000 41.9265 0.0000
# 6 0.0000 0.0000 0.0000 24.9181 0.0000 9.5251
#
#
#
# Elastic Compliance Matrix: (Units=1/GPa)
#
#
# Indices 1 2 3 4 5 6 
#
# 1 0.019655 -0.007594 0.005383 0.000000 -0.003736 0.000000
# 2 -0.007594 0.018647 -0.008447 0.000000 0.001281 0.000000
# 3 0.005383 -0.008447 0.025859 0.000000 -0.003963 0.000000
# 4 0.000000 0.000000 0.000000 -0.014020 0.000000 0.036677
# 5 -0.003736 0.001281 -0.003963 0.000000 0.024977 0.000000
# 6 0.000000 0.000000 0.000000 0.036677 0.000000 0.009036
#
#
# Mechanical properties :
#
#
# Convention : Reuss Voigt Hill
#
# Bulk Modulus (GPa) = 23.33957 28.37558 25.85757
# Shear Modulus (GPa) = 41.75367 18.58505 30.16936
#
# Velocity S-wave (km/s) = 4.75472 3.17219 4.04167
# Velocity P-wave (km/s) = 6.54066 5.36478 5.98169
#
# Compressibility (1/GPa) = 0.04284570
#
# Stress axis : x y z
#
# Youngs Moduli (GPa) = 50.87890 53.62737 38.67168
#
# Poissons Ratio (x) = 0.40724 -0.20819
# Poissons Ratio (y) = 0.38637 0.32666
# Poissons Ratio (z) = -0.27391 0.45298
#
# Static dielectric constant tensor:
#      x y z
#    x 1.594890 0.000000 0.009100 
#    y 0.000000 1.621180 0.000000 
#    z 0.009100 0.000000 1.623930 
# 
# From -- ./inp_files/332292.got.cif
#   From: 2010.05.17/outbox.cif.g08.bks.cpg/sg12_167_cif.got.tgz:332292.got - 2010.06.03 13:09:07.
