data_PCOD9207468
_publ_section_title
;
Structure prediction by ZEFSAII (Michael W. Deem and Ramdas Pophale) SiO2 
 PCOD9207468
Probable space group: C 2/M
;
_chemical_formula_sum "Si O2"
_cell_formula_units_Z 50
_cell_length_a 10.321449
_cell_length_b 7.633740
_cell_length_c 30.066565
_cell_angle_alpha 90.000000
_cell_angle_beta 113.515618
_cell_angle_gamma 90.000000
_cell_volume 2172.241679
_symmetry_space_group_name_H-M "C 2/M"
_symmetry_group_IT_number 12
_symmetry_cell_setting 'monoclinic'
loop_
_space_group_symop_operation_xyz
x,y,z
-x,y,-z
-x,-y,-z
x,-y,z
1/2+x,1/2+y,z
1/2-x,1/2+y,-z
1/2-x,1/2-y,-z
1/2+x,1/2-y,z
loop_
_atom_site_type_symbol
_atom_site_label
_atom_site_fract_x
_atom_site_fract_y
_atom_site_fract_z
Si Si1 0.348423 0.795945 0.135782
Si Si2 0.877581 0.710716 0.647418
Si Si3 0.308478 0.204103 0.296886
Si Si4 0.339252 0.796426 0.810659
Si Si5 0.156966 0.789567 0.030173
Si Si6 0.604574 0.208787 0.453958
Si Si7 0.000000 0.000000 0.500000
O O1 0.505834 0.719283 0.158472
O O2 0.279183 0.787837 0.174718
O O3 0.239441 0.720202 0.084804
O O4 0.365692 0.000000 0.126306
O O5 0.875589 0.500000 0.650897
O O6 0.032397 0.775745 0.684068
O O7 0.754609 0.778702 0.662338
O O8 0.868405 0.750037 0.593942
O O9 0.202783 0.284555 0.246590
O O10 0.316441 0.000000 0.286927
O O11 0.339513 0.000000 0.822919
O O12 0.143761 0.000000 0.033765
O O13 0.250000 0.750000 0.000000
O O14 0.000000 0.719382 0.000000
O O15 0.750000 0.250000 0.500000
O O16 0.495824 0.344009 0.460945
O O17 0.571850 0.000000 0.453567
#
# Coordination Sequence:
#
# PCOD9207468 Si02
#       7
#     8   8   8   8   8   8   2
#     4  10  22  39  59  85 121 158 199 250 304 361
#     4  10  25  44  65  94 128 165 208 261 315 378
#     4  11  24  42  65  92 124 162 206 257 315 373
#     4  11  23  39  60  88 119 157 203 251 304 366
#     4  10  21  37  58  86 119 156 200 249 301 361
#     4  11  25  45  69 100 134 175 221 273 327 396
#     4  12  26  44  72  96 136 180 218 272 330 386
#
# _framework density 23.017696000000001
#
# number of rings (size 3 to 8) (size 9 to 14) (size 15 to 20)
#    0.000    1.440    0.800    3.120    3.360    7.360 
#    0.000    0.000    0.000    0.000    0.000    0.000 
#    0.000    0.000    0.000    0.000    0.000    0.000 
#
# Total GULP energy -139542.155742 kJ/mol
# GULP energy per Si atom -5581.686230 kJ/mol
# Density = 2.296531 g / cm^3
# Si number density = 23.017696 Si / 1000 Ang^3
#
#
#
# Elastic Constant Matrix: (Units=GPa)
#
#
# Indices 1 2 3 4 5 6 
#
# 1 76.3144 -10.0094 -6.5175 0.0000 4.9014 0.0000
# 2 -10.0094 76.2884 0.1393 0.0000 1.2815 0.0000
# 3 -6.5175 0.1393 83.7771 0.0000 1.6404 0.0000
# 4 0.0000 0.0000 0.0000 18.7574 0.0000 -13.4813
# 5 4.9014 1.2815 1.6404 0.0000 43.3355 0.0000
# 6 0.0000 0.0000 0.0000 -13.4813 0.0000 21.8854
#
#
#
# Elastic Compliance Matrix: (Units=1/GPa)
#
#
# Indices 1 2 3 4 5 6 
#
# 1 0.013537 0.001801 0.001082 0.000000 -0.001625 0.000000
# 2 0.001801 0.013354 0.000130 0.000000 -0.000604 0.000000
# 3 0.001082 0.000130 0.012032 0.000000 -0.000582 0.000000
# 4 0.000000 0.000000 0.000000 0.095667 0.000000 0.058930
# 5 -0.001625 -0.000604 -0.000582 0.000000 0.023299 0.000000
# 6 0.000000 0.000000 0.000000 0.058930 0.000000 0.081993
#
#
# Mechanical properties :
#
#
# Convention : Reuss Voigt Hill
#
# Bulk Modulus (GPa) = 22.24738 22.62275 22.43507
# Shear Modulus (GPa) = 20.09329 33.64682 26.87006
#
# Velocity S-wave (km/s) = 2.95778 3.82747 3.42038
# Velocity P-wave (km/s) = 4.62071 5.42056 5.03654
#
# Compressibility (1/GPa) = 0.04494910
#
# Stress axis : x y z
#
# Youngs Moduli (GPa) = 73.87300 74.88167 83.11321
#
# Poissons Ratio (x) = -0.13489 -0.08992
# Poissons Ratio (y) = -0.13308 -0.01078
# Poissons Ratio (z) = -0.07992 -0.00972
#
# Static dielectric constant tensor:
#      x y z
#    x 1.888950 0.000000 0.057330 
#    y 0.000000 1.875380 0.000000 
#    z 0.057330 0.000000 1.866780 
# 
# From -- ./inp_files/357560.got.cif
#   From: 2010.05.17/outbox.cif.g08.bks.cpg/sg12_179_cif.got.tgz:357560.got - 2010.06.03 13:09:07.
