data_PCOD9207747
_publ_section_title
;
Structure prediction by ZEFSAII (Michael W. Deem and Ramdas Pophale) SiO2 
 PCOD9207747
Probable space group: C 2/M
;
_chemical_formula_sum "Si O2"
_cell_formula_units_Z 56
_cell_length_a 9.195775
_cell_length_b 26.254017
_cell_length_c 9.729689
_cell_angle_alpha 90.000000
_cell_angle_beta 96.134948
_cell_angle_gamma 90.000000
_cell_volume 2335.547360
_symmetry_space_group_name_H-M "C 2/M"
_symmetry_group_IT_number 12
_symmetry_cell_setting 'monoclinic'
loop_
_space_group_symop_operation_xyz
x,y,z
-x,y,-z
-x,-y,-z
x,-y,z
1/2+x,1/2+y,z
1/2-x,1/2+y,-z
1/2-x,1/2-y,-z
1/2+x,1/2-y,z
loop_
_atom_site_type_symbol
_atom_site_label
_atom_site_fract_x
_atom_site_fract_y
_atom_site_fract_z
Si Si1 0.932885 0.123283 0.693916
Si Si2 0.140197 0.670451 0.603339
Si Si3 0.485625 0.111529 0.821535
Si Si4 0.125254 0.713962 0.113818
Si Si5 0.221714 0.940373 0.077178
Si Si6 0.583040 0.732625 0.729521
Si Si7 0.698372 0.559024 0.746344
O O1 0.792428 0.141618 0.590659
O O2 0.865238 0.097544 0.827696
O O3 0.027738 0.175198 0.713779
O O4 0.056991 0.083657 0.662241
O O5 0.000000 0.656594 0.500000
O O6 0.092488 0.648620 0.747250
O O7 0.148797 0.731774 0.615932
O O8 0.388482 0.153009 0.896278
O O9 0.603742 0.072034 0.894054
O O10 0.356702 0.082931 0.727897
O O11 0.290809 0.730952 0.140794
O O12 0.061537 0.735913 0.248555
O O13 0.000000 0.733312 0.000000
O O14 0.195749 0.000000 0.112639
O O15 0.181587 0.934971 0.911966
O O16 0.703774 0.500000 0.716099
#
# Coordination Sequence:
#
# PCOD9207747 Si02
#       7
#     8   8   8   8   8   8   8
#     4  11  22  38  59  88 123 155 200 246 296 354
#     4  10  24  46  66  83 111 155 206 257 309 361
#     4  10  21  37  61  90 122 155 204 245 290 349
#     4  11  21  35  55  87 128 164 188 226 291 365
#     4  10  21  37  59  90 127 170 202 228 282 355
#     4  11  22  39  57  89 119 157 202 240 293 358
#     4  11  21  36  62  94 127 160 196 242 290 346
#
# _framework density 23.977250000000002
#
# number of rings (size 3 to 8) (size 9 to 14) (size 15 to 20)
#    0.000    1.429    2.857    3.000    0.000    4.000 
#    2.571    0.714    0.000   16.286    0.000    0.000 
#    0.000    0.000    0.000    0.000    0.000    0.000 
#
# Total GULP energy -155913.519777 kJ/mol
# GULP energy per Si atom -5568.339992 kJ/mol
# Density = 2.392268 g / cm^3
# Si number density = 23.977250 Si / 1000 Ang^3
#
#
#
# Elastic Constant Matrix: (Units=GPa)
#
#
# Indices 1 2 3 4 5 6 
#
# 1 170.0830 59.5340 33.7291 0.0000 46.1999 0.0000
# 2 59.5340 105.3568 12.7005 0.0000 -6.3498 0.0000
# 3 33.7291 12.7005 50.4387 0.0000 25.0888 0.0000
# 4 0.0000 0.0000 0.0000 6.2837 0.0000 11.3609
# 5 46.1999 -6.3498 25.0888 0.0000 46.7281 0.0000
# 6 0.0000 0.0000 0.0000 11.3609 0.0000 31.3764
#
#
#
# Elastic Compliance Matrix: (Units=1/GPa)
#
#
# Indices 1 2 3 4 5 6 
#
# 1 0.012061 -0.007662 0.000428 0.000000 -0.013195 0.000000
# 2 -0.007662 0.015127 -0.004742 0.000000 0.012177 0.000000
# 3 0.000428 -0.004742 0.029014 0.000000 -0.016645 0.000000
# 4 0.000000 0.000000 0.000000 0.460805 0.000000 -0.166851
# 5 -0.013195 0.012177 -0.016645 0.000000 0.045038 0.000000
# 6 0.000000 0.000000 0.000000 -0.166851 0.000000 0.092285
#
#
# Mechanical properties :
#
#
# Convention : Reuss Voigt Hill
#
# Bulk Modulus (GPa) = 31.01004 59.75618 45.38311
# Shear Modulus (GPa) = 7.25655 31.53865 19.39760
#
# Velocity S-wave (km/s) = 1.74155 3.63072 2.84738
# Velocity P-wave (km/s) = 4.12373 6.52321 5.45699
#
# Compressibility (1/GPa) = 0.03224762
#
# Stress axis : x y z
#
# Youngs Moduli (GPa) = 82.91248 66.10806 34.46660
#
# Poissons Ratio (x) = 0.50652 -0.01474
# Poissons Ratio (y) = 0.63528 0.16345
# Poissons Ratio (z) = -0.03545 0.31350
#
# Static dielectric constant tensor:
#      x y z
#    x 1.993970 0.000000 -0.111020 
#    y 0.000000 1.907620 0.000000 
#    z -0.111020 0.000000 2.105810 
# 
# From -- ./inp_files/124213.got.cif
#   From: 2010.05.17/outbox.cif.g08.bks.cpg/sg12_63_cif.got.tgz:124213.got - 2010.06.03 13:09:07.
