data_PCOD9207473
_publ_section_title
;
Structure prediction by ZEFSAII (Michael W. Deem and Ramdas Pophale) SiO2 
 PCOD9207473
Probable space group: C 2/M
;
_chemical_formula_sum "Si O2"
_cell_formula_units_Z 64
_cell_length_a 32.947793
_cell_length_b 8.868174
_cell_length_c 15.330796
_cell_angle_alpha 90.000000
_cell_angle_beta 133.316196
_cell_angle_gamma 90.000000
_cell_volume 3259.157247
_symmetry_space_group_name_H-M "C 2/M"
_symmetry_group_IT_number 12
_symmetry_cell_setting 'monoclinic'
loop_
_space_group_symop_operation_xyz
x,y,z
-x,y,-z
-x,-y,-z
x,-y,z
1/2+x,1/2+y,z
1/2-x,1/2+y,-z
1/2-x,1/2-y,-z
1/2+x,1/2-y,z
loop_
_atom_site_type_symbol
_atom_site_label
_atom_site_fract_x
_atom_site_fract_y
_atom_site_fract_z
Si Si1 0.564417 0.181635 0.094868
Si Si2 0.727841 0.677716 0.556047
Si Si3 0.642881 0.319367 0.693090
Si Si4 0.128286 0.318752 0.013902
Si Si5 0.901080 0.822364 0.674785
Si Si6 0.040694 0.181762 0.413168
Si Si7 0.077797 0.320423 0.752574
Si Si8 0.254562 0.679642 0.778834
O O1 0.596603 0.231534 0.055218
O O2 0.592724 0.237596 0.225221
O O3 0.564529 0.000000 0.094773
O O4 0.500000 0.232770 0.000000
O O5 0.741460 0.500000 0.580055
O O6 0.750000 0.750000 0.500000
O O7 0.660902 0.693487 0.455517
O O8 0.752076 0.760388 0.675847
O O9 0.648787 0.500000 0.702186
O O10 0.593070 0.280718 0.551909
O O11 0.622349 0.258538 0.755560
O O12 0.700497 0.246274 0.747380
O O13 0.136134 0.500000 0.030654
O O14 0.188165 0.240763 0.096444
O O15 0.092423 0.287183 0.874810
O O16 0.943788 0.771222 0.662753
O O17 0.910193 0.000000 0.703961
O O18 0.983606 0.257714 0.358173
O O19 0.034376 0.000000 0.405635
O O20 0.079553 0.500000 0.742299
O O21 0.252965 0.500000 0.777963
#
# Coordination Sequence:
#
# PCOD9207473 Si02
#       8
#     8   8   8   8   8   8   8   8
#     4  10  21  38  60  88 122 163 208 253 306 364
#     4  11  22  39  60  88 124 162 205 252 308 370
#     4  11  23  43  67  91 125 168 206 253 318 382
#     4  10  23  43  63  86 126 171 208 255 317 379
#     4  10  21  37  58  86 120 158 201 246 299 364
#     4  10  21  40  63  90 125 166 204 248 315 384
#     4  11  24  41  64  95 124 159 209 264 315 371
#     4  12  25  41  64  93 124 162 212 265 313 370
#
# _framework density 19.636977000000002
#
# number of rings (size 3 to 8) (size 9 to 14) (size 15 to 20)
#    0.000    1.375    1.250    4.125    0.000    9.250 
#    0.000    0.000    0.000    0.000    0.000    0.000 
#    0.000    0.000    0.000    0.000    0.000    0.000 
#
# Total GULP energy -178971.755192 kJ/mol
# GULP energy per Si atom -5592.867350 kJ/mol
# Density = 1.959228 g / cm^3
# Si number density = 19.636977 Si / 1000 Ang^3
#
#
#
# Elastic Constant Matrix: (Units=GPa)
#
#
# Indices 1 2 3 4 5 6 
#
# 1 104.6428 33.2962 18.5296 0.0000 5.6873 0.0000
# 2 33.2962 51.2506 34.7700 0.0000 7.2284 0.0000
# 3 18.5296 34.7700 68.1428 0.0000 6.2787 0.0000
# 4 0.0000 0.0000 0.0000 27.7189 0.0000 -4.2028
# 5 5.6873 7.2284 6.2787 0.0000 35.5906 0.0000
# 6 0.0000 0.0000 0.0000 -4.2028 0.0000 29.0318
#
#
#
# Elastic Compliance Matrix: (Units=1/GPa)
#
#
# Indices 1 2 3 4 5 6 
#
# 1 0.012106 -0.008566 0.001115 0.000000 -0.000391 0.000000
# 2 -0.008566 0.036322 -0.015909 0.000000 -0.003202 0.000000
# 3 0.001115 -0.015909 0.022575 0.000000 -0.000930 0.000000
# 4 0.000000 0.000000 0.000000 0.036886 0.000000 0.005340
# 5 -0.000391 -0.003202 -0.000930 0.000000 0.028974 0.000000
# 6 0.000000 0.000000 0.000000 0.005340 0.000000 0.035218
#
#
# Mechanical properties :
#
#
# Convention : Reuss Voigt Hill
#
# Bulk Modulus (GPa) = 41.18157 44.13643 42.65900
# Shear Modulus (GPa) = 22.03658 27.63094 24.83376
#
# Velocity S-wave (km/s) = 3.35356 3.75519 3.56004
# Velocity P-wave (km/s) = 6.00101 6.42860 6.21848
#
# Compressibility (1/GPa) = 0.02428271
#
# Stress axis : x y z
#
# Youngs Moduli (GPa) = 82.60504 27.53156 44.29658
#
# Poissons Ratio (x) = 0.23584 -0.04940
# Poissons Ratio (y) = 0.70761 0.70472
# Poissons Ratio (z) = -0.09212 0.43800
#
# Static dielectric constant tensor:
#      x y z
#    x 1.684290 0.000000 0.000260 
#    y 0.000000 1.656050 0.000000 
#    z 0.000260 0.000000 1.674230 
# 
# From -- ./inp_files/249972.got.cif
#   From: 2010.05.17/outbox.cif.g08.bks.cpg/sg12_125_cif.got.tgz:249972.got - 2010.06.03 13:09:07.
