data_PCOD9207262
_publ_section_title
;
Structure prediction by ZEFSAII (Michael W. Deem and Ramdas Pophale) SiO2 
 PCOD9207262
Probable space group: C 2/M
;
_chemical_formula_sum "Si O2"
_cell_formula_units_Z 40
_cell_length_a 27.309263
_cell_length_b 8.761701
_cell_length_c 8.721737
_cell_angle_alpha 90.000000
_cell_angle_beta 84.375675
_cell_angle_gamma 90.000000
_cell_volume 2076.852248
_symmetry_space_group_name_H-M "C 2/M"
_symmetry_group_IT_number 12
_symmetry_cell_setting 'monoclinic'
loop_
_space_group_symop_operation_xyz
x,y,z
-x,y,-z
-x,-y,-z
x,-y,z
1/2+x,1/2+y,z
1/2-x,1/2+y,-z
1/2-x,1/2-y,-z
1/2+x,1/2-y,z
loop_
_atom_site_type_symbol
_atom_site_label
_atom_site_fract_x
_atom_site_fract_y
_atom_site_fract_z
Si Si1 0.935241 0.500000 0.964301
Si Si2 0.158435 0.500000 0.509080
Si Si3 0.750413 0.500000 0.305171
Si Si4 0.828857 0.752173 0.741270
Si Si5 0.316733 0.000000 0.983469
Si Si6 0.000000 0.254438 0.500000
Si Si7 0.563638 0.667174 0.197292
Si Si8 0.556792 0.000000 0.684577
O O1 0.875543 0.500000 0.991458
O O2 0.946799 0.334288 0.879814
O O3 0.044709 0.500000 0.868273
O O4 0.212352 0.500000 0.565062
O O5 0.152438 0.643786 0.400224
O O6 0.115447 0.500000 0.646353
O O7 0.713586 0.358318 0.310005
O O8 0.784785 0.500000 0.144746
O O9 0.806620 0.647125 0.881938
O O10 0.877710 0.830840 0.791729
O O11 0.034904 0.170415 0.368057
O O12 0.034350 0.358069 0.598745
O O13 0.551644 0.500000 0.126298
#
# Coordination Sequence:
#
# PCOD9207262 Si02
#       8
#     4   4   4   8   4   4   8   4
#     4  10  22  41  65  93 128 169 203 258 322 364
#     4  11  21  38  58  87 123 157 205 257 307 364
#     4  12  20  35  60  88 118 162 201 244 311 364
#     4  10  21  37  57  85 122 159 202 250 305 368
#     4   9  20  35  59  85 117 159 200 246 301 372
#     4  11  23  38  70  93 115 170 209 255 322 375
#     4  11  22  42  65  94 128 164 211 261 311 372
#     4  11  21  40  66  93 122 162 217 259 310 381
#
# _framework density 19.259913999999998
#
# number of rings (size 3 to 8) (size 9 to 14) (size 15 to 20)
#    0.000    1.400    4.000    3.300    0.000    1.600 
#    0.000    3.000    2.200    0.000    0.000    0.000 
#    0.000    0.000    0.000    0.000    0.000    0.000 
#
# Total GULP energy -111506.536698 kJ/mol
# GULP energy per Si atom -5575.326835 kJ/mol
# Density = 1.921608 g / cm^3
# Si number density = 19.259914 Si / 1000 Ang^3
#
#
#
# Elastic Constant Matrix: (Units=GPa)
#
#
# Indices 1 2 3 4 5 6 
#
# 1 69.0419 30.1057 2.4164 0.0000 6.0093 0.0000
# 2 30.1057 143.0442 45.4210 0.0000 3.3986 0.0000
# 3 2.4164 45.4210 91.0414 0.0000 -2.6530 0.0000
# 4 0.0000 0.0000 0.0000 -53.6105 0.0000 77.9393
# 5 6.0093 3.3986 -2.6530 0.0000 40.7291 0.0000
# 6 0.0000 0.0000 0.0000 77.9393 0.0000 -100.2788
#
#
#
# Elastic Compliance Matrix: (Units=1/GPa)
#
#
# Indices 1 2 3 4 5 6 
#
# 1 0.016277 -0.003830 0.001421 0.000000 -0.001990 0.000000
# 2 -0.003830 0.009246 -0.004526 0.000000 -0.000501 0.000000
# 3 0.001421 -0.004526 0.013234 0.000000 0.001030 0.000000
# 4 0.000000 0.000000 0.000000 0.143557 0.000000 0.111576
# 5 -0.001990 -0.000501 0.001030 0.000000 0.024955 0.000000
# 6 0.000000 0.000000 0.000000 0.111576 0.000000 0.076748
#
#
# Mechanical properties :
#
#
# Convention : Reuss Voigt Hill
#
# Bulk Modulus (GPa) = 40.18020 51.00151 45.59086
# Shear Modulus (GPa) = 16.33015 -7.61975 4.35520
#
# Velocity S-wave (km/s) = 2.91500 -1.99120 1.50539
# Velocity P-wave (km/s) = 5.67777 4.60995 5.17149
#
# Compressibility (1/GPa) = 0.02488788
#
# Stress axis : x y z
#
# Youngs Moduli (GPa) = 61.43521 108.15700 75.56152
#
# Poissons Ratio (x) = 0.41420 -0.10734
# Poissons Ratio (y) = 0.23527 0.34197
# Poissons Ratio (z) = -0.08728 0.48949
#
# Static dielectric constant tensor:
#      x y z
#    x 1.653560 0.000000 -0.001430 
#    y 0.000000 1.711370 0.000000 
#    z -0.001430 0.000000 1.636180 
# 
# From -- ./inp_files/101079.got.cif
#   From: 2010.05.17/outbox.cif.g08.bks.cpg/sg12_51_cif.got.tgz:101079.got - 2010.06.03 13:09:07.
