data_PCOD9207363
_publ_section_title
;
Structure prediction by ZEFSAII (Michael W. Deem and Ramdas Pophale) SiO2 
 PCOD9207363
Probable space group: C 2/M
;
_chemical_formula_sum "Si O2"
_cell_formula_units_Z 48
_cell_length_a 9.879092
_cell_length_b 7.585539
_cell_length_c 29.532170
_cell_angle_alpha 90.000000
_cell_angle_beta 59.020762
_cell_angle_gamma 90.000000
_cell_volume 1897.400239
_symmetry_space_group_name_H-M "C 2/M"
_symmetry_group_IT_number 12
_symmetry_cell_setting 'monoclinic'
loop_
_space_group_symop_operation_xyz
x,y,z
-x,y,-z
-x,-y,-z
x,-y,z
1/2+x,1/2+y,z
1/2-x,1/2+y,-z
1/2-x,1/2-y,-z
1/2+x,1/2-y,z
loop_
_atom_site_type_symbol
_atom_site_label
_atom_site_fract_x
_atom_site_fract_y
_atom_site_fract_z
Si Si1 0.123230 0.704233 0.381074
Si Si2 0.934002 0.214468 0.277526
Si Si3 0.256939 0.704461 0.118812
Si Si4 0.280731 0.294467 0.214784
Si Si5 0.898935 0.289378 0.942988
Si Si6 0.721918 0.210688 0.557233
O O1 0.117820 0.500000 0.368240
O O2 0.282205 0.779017 0.331572
O O3 0.150372 0.714151 0.430283
O O4 0.952407 0.781862 0.399553
O O5 0.901527 0.275400 0.231333
O O6 0.103099 0.280062 0.264841
O O7 0.938118 0.000000 0.277989
O O8 0.212216 0.500000 0.131960
O O9 0.269179 0.787175 0.166717
O O10 0.141952 0.780237 0.100513
O O11 0.435414 0.713117 0.069275
O O12 0.320085 0.500000 0.202605
O O13 0.916800 0.500000 0.938165
O O14 0.750000 0.250000 0.000000
O O15 0.750000 0.250000 0.500000
O O16 0.723988 0.000000 0.562246
#
# Coordination Sequence:
#
# PCOD9207363 Si02
#       6
#     8   8   8   8   8   8
#     4  10  22  39  57  82 116 149 185 231 278 329
#     4  10  21  37  58  84 113 147 187 229 276 331
#     4  10  22  39  58  83 115 148 186 233 281 333
#     4  10  21  38  59  84 115 149 186 231 281 332
#     4  11  23  38  58  84 113 148 190 234 283 338
#     4  11  23  39  60  85 114 149 189 233 282 335
#
# _framework density 25.297772999999999
#
# number of rings (size 3 to 8) (size 9 to 14) (size 15 to 20)
#    0.000    1.667    0.000    4.000    0.000   10.000 
#    0.000    0.000    0.000    0.000    0.000    0.000 
#    0.000    0.000    0.000    0.000    0.000    0.000 
#
# Total GULP energy -134344.187107 kJ/mol
# GULP energy per Si atom -5597.674463 kJ/mol
# Density = 2.524019 g / cm^3
# Si number density = 25.297773 Si / 1000 Ang^3
#
#
#
# Elastic Constant Matrix: (Units=GPa)
#
#
# Indices 1 2 3 4 5 6 
#
# 1 117.4893 -3.9205 -8.8819 0.0000 2.1608 0.0000
# 2 -3.9205 81.4543 -0.3236 0.0000 -0.0376 0.0000
# 3 -8.8819 -0.3236 72.2150 0.0000 -0.0454 0.0000
# 4 0.0000 0.0000 0.0000 20.2624 0.0000 -6.9724
# 5 2.1608 -0.0376 -0.0454 0.0000 48.5778 0.0000
# 6 0.0000 0.0000 0.0000 -6.9724 0.0000 17.5129
#
#
#
# Elastic Compliance Matrix: (Units=1/GPa)
#
#
# Indices 1 2 3 4 5 6 
#
# 1 0.008613 0.000419 0.001061 0.000000 -0.000382 0.000000
# 2 0.000419 0.012297 0.000107 0.000000 -0.000009 0.000000
# 3 0.001061 0.000107 0.013978 0.000000 -0.000034 0.000000
# 4 0.000000 0.000000 0.000000 0.057187 0.000000 0.022768
# 5 -0.000382 -0.000009 -0.000034 0.000000 0.020602 0.000000
# 6 0.000000 0.000000 0.000000 0.022768 0.000000 0.066165
#
#
# Mechanical properties :
#
#
# Convention : Reuss Voigt Hill
#
# Bulk Modulus (GPa) = 26.27387 27.21185 26.74286
# Shear Modulus (GPa) = 26.54519 36.22292 31.38405
#
# Velocity S-wave (km/s) = 3.24282 3.78810 3.52602
# Velocity P-wave (km/s) = 4.94263 5.46927 5.21260
#
# Compressibility (1/GPa) = 0.03806063
#
# Stress axis : x y z
#
# Youngs Moduli (GPa) = 116.10889 81.31806 71.53849
#
# Poissons Ratio (x) = -0.03404 -0.07590
# Poissons Ratio (y) = -0.04860 -0.00762
# Poissons Ratio (z) = -0.12318 -0.00867
#
# Static dielectric constant tensor:
#      x y z
#    x 1.936960 0.000000 -0.003630 
#    y 0.000000 1.959190 0.000000 
#    z -0.003630 0.000000 2.076060 
# 
# From -- ./inp_files/334626.got.cif
#   From: 2010.05.17/outbox.cif.g08.bks.cpg/sg12_168_cif.got.tgz:334626.got - 2010.06.03 13:09:07.
