data_PCOD9207204
_publ_section_title
;
Structure prediction by ZEFSAII (Michael W. Deem and Ramdas Pophale) SiO2 
 PCOD9207204
Probable space group: C 2/M
;
_chemical_formula_sum "Si O2"
_cell_formula_units_Z 64
_cell_length_a 21.062820
_cell_length_b 8.595753
_cell_length_c 25.153456
_cell_angle_alpha 90.000000
_cell_angle_beta 128.843345
_cell_angle_gamma 90.000000
_cell_volume 3546.986829
_symmetry_space_group_name_H-M "C 2/M"
_symmetry_group_IT_number 12
_symmetry_cell_setting 'monoclinic'
loop_
_space_group_symop_operation_xyz
x,y,z
-x,y,-z
-x,-y,-z
x,-y,z
1/2+x,1/2+y,z
1/2-x,1/2+y,-z
1/2-x,1/2-y,-z
1/2+x,1/2-y,z
loop_
_atom_site_type_symbol
_atom_site_label
_atom_site_fract_x
_atom_site_fract_y
_atom_site_fract_z
Si Si1 0.900732 0.187060 0.299209
Si Si2 0.803693 0.186324 0.076312
Si Si3 0.158716 0.813338 0.449048
Si Si4 0.455941 0.313892 0.707483
Si Si5 0.260060 0.810169 0.841789
Si Si6 0.015615 0.685704 0.844836
Si Si7 0.944893 0.690046 0.921167
Si Si8 0.017522 0.313995 0.448957
O O1 0.809760 0.238048 0.236462
O O2 0.959909 0.219609 0.280009
O O3 0.942680 0.264677 0.371811
O O4 0.902053 0.000000 0.307408
O O5 0.767254 0.238982 0.113697
O O6 0.896135 0.241353 0.118907
O O7 0.801423 0.000000 0.074492
O O8 0.750000 0.250000 0.000000
O O9 0.250000 0.750000 0.500000
O O10 0.115268 0.766044 0.370639
O O11 0.099001 0.755134 0.464655
O O12 0.159567 0.000000 0.450978
O O13 0.451823 0.500000 0.712759
O O14 0.458424 0.233271 0.765632
O O15 0.351464 0.758382 0.877765
O O16 0.259833 0.000000 0.841284
O O17 0.023680 0.500000 0.850503
O O18 0.981715 0.738562 0.884049
O O19 0.944740 0.500000 0.921792
O O20 0.000000 0.740421 0.000000
O O21 0.025354 0.500000 0.453078
O O22 0.000000 0.261373 0.500000
#
# Coordination Sequence:
#
# PCOD9207204 Si02
#       8
#     8   8   8   8   8   8   8   8
#     4   9  17  33  57  81 105 142 189 230 276 326
#     4  11  21  35  56  81 107 137 178 227 276 323
#     4  10  21  38  61  86 115 151 192 232 280 336
#     4   9  18  35  56  80 111 146 178 223 279 327
#     4   9  17  33  55  76 104 140 181 228 271 317
#     4  11  21  33  54  83 110 140 181 224 272 329
#     4   9  18  33  52  75 106 142 181 224 269 318
#     4  10  21  37  57  83 118 152 184 230 285 332
#
# _framework density 18.043482999999998
#
# number of rings (size 3 to 8) (size 9 to 14) (size 15 to 20)
#    0.000    2.250    1.250    3.000    0.000    5.500 
#    2.250    0.000    0.000    9.000    0.000    0.000 
#    0.000    0.000    0.000    0.000    0.000    0.000 
#
# Total GULP energy -178580.950766 kJ/mol
# GULP energy per Si atom -5580.654711 kJ/mol
# Density = 1.800242 g / cm^3
# Si number density = 18.043483 Si / 1000 Ang^3
#
#
#
# Elastic Constant Matrix: (Units=GPa)
#
#
# Indices 1 2 3 4 5 6 
#
# 1 122.3173 24.8936 82.8113 0.0000 -4.2526 0.0000
# 2 24.8936 26.6901 29.8917 0.0000 -4.2894 0.0000
# 3 82.8113 29.8917 143.4555 0.0000 -2.6239 0.0000
# 4 0.0000 0.0000 0.0000 31.4189 0.0000 -1.4877
# 5 -4.2526 -4.2894 -2.6239 0.0000 38.8786 0.0000
# 6 0.0000 0.0000 0.0000 -1.4877 0.0000 21.0179
#
#
#
# Elastic Compliance Matrix: (Units=1/GPa)
#
#
# Indices 1 2 3 4 5 6 
#
# 1 0.013964 -0.005123 -0.006984 0.000000 0.000491 0.000000
# 2 -0.005123 0.051628 -0.007716 0.000000 0.004615 0.000000
# 3 -0.006984 -0.007716 0.012596 0.000000 -0.000765 0.000000
# 4 0.000000 0.000000 0.000000 0.031935 0.000000 0.002260
# 5 0.000491 0.004615 -0.000765 0.000000 0.026232 0.000000
# 6 0.000000 0.000000 0.000000 0.002260 0.000000 0.047739
#
#
# Mechanical properties :
#
#
# Convention : Reuss Voigt Hill
#
# Bulk Modulus (GPa) = 25.94573 63.07291 44.50932
# Shear Modulus (GPa) = 21.13379 28.58749 24.86064
#
# Velocity S-wave (km/s) = 3.42610 3.98473 3.71592
# Velocity P-wave (km/s) = 5.48285 7.49685 6.56751
#
# Compressibility (1/GPa) = 0.03854199
#
# Stress axis : x y z
#
# Youngs Moduli (GPa) = 71.61505 19.36916 79.38813
#
# Poissons Ratio (x) = 0.09922 0.55446
# Poissons Ratio (y) = 0.36687 0.61257
# Poissons Ratio (z) = 0.50017 0.14946
#
# Static dielectric constant tensor:
#      x y z
#    x 1.545370 0.000000 -0.028210 
#    y 0.000000 1.614630 0.000000 
#    z -0.028210 0.000000 1.601920 
# 
# From -- ./inp_files/346288.got.cif
#   From: 2010.05.17/outbox.cif.g08.bks.cpg/sg12_174_cif.got.tgz:346288.got - 2010.06.03 13:09:07.
