data_PCOD9207175
_publ_section_title
;
Structure prediction by ZEFSAII (Michael W. Deem and Ramdas Pophale) SiO2 
 PCOD9207175
Probable space group: C 2/M
;
_chemical_formula_sum "Si O2"
_cell_formula_units_Z 48
_cell_length_a 13.755681
_cell_length_b 9.608734
_cell_length_c 19.337253
_cell_angle_alpha 90.000000
_cell_angle_beta 119.616865
_cell_angle_gamma 90.000000
_cell_volume 2221.966234
_symmetry_space_group_name_H-M "C 2/M"
_symmetry_group_IT_number 12
_symmetry_cell_setting 'monoclinic'
loop_
_space_group_symop_operation_xyz
x,y,z
-x,y,-z
-x,-y,-z
x,-y,z
1/2+x,1/2+y,z
1/2-x,1/2+y,-z
1/2-x,1/2-y,-z
1/2+x,1/2-y,z
loop_
_atom_site_type_symbol
_atom_site_label
_atom_site_fract_x
_atom_site_fract_y
_atom_site_fract_z
Si Si1 0.661025 0.337660 0.013580
Si Si2 0.171208 0.339897 0.806321
Si Si3 0.769019 0.657888 0.730014
Si Si4 0.420295 0.158124 0.535692
Si Si5 0.326965 0.658322 0.617641
Si Si6 0.010876 0.342972 0.877834
O O1 0.657378 0.500000 0.993270
O O2 0.713662 0.331603 0.108467
O O3 0.952544 0.235035 0.051036
O O4 0.750000 0.250000 0.000000
O O5 0.157981 0.500000 0.778803
O O6 0.178546 0.236753 0.744917
O O7 0.074555 0.308753 0.828175
O O8 0.737336 0.500000 0.699997
O O9 0.802720 0.748724 0.675962
O O10 0.881191 0.651596 0.815489
O O11 0.500000 0.200758 0.500000
O O12 0.413065 0.263613 0.596999
O O13 0.293549 0.150880 0.462670
O O14 0.546861 0.000000 0.431893
O O15 0.361299 0.500000 0.646259
O O16 0.048737 0.500000 0.910870
#
# Coordination Sequence:
#
# PCOD9207175 Si02
#       6
#     8   8   8   8   8   8
#     4   9  17  31  53  77 103 137 179 229 277 322
#     4   9  19  36  54  74 103 139 180 224 272 322
#     4  11  23  37  54  78 110 146 181 219 266 320
#     4   9  19  38  63  86 109 142 178 211 257 315
#     4  10  21  37  57  83 114 142 174 219 262 309
#     4   9  20  37  54  74 104 143 183 224 272 324
#
# _framework density 21.602488999999998
#
# number of rings (size 3 to 8) (size 9 to 14) (size 15 to 20)
#    0.000    2.500    0.000    2.500    0.000    7.667 
#    0.000   10.000    0.000    0.000    0.000    0.000 
#    0.000    0.000    0.000    0.000    0.000    0.000 
#
# Total GULP energy -133993.253918 kJ/mol
# GULP energy per Si atom -5583.052247 kJ/mol
# Density = 2.155332 g / cm^3
# Si number density = 21.602489 Si / 1000 Ang^3
#
#
#
# Elastic Constant Matrix: (Units=GPa)
#
#
# Indices 1 2 3 4 5 6 
#
# 1 94.8957 56.9842 15.1393 0.0000 -30.9180 0.0000
# 2 56.9842 175.2305 56.4849 0.0000 -54.8384 0.0000
# 3 15.1393 56.4849 38.3906 0.0000 -15.7440 0.0000
# 4 0.0000 0.0000 0.0000 28.9435 0.0000 -4.7773
# 5 -30.9180 -54.8384 -15.7440 0.0000 41.0081 0.0000
# 6 0.0000 0.0000 0.0000 -4.7773 0.0000 14.7853
#
#
#
# Elastic Compliance Matrix: (Units=1/GPa)
#
#
# Indices 1 2 3 4 5 6 
#
# 1 0.014503 -0.002772 0.001571 0.000000 0.007831 0.000000
# 2 -0.002772 0.016381 -0.017663 0.000000 0.013034 0.000000
# 3 0.001571 -0.017663 0.050104 0.000000 -0.003199 0.000000
# 4 0.000000 0.000000 0.000000 0.036496 0.000000 0.011792
# 5 0.007831 0.013034 -0.003199 0.000000 0.046491 0.000000
# 6 0.000000 0.000000 0.000000 0.011792 0.000000 0.071445
#
#
# Mechanical properties :
#
#
# Convention : Reuss Voigt Hill
#
# Bulk Modulus (GPa) = 23.11616 62.85929 42.98772
# Shear Modulus (GPa) = 17.38705 28.94127 23.16416
#
# Velocity S-wave (km/s) = 2.84009 3.66419 3.27814
# Velocity P-wave (km/s) = 4.63452 6.86025 5.85413
#
# Compressibility (1/GPa) = 0.04325978
#
# Stress axis : x y z
#
# Youngs Moduli (GPa) = 68.94997 61.04672 19.95830
#
# Poissons Ratio (x) = 0.16922 -0.03135
# Poissons Ratio (y) = 0.19113 0.35252
# Poissons Ratio (z) = -0.10830 1.07827
#
# Static dielectric constant tensor:
#      x y z
#    x 1.814330 0.000000 0.037480 
#    y 0.000000 1.775620 0.000000 
#    z 0.037480 0.000000 1.799240 
# 
# From -- ./inp_files/337570.got.cif
#   From: 2010.05.17/outbox.cif.g08.bks.cpg/sg12_169_cif.got.tgz:337570.got - 2010.06.03 13:09:07.
