data_PCOD9207128
_publ_section_title
;
Structure prediction by ZEFSAII (Michael W. Deem and Ramdas Pophale) SiO2 
 PCOD9207128
Probable space group: C 2/M
;
_chemical_formula_sum "Si O2"
_cell_formula_units_Z 64
_cell_length_a 15.049201
_cell_length_b 7.789437
_cell_length_c 26.508588
_cell_angle_alpha 90.000000
_cell_angle_beta 88.771752
_cell_angle_gamma 90.000000
_cell_volume 3106.750028
_symmetry_space_group_name_H-M "C 2/M"
_symmetry_group_IT_number 12
_symmetry_cell_setting 'monoclinic'
loop_
_space_group_symop_operation_xyz
x,y,z
-x,y,-z
-x,-y,-z
x,-y,z
1/2+x,1/2+y,z
1/2-x,1/2+y,-z
1/2-x,1/2-y,-z
1/2+x,1/2-y,z
loop_
_atom_site_type_symbol
_atom_site_label
_atom_site_fract_x
_atom_site_fract_y
_atom_site_fract_z
Si Si1 0.898527 0.705407 0.499385
Si Si2 0.177732 0.697598 0.884703
Si Si3 0.280136 0.789665 0.691162
Si Si4 0.753660 0.792266 0.421969
Si Si5 0.876333 0.790421 0.860952
Si Si6 0.989101 0.800560 0.055659
Si Si7 0.137895 0.198130 0.774691
Si Si8 0.054017 0.701028 0.249640
O O1 0.904084 0.500000 0.505846
O O2 0.844799 0.739895 0.448435
O O3 0.830557 0.770001 0.543594
O O4 0.000000 0.771945 0.500000
O O5 0.180528 0.500000 0.900694
O O6 0.278313 0.762359 0.879668
O O7 0.140083 0.708481 0.828225
O O8 0.111014 0.791092 0.922941
O O9 0.255474 0.733136 0.635404
O O10 0.209220 0.733047 0.734013
O O11 0.377492 0.736375 0.708817
O O12 0.278733 0.000000 0.691433
O O13 0.751290 0.000000 0.422163
O O14 0.948200 0.728831 0.900939
O O15 0.898753 0.723169 0.805192
O O16 0.878737 0.000000 0.857396
O O17 0.016199 0.000000 0.051241
O O18 0.000000 0.722846 0.000000
O O19 0.040247 0.207627 0.752399
O O20 0.159992 0.000000 0.785529
O O21 0.036944 0.500000 0.258250
#
# Coordination Sequence:
#
# PCOD9207128 Si02
#       8
#     8   8   8   8   8   8   8   8
#     4   9  18  33  55  81 109 144 184 229 282 328
#     4  11  22  36  57  84 110 141 184 229 274 322
#     4   9  20  36  54  78 112 148 183 223 275 332
#     4   9  18  35  55  77 109 147 185 227 271 327
#     4  10  21  37  57  81 112 145 180 224 272 326
#     4  10  22  40  60  82 111 149 186 226 280 334
#     4  11  21  36  55  78 108 145 184 225 276 330
#     4  11  21  35  56  83 109 143 186 224 271 332
#
# _framework density 20.600307000000001
#
# number of rings (size 3 to 8) (size 9 to 14) (size 15 to 20)
#    0.000    2.000    2.500    1.125    0.000    2.500 
#    0.000    3.750    0.000    0.000    0.000    0.000 
#    0.000    0.000    0.000    0.000    0.000    0.000 
#
# Total GULP energy -178687.171699 kJ/mol
# GULP energy per Si atom -5583.974116 kJ/mol
# Density = 2.055342 g / cm^3
# Si number density = 20.600307 Si / 1000 Ang^3
#
#
#
# Elastic Constant Matrix: (Units=GPa)
#
#
# Indices 1 2 3 4 5 6 
#
# 1 92.1365 1.0626 -5.6161 0.0000 7.1206 0.0000
# 2 1.0626 27.0882 0.8757 0.0000 0.1153 0.0000
# 3 -5.6161 0.8757 58.4246 0.0000 5.7592 0.0000
# 4 0.0000 0.0000 0.0000 11.3916 0.0000 0.3072
# 5 7.1206 0.1153 5.7592 0.0000 20.4515 0.0000
# 6 0.0000 0.0000 0.0000 0.3072 0.0000 15.3945
#
#
#
# Elastic Compliance Matrix: (Units=1/GPa)
#
#
# Indices 1 2 3 4 5 6 
#
# 1 0.011288 -0.000473 0.001522 0.000000 -0.004356 0.000000
# 2 -0.000473 0.036954 -0.000612 0.000000 0.000129 0.000000
# 3 0.001522 -0.000612 0.017818 0.000000 -0.005544 0.000000
# 4 0.000000 0.000000 0.000000 0.087832 0.000000 -0.001753
# 5 -0.004356 0.000129 -0.005544 0.000000 0.051973 0.000000
# 6 0.000000 0.000000 0.000000 -0.001753 0.000000 0.064993
#
#
# Mechanical properties :
#
#
# Convention : Reuss Voigt Hill
#
# Bulk Modulus (GPa) = 14.94039 18.92152 16.93096
# Shear Modulus (GPa) = 17.10587 21.53599 19.32093
#
# Velocity S-wave (km/s) = 2.88474 3.23680 3.06583
# Velocity P-wave (km/s) = 4.28531 4.81396 4.55731
#
# Compressibility (1/GPa) = 0.06693266
#
# Stress axis : x y z
#
# Youngs Moduli (GPa) = 88.58711 27.06048 56.12300
#
# Poissons Ratio (x) = 0.01281 -0.08540
# Poissons Ratio (y) = 0.04194 0.03435
# Poissons Ratio (z) = -0.13479 0.01656
#
# Static dielectric constant tensor:
#      x y z
#    x 1.725770 0.000000 0.008390 
#    y 0.000000 1.755100 0.000000 
#    z 0.008390 0.000000 1.711020 
# 
# From -- ./inp_files/338730.got.cif
#   From: 2010.05.17/outbox.cif.g08.bks.cpg/sg12_170_cif.got.tgz:338730.got - 2010.06.03 13:09:07.
