data_PCOD9207777
_publ_section_title
;
Structure prediction by ZEFSAII (Michael W. Deem and Ramdas Pophale) SiO2 
 PCOD9207777
Probable space group: C 2/M
;
_chemical_formula_sum "Si O2"
_cell_formula_units_Z 48
_cell_length_a 11.348804
_cell_length_b 16.619763
_cell_length_c 22.825006
_cell_angle_alpha 90.000000
_cell_angle_beta 31.359738
_cell_angle_gamma 90.000000
_cell_volume 2240.429142
_symmetry_space_group_name_H-M "C 2/M"
_symmetry_group_IT_number 12
_symmetry_cell_setting 'monoclinic'
loop_
_space_group_symop_operation_xyz
x,y,z
-x,y,-z
-x,-y,-z
x,-y,z
1/2+x,1/2+y,z
1/2-x,1/2+y,-z
1/2-x,1/2-y,-z
1/2+x,1/2-y,z
loop_
_atom_site_type_symbol
_atom_site_label
_atom_site_fract_x
_atom_site_fract_y
_atom_site_fract_z
Si Si1 0.803895 0.089449 0.631446
Si Si2 0.765770 0.274367 0.062712
Si Si3 0.423869 0.913656 0.466159
Si Si4 0.035939 0.797426 0.619529
Si Si5 0.361923 0.165638 0.782961
Si Si6 0.387683 0.403842 0.209001
O O1 0.573447 0.106371 0.695106
O O2 0.000000 0.090624 0.500000
O O3 0.854194 0.165671 0.652027
O O4 0.798374 0.000000 0.661288
O O5 0.681303 0.196665 0.133933
O O6 0.594469 0.349739 0.143353
O O7 0.750000 0.250000 0.000000
O O8 0.000000 0.292808 0.000000
O O9 0.500000 0.920624 0.500000
O O10 0.178989 0.875158 0.576500
O O11 0.645263 0.876387 0.340624
O O12 0.394593 0.000000 0.449071
O O13 0.250000 0.750000 0.500000
O O14 0.928268 0.744541 0.716317
O O15 0.154056 0.120377 0.840847
O O16 0.414021 0.500000 0.206697
#
# Coordination Sequence:
#
# PCOD9207777 Si02
#       6
#     8   8   8   8   8   8
#     4  11  23  39  60  96 144 184 219 266 326 404
#     4  12  27  50  76 101 131 174 232 301 352 403
#     4  10  21  37  59  92 138 180 216 264 330 405
#     4  12  22  34  61  98 133 178 221 263 320 396
#     4  12  24  42  70  99 134 180 230 278 338 402
#     4  11  23  44  71 102 137 179 225 281 346 414
#
# _framework density 21.424465999999999
#
# number of rings (size 3 to 8) (size 9 to 14) (size 15 to 20)
#    0.000    0.667    5.000    3.000    2.333    3.000 
#    0.000    3.333    0.000    0.000    0.000    0.000 
#    0.000    0.000    0.000    0.000    0.000    0.000 
#
# Total GULP energy -133792.530823 kJ/mol
# GULP energy per Si atom -5574.688784 kJ/mol
# Density = 2.137570 g / cm^3
# Si number density = 21.424466 Si / 1000 Ang^3
#
#
#
# Elastic Constant Matrix: (Units=GPa)
#
#
# Indices 1 2 3 4 5 6 
#
# 1 107.2836 21.9901 27.8380 -0.0028 -10.0812 -0.0107
# 2 21.9901 59.8820 16.3343 0.0043 -3.1525 -0.0043
# 3 27.8380 16.3343 51.2173 -0.0036 -2.2652 -0.0277
# 4 -0.0028 0.0043 -0.0036 14.7121 0.0036 -5.0906
# 5 -10.0812 -3.1525 -2.2652 0.0036 53.2316 0.0100
# 6 -0.0107 -0.0043 -0.0277 -5.0906 0.0100 43.9501
#
#
#
# Elastic Compliance Matrix: (Units=1/GPa)
#
#
# Indices 1 2 3 4 5 6 
#
# 1 0.011400 -0.002655 -0.005271 0.000001 0.001777 -0.000001
# 2 -0.002655 0.018946 -0.004581 -0.000008 0.000424 -0.000003
# 3 -0.005271 -0.004581 0.023839 0.000011 -0.000255 0.000015
# 4 0.000001 -0.000008 0.000011 0.070809 -0.000006 0.008202
# 5 0.001777 0.000424 -0.000255 -0.000006 0.019137 -0.000005
# 6 -0.000001 -0.000003 0.000015 0.008202 -0.000005 0.023703
#
#
# Mechanical properties :
#
#
# Convention : Reuss Voigt Hill
#
# Bulk Modulus (GPa) = 34.27884 38.96754 36.62319
# Shear Modulus (GPa) = 24.68270 32.52680 28.60475
#
# Velocity S-wave (km/s) = 3.39791 3.90065 3.65793
# Velocity P-wave (km/s) = 5.60616 6.20601 5.91369
#
# Compressibility (1/GPa) = 0.02917252
#
# Stress axis : x y z
#
# Youngs Moduli (GPa) = 87.71930 52.78082 41.94796
#
# Poissons Ratio (x) = 0.14013 0.22110
# Poissons Ratio (y) = 0.23290 0.19214
# Poissons Ratio (z) = 0.46236 0.24176
#
# Static dielectric constant tensor:
#      x y z
#    x 2.611990 -0.000680 -0.845180 
#    y -0.000680 1.495090 0.000670 
#    z -0.845180 0.000670 2.770160 
# 
# From -- ./inp_files/336400.got.cif
#   From: 2010.05.17/outbox.cif.g08.bks.cpg/sg12_169_cif.got.tgz:336400.got - 2010.06.03 13:09:07.
