data_PCOD9207699
_publ_section_title
;
Structure prediction by ZEFSAII (Michael W. Deem and Ramdas Pophale) SiO2 
 PCOD9207699
Probable space group: C 2/M
;
_chemical_formula_sum "Si O2"
_cell_formula_units_Z 56
_cell_length_a 9.517488
_cell_length_b 17.251849
_cell_length_c 17.409823
_cell_angle_alpha 90.000000
_cell_angle_beta 96.858304
_cell_angle_gamma 90.000000
_cell_volume 2838.138461
_symmetry_space_group_name_H-M "C 2/M"
_symmetry_group_IT_number 12
_symmetry_cell_setting 'monoclinic'
loop_
_space_group_symop_operation_xyz
x,y,z
-x,y,-z
-x,-y,-z
x,-y,z
1/2+x,1/2+y,z
1/2-x,1/2+y,-z
1/2-x,1/2-y,-z
1/2+x,1/2-y,z
loop_
_atom_site_type_symbol
_atom_site_label
_atom_site_fract_x
_atom_site_fract_y
_atom_site_fract_z
Si Si1 0.816288 0.588430 0.694521
Si Si2 0.861493 0.312738 0.043705
Si Si3 0.042948 0.906000 0.586972
Si Si4 0.580803 0.188747 0.768645
Si Si5 0.402564 0.364740 0.201532
Si Si6 0.171773 0.088913 0.288644
Si Si7 0.642861 0.589114 0.963526
O O1 0.865711 0.500000 0.680943
O O2 0.702888 0.616354 0.622536
O O3 0.712996 0.586652 0.760977
O O4 0.940648 0.646793 0.726656
O O5 0.900252 0.315280 0.136998
O O6 0.750000 0.250000 0.000000
O O7 0.778640 0.392655 0.022853
O O8 0.000000 0.306623 0.000000
O O9 0.920136 0.888410 0.641565
O O10 0.000000 0.877855 0.500000
O O11 0.047947 0.000000 0.586417
O O12 0.582174 0.281130 0.757636
O O13 0.707392 0.147111 0.730813
O O14 0.552660 0.406699 0.214945
O O15 0.355462 0.358330 0.111659
O O16 0.222138 0.000000 0.300869
O O17 0.640041 0.500000 0.939131
O O18 0.500000 0.606159 0.000000
#
# Coordination Sequence:
#
# PCOD9207699 Si02
#       7
#     8   8   8   8   8   8   8
#     4  10  21  37  59  89 120 155 202 250 303 365
#     4  12  26  41  59  82 119 164 213 266 323 383
#     4   8  16  36  66  95 126 164 203 245 300 377
#     4  12  24  36  61  85 124 158 202 263 315 367
#     4  11  21  37  59  80 114 158 206 249 298 378
#     4  10  21  37  61  92 121 157 207 253 303 367
#     4  11  23  39  61  86 115 157 211 267 323 378
#
# _framework density 19.731242000000002
#
# number of rings (size 3 to 8) (size 9 to 14) (size 15 to 20)
#    0.000    1.429    1.429    5.571    2.000    2.571 
#    0.000    0.714    0.000   17.143    0.000    0.000 
#    0.000    0.000    0.000    0.000    0.000    0.286 
#
# Total GULP energy -156078.826918 kJ/mol
# GULP energy per Si atom -5574.243818 kJ/mol
# Density = 1.968633 g / cm^3
# Si number density = 19.731242 Si / 1000 Ang^3
#
#
#
# Elastic Constant Matrix: (Units=GPa)
#
#
# Indices 1 2 3 4 5 6 
#
# 1 103.9979 25.6722 28.3928 0.0000 11.7903 0.0000
# 2 25.6722 84.7996 22.4804 0.0000 -1.2879 0.0000
# 3 28.3928 22.4804 126.7693 0.0000 12.0356 0.0000
# 4 0.0000 0.0000 0.0000 14.1707 0.0000 9.5503
# 5 11.7903 -1.2879 12.0356 0.0000 16.2137 0.0000
# 6 0.0000 0.0000 0.0000 9.5503 0.0000 20.5145
#
#
#
# Elastic Compliance Matrix: (Units=1/GPa)
#
#
# Indices 1 2 3 4 5 6 
#
# 1 0.011667 -0.003309 -0.001286 0.000000 -0.007792 0.000000
# 2 -0.003309 0.013433 -0.002120 0.000000 0.005047 0.000000
# 3 -0.001286 -0.002120 0.009123 0.000000 -0.006005 0.000000
# 4 0.000000 0.000000 0.000000 0.102832 0.000000 -0.047872
# 5 -0.007792 0.005047 -0.006005 0.000000 0.072201 0.000000
# 6 0.000000 0.000000 0.000000 -0.047872 0.000000 0.071032
#
#
# Mechanical properties :
#
#
# Convention : Reuss Voigt Hill
#
# Bulk Modulus (GPa) = 48.09822 52.07306 50.08564
# Shear Modulus (GPa) = 16.63064 26.11455 21.37260
#
# Velocity S-wave (km/s) = 2.90635 3.64196 3.29475
# Velocity P-wave (km/s) = 5.97429 6.64331 6.31766
#
# Compressibility (1/GPa) = 0.02079079
#
# Stress axis : x y z
#
# Youngs Moduli (GPa) = 85.71098 74.44300 109.61873
#
# Poissons Ratio (x) = 0.24636 0.14102
# Poissons Ratio (y) = 0.28365 0.23240
# Poissons Ratio (z) = 0.11026 0.15783
#
# Static dielectric constant tensor:
#      x y z
#    x 1.678120 0.000000 0.025750 
#    y 0.000000 1.661020 0.000000 
#    z 0.025750 0.000000 1.716370 
# 
# From -- ./inp_files/257145.got.cif
#   From: 2010.05.17/outbox.cif.g08.bks.cpg/sg12_129_cif.got.tgz:257145.got - 2010.06.03 13:09:07.
