data_PCOD9207575
_publ_section_title
;
Structure prediction by ZEFSAII (Michael W. Deem and Ramdas Pophale) SiO2 
 PCOD9207575
Probable space group: C 2/M
;
_chemical_formula_sum "Si O2"
_cell_formula_units_Z 48
_cell_length_a 21.160138
_cell_length_b 8.448371
_cell_length_c 23.071034
_cell_angle_alpha 90.000000
_cell_angle_beta 143.378783
_cell_angle_gamma 90.000000
_cell_volume 2460.283118
_symmetry_space_group_name_H-M "C 2/M"
_symmetry_group_IT_number 12
_symmetry_cell_setting 'monoclinic'
loop_
_space_group_symop_operation_xyz
x,y,z
-x,y,-z
-x,-y,-z
x,-y,z
1/2+x,1/2+y,z
1/2-x,1/2+y,-z
1/2-x,1/2-y,-z
1/2+x,1/2-y,z
loop_
_atom_site_type_symbol
_atom_site_label
_atom_site_fract_x
_atom_site_fract_y
_atom_site_fract_z
Si Si1 0.339667 0.189722 0.109600
Si Si2 0.486487 0.806808 0.556398
Si Si3 0.737639 0.191473 0.556204
Si Si4 0.589665 0.810306 0.111656
Si Si5 0.308699 0.191770 0.219463
Si Si6 0.440333 0.310179 0.780290
O O1 0.315913 0.243130 0.157832
O O2 0.453849 0.247665 0.172243
O O3 0.339163 0.000000 0.108945
O O4 0.250000 0.250000 0.000000
O O5 0.500000 0.755530 0.500000
O O6 0.374391 0.754541 0.499908
O O7 0.585999 0.757258 0.668608
O O8 0.485864 0.000000 0.555993
O O9 0.750000 0.250000 0.500000
O O10 0.836359 0.243825 0.668377
O O11 0.737262 0.000000 0.555860
O O12 0.703682 0.754508 0.172935
O O13 0.566521 0.745617 0.158530
O O14 0.587358 0.000000 0.112137
O O15 0.500000 0.756390 0.000000
O O16 0.305220 0.000000 0.218108
O O17 0.442453 0.500000 0.781137
#
# Coordination Sequence:
#
# PCOD9207575 Si02
#       6
#     8   8   8   8   8   8
#     4  11  23  39  60  86 118 155 195 241 292 346
#     4   9  17  33  57  82 109 143 184 227 274 333
#     4  10  21  37  59  86 116 152 192 236 286 344
#     4  11  24  40  59  84 115 152 194 243 297 350
#     4  10  21  37  59  85 113 149 190 234 287 346
#     4  11  23  39  61  88 118 155 198 241 290 350
#
# _framework density 19.509948999999999
#
# number of rings (size 3 to 8) (size 9 to 14) (size 15 to 20)
#    0.000    1.667    0.000    4.500    0.000   10.667 
#    0.000    0.833    0.000    2.000    0.000    0.000 
#    0.000    0.000    0.000    0.000    0.000    0.000 
#
# Total GULP energy -134192.633533 kJ/mol
# GULP energy per Si atom -5591.359731 kJ/mol
# Density = 1.946554 g / cm^3
# Si number density = 19.509949 Si / 1000 Ang^3
#
#
#
# Elastic Constant Matrix: (Units=GPa)
#
#
# Indices 1 2 3 4 5 6 
#
# 1 67.9973 -0.9449 -31.0949 0.0000 0.4302 0.0000
# 2 -0.9449 18.1376 1.3635 0.0000 -0.5768 0.0000
# 3 -31.0949 1.3635 57.9282 0.0000 0.6062 0.0000
# 4 0.0000 0.0000 0.0000 24.8675 0.0000 0.6693
# 5 0.4302 -0.5768 0.6062 0.0000 46.6142 0.0000
# 6 0.0000 0.0000 0.0000 0.6693 0.0000 37.3356
#
#
#
# Elastic Compliance Matrix: (Units=1/GPa)
#
#
# Indices 1 2 3 4 5 6 
#
# 1 0.019496 0.000219 0.010463 0.000000 -0.000313 0.000000
# 2 0.000219 0.055257 -0.001190 0.000000 0.000697 0.000000
# 3 0.010463 -0.001190 0.022912 0.000000 -0.000409 0.000000
# 4 0.000000 0.000000 0.000000 0.040232 0.000000 -0.000721
# 5 -0.000313 0.000697 -0.000409 0.000000 0.021470 0.000000
# 6 0.000000 0.000000 0.000000 -0.000721 0.000000 0.026797
#
#
# Mechanical properties :
#
#
# Convention : Reuss Voigt Hill
#
# Bulk Modulus (GPa) = 8.57266 9.19004 8.88135
# Shear Modulus (GPa) = 24.26444 33.41277 28.83860
#
# Velocity S-wave (km/s) = 3.53043 4.14285 3.84884
# Velocity P-wave (km/s) = 4.58499 5.25404 4.93088
#
# Compressibility (1/GPa) = 0.11664992
#
# Stress axis : x y z
#
# Youngs Moduli (GPa) = 51.29147 18.09721 43.64584
#
# Poissons Ratio (x) = -0.00397 -0.45669
# Poissons Ratio (y) = -0.01124 0.05195
# Poissons Ratio (z) = -0.53669 0.02154
#
# Static dielectric constant tensor:
#      x y z
#    x 1.636630 0.000000 0.001250 
#    y 0.000000 1.677530 0.000000 
#    z 0.001250 0.000000 1.664600 
# 
# From -- ./inp_files/229326.got.cif
#   From: 2010.05.17/outbox.cif.g08.bks.cpg/sg12_115_cif.got.tgz:229326.got - 2010.06.03 13:09:07.
