data_PCOD9207950
_publ_section_title
;
Structure prediction by ZEFSAII (Michael W. Deem and Ramdas Pophale) SiO2 
 PCOD9207950
Probable space group: C 2/M
;
_chemical_formula_sum "Si O2"
_cell_formula_units_Z 64
_cell_length_a 25.779787
_cell_length_b 17.629853
_cell_length_c 23.068528
_cell_angle_alpha 90.000000
_cell_angle_beta 19.206964
_cell_angle_gamma 90.000000
_cell_volume 3449.207174
_symmetry_space_group_name_H-M "C 2/M"
_symmetry_group_IT_number 12
_symmetry_cell_setting 'monoclinic'
loop_
_space_group_symop_operation_xyz
x,y,z
-x,y,-z
-x,-y,-z
x,-y,z
1/2+x,1/2+y,z
1/2-x,1/2+y,-z
1/2-x,1/2-y,-z
1/2+x,1/2-y,z
loop_
_atom_site_type_symbol
_atom_site_label
_atom_site_fract_x
_atom_site_fract_y
_atom_site_fract_z
Si Si1 0.405029 0.825505 0.455816
Si Si2 0.869566 0.086876 0.394055
Si Si3 0.106678 0.913079 0.769491
Si Si4 0.886708 0.309687 0.869988
Si Si5 0.354423 0.210328 0.317787
Si Si6 0.945409 0.234360 0.991609
Si Si7 0.588107 0.715541 0.347715
Si Si8 0.156457 0.089498 0.179870
O O1 0.287734 0.893403 0.596445
O O2 0.537659 0.843011 0.268184
O O3 0.283825 0.768299 0.551830
O O4 0.486237 0.779582 0.421854
O O5 0.898958 0.095673 0.294477
O O6 0.731032 0.138046 0.565558
O O7 0.025602 0.099937 0.267565
O O8 0.822640 0.000000 0.452082
O O9 0.066634 0.000000 0.826227
O O10 0.995869 0.848978 0.914761
O O11 0.020397 0.265983 0.765447
O O12 0.750000 0.250000 0.000000
O O13 0.815916 0.375355 0.985072
O O14 0.455544 0.206408 0.152304
O O15 0.761687 0.251497 0.177448
O O16 0.000000 0.240197 0.000000
O O17 0.500000 0.695540 0.500000
O O18 0.606659 0.642957 0.285960
O O19 0.167732 0.000000 0.181525
#
# Coordination Sequence:
#
# PCOD9207950 Si02
#       8
#     8   8   8   8   8   8   8   8
#     4  11  22  35  65  91 122 157 205 251 305 368
#     4  10  21  37  60  92 127 164 197 238 312 376
#     4  10  23  41  63  93 129 161 196 252 319 374
#     4  12  21  34  60  92 125 161 201 253 308 368
#     4  11  20  37  61  88 121 157 202 252 299 360
#     4  11  25  41  64  91 116 162 214 259 303 363
#     4  12  24  43  65  88 120 161 217 259 299 365
#     4  11  25  40  60  93 131 166 204 255 313 366
#
# _framework density 18.554988000000002
#
# number of rings (size 3 to 8) (size 9 to 14) (size 15 to 20)
#    0.000    1.000    5.000    1.875    7.000    1.500 
#    0.000    0.625    0.000    2.250    0.000    0.000 
#    0.000    0.000    0.000    0.000    0.000    0.000 
#
# Total GULP energy -178690.929552 kJ/mol
# GULP energy per Si atom -5584.091549 kJ/mol
# Density = 1.851276 g / cm^3
# Si number density = 18.554988 Si / 1000 Ang^3
#
#
#
# Elastic Constant Matrix: (Units=GPa)
#
#
# Indices 1 2 3 4 5 6 
#
# 1 105.2004 31.6334 29.0789 -0.0002 -5.5600 0.0022
# 2 31.6334 68.3708 20.6565 0.0021 -7.5248 0.0031
# 3 29.0789 20.6565 89.3316 0.0241 -0.9313 0.0017
# 4 -0.0002 0.0021 0.0241 27.2988 0.0102 -0.8342
# 5 -5.5600 -7.5248 -0.9313 0.0102 36.8647 -0.0055
# 6 0.0022 0.0031 0.0017 -0.8342 -0.0055 12.1395
#
#
#
# Elastic Compliance Matrix: (Units=1/GPa)
#
#
# Indices 1 2 3 4 5 6 
#
# 1 0.011652 -0.004475 -0.002750 0.000003 0.000775 0.000000
# 2 -0.004475 0.017810 -0.002631 0.000000 0.002894 -0.000002
# 3 -0.002750 -0.002631 0.012691 -0.000011 -0.000631 -0.000002
# 4 0.000003 0.000000 -0.000011 0.036709 -0.000010 0.002522
# 5 0.000775 0.002894 -0.000631 -0.000010 0.027818 0.000011
# 6 0.000000 -0.000002 -0.000002 0.002522 0.000011 0.082549
#
#
# Mechanical properties :
#
#
# Convention : Reuss Voigt Hill
#
# Bulk Modulus (GPa) = 44.56229 47.29340 45.92785
# Shear Modulus (GPa) = 23.10288 27.36287 25.23288
#
# Velocity S-wave (km/s) = 3.53243 3.84434 3.69168
# Velocity P-wave (km/s) = 6.38012 6.72672 6.55571
#
# Compressibility (1/GPa) = 0.02244050
#
# Stress axis : x y z
#
# Youngs Moduli (GPa) = 85.81890 56.14770 78.79369
#
# Poissons Ratio (x) = 0.25127 0.21670
# Poissons Ratio (y) = 0.38405 0.20734
# Poissons Ratio (z) = 0.23602 0.14775
#
# Static dielectric constant tensor:
#      x y z
#    x 1.643470 0.000000 -0.005600 
#    y 0.000000 1.654180 0.000000 
#    z -0.005600 0.000000 1.668100 
# 
# From -- ./inp_files/326075.got.cif
#   From: 2010.05.17/outbox.cif.g08.bks.cpg/sg12_164_cif.got.tgz:326075.got - 2010.06.03 13:09:07.
