data_PCOD9207530
_publ_section_title
;
Structure prediction by ZEFSAII (Michael W. Deem and Ramdas Pophale) SiO2 
 PCOD9207530
Probable space group: C 2/M
;
_chemical_formula_sum "Si O2"
_cell_formula_units_Z 58
_cell_length_a 24.881447
_cell_length_b 9.351109
_cell_length_c 23.844132
_cell_angle_alpha 90.000000
_cell_angle_beta 150.141761
_cell_angle_gamma 90.000000
_cell_volume 2762.000812
_symmetry_space_group_name_H-M "C 2/M"
_symmetry_group_IT_number 12
_symmetry_cell_setting 'monoclinic'
loop_
_space_group_symop_operation_xyz
x,y,z
-x,y,-z
-x,-y,-z
x,-y,z
1/2+x,1/2+y,z
1/2-x,1/2+y,-z
1/2-x,1/2-y,-z
1/2+x,1/2-y,z
loop_
_atom_site_type_symbol
_atom_site_label
_atom_site_fract_x
_atom_site_fract_y
_atom_site_fract_z
Si Si1 0.887133 0.666199 0.705918
Si Si2 0.459121 0.727563 0.884378
Si Si3 0.985137 0.671777 0.676210
Si Si4 0.500000 0.000000 0.000000
Si Si5 0.355516 0.333420 0.466197
Si Si6 0.720207 0.841284 0.703177
Si Si7 0.802287 0.158508 0.898252
Si Si8 0.292726 0.670276 0.093537
O O1 0.918409 0.500000 0.740247
O O2 0.955267 0.752724 0.813476
O O3 0.762503 0.678575 0.611255
O O4 0.909170 0.704210 0.661491
O O5 0.461622 0.876034 0.920276
O O6 0.345280 0.657302 0.796573
O O7 0.571281 0.654670 0.002077
O O8 0.999205 0.500000 0.685263
O O9 0.095010 0.755265 0.788379
O O10 0.934135 0.735540 0.573816
O O11 0.340470 0.273339 0.389836
O O12 0.112933 0.000000 0.504793
O O13 0.730075 0.812176 0.778176
O O14 0.674345 0.000000 0.653011
O O15 0.786083 0.285676 0.927120
O O16 0.772871 0.000000 0.893886
O O17 0.300632 0.500000 0.093519
O O18 0.250000 0.750000 0.000000
#
# Coordination Sequence:
#
# PCOD9207530 Si02
#       8
#     8   8   8   2   8   8   8   8
#     4   9  19  33  55  87 121 157 197 238 290 350
#     4  11  20  32  56  88 129 163 200 243 299 358
#     4  11  22  41  63  86 119 159 201 250 298 353
#     4  12  20  28  54  92 132 162 206 240 306 356
#     4  10  21  37  61  90 123 155 197 245 299 359
#     4  10  21  37  58  89 124 160 196 243 301 362
#     4  11  23  39  60  87 121 160 204 251 304 359
#     4  12  27  45  66  89 119 156 202 249 299 354
#
# _framework density 20.999269999999999
#
# number of rings (size 3 to 8) (size 9 to 14) (size 15 to 20)
#    0.000    1.379    2.069    3.724    1.931    2.759 
#    0.000    7.586    0.000    4.138    0.000    0.000 
#    0.000    0.000    0.000    0.000    0.000    0.000 
#
# Total GULP energy -161735.301893 kJ/mol
# GULP energy per Si atom -5577.079376 kJ/mol
# Density = 2.095147 g / cm^3
# Si number density = 20.999270 Si / 1000 Ang^3
#
#
#
# Elastic Constant Matrix: (Units=GPa)
#
#
# Indices 1 2 3 4 5 6 
#
# 1 24.1424 29.1941 10.1077 0.0000 -14.9187 0.0000
# 2 29.1941 155.2766 58.8336 0.0000 -19.2395 0.0000
# 3 10.1077 58.8336 98.5982 0.0000 -30.1148 0.0000
# 4 0.0000 0.0000 0.0000 14.3577 0.0000 -17.4634
# 5 -14.9187 -19.2395 -30.1148 0.0000 24.5249 0.0000
# 6 0.0000 0.0000 0.0000 -17.4634 0.0000 9.9394
#
#
#
# Elastic Compliance Matrix: (Units=1/GPa)
#
#
# Indices 1 2 3 4 5 6 
#
# 1 0.101269 -0.018710 0.024186 0.000000 0.076623 0.000000
# 2 -0.018710 0.011786 -0.009227 0.000000 -0.013466 0.000000
# 3 0.024186 -0.009227 0.024724 0.000000 0.037833 0.000000
# 4 0.000000 0.000000 0.000000 -0.061254 0.000000 -0.107622
# 5 0.076623 -0.013466 0.037833 0.000000 0.123277 0.000000
# 6 0.000000 0.000000 0.000000 -0.107622 0.000000 -0.088482
#
#
# Mechanical properties :
#
#
# Convention : Reuss Voigt Hill
#
# Bulk Modulus (GPa) = 7.67604 52.69868 30.18736
# Shear Modulus (GPa) = 30.81697 21.75652 26.28674
#
# Velocity S-wave (km/s) = 3.83499 3.22228 3.54191
# Velocity P-wave (km/s) = 4.82419 6.24453 5.57974
#
# Compressibility (1/GPa) = 0.13027554
#
# Stress axis : x y z
#
# Youngs Moduli (GPa) = 9.87469 84.84991 40.44640
#
# Poissons Ratio (x) = 1.58753 -0.97823
# Poissons Ratio (y) = 0.18475 0.37322
# Poissons Ratio (z) = -0.23883 0.78295
#
# Static dielectric constant tensor:
#      x y z
#    x 1.809610 0.000000 0.017320 
#    y 0.000000 1.742920 0.000000 
#    z 0.017320 0.000000 1.744970 
# 
# From -- ./inp_files/351468.got.cif
#   From: 2010.05.17/outbox.cif.g08.bks.cpg/sg12_176_cif.got.tgz:351468.got - 2010.06.03 13:09:07.
