data_PCOD9207768
_publ_section_title
;
Structure prediction by ZEFSAII (Michael W. Deem and Ramdas Pophale) SiO2 
 PCOD9207768
Probable space group: C 2/M
;
_chemical_formula_sum "Si O2"
_cell_formula_units_Z 48
_cell_length_a 11.596972
_cell_length_b 14.459678
_cell_length_c 13.279232
_cell_angle_alpha 90.000000
_cell_angle_beta 118.044593
_cell_angle_gamma 90.000000
_cell_volume 1965.310726
_symmetry_space_group_name_H-M "C 2/M"
_symmetry_group_IT_number 12
_symmetry_cell_setting 'monoclinic'
loop_
_space_group_symop_operation_xyz
x,y,z
-x,y,-z
-x,-y,-z
x,-y,z
1/2+x,1/2+y,z
1/2-x,1/2+y,-z
1/2-x,1/2-y,-z
1/2+x,1/2-y,z
loop_
_atom_site_type_symbol
_atom_site_label
_atom_site_fract_x
_atom_site_fract_y
_atom_site_fract_z
Si Si1 0.654684 0.347145 0.576728
Si Si2 0.478666 0.219922 0.227405
Si Si3 0.171708 0.390463 0.170112
Si Si4 0.012626 0.102599 0.890206
Si Si5 0.114057 0.347528 0.477647
Si Si6 0.183763 0.394227 0.956772
O O1 0.500000 0.372028 0.500000
O O2 0.700269 0.368110 0.709892
O O3 0.761976 0.387547 0.537846
O O4 0.670942 0.236923 0.566472
O O5 0.557704 0.145303 0.194199
O O6 0.520084 0.319344 0.203259
O O7 0.525290 0.203367 0.357766
O O8 0.335790 0.180912 0.139875
O O9 0.168953 0.500000 0.157370
O O10 0.139722 0.353761 0.046183
O O11 0.166957 0.093386 0.949514
O O12 0.951432 0.000000 0.851816
O O13 0.000000 0.133341 0.000000
O O14 0.000000 0.396341 0.500000
O O15 0.139422 0.500000 0.913386
#
# Coordination Sequence:
#
# PCOD9207768 Si02
#       6
#     8   8   8   8   8   8
#     4   9  19  37  59  85 124 167 210 267 320 368
#     4  11  21  37  64  90 120 165 207 255 326 383
#     4  10  21  37  62  93 126 157 205 265 318 383
#     4  10  22  39  55  84 128 163 201 251 308 388
#     4   9  20  38  59  89 124 164 219 274 311 374
#     4  10  21  37  59  92 127 157 199 256 317 387
#
# _framework density 24.423618999999999
#
# number of rings (size 3 to 8) (size 9 to 14) (size 15 to 20)
#    0.000    2.167    0.000    2.500    4.667    1.667 
#    9.000    0.833    0.000   13.000    0.000    0.000 
#    0.000    3.333    0.000    0.000    0.000    0.000 
#
# Total GULP energy -133623.433603 kJ/mol
# GULP energy per Si atom -5567.643067 kJ/mol
# Density = 2.436803 g / cm^3
# Si number density = 24.423619 Si / 1000 Ang^3
#
#
#
# Elastic Constant Matrix: (Units=GPa)
#
#
# Indices 1 2 3 4 5 6 
#
# 1 126.3730 -1.2599 11.7468 0.0000 -4.7038 0.0000
# 2 -1.2599 109.8350 38.0298 0.0000 -5.0557 0.0000
# 3 11.7468 38.0298 99.9122 0.0000 -0.4518 0.0000
# 4 0.0000 0.0000 0.0000 -16.1013 0.0000 -10.6458
# 5 -4.7038 -5.0557 -0.4518 0.0000 36.0617 0.0000
# 6 0.0000 0.0000 0.0000 -10.6458 0.0000 -0.3837
#
#
#
# Elastic Compliance Matrix: (Units=1/GPa)
#
#
# Indices 1 2 3 4 5 6 
#
# 1 0.008067 0.000542 -0.001150 0.000000 0.001114 0.000000
# 2 0.000542 0.010596 -0.004090 0.000000 0.001505 0.000000
# 3 -0.001150 -0.004090 0.011698 0.000000 -0.000577 0.000000
# 4 0.000000 0.000000 0.000000 0.003580 0.000000 -0.099348
# 5 0.001114 0.001505 -0.000577 0.000000 0.028079 0.000000
# 6 0.000000 0.000000 0.000000 -0.099348 0.000000 0.150259
#
#
# Mechanical properties :
#
#
# Convention : Reuss Voigt Hill
#
# Bulk Modulus (GPa) = 47.69779 48.12820 47.91299
# Shear Modulus (GPa) = 21.86611 23.08892 22.47751
#
# Velocity S-wave (km/s) = 2.99538 3.07799 3.03697
# Velocity P-wave (km/s) = 5.61559 5.69038 5.65311
#
# Compressibility (1/GPa) = 0.02096533
#
# Stress axis : x y z
#
# Youngs Moduli (GPa) = 123.96484 94.37300 85.48327
#
# Poissons Ratio (x) = -0.05114 0.09827
# Poissons Ratio (y) = -0.06717 0.34964
# Poissons Ratio (z) = 0.14251 0.38600
#
# Static dielectric constant tensor:
#      x y z
#    x 1.854270 0.000000 0.379160 
#    y 0.000000 2.064580 0.000000 
#    z 0.379160 0.000000 2.034340 
# 
# From -- ./inp_files/205151.got.cif
#   From: 2010.05.17/outbox.cif.g08.bks.cpg/sg12_103_cif.got.tgz:205151.got - 2010.06.03 13:09:07.
