data_PCOD9207567
_publ_section_title
;
Structure prediction by ZEFSAII (Michael W. Deem and Ramdas Pophale) SiO2 
 PCOD9207567
Probable space group: C 2/M
;
_chemical_formula_sum "Si O2"
_cell_formula_units_Z 48
_cell_length_a 14.362868
_cell_length_b 13.377903
_cell_length_c 15.471534
_cell_angle_alpha 90.000000
_cell_angle_beta 48.671566
_cell_angle_gamma 90.000000
_cell_volume 2232.368082
_symmetry_space_group_name_H-M "C 2/M"
_symmetry_group_IT_number 12
_symmetry_cell_setting 'monoclinic'
loop_
_space_group_symop_operation_xyz
x,y,z
-x,y,-z
-x,-y,-z
x,-y,z
1/2+x,1/2+y,z
1/2-x,1/2+y,-z
1/2-x,1/2-y,-z
1/2+x,1/2-y,z
loop_
_atom_site_type_symbol
_atom_site_label
_atom_site_fract_x
_atom_site_fract_y
_atom_site_fract_z
Si Si1 0.138938 0.382237 0.224225
Si Si2 0.880175 0.620489 0.442995
Si Si3 0.413295 0.615677 0.132917
Si Si4 0.895522 0.617668 0.945360
Si Si5 0.814843 0.384464 0.175466
Si Si6 0.293759 0.250229 0.333225
O O1 0.110904 0.500000 0.227979
O O2 0.273435 0.379131 0.182910
O O3 0.132228 0.338570 0.131453
O O4 0.025432 0.350967 0.354670
O O5 0.864001 0.500000 0.454717
O O6 0.801178 0.672295 0.566276
O O7 0.833555 0.670825 0.382009
O O8 0.445178 0.500000 0.133057
O O9 0.406006 0.684628 0.222035
O O10 0.500000 0.648535 0.000000
O O11 0.861444 0.500000 0.965202
O O12 0.042067 0.618775 0.877950
O O13 0.821818 0.656770 0.073913
O O14 0.776092 0.500000 0.200747
O O15 0.741331 0.315683 0.286405
#
# Coordination Sequence:
#
# PCOD9207567 Si02
#       6
#     8   8   8   8   8   8
#     4   9  17  35  60  82 111 149 192 238 280 326
#     4  10  21  37  59  85 110 145 197 246 281 329
#     4  10  23  40  57  82 118 154 186 230 290 350
#     4   8  14  26  50  81 111 145 180 229 284 323
#     4   9  16  28  51  84 121 147 181 234 283 335
#     4  11  21  33  55  85 116 150 187 231 289 339
#
# _framework density 21.501830000000002
#
# number of rings (size 3 to 8) (size 9 to 14) (size 15 to 20)
#    0.000    2.500    1.667    2.000    2.333    0.667 
#    0.000    5.833    0.000    0.000    0.000   25.667 
#    0.000    0.000    0.000    0.000    0.000    0.000 
#
# Total GULP energy -133879.019522 kJ/mol
# GULP energy per Si atom -5578.292480 kJ/mol
# Density = 2.145289 g / cm^3
# Si number density = 21.501830 Si / 1000 Ang^3
#
#
#
# Elastic Constant Matrix: (Units=GPa)
#
#
# Indices 1 2 3 4 5 6 
#
# 1 22.5131 12.3679 15.5728 0.0000 -3.4564 0.0000
# 2 12.3679 125.7642 71.5427 0.0000 5.3598 0.0000
# 3 15.5728 71.5427 168.7878 0.0000 4.0855 0.0000
# 4 0.0000 0.0000 0.0000 32.8900 0.0000 2.2568
# 5 -3.4564 5.3598 4.0855 0.0000 23.1172 0.0000
# 6 0.0000 0.0000 0.0000 2.2568 0.0000 19.1206
#
#
#
# Elastic Compliance Matrix: (Units=1/GPa)
#
#
# Indices 1 2 3 4 5 6 
#
# 1 0.049975 -0.003356 -0.003402 0.000000 0.008852 0.000000
# 2 -0.003356 0.010766 -0.004199 0.000000 -0.002256 0.000000
# 3 -0.003402 -0.004199 0.008042 0.000000 -0.000956 0.000000
# 4 0.000000 0.000000 0.000000 0.030653 0.000000 -0.003618
# 5 0.008852 -0.002256 -0.000956 0.000000 0.045273 0.000000
# 6 0.000000 0.000000 0.000000 -0.003618 0.000000 0.052727
#
#
# Mechanical properties :
#
#
# Convention : Reuss Voigt Hill
#
# Bulk Modulus (GPa) = 21.33700 57.33685 39.33693
# Shear Modulus (GPa) = 21.27896 29.53100 25.40498
#
# Velocity S-wave (km/s) = 3.14926 3.70999 3.44106
# Velocity P-wave (km/s) = 4.81338 6.71386 5.84143
#
# Compressibility (1/GPa) = 0.04686694
#
# Stress axis : x y z
#
# Youngs Moduli (GPa) = 20.01002 92.88190 124.35440
#
# Poissons Ratio (x) = 0.31174 0.42311
# Poissons Ratio (y) = 0.06716 0.52219
# Poissons Ratio (z) = 0.06808 0.39003
#
# Static dielectric constant tensor:
#      x y z
#    x 1.774630 0.000000 0.034130 
#    y 0.000000 1.851810 0.000000 
#    z 0.034130 0.000000 1.826330 
# 
# From -- ./inp_files/214651.got.cif
#   From: 2010.05.17/outbox.cif.g08.bks.cpg/sg12_108_cif.got.tgz:214651.got - 2010.06.03 13:09:07.
