data_PCOD9207740
_publ_section_title
;
Structure prediction by ZEFSAII (Michael W. Deem and Ramdas Pophale) SiO2 
 PCOD9207740
Probable space group: C 2/M
;
_chemical_formula_sum "Si O2"
_cell_formula_units_Z 24
_cell_length_a 11.101444
_cell_length_b 9.254449
_cell_length_c 11.533635
_cell_angle_alpha 90.000000
_cell_angle_beta 56.470851
_cell_angle_gamma 90.000000
_cell_volume 987.771544
_symmetry_space_group_name_H-M "C 2/M"
_symmetry_group_IT_number 12
_symmetry_cell_setting 'monoclinic'
loop_
_space_group_symop_operation_xyz
x,y,z
-x,y,-z
-x,-y,-z
x,-y,z
1/2+x,1/2+y,z
1/2-x,1/2+y,-z
1/2-x,1/2-y,-z
1/2+x,1/2-y,z
loop_
_atom_site_type_symbol
_atom_site_label
_atom_site_fract_x
_atom_site_fract_y
_atom_site_fract_z
Si Si1 0.675062 0.672798 0.929322
Si Si2 0.056648 0.838196 0.583700
Si Si3 0.336521 0.158676 0.287070
O O1 0.702972 0.500000 0.916574
O O2 0.730167 0.754944 0.784554
O O3 0.500000 0.690713 0.000000
O O4 0.750000 0.750000 0.000000
O O5 0.220141 0.861208 0.451600
O O6 0.047250 0.757249 0.709210
O O7 0.000000 0.757241 0.500000
O O8 0.990358 0.000000 0.628715
O O9 0.388295 0.000000 0.223326
#
# Coordination Sequence:
#
# PCOD9207740 Si02
#       3
#     8   8   8
#     4  11  26  46  68  94 129 172 216 266 323 381
#     4   9  19  36  59  86 121 162 201 252 316 377
#     4  10  21  37  59  90 123 159 208 260 314 375
#
# _framework density 24.297115999999999
#
# number of rings (size 3 to 8) (size 9 to 14) (size 15 to 20)
#    0.000    2.000    0.000    2.000    4.667    4.667 
#    0.000    0.000    0.000    0.000    0.000    0.000 
#    0.000    0.000    0.000    0.000    0.000    0.000 
#
# Total GULP energy -66849.052912 kJ/mol
# GULP energy per Si atom -5570.754409 kJ/mol
# Density = 2.424182 g / cm^3
# Si number density = 24.297116 Si / 1000 Ang^3
#
#
#
# Elastic Constant Matrix: (Units=GPa)
#
#
# Indices 1 2 3 4 5 6 
#
# 1 121.4681 74.9332 55.3878 0.0000 58.6933 0.0000
# 2 74.9332 190.0441 76.7787 0.0000 57.9358 0.0000
# 3 55.3878 76.7787 107.2767 0.0000 47.6238 0.0000
# 4 0.0000 0.0000 0.0000 -9.2930 0.0000 24.9762
# 5 58.6933 57.9358 47.6238 0.0000 73.8800 0.0000
# 6 0.0000 0.0000 0.0000 24.9762 0.0000 29.0304
#
#
#
# Elastic Compliance Matrix: (Units=1/GPa)
#
#
# Indices 1 2 3 4 5 6 
#
# 1 0.014784 -0.002363 -0.002172 0.000000 -0.008492 0.000000
# 2 -0.002363 0.008422 -0.003795 0.000000 -0.002281 0.000000
# 3 -0.002172 -0.003795 0.015511 0.000000 -0.005297 0.000000
# 4 0.000000 0.000000 0.000000 -0.032487 0.000000 0.027950
# 5 -0.008492 -0.002281 -0.005297 0.000000 0.025485 0.000000
# 6 0.000000 0.000000 0.000000 0.027950 0.000000 0.010400
#
#
# Mechanical properties :
#
#
# Convention : Reuss Voigt Hill
#
# Bulk Modulus (GPa) = 45.33811 92.55425 68.94618
# Shear Modulus (GPa) = 75.61207 32.83609 54.22408
#
# Velocity S-wave (km/s) = 5.58456 3.68018 4.72922
# Velocity P-wave (km/s) = 7.76424 7.49891 7.63273
#
# Compressibility (1/GPa) = 0.02205650
#
# Stress axis : x y z
#
# Youngs Moduli (GPa) = 67.64060 118.73236 64.47109
#
# Poissons Ratio (x) = 0.28055 0.14004
# Poissons Ratio (y) = 0.15983 0.24469
# Poissons Ratio (z) = 0.14692 0.45063
#
# Static dielectric constant tensor:
#      x y z
#    x 2.089670 0.000000 -0.159810 
#    y 0.000000 2.046530 0.000000 
#    z -0.159810 0.000000 1.982360 
# 
# From -- ./inp_files/126348.got.cif
#   From: 2010.05.17/outbox.cif.g08.bks.cpg/sg12_64_cif.got.tgz:126348.got - 2010.06.03 13:09:07.
