data_PCOD9207434
_publ_section_title
;
Structure prediction by ZEFSAII (Michael W. Deem and Ramdas Pophale) SiO2 
 PCOD9207434
Probable space group: C 2/M
;
_chemical_formula_sum "Si O2"
_cell_formula_units_Z 56
_cell_length_a 19.499370
_cell_length_b 7.665531
_cell_length_c 19.410694
_cell_angle_alpha 90.000000
_cell_angle_beta 58.157074
_cell_angle_gamma 90.000000
_cell_volume 2464.711402
_symmetry_space_group_name_H-M "C 2/M"
_symmetry_group_IT_number 12
_symmetry_cell_setting 'monoclinic'
loop_
_space_group_symop_operation_xyz
x,y,z
-x,y,-z
-x,-y,-z
x,-y,z
1/2+x,1/2+y,z
1/2-x,1/2+y,-z
1/2-x,1/2-y,-z
1/2+x,1/2-y,z
loop_
_atom_site_type_symbol
_atom_site_label
_atom_site_fract_x
_atom_site_fract_y
_atom_site_fract_z
Si Si1 0.827566 0.794577 0.667285
Si Si2 0.934791 0.711757 0.317382
Si Si3 0.827083 0.790092 0.006944
Si Si4 0.500412 0.199459 0.423197
Si Si5 0.742202 0.791455 0.583700
Si Si6 0.832399 0.211567 0.162461
Si Si7 0.998727 0.206382 0.860370
O O1 0.907105 0.701339 0.651669
O O2 0.810370 0.726224 0.598938
O O3 0.745224 0.769393 0.752699
O O4 0.846300 0.000000 0.656294
O O5 0.936516 0.500000 0.319098
O O6 0.845082 0.771489 0.345143
O O7 0.951763 0.779086 0.385399
O O8 0.993557 0.768212 0.225642
O O9 0.913063 0.723200 0.932213
O O10 0.831960 0.000000 0.006188
O O11 0.750000 0.750000 0.000000
O O12 0.820215 0.731164 0.089857
O O13 0.500000 0.280441 0.500000
O O14 0.472109 0.000000 0.446211
O O15 0.750000 0.750000 0.500000
O O16 0.742716 0.000000 0.590537
O O17 0.918656 0.274760 0.147617
O O18 0.833634 0.000000 0.163621
O O19 0.998536 0.000000 0.875240
#
# Coordination Sequence:
#
# PCOD9207434 Si02
#       7
#     8   8   8   8   8   8   8
#     4  11  23  38  59  88 122 154 194 250 299 345
#     4  10  21  38  59  85 118 154 196 243 291 348
#     4  10  23  41  62  91 122 154 195 240 290 349
#     4  10  22  40  61  83 115 162 205 243 294 356
#     4  10  21  37  58  85 116 152 194 243 292 343
#     4  10  21  40  64  87 117 159 200 238 289 355
#     4  10  21  39  63  89 117 154 197 242 289 344
#
# _framework density 22.720714000000001
#
# number of rings (size 3 to 8) (size 9 to 14) (size 15 to 20)
#    0.000    1.857    1.429    1.714    2.000    6.571 
#    0.000    0.000    0.000    2.571    0.000    0.000 
#    0.000    0.000    0.000    0.000    0.000    0.000 
#
# Total GULP energy -156424.513485 kJ/mol
# GULP energy per Si atom -5586.589767 kJ/mol
# Density = 2.266900 g / cm^3
# Si number density = 22.720714 Si / 1000 Ang^3
#
#
#
# Elastic Constant Matrix: (Units=GPa)
#
#
# Indices 1 2 3 4 5 6 
#
# 1 109.5829 5.0226 28.7701 -0.0004 3.6689 -0.0012
# 2 5.0226 51.4985 -2.8745 -0.0012 -0.7855 -0.0030
# 3 28.7701 -2.8745 107.6251 0.0000 3.0189 0.0000
# 4 -0.0004 -0.0012 0.0000 25.0482 0.0001 -0.5141
# 5 3.6689 -0.7855 3.0189 0.0001 42.6162 -0.0003
# 6 -0.0012 -0.0030 0.0000 -0.5141 -0.0003 18.3110
#
#
#
# Elastic Compliance Matrix: (Units=1/GPa)
#
#
# Indices 1 2 3 4 5 6 
#
# 1 0.009897 -0.001124 -0.002657 0.000000 -0.000685 0.000000
# 2 -0.001124 0.019579 0.000812 0.000001 0.000400 0.000003
# 3 -0.002657 0.000812 0.010036 0.000000 -0.000467 0.000000
# 4 0.000000 0.000001 0.000000 0.039946 0.000000 0.001121
# 5 -0.000685 0.000400 -0.000467 0.000000 0.023565 0.000000
# 6 0.000000 0.000003 0.000000 0.001121 0.000000 0.054644
#
#
# Mechanical properties :
#
#
# Convention : Reuss Voigt Hill
#
# Bulk Modulus (GPa) = 29.78305 36.72700 33.25502
# Shear Modulus (GPa) = 28.60476 33.04764 30.82620
#
# Velocity S-wave (km/s) = 3.55205 3.81795 3.68740
# Velocity P-wave (km/s) = 5.47353 5.96953 5.72690
#
# Compressibility (1/GPa) = 0.03357615
#
# Stress axis : x y z
#
# Youngs Moduli (GPa) = 101.03655 51.07489 99.63666
#
# Poissons Ratio (x) = 0.05741 0.26469
# Poissons Ratio (y) = 0.11357 -0.08092
# Poissons Ratio (z) = 0.26841 -0.04148
#
# Static dielectric constant tensor:
#      x y z
#    x 1.879520 0.000000 0.027040 
#    y 0.000000 1.854940 0.000000 
#    z 0.027040 0.000000 1.868560 
# 
# From -- ./inp_files/275210.got.cif
#   From: 2010.05.17/outbox.cif.g08.bks.cpg/sg12_138_cif.got.tgz:275210.got - 2010.06.03 13:09:07.
