data_PCOD9207667
_publ_section_title
;
Structure prediction by ZEFSAII (Michael W. Deem and Ramdas Pophale) SiO2 
 PCOD9207667
Probable space group: C 2/M
;
_chemical_formula_sum "Si O2"
_cell_formula_units_Z 56
_cell_length_a 30.920743
_cell_length_b 11.721280
_cell_length_c 15.492403
_cell_angle_alpha 90.000000
_cell_angle_beta 27.676655
_cell_angle_gamma 90.000000
_cell_volume 2608.026142
_symmetry_space_group_name_H-M "C 2/M"
_symmetry_group_IT_number 12
_symmetry_cell_setting 'monoclinic'
loop_
_space_group_symop_operation_xyz
x,y,z
-x,y,-z
-x,-y,-z
x,-y,z
1/2+x,1/2+y,z
1/2-x,1/2+y,-z
1/2-x,1/2-y,-z
1/2+x,1/2-y,z
loop_
_atom_site_type_symbol
_atom_site_label
_atom_site_fract_x
_atom_site_fract_y
_atom_site_fract_z
Si Si1 0.974749 0.867910 0.186554
Si Si2 0.010024 0.365692 0.585962
Si Si3 0.649664 0.700251 0.079222
Si Si4 0.328561 0.691884 0.147256
Si Si5 0.705417 0.372554 0.606509
Si Si6 0.310398 0.381428 0.814332
Si Si7 0.359306 0.295996 0.559076
O O1 0.900076 0.863645 0.241854
O O2 0.918141 0.836146 0.373389
O O3 0.007725 0.000000 0.132614
O O4 0.063481 0.785431 0.020224
O O5 0.997816 0.500000 0.616909
O O6 0.104919 0.324442 0.464619
O O7 0.000000 0.340869 0.500000
O O8 0.932653 0.292033 0.772048
O O9 0.638872 0.626854 0.184152
O O10 0.659267 0.640260 0.970289
O O11 0.743505 0.773622 0.924555
O O12 0.291052 0.625447 0.296145
O O13 0.249893 0.789332 0.273216
O O14 0.739472 0.500000 0.515352
O O15 0.750000 0.250000 0.500000
O O16 0.255442 0.500000 0.910761
O O17 0.372743 0.375291 0.618986
#
# Coordination Sequence:
#
# PCOD9207667 Si02
#       7
#     8   8   8   8   8   8   8
#     4  11  23  42  70  98 132 175 220 273 338 404
#     4  11  22  39  60  84 126 178 220 265 325 393
#     4  10  21  39  58  89 126 165 215 266 325 389
#     4  11  23  41  68  98 129 169 225 279 326 406
#     4  11  24  46  73 102 137 178 221 280 349 409
#     4  10  21  37  59  87 126 168 210 264 323 387
#     4  11  22  41  63  95 132 169 220 272 332 388
#
# _framework density 21.472176999999999
#
# number of rings (size 3 to 8) (size 9 to 14) (size 15 to 20)
#    0.000    1.286    4.286    1.714    0.000    3.429 
#    0.000    1.429    0.000    0.857    0.000    0.000 
#    0.000    0.000    0.000    0.000    0.000    0.000 
#
# Total GULP energy -155896.694925 kJ/mol
# GULP energy per Si atom -5567.739104 kJ/mol
# Density = 2.142331 g / cm^3
# Si number density = 21.472177 Si / 1000 Ang^3
#
#
#
# Elastic Constant Matrix: (Units=GPa)
#
#
# Indices 1 2 3 4 5 6 
#
# 1 111.1709 36.1341 17.0437 0.0000 22.8029 0.0000
# 2 36.1341 99.5798 29.8092 0.0000 7.6072 0.0000
# 3 17.0437 29.8092 81.0530 0.0000 4.9302 0.0000
# 4 0.0000 0.0000 0.0000 24.2058 0.0000 -9.3846
# 5 22.8029 7.6072 4.9302 0.0000 38.9680 0.0000
# 6 0.0000 0.0000 0.0000 -9.3846 0.0000 15.8891
#
#
#
# Elastic Compliance Matrix: (Units=1/GPa)
#
#
# Indices 1 2 3 4 5 6 
#
# 1 0.011459 -0.003474 -0.000771 0.000000 -0.005930 0.000000
# 2 -0.003474 0.012450 -0.003854 0.000000 0.000090 0.000000
# 3 -0.000771 -0.003854 0.013951 0.000000 -0.000562 0.000000
# 4 0.000000 0.000000 0.000000 0.053582 0.000000 0.031647
# 5 -0.005930 0.000090 -0.000562 0.000000 0.029185 0.000000
# 6 0.000000 0.000000 0.000000 0.031647 0.000000 0.081628
#
#
# Mechanical properties :
#
#
# Convention : Reuss Voigt Hill
#
# Bulk Modulus (GPa) = 46.16438 50.86421 48.51429
# Shear Modulus (GPa) = 22.15588 29.73369 25.94478
#
# Velocity S-wave (km/s) = 3.21571 3.72527 3.47983
# Velocity P-wave (km/s) = 5.94425 6.49949 6.22806
#
# Compressibility (1/GPa) = 0.02166172
#
# Stress axis : x y z
#
# Youngs Moduli (GPa) = 87.26874 80.32431 71.67864
#
# Poissons Ratio (x) = 0.27906 0.05528
# Poissons Ratio (y) = 0.30319 0.27622
# Poissons Ratio (z) = 0.06730 0.30953
#
# Static dielectric constant tensor:
#      x y z
#    x 1.832990 0.000000 -0.002570 
#    y 0.000000 1.795380 0.000000 
#    z -0.002570 0.000000 1.828340 
# 
# From -- ./inp_files/251009.got.cif
#   From: 2010.05.17/outbox.cif.g08.bks.cpg/sg12_126_cif.got.tgz:251009.got - 2010.06.03 13:09:07.
