data_PCOD9207925
_publ_section_title
;
Structure prediction by ZEFSAII (Michael W. Deem and Ramdas Pophale) SiO2 
 PCOD9207925
Probable space group: C 2/M
;
_chemical_formula_sum "Si O2"
_cell_formula_units_Z 56
_cell_length_a 16.615785
_cell_length_b 8.469713
_cell_length_c 23.957282
_cell_angle_alpha 90.000000
_cell_angle_beta 57.698944
_cell_angle_gamma 90.000000
_cell_volume 2849.792915
_symmetry_space_group_name_H-M "C 2/M"
_symmetry_group_IT_number 12
_symmetry_cell_setting 'monoclinic'
loop_
_space_group_symop_operation_xyz
x,y,z
-x,y,-z
-x,-y,-z
x,-y,z
1/2+x,1/2+y,z
1/2-x,1/2+y,-z
1/2-x,1/2-y,-z
1/2+x,1/2-y,z
loop_
_atom_site_type_symbol
_atom_site_label
_atom_site_fract_x
_atom_site_fract_y
_atom_site_fract_z
Si Si1 0.246072 0.815279 0.439132
Si Si2 0.464980 0.810612 0.844462
Si Si3 0.723304 0.186594 0.152997
Si Si4 0.416593 0.181724 0.570153
Si Si5 0.121431 0.821269 0.295212
Si Si6 0.052912 0.682127 0.696828
Si Si7 0.938295 0.690820 0.076387
O O1 0.250000 0.750000 0.500000
O O2 0.175561 0.700857 0.433086
O O3 0.345423 0.809629 0.369382
O O4 0.214968 0.000000 0.450323
O O5 0.362322 0.753642 0.857103
O O6 0.542588 0.786247 0.766462
O O7 0.508580 0.750693 0.886618
O O8 0.453491 0.000000 0.855085
O O9 0.687367 0.221197 0.229277
O O10 0.828745 0.257510 0.109083
O O11 0.729858 0.000000 0.141927
O O12 0.500000 0.250118 0.500000
O O13 0.391986 0.265460 0.636881
O O14 0.441693 0.000000 0.573364
O O15 0.017249 0.801637 0.307348
O O16 0.156173 0.000000 0.281026
O O17 0.017599 0.500000 0.701900
O O18 0.938021 0.500000 0.079090
O O19 0.000000 0.740099 0.000000
#
# Coordination Sequence:
#
# PCOD9207925 Si02
#       7
#     8   8   8   8   8   8   8
#     4  11  23  37  56  82 112 152 195 243 298 352
#     4   8  17  36  59  82 117 159 196 239 301 364
#     4  10  21  39  61  86 118 161 203 246 303 367
#     4  11  24  40  57  80 114 154 195 242 293 352
#     4  11  22  37  60  87 114 147 191 245 299 355
#     4   9  19  37  58  80 110 150 191 235 295 355
#     4  10  21  37  60  91 124 159 202 253 305 362
#
# _framework density 19.650552000000001
#
# number of rings (size 3 to 8) (size 9 to 14) (size 15 to 20)
#    0.000    2.000    0.000    4.286    2.000    6.571 
#    0.000    3.571    0.000    0.000    0.000    0.000 
#    0.000    0.000    0.000    0.000    0.000    0.000 
#
# Total GULP energy -156129.125708 kJ/mol
# GULP energy per Si atom -5576.040204 kJ/mol
# Density = 1.960583 g / cm^3
# Si number density = 19.650552 Si / 1000 Ang^3
#
#
#
# Elastic Constant Matrix: (Units=GPa)
#
#
# Indices 1 2 3 4 5 6 
#
# 1 95.2705 12.5912 85.0447 0.0000 9.4926 0.0000
# 2 12.5912 16.9166 16.3395 -0.0001 2.3261 -0.0001
# 3 85.0447 16.3395 139.9233 0.0000 5.7880 0.0000
# 4 0.0000 -0.0001 0.0000 21.2823 0.0000 -8.1182
# 5 9.4926 2.3261 5.7880 0.0000 39.8557 0.0000
# 6 0.0000 -0.0001 0.0000 -8.1182 0.0000 30.5508
#
#
#
# Elastic Compliance Matrix: (Units=1/GPa)
#
#
# Indices 1 2 3 4 5 6 
#
# 1 0.023646 -0.003816 -0.013785 0.000000 -0.003407 0.000000
# 2 -0.003816 0.067551 -0.005476 0.000000 -0.002238 0.000000
# 3 -0.013785 -0.005476 0.016113 0.000000 0.001263 0.000000
# 4 0.000000 0.000000 0.000000 0.052287 0.000000 0.013894
# 5 -0.003407 -0.002238 0.001263 0.000000 0.025849 0.000000
# 6 0.000000 0.000000 0.000000 0.013894 0.000000 0.036424
#
#
# Mechanical properties :
#
#
# Convention : Reuss Voigt Hill
#
# Bulk Modulus (GPa) = 16.35208 53.34015 34.84611
# Shear Modulus (GPa) = 17.33634 27.54676 22.44155
#
# Velocity S-wave (km/s) = 2.97346 3.74817 3.38306
# Velocity P-wave (km/s) = 4.48644 6.77753 5.74731
#
# Compressibility (1/GPa) = 0.06115429
#
# Stress axis : x y z
#
# Youngs Moduli (GPa) = 42.29056 14.80355 62.06316
#
# Poissons Ratio (x) = 0.05650 0.85556
# Poissons Ratio (y) = 0.16140 0.33986
# Poissons Ratio (z) = 0.58299 0.08107
#
# Static dielectric constant tensor:
#      x y z
#    x 1.670980 0.000000 0.004840 
#    y 0.000000 1.685390 0.000000 
#    z 0.004840 0.000000 1.494020 
# 
# From -- ./inp_files/338574.got.cif
#   From: 2010.05.17/outbox.cif.g08.bks.cpg/sg12_170_cif.got.tgz:338574.got - 2010.06.03 13:09:07.
