data_PCOD9207763
_publ_section_title
;
Structure prediction by ZEFSAII (Michael W. Deem and Ramdas Pophale) SiO2 
 PCOD9207763
Probable space group: C 2/M
;
_chemical_formula_sum "Si O2"
_cell_formula_units_Z 58
_cell_length_a 17.719031
_cell_length_b 20.239540
_cell_length_c 14.182221
_cell_angle_alpha 90.000000
_cell_angle_beta 32.594232
_cell_angle_gamma 90.000000
_cell_volume 2739.810468
_symmetry_space_group_name_H-M "C 2/M"
_symmetry_group_IT_number 12
_symmetry_cell_setting 'monoclinic'
loop_
_space_group_symop_operation_xyz
x,y,z
-x,y,-z
-x,-y,-z
x,-y,z
1/2+x,1/2+y,z
1/2-x,1/2+y,-z
1/2-x,1/2-y,-z
1/2+x,1/2-y,z
loop_
_atom_site_type_symbol
_atom_site_label
_atom_site_fract_x
_atom_site_fract_y
_atom_site_fract_z
Si Si1 0.000000 0.500000 0.000000
Si Si2 0.383226 0.774801 0.268392
Si Si3 0.751955 0.422409 0.956802
Si Si4 0.947827 0.926215 0.370739
Si Si5 0.875297 0.625541 0.013511
Si Si6 0.225365 0.144959 0.590728
Si Si7 0.167305 0.421938 0.333905
Si Si8 0.638944 0.684061 0.389928
O O1 0.928140 0.559067 0.009282
O O2 0.511613 0.816389 0.094627
O O3 0.336651 0.812725 0.412751
O O4 0.402856 0.697261 0.264532
O O5 0.251308 0.778082 0.335774
O O6 0.791765 0.500000 0.912286
O O7 0.850514 0.387565 0.929144
O O8 0.766102 0.398191 0.834971
O O9 0.595520 0.418573 0.162809
O O10 0.826692 0.913855 0.421356
O O11 0.921854 0.873517 0.479286
O O12 0.938524 0.000000 0.419853
O O13 0.730958 0.650342 0.211681
O O14 0.279142 0.117978 0.632474
O O15 0.201833 0.500000 0.310362
O O16 0.000000 0.416671 0.500000
O O17 0.500000 0.721384 0.500000
#
# Coordination Sequence:
#
# PCOD9207763 Si02
#       8
#     2   8   8   8   8   8   8   8
#     4  12  24  36  66 100 134 174 206 272 340 384
#     4  10  23  42  63  90 127 169 218 266 315 385
#     4  10  21  37  59  91 132 159 203 267 324 389
#     4  10  22  38  63  96 122 164 210 260 328 387
#     4  12  22  40  62  98 130 169 214 263 329 400
#     4  10  22  43  65  84 127 169 217 267 316 380
#     4  10  21  39  64  97 124 165 215 272 332 384
#     4  11  22  38  62  92 131 164 207 261 325 392
#
# _framework density 21.169347999999999
#
# number of rings (size 3 to 8) (size 9 to 14) (size 15 to 20)
#    0.000    1.517    3.448    1.241    0.966    1.379 
#    6.207    4.138    0.000    0.000    0.000    0.000 
#    0.000    0.000    0.000    0.000    0.000    0.000 
#
# Total GULP energy -161736.888473 kJ/mol
# GULP energy per Si atom -5577.134085 kJ/mol
# Density = 2.112117 g / cm^3
# Si number density = 21.169348 Si / 1000 Ang^3
#
#
#
# Elastic Constant Matrix: (Units=GPa)
#
#
# Indices 1 2 3 4 5 6 
#
# 1 123.0318 4.8001 27.1529 -0.0007 11.7119 0.0007
# 2 4.8001 43.2231 15.5566 -0.0012 -3.5908 0.0012
# 3 27.1529 15.5566 72.4610 -0.0014 5.4265 0.0013
# 4 -0.0007 -0.0012 -0.0014 12.5156 0.0011 4.7659
# 5 11.7119 -3.5908 5.4265 0.0011 30.9508 -0.0010
# 6 0.0007 0.0012 0.0013 4.7659 -0.0010 14.7956
#
#
#
# Elastic Compliance Matrix: (Units=1/GPa)
#
#
# Indices 1 2 3 4 5 6 
#
# 1 0.009109 -0.000111 -0.003172 0.000001 -0.002904 -0.000001
# 2 -0.000111 0.025549 -0.005744 0.000002 0.004013 -0.000002
# 3 -0.003172 -0.005744 0.016398 0.000002 -0.002341 -0.000002
# 4 0.000001 0.000002 0.000002 0.091071 -0.000005 -0.029335
# 5 -0.002904 0.004013 -0.002341 -0.000005 0.034284 0.000004
# 6 -0.000001 -0.000002 -0.000002 -0.029335 0.000004 0.077037
#
#
# Mechanical properties :
#
#
# Convention : Reuss Voigt Hill
#
# Bulk Modulus (GPa) = 30.30202 37.08169 33.69186
# Shear Modulus (GPa) = 17.69903 24.39950 21.04926
#
# Velocity S-wave (km/s) = 2.89462 3.39866 3.15672
# Velocity P-wave (km/s) = 5.05143 5.74072 5.40707
#
# Compressibility (1/GPa) = 0.03300110
#
# Stress axis : x y z
#
# Youngs Moduli (GPa) = 109.78437 39.14066 60.98441
#
# Poissons Ratio (x) = 0.00435 0.19344
# Poissons Ratio (y) = 0.01220 0.35029
# Poissons Ratio (z) = 0.34823 0.22482
#
# Static dielectric constant tensor:
#      x y z
#    x 1.786770 0.000000 0.004630 
#    y 0.000000 1.754300 0.000000 
#    z 0.004630 0.000000 1.785260 
# 
# From -- ./inp_files/227994.got.cif
#   From: 2010.05.17/outbox.cif.g08.bks.cpg/sg12_114_cif.got.tgz:227994.got - 2010.06.03 13:09:07.
