data_PCOD9207393
_publ_section_title
;
Structure prediction by ZEFSAII (Michael W. Deem and Ramdas Pophale) SiO2 
 PCOD9207393
Probable space group: C 2/M
;
_chemical_formula_sum "Si O2"
_cell_formula_units_Z 56
_cell_length_a 30.222188
_cell_length_b 9.176586
_cell_length_c 12.658890
_cell_angle_alpha 90.000000
_cell_angle_beta 122.344673
_cell_angle_gamma 90.000000
_cell_volume 2966.058269
_symmetry_space_group_name_H-M "C 2/M"
_symmetry_group_IT_number 12
_symmetry_cell_setting 'monoclinic'
loop_
_space_group_symop_operation_xyz
x,y,z
-x,y,-z
-x,-y,-z
x,-y,z
1/2+x,1/2+y,z
1/2-x,1/2+y,-z
1/2-x,1/2-y,-z
1/2+x,1/2-y,z
loop_
_atom_site_type_symbol
_atom_site_label
_atom_site_fract_x
_atom_site_fract_y
_atom_site_fract_z
Si Si1 0.800595 0.164241 0.526309
Si Si2 0.101051 0.825689 0.621130
Si Si3 0.507049 0.173351 0.886739
Si Si4 0.720679 0.661318 0.748222
Si Si5 0.904867 0.672851 0.611804
Si Si6 0.709510 0.672836 0.028262
Si Si7 0.910904 0.176001 0.161037
O O1 0.750000 0.250000 0.500000
O O2 0.791208 0.152150 0.389522
O O3 0.854679 0.252363 0.602806
O O4 0.804504 0.000000 0.575446
O O5 0.163394 0.803385 0.721738
O O6 0.087139 0.743222 0.494972
O O7 0.074632 0.782385 0.698757
O O8 0.093761 0.000000 0.595381
O O9 0.454438 0.195071 0.750967
O O10 0.552218 0.254974 0.879871
O O11 0.518414 0.000000 0.902980
O O12 0.500000 0.220312 0.000000
O O13 0.736669 0.500000 0.806569
O O14 0.765522 0.776111 0.829648
O O15 0.895743 0.500000 0.587319
O O16 0.711863 0.500000 0.019292
O O17 0.750000 0.750000 0.000000
O O18 0.649436 0.718354 0.938413
O O19 0.913826 0.000000 0.160702
#
# Coordination Sequence:
#
# PCOD9207393 Si02
#       7
#     8   8   8   8   8   8   8
#     4  10  21  37  58  84 117 153 193 238 290 348
#     4   9  18  36  58  84 120 152 185 233 295 356
#     4  10  24  45  63  82 114 155 199 247 298 350
#     4   9  18  34  53  78 115 154 187 230 284 341
#     4  10  21  38  61  87 115 149 195 246 294 350
#     4  11  21  34  54  84 120 155 191 233 284 345
#     4  10  22  39  59  86 119 155 199 244 290 353
#
# _framework density 18.880275000000001
#
# number of rings (size 3 to 8) (size 9 to 14) (size 15 to 20)
#    0.000    2.143    1.429    2.143    0.000    7.714 
#    0.000    7.143    0.000    0.000    0.000    0.000 
#    0.000    0.000    0.000    0.000    0.000    0.000 
#
# Total GULP energy -156108.973867 kJ/mol
# GULP energy per Si atom -5575.320495 kJ/mol
# Density = 1.883730 g / cm^3
# Si number density = 18.880275 Si / 1000 Ang^3
#
#
#
# Elastic Constant Matrix: (Units=GPa)
#
#
# Indices 1 2 3 4 5 6 
#
# 1 135.6098 62.4700 50.5864 0.0000 -11.4811 0.0000
# 2 62.4700 80.2425 50.3671 0.0000 6.4761 0.0000
# 3 50.5864 50.3671 75.7242 0.0000 0.2134 0.0000
# 4 0.0000 0.0000 0.0000 29.4035 0.0000 -2.5850
# 5 -11.4811 6.4761 0.2134 0.0000 22.1834 0.0000
# 6 0.0000 0.0000 0.0000 -2.5850 0.0000 32.5907
#
#
#
# Elastic Compliance Matrix: (Units=1/GPa)
#
#
# Indices 1 2 3 4 5 6 
#
# 1 0.013749 -0.009835 -0.002671 0.000000 0.010013 0.000000
# 2 -0.009835 0.029291 -0.012874 0.000000 -0.013517 0.000000
# 3 -0.002671 -0.012874 0.023547 0.000000 0.002149 0.000000
# 4 0.000000 0.000000 0.000000 0.034248 0.000000 0.002716
# 5 0.010013 -0.013517 0.002149 0.000000 0.054186 0.000000
# 6 0.000000 0.000000 0.000000 0.002716 0.000000 0.030899
#
#
# Mechanical properties :
#
#
# Convention : Reuss Voigt Hill
#
# Bulk Modulus (GPa) = 63.18706 68.71375 65.95041
# Shear Modulus (GPa) = 20.66478 25.37904 23.02191
#
# Velocity S-wave (km/s) = 3.31194 3.67032 3.49573
# Velocity P-wave (km/s) = 6.94011 7.37802 7.16241
#
# Compressibility (1/GPa) = 0.01582603
#
# Stress axis : x y z
#
# Youngs Moduli (GPa) = 72.73313 34.14026 42.46751
#
# Poissons Ratio (x) = 0.33577 0.11344
# Poissons Ratio (y) = 0.71534 0.54674
# Poissons Ratio (z) = 0.19429 0.43953
#
# Static dielectric constant tensor:
#      x y z
#    x 1.684590 0.000000 -0.034470 
#    y 0.000000 1.702980 0.000000 
#    z -0.034470 0.000000 1.710720 
# 
# From -- ./inp_files/187713.got.cif
#   From: 2010.05.17/outbox.cif.g08.bks.cpg/sg12_94_cif.got.tgz:187713.got - 2010.06.03 13:09:07.
