data_PCOD9207837
_publ_section_title
;
Structure prediction by ZEFSAII (Michael W. Deem and Ramdas Pophale) SiO2 
 PCOD9207837
Probable space group: C 2/M
;
_chemical_formula_sum "Si O2"
_cell_formula_units_Z 64
_cell_length_a 8.878827
_cell_length_b 17.704912
_cell_length_c 30.768436
_cell_angle_alpha 90.000000
_cell_angle_beta 144.445143
_cell_angle_gamma 90.000000
_cell_volume 2812.491230
_symmetry_space_group_name_H-M "C 2/M"
_symmetry_group_IT_number 12
_symmetry_cell_setting 'monoclinic'
loop_
_space_group_symop_operation_xyz
x,y,z
-x,y,-z
-x,-y,-z
x,-y,z
1/2+x,1/2+y,z
1/2-x,1/2+y,-z
1/2-x,1/2-y,-z
1/2+x,1/2-y,z
loop_
_atom_site_type_symbol
_atom_site_label
_atom_site_fract_x
_atom_site_fract_y
_atom_site_fract_z
Si Si1 0.321355 0.417554 0.373608
Si Si2 0.567145 0.664693 0.077603
Si Si3 0.120320 0.149739 0.785012
Si Si4 0.565299 0.374291 0.350893
Si Si5 0.707581 0.791650 0.412930
Si Si6 0.092547 0.582400 0.452526
Si Si7 0.996220 0.217056 0.842240
Si Si8 0.851043 0.415659 0.074325
O O1 0.215786 0.500000 0.360376
O O2 0.335707 0.408649 0.325415
O O3 0.204781 0.346302 0.370608
O O4 0.622837 0.415054 0.459764
O O5 0.726769 0.740229 0.100959
O O6 0.511620 0.667439 0.115782
O O7 0.752987 0.600374 0.100522
O O8 0.298935 0.647022 0.989661
O O9 0.948930 0.175626 0.785460
O O10 0.279652 0.220178 0.801637
O O11 0.344717 0.096376 0.856198
O O12 0.979881 0.115705 0.710709
O O13 0.587990 0.288077 0.372589
O O14 0.842418 0.412518 0.423926
O O15 0.576232 0.842365 0.419292
O O16 0.000000 0.778813 0.500000
O O17 0.083899 0.500000 0.427959
O O18 0.780664 0.500000 0.044160
#
# Coordination Sequence:
#
# PCOD9207837 Si02
#       8
#     8   8   8   8   8   8   8   8
#     4  10  21  38  60  84 113 152 197 241 299 360
#     4   9  18  35  64  88 112 149 185 247 281 336
#     4  10  24  37  58  80 119 156 184 241 282 357
#     4  12  23  35  58  86 116 157 195 244 291 346
#     4  10  21  37  60  88 115 144 194 256 300 339
#     4  10  21  38  59  84 114 152 195 243 297 357
#     4   9  20  39  59  89 113 144 197 231 297 336
#     4  10  21  38  58  88 119 153 192 232 285 339
#
# _framework density 22.755625999999999
#
# number of rings (size 3 to 8) (size 9 to 14) (size 15 to 20)
#    0.000    2.000    0.000    3.375    3.500   15.000 
#    0.000    1.875    0.000    0.000    0.000    0.000 
#    0.000    0.000    0.000    0.000    0.000    0.000 
#
# Total GULP energy -178658.551005 kJ/mol
# GULP energy per Si atom -5583.079719 kJ/mol
# Density = 2.270383 g / cm^3
# Si number density = 22.755626 Si / 1000 Ang^3
#
#
#
# Elastic Constant Matrix: (Units=GPa)
#
#
# Indices 1 2 3 4 5 6 
#
# 1 97.1790 7.9938 9.8046 -0.0001 -25.4218 0.0000
# 2 7.9938 71.8022 -5.9738 -0.0002 -7.5639 -0.0001
# 3 9.8046 -5.9738 53.6688 -0.0003 -11.7743 -0.0001
# 4 -0.0001 -0.0002 -0.0003 -3.4475 -0.0001 13.2139
# 5 -25.4218 -7.5639 -11.7743 -0.0001 37.2166 0.0000
# 6 0.0000 -0.0001 -0.0001 13.2139 0.0000 -22.4630
#
#
#
# Elastic Compliance Matrix: (Units=1/GPa)
#
#
# Indices 1 2 3 4 5 6 
#
# 1 0.012561 -0.000570 -0.000539 0.000000 0.008294 0.000000
# 2 -0.000570 0.014547 0.002457 0.000001 0.003345 0.000001
# 3 -0.000539 0.002457 0.020453 0.000002 0.006602 0.000001
# 4 0.000000 0.000001 0.000002 0.231185 0.000001 0.135995
# 5 0.008294 0.003345 0.006602 0.000001 0.035304 0.000001
# 6 0.000000 0.000001 0.000001 0.135995 0.000001 0.035481
#
#
# Mechanical properties :
#
#
# Convention : Reuss Voigt Hill
#
# Bulk Modulus (GPa) = 19.89664 27.36660 23.63162
# Shear Modulus (GPa) = 13.75189 16.31626 15.03407
#
# Velocity S-wave (km/s) = 2.46098 2.68063 2.57315
# Velocity P-wave (km/s) = 4.10339 4.65118 4.38584
#
# Compressibility (1/GPa) = 0.05025974
#
# Stress axis : x y z
#
# Youngs Moduli (GPa) = 79.61027 68.74110 48.89228
#
# Poissons Ratio (x) = 0.03915 0.02633
# Poissons Ratio (y) = 0.04534 -0.12013
# Poissons Ratio (z) = 0.04287 -0.16890
#
# Static dielectric constant tensor:
#      x y z
#    x 1.866840 0.000000 -0.007840 
#    y 0.000000 1.856960 0.000000 
#    z -0.007840 0.000000 1.906410 
# 
# From -- ./inp_files/372968.got.cif
#   From: 2010.05.17/outbox.cif.g08.bks.cpg/sg12_187_cif.got.tgz:372968.got - 2010.06.03 13:09:07.
