data_PCOD9207267
_publ_section_title
;
Structure prediction by ZEFSAII (Michael W. Deem and Ramdas Pophale) SiO2 
 PCOD9207267
Probable space group: C 2/M
;
_chemical_formula_sum "Si O2"
_cell_formula_units_Z 64
_cell_length_a 29.581567
_cell_length_b 7.814285
_cell_length_c 14.526862
_cell_angle_alpha 90.000000
_cell_angle_beta 119.792341
_cell_angle_gamma 90.000000
_cell_volume 2914.189792
_symmetry_space_group_name_H-M "C 2/M"
_symmetry_group_IT_number 12
_symmetry_cell_setting 'monoclinic'
loop_
_space_group_symop_operation_xyz
x,y,z
-x,y,-z
-x,-y,-z
x,-y,z
1/2+x,1/2+y,z
1/2-x,1/2+y,-z
1/2-x,1/2-y,-z
1/2+x,1/2-y,z
loop_
_atom_site_type_symbol
_atom_site_label
_atom_site_fract_x
_atom_site_fract_y
_atom_site_fract_z
Si Si1 0.049307 0.209576 0.608686
Si Si2 0.807695 0.191099 0.036209
Si Si3 0.728349 0.201757 0.183611
Si Si4 0.443531 0.708901 0.979250
Si Si5 0.838905 0.799554 0.349123
Si Si6 0.850582 0.794461 0.749991
Si Si7 0.307118 0.199228 0.519185
Si Si8 0.080113 0.789784 0.836734
O O1 0.104694 0.268972 0.622346
O O2 0.046818 0.258030 0.713915
O O3 0.000000 0.268599 0.500000
O O4 0.049324 0.000000 0.605255
O O5 0.860930 0.275535 0.121856
O O6 0.810498 0.000000 0.074275
O O7 0.750000 0.250000 0.000000
O O8 0.807540 0.200211 0.925321
O O9 0.787446 0.269508 0.245132
O O10 0.701945 0.227045 0.255115
O O11 0.727486 0.000000 0.159885
O O12 0.441950 0.500000 0.978291
O O13 0.398574 0.764684 0.862408
O O14 0.500000 0.761157 0.000000
O O15 0.435833 0.765887 0.077147
O O16 0.825586 0.786559 0.443697
O O17 0.839950 0.000000 0.326381
O O18 0.848074 0.734472 0.642530
O O19 0.849714 0.000000 0.749494
O O20 0.250000 0.250000 0.500000
O O21 0.304659 0.000000 0.495552
O O22 0.081140 0.000000 0.840727
#
# Coordination Sequence:
#
# PCOD9207267 Si02
#       8
#     8   8   8   8   8   8   8   8
#     4   9  18  33  56  85 116 150 194 247 298 345
#     4  11  21  34  53  80 114 153 194 241 295 353
#     4  11  21  34  55  82 117 155 191 238 295 356
#     4   9  18  33  56  88 121 154 193 241 295 350
#     4  10  21  37  57  86 118 153 197 249 301 355
#     4  11  21  36  58  87 118 153 196 244 294 352
#     4  12  24  38  58  85 118 160 201 247 303 361
#     4   9  17  32  52  79 115 150 186 236 291 342
#
# _framework density 21.961507999999998
#
# number of rings (size 3 to 8) (size 9 to 14) (size 15 to 20)
#    0.000    1.750    2.500    3.000    0.000    3.500 
#    0.000    3.750    0.000    1.875    0.000    0.000 
#    0.000    0.000    0.000    0.000    0.000    0.000 
#
# Total GULP energy -178689.897588 kJ/mol
# GULP energy per Si atom -5584.059300 kJ/mol
# Density = 2.191152 g / cm^3
# Si number density = 21.961508 Si / 1000 Ang^3
#
#
#
# Elastic Constant Matrix: (Units=GPa)
#
#
# Indices 1 2 3 4 5 6 
#
# 1 103.4832 -2.7399 53.3282 0.0000 15.2437 0.0000
# 2 -2.7399 33.1750 -9.9960 0.0000 6.0836 0.0000
# 3 53.3282 -9.9960 167.4090 0.0000 12.1904 0.0000
# 4 0.0000 0.0000 0.0000 14.0162 0.0000 -2.2734
# 5 15.2437 6.0836 12.1904 0.0000 36.7824 0.0000
# 6 0.0000 0.0000 0.0000 -2.2734 0.0000 15.6043
#
#
#
# Elastic Compliance Matrix: (Units=1/GPa)
#
#
# Indices 1 2 3 4 5 6 
#
# 1 0.012076 0.000661 -0.003520 0.000000 -0.003947 0.000000
# 2 0.000661 0.032000 0.002158 0.000000 -0.006281 0.000000
# 3 -0.003520 0.002158 0.007320 0.000000 -0.001324 0.000000
# 4 0.000000 0.000000 0.000000 0.073073 0.000000 0.010646
# 5 -0.003947 -0.006281 -0.001324 0.000000 0.030301 0.000000
# 6 0.000000 0.000000 0.000000 0.010646 0.000000 0.065636
#
#
# Mechanical properties :
#
#
# Convention : Reuss Voigt Hill
#
# Bulk Modulus (GPa) = 20.00299 42.80575 31.40437
# Shear Modulus (GPa) = 20.96671 30.84556 25.90613
#
# Velocity S-wave (km/s) = 3.09318 3.75177 3.43828
# Velocity P-wave (km/s) = 4.67814 6.18880 5.48572
#
# Compressibility (1/GPa) = 0.04999252
#
# Stress axis : x y z
#
# Youngs Moduli (GPa) = 82.80634 31.25028 136.61291
#
# Poissons Ratio (x) = -0.02064 0.48088
# Poissons Ratio (y) = -0.05470 -0.29476
# Poissons Ratio (z) = 0.29148 -0.06743
#
# Static dielectric constant tensor:
#      x y z
#    x 1.837130 0.000000 -0.025320 
#    y 0.000000 1.842050 0.000000 
#    z -0.025320 0.000000 1.841380 
# 
# From -- ./inp_files/249204.got.cif
#   From: 2010.05.17/outbox.cif.g08.bks.cpg/sg12_125_cif.got.tgz:249204.got - 2010.06.03 13:09:07.
