data_PCOD9207384
_publ_section_title
;
Structure prediction by ZEFSAII (Michael W. Deem and Ramdas Pophale) SiO2 
 PCOD9207384
Probable space group: C 2/M
;
_chemical_formula_sum "Si O2"
_cell_formula_units_Z 48
_cell_length_a 18.376106
_cell_length_b 8.476361
_cell_length_c 15.902997
_cell_angle_alpha 90.000000
_cell_angle_beta 90.003814
_cell_angle_gamma 90.000000
_cell_volume 2477.090696
_symmetry_space_group_name_H-M "C 2/M"
_symmetry_group_IT_number 12
_symmetry_cell_setting 'monoclinic'
loop_
_space_group_symop_operation_xyz
x,y,z
-x,y,-z
-x,-y,-z
x,-y,z
1/2+x,1/2+y,z
1/2-x,1/2+y,-z
1/2-x,1/2-y,-z
1/2+x,1/2-y,z
loop_
_atom_site_type_symbol
_atom_site_label
_atom_site_fract_x
_atom_site_fract_y
_atom_site_fract_z
Si Si1 0.958321 0.807513 0.915867
Si Si2 0.791889 0.689214 0.252467
Si Si3 0.958952 0.309108 0.585282
Si Si4 0.956496 0.189246 0.251495
Si Si5 0.209608 0.809212 0.082999
Si Si6 0.290568 0.189059 0.582824
O O1 0.874406 0.756270 0.915527
O O2 0.000888 0.756997 0.832284
O O3 0.958153 0.000000 0.916013
O O4 0.000000 0.755867 0.000000
O O5 0.790147 0.500000 0.254847
O O6 0.874990 0.745092 0.252497
O O7 0.751498 0.742751 0.167205
O O8 0.750264 0.752435 0.334065
O O9 0.960783 0.500000 0.588968
O O10 0.874793 0.258247 0.583549
O O11 0.000000 0.260290 0.500000
O O12 0.000064 0.243642 0.666350
O O13 0.953151 0.000000 0.250187
O O14 0.209815 0.000000 0.081921
O O15 0.250000 0.750000 0.000000
O O16 0.250000 0.250000 0.500000
O O17 0.289821 0.000000 0.581424
#
# Coordination Sequence:
#
# PCOD9207384 Si02
#       6
#     8   8   8   8   8   8
#     4   9  18  34  56  82 113 147 185 233 287 343
#     4  11  23  39  58  83 120 159 196 243 295 347
#     4  10  22  40  60  84 117 153 186 231 293 348
#     4  11  22  37  61  88 113 149 197 243 290 348
#     4  10  21  37  58  84 115 153 194 240 295 350
#     4  11  23  39  62  90 120 156 196 239 289 348
#
# _framework density 19.377571
#
# number of rings (size 3 to 8) (size 9 to 14) (size 15 to 20)
#    0.000    1.667    0.000    4.500    0.000    7.000 
#    0.000    1.667    0.000    4.500    0.000    0.000 
#    0.000    0.000    0.000    0.000    0.000    0.000 
#
# Total GULP energy -134195.617118 kJ/mol
# GULP energy per Si atom -5591.484047 kJ/mol
# Density = 1.933347 g / cm^3
# Si number density = 19.377571 Si / 1000 Ang^3
#
#
#
# Elastic Constant Matrix: (Units=GPa)
#
#
# Indices 1 2 3 4 5 6 
#
# 1 241.6372 39.4976 146.6012 0.0000 0.0814 0.0000
# 2 39.4976 25.1642 38.4698 0.0000 1.2337 0.0000
# 3 146.6012 38.4698 239.9584 0.0000 0.2133 0.0000
# 4 0.0000 0.0000 0.0000 26.0215 0.0000 -1.6508
# 5 0.0814 1.2337 0.2133 0.0000 46.8964 0.0000
# 6 0.0000 0.0000 0.0000 -1.6508 0.0000 18.5422
#
#
#
# Elastic Compliance Matrix: (Units=1/GPa)
#
#
# Indices 1 2 3 4 5 6 
#
# 1 0.007216 -0.006086 -0.003433 0.000000 0.000163 0.000000
# 2 -0.006086 0.057859 -0.005556 0.000000 -0.001486 0.000000
# 3 -0.003433 -0.005556 0.007155 0.000000 0.000120 0.000000
# 4 0.000000 0.000000 0.000000 0.038648 0.000000 0.003441
# 5 0.000163 -0.001486 0.000120 0.000000 0.021362 0.000000
# 6 0.000000 0.000000 0.000000 0.003441 0.000000 0.054237
#
#
# Mechanical properties :
#
#
# Convention : Reuss Voigt Hill
#
# Bulk Modulus (GPa) = 23.76458 106.21078 64.98768
# Shear Modulus (GPa) = 21.67748 37.10479 29.39113
#
# Velocity S-wave (km/s) = 3.34831 4.38063 3.89879
# Velocity P-wave (km/s) = 5.21908 8.97311 7.34015
#
# Compressibility (1/GPa) = 0.04207943
#
# Stress axis : x y z
#
# Youngs Moduli (GPa) = 138.58105 17.28353 139.75373
#
# Poissons Ratio (x) = 0.10519 0.47978
# Poissons Ratio (y) = 0.84340 0.77651
# Poissons Ratio (z) = 0.47575 0.09603
#
# Static dielectric constant tensor:
#      x y z
#    x 1.646820 0.000000 0.000190 
#    y 0.000000 1.665720 0.000000 
#    z 0.000190 0.000000 1.636340 
# 
# From -- ./inp_files/221651.got.cif
#   From: 2010.05.17/outbox.cif.g08.bks.cpg/sg12_111_cif.got.tgz:221651.got - 2010.06.03 13:09:07.
