data_PCOD9207874
_publ_section_title
;
Structure prediction by ZEFSAII (Michael W. Deem and Ramdas Pophale) SiO2 
 PCOD9207874
Probable space group: C 2/M
;
_chemical_formula_sum "Si O2"
_cell_formula_units_Z 64
_cell_length_a 31.435220
_cell_length_b 8.024009
_cell_length_c 14.842010
_cell_angle_alpha 90.000000
_cell_angle_beta 127.505830
_cell_angle_gamma 90.000000
_cell_volume 2969.842196
_symmetry_space_group_name_H-M "C 2/M"
_symmetry_group_IT_number 12
_symmetry_cell_setting 'monoclinic'
loop_
_space_group_symop_operation_xyz
x,y,z
-x,y,-z
-x,-y,-z
x,-y,z
1/2+x,1/2+y,z
1/2-x,1/2+y,-z
1/2-x,1/2-y,-z
1/2+x,1/2-y,z
loop_
_atom_site_type_symbol
_atom_site_label
_atom_site_fract_x
_atom_site_fract_y
_atom_site_fract_z
Si Si1 0.987888 0.696718 0.583374
Si Si2 0.050524 0.700055 0.121363
Si Si3 0.799650 0.800759 0.126996
Si Si4 0.752952 0.695948 0.250552
Si Si5 0.410198 0.297767 0.170772
Si Si6 0.703557 0.689763 0.506451
Si Si7 0.869899 0.799016 0.926496
Si Si8 0.915703 0.303478 0.643868
O O1 0.977172 0.500000 0.555203
O O2 0.938854 0.767356 0.580041
O O3 0.000000 0.769873 0.500000
O O4 0.039562 0.720382 0.713438
O O5 0.044769 0.500000 0.120177
O O6 0.102858 0.736674 0.129356
O O7 0.056594 0.767773 0.230326
O O8 0.000000 0.767189 0.000000
O O9 0.790075 0.721579 0.211872
O O10 0.855479 0.752916 0.152485
O O11 0.799431 0.000000 0.135952
O O12 0.750000 0.750000 0.000000
O O13 0.751229 0.500000 0.271623
O O14 0.774564 0.792267 0.364359
O O15 0.692396 0.750573 0.148153
O O16 0.415288 0.500000 0.178712
O O17 0.402394 0.242845 0.057056
O O18 0.690993 0.500000 0.467978
O O19 0.750000 0.750000 0.500000
O O20 0.647759 0.786228 0.428016
O O21 0.871067 0.000000 0.928357
O O22 0.928409 0.500000 0.658778
#
# Coordination Sequence:
#
# PCOD9207874 Si02
#       8
#     8   8   8   8   8   8   8   8
#     4  10  23  42  64  92 121 161 215 263 313 376
#     4  10  21  37  60  89 120 155 197 248 305 366
#     4  11  22  39  61  92 129 168 211 259 316 380
#     4  11  23  41  63  90 126 164 206 257 316 378
#     4  10  22  40  60  87 125 162 203 257 316 372
#     4  12  26  44  66  95 128 168 216 262 318 380
#     4  10  21  38  59  87 121 156 195 247 305 368
#     4  10  22  42  64  90 129 167 207 261 319 378
#
# _framework density 21.549966000000001
#
# number of rings (size 3 to 8) (size 9 to 14) (size 15 to 20)
#    0.000    1.500    1.250    3.375    1.750    7.000 
#    0.000    0.000    0.000    0.000    0.000    0.000 
#    0.000    0.000    0.000    0.000    0.000    0.000 
#
# Total GULP energy -178910.356411 kJ/mol
# GULP energy per Si atom -5590.948638 kJ/mol
# Density = 2.150092 g / cm^3
# Si number density = 21.549966 Si / 1000 Ang^3
#
#
#
# Elastic Constant Matrix: (Units=GPa)
#
#
# Indices 1 2 3 4 5 6 
#
# 1 134.0815 -0.2020 33.1161 0.0000 -22.8158 0.0000
# 2 -0.2020 14.5203 -8.9901 0.0000 -6.1080 0.0000
# 3 33.1161 -8.9901 90.1229 0.0000 -21.5124 0.0000
# 4 0.0000 0.0000 0.0000 22.0323 0.0000 -0.5877
# 5 -22.8158 -6.1080 -21.5124 0.0000 39.8881 0.0000
# 6 0.0000 0.0000 0.0000 -0.5877 0.0000 17.8218
#
#
#
# Elastic Compliance Matrix: (Units=1/GPa)
#
#
# Indices 1 2 3 4 5 6 
#
# 1 0.008658 0.000327 -0.002244 0.000000 0.003792 0.000000
# 2 0.000327 0.085752 0.013329 0.000000 0.020506 0.000000
# 3 -0.002244 0.013329 0.015415 0.000000 0.009071 0.000000
# 4 0.000000 0.000000 0.000000 0.045428 0.000000 0.001498
# 5 0.003792 0.020506 0.009071 0.000000 0.035272 0.000000
# 6 0.000000 0.000000 0.000000 0.001498 0.000000 0.056160
#
#
# Mechanical properties :
#
#
# Convention : Reuss Voigt Hill
#
# Bulk Modulus (GPa) = 7.53867 31.84142 19.69005
# Shear Modulus (GPa) = 18.65125 30.26848 24.45987
#
# Velocity S-wave (km/s) = 2.94511 3.75183 3.37268
# Velocity P-wave (km/s) = 3.88210 5.79448 4.93187
#
# Compressibility (1/GPa) = 0.13264940
#
# Stress axis : x y z
#
# Youngs Moduli (GPa) = 115.49868 11.66151 64.87028
#
# Poissons Ratio (x) = -0.00381 0.14555
# Poissons Ratio (y) = -0.03772 -0.86465
# Poissons Ratio (z) = 0.25914 -0.15544
#
# Static dielectric constant tensor:
#      x y z
#    x 1.754350 0.000000 -0.017000 
#    y 0.000000 1.779810 0.000000 
#    z -0.017000 0.000000 1.759530 
# 
# From -- ./inp_files/249977.got.cif
#   From: 2010.05.17/outbox.cif.g08.bks.cpg/sg12_125_cif.got.tgz:249977.got - 2010.06.03 13:09:07.
