data_PCOD9207059
_publ_section_title
;
Structure prediction by ZEFSAII (Michael W. Deem and Ramdas Pophale) SiO2 
 PCOD9207059
Probable space group: C 2/M
;
_chemical_formula_sum "Si O2"
_cell_formula_units_Z 40
_cell_length_a 15.120849
_cell_length_b 12.196617
_cell_length_c 20.171391
_cell_angle_alpha 90.000000
_cell_angle_beta 140.938329
_cell_angle_gamma 90.000000
_cell_volume 2344.227964
_symmetry_space_group_name_H-M "C 2/M"
_symmetry_group_IT_number 12
_symmetry_cell_setting 'monoclinic'
loop_
_space_group_symop_operation_xyz
x,y,z
-x,y,-z
-x,-y,-z
x,-y,z
1/2+x,1/2+y,z
1/2-x,1/2+y,-z
1/2-x,1/2-y,-z
1/2+x,1/2-y,z
loop_
_atom_site_type_symbol
_atom_site_label
_atom_site_fract_x
_atom_site_fract_y
_atom_site_fract_z
Si Si1 0.865179 0.765202 0.233838
Si Si2 0.860979 0.126445 0.833902
Si Si3 0.236813 0.500000 0.158453
Si Si4 0.412727 0.764995 0.111457
Si Si5 0.047087 0.500000 0.921877
Si Si6 0.932940 0.373459 0.391255
O O1 0.718880 0.694096 0.154362
O O2 0.930146 0.759170 0.199150
O O3 0.959887 0.708545 0.345754
O O4 0.822955 0.890084 0.222882
O O5 0.737282 0.127103 0.706206
O O6 0.993328 0.188362 0.881084
O O7 0.888448 0.000000 0.867943
O O8 0.095274 0.500000 0.118801
O O9 0.179953 0.500000 0.049550
O O10 0.449958 0.890371 0.118700
O O11 0.250000 0.750000 0.000000
O O12 0.973929 0.500000 0.400060
O O13 0.000000 0.342005 0.500000
#
# Coordination Sequence:
#
# PCOD9207059 Si02
#       6
#     8   8   4   8   4   8
#     4  10  21  37  56  83 110 147 184 233 275 328
#     4   9  21  39  56  82 112 144 187 233 272 327
#     4  11  20  38  53  73 116 157 181 220 281 326
#     4  12  24  35  54  84 115 149 189 223 272 328
#     4  11  22  36  54  72 112 160 189 218 269 331
#     4   8  16  37  64  82 103 141 185 234 286 328
#
# _framework density 17.063186999999999
#
# number of rings (size 3 to 8) (size 9 to 14) (size 15 to 20)
#    1.200    0.800    4.000    0.000    5.600    0.800 
#    0.000    2.500    0.000    0.000    0.000    0.000 
#    0.000    0.000    0.000    0.000    0.000    0.000 
#
# Total GULP energy -111335.762218 kJ/mol
# GULP energy per Si atom -5566.788111 kJ/mol
# Density = 1.702435 g / cm^3
# Si number density = 17.063187 Si / 1000 Ang^3
#
#
#
# Elastic Constant Matrix: (Units=GPa)
#
#
# Indices 1 2 3 4 5 6 
#
# 1 41.5604 16.7795 -17.1825 0.0000 -2.2908 0.0000
# 2 16.7795 128.0428 -0.9615 0.0000 -7.1603 0.0000
# 3 -17.1825 -0.9615 52.3448 0.0000 -11.0437 0.0000
# 4 0.0000 0.0000 0.0000 31.4017 0.0000 2.8941
# 5 -2.2908 -7.1603 -11.0437 0.0000 18.6110 0.0000
# 6 0.0000 0.0000 0.0000 2.8941 0.0000 28.3377
#
#
#
# Elastic Compliance Matrix: (Units=1/GPa)
#
#
# Indices 1 2 3 4 5 6 
#
# 1 0.031012 -0.003429 0.012167 0.000000 0.009718 0.000000
# 2 -0.003429 0.008399 -0.000433 0.000000 0.002552 0.000000
# 3 0.012167 -0.000433 0.026716 0.000000 0.017184 0.000000
# 4 0.000000 0.000000 0.000000 0.032148 0.000000 -0.003283
# 5 0.009718 0.002552 0.017184 0.000000 0.066107 0.000000
# 6 0.000000 0.000000 0.000000 -0.003283 0.000000 0.035624
#
#
# Mechanical properties :
#
#
# Convention : Reuss Voigt Hill
#
# Bulk Modulus (GPa) = 12.08663 24.35767 18.22215
# Shear Modulus (GPa) = 23.69965 30.55757 27.12861
#
# Velocity S-wave (km/s) = 3.73088 4.23643 3.99167
# Velocity P-wave (km/s) = 5.06539 6.18351 5.65217
#
# Compressibility (1/GPa) = 0.08273603
#
# Stress axis : x y z
#
# Youngs Moduli (GPa) = 32.24579 119.06540 37.43144
#
# Poissons Ratio (x) = 0.40830 -0.45543
# Poissons Ratio (y) = 0.11058 0.01620
# Poissons Ratio (z) = -0.39234 0.05154
#
# Static dielectric constant tensor:
#      x y z
#    x 1.569230 0.000000 -0.000570 
#    y 0.000000 1.494720 0.000000 
#    z -0.000570 0.000000 1.588910 
# 
# From -- ./inp_files/211658.got.cif
#   From: 2010.05.17/outbox.cif.g08.bks.cpg/sg12_106_cif.got.tgz:211658.got - 2010.06.03 13:09:07.
