data_PCOD9207145
_publ_section_title
;
Structure prediction by ZEFSAII (Michael W. Deem and Ramdas Pophale) SiO2 
 PCOD9207145
Probable space group: C 2/M
;
_chemical_formula_sum "Si O2"
_cell_formula_units_Z 48
_cell_length_a 15.190013
_cell_length_b 9.396063
_cell_length_c 27.238089
_cell_angle_alpha 90.000000
_cell_angle_beta 146.930196
_cell_angle_gamma 90.000000
_cell_volume 2121.305070
_symmetry_space_group_name_H-M "C 2/M"
_symmetry_group_IT_number 12
_symmetry_cell_setting 'monoclinic'
loop_
_space_group_symop_operation_xyz
x,y,z
-x,y,-z
-x,-y,-z
x,-y,z
1/2+x,1/2+y,z
1/2-x,1/2+y,-z
1/2-x,1/2-y,-z
1/2+x,1/2-y,z
loop_
_atom_site_type_symbol
_atom_site_label
_atom_site_fract_x
_atom_site_fract_y
_atom_site_fract_z
Si Si1 0.602712 0.156794 0.447195
Si Si2 0.941590 0.660623 0.118946
Si Si3 0.904956 0.329068 0.216480
Si Si4 0.272845 0.337431 0.627550
Si Si5 0.457369 0.330080 0.924930
Si Si6 0.185787 0.158823 0.678927
O O1 0.750000 0.250000 0.500000
O O2 0.641973 0.150450 0.523417
O O3 0.437627 0.230574 0.356306
O O4 0.609068 0.000000 0.429121
O O5 0.883025 0.500000 0.081464
O O6 0.933814 0.759670 0.067075
O O7 0.136360 0.655142 0.216189
O O8 0.884590 0.701270 0.147663
O O9 0.943866 0.500000 0.237063
O O10 0.736642 0.305246 0.166089
O O11 0.050429 0.227568 0.302697
O O12 0.292840 0.500000 0.656794
O O13 0.209957 0.221554 0.636173
O O14 0.481773 0.500000 0.933548
O O15 0.500000 0.281647 0.000000
O O16 0.116942 0.000000 0.647365
#
# Coordination Sequence:
#
# PCOD9207145 Si02
#       6
#     8   8   8   8   8   8
#     4  11  24  37  52  80 116 152 193 241 286 335
#     4   9  20  38  59  84 116 151 192 237 286 347
#     4   9  20  39  60  84 116 156 193 235 293 353
#     4  10  21  37  57  82 111 146 192 241 283 335
#     4  10  22  39  60  88 119 150 189 238 292 352
#     4  10  21  38  59  82 112 150 190 236 289 344
#
# _framework density 22.627579999999998
#
# number of rings (size 3 to 8) (size 9 to 14) (size 15 to 20)
#    0.000    2.167    0.000    3.000    2.333    9.667 
#    0.000    0.000    0.000    0.000    0.000    0.000 
#    0.000    0.000    0.000    0.000    0.000    0.000 
#
# Total GULP energy -133920.457428 kJ/mol
# GULP energy per Si atom -5580.019059 kJ/mol
# Density = 2.257608 g / cm^3
# Si number density = 22.627580 Si / 1000 Ang^3
#
#
#
# Elastic Constant Matrix: (Units=GPa)
#
#
# Indices 1 2 3 4 5 6 
#
# 1 88.1128 12.8349 -2.3679 0.0000 -9.8003 0.0000
# 2 12.8349 91.1538 10.3485 0.0000 -0.1020 0.0000
# 3 -2.3679 10.3485 65.4888 0.0000 -6.6018 0.0000
# 4 0.0000 0.0000 0.0000 28.3083 0.0000 -0.5171
# 5 -9.8003 -0.1020 -6.6018 0.0000 40.3958 0.0000
# 6 0.0000 0.0000 0.0000 -0.5171 0.0000 23.4710
#
#
#
# Elastic Compliance Matrix: (Units=1/GPa)
#
#
# Indices 1 2 3 4 5 6 
#
# 1 0.011980 -0.001800 0.001027 0.000000 0.003070 0.000000
# 2 -0.001800 0.011444 -0.001947 0.000000 -0.000726 0.000000
# 3 0.001027 -0.001947 0.015901 0.000000 0.002843 0.000000
# 4 0.000000 0.000000 0.000000 0.035340 0.000000 0.000779
# 5 0.003070 -0.000726 0.002843 0.000000 0.025963 0.000000
# 6 0.000000 0.000000 0.000000 0.000779 0.000000 0.042623
#
#
# Mechanical properties :
#
#
# Convention : Reuss Voigt Hill
#
# Bulk Modulus (GPa) = 29.51043 31.82068 30.66556
# Shear Modulus (GPa) = 31.25290 33.36437 32.30864
#
# Velocity S-wave (km/s) = 3.72046 3.84409 3.78278
# Velocity P-wave (km/s) = 5.61479 5.81343 5.71498
#
# Compressibility (1/GPa) = 0.03388633
#
# Stress axis : x y z
#
# Youngs Moduli (GPa) = 83.47018 87.38117 62.88868
#
# Poissons Ratio (x) = 0.15729 -0.06459
# Poissons Ratio (y) = 0.15025 0.12242
# Poissons Ratio (z) = -0.08573 0.17010
#
# Static dielectric constant tensor:
#      x y z
#    x 2.091820 0.000000 -0.002110 
#    y 0.000000 1.838360 0.000000 
#    z -0.002110 0.000000 1.908150 
# 
# From -- ./inp_files/360214.got.cif
#   From: 2010.05.17/outbox.cif.g08.bks.cpg/sg12_181_cif.got.tgz:360214.got - 2010.06.03 13:09:07.
