data_PCOD9207552
_publ_section_title
;
Structure prediction by ZEFSAII (Michael W. Deem and Ramdas Pophale) SiO2 
 PCOD9207552
Probable space group: C 2/M
;
_chemical_formula_sum "Si O2"
_cell_formula_units_Z 56
_cell_length_a 21.688726
_cell_length_b 13.556305
_cell_length_c 17.119628
_cell_angle_alpha 90.000000
_cell_angle_beta 147.067370
_cell_angle_gamma 90.000000
_cell_volume 2736.472622
_symmetry_space_group_name_H-M "C 2/M"
_symmetry_group_IT_number 12
_symmetry_cell_setting 'monoclinic'
loop_
_space_group_symop_operation_xyz
x,y,z
-x,y,-z
-x,-y,-z
x,-y,z
1/2+x,1/2+y,z
1/2-x,1/2+y,-z
1/2-x,1/2-y,-z
1/2+x,1/2-y,z
loop_
_atom_site_type_symbol
_atom_site_label
_atom_site_fract_x
_atom_site_fract_y
_atom_site_fract_z
Si Si1 0.543897 0.198669 0.742103
Si Si2 0.564649 0.615116 0.304531
Si Si3 0.280362 0.888119 0.178460
Si Si4 0.106738 0.722500 0.562163
Si Si5 0.512732 0.889448 0.878545
Si Si6 0.745389 0.611599 0.625689
Si Si7 0.963914 0.180209 0.047654
O O1 0.522116 0.312188 0.743090
O O2 0.663334 0.179603 0.827884
O O3 0.449478 0.176306 0.575373
O O4 0.529180 0.134312 0.804320
O O5 0.534089 0.500000 0.273955
O O6 0.683171 0.626537 0.475917
O O7 0.562912 0.655197 0.214544
O O8 0.330234 0.853914 0.314749
O O9 0.313777 0.000000 0.197537
O O10 0.146183 0.876908 0.040221
O O11 0.192116 0.807880 0.626325
O O12 0.000000 0.761639 0.500000
O O13 0.379506 0.883305 0.757344
O O14 0.565971 0.796641 0.980144
O O15 0.553062 0.000000 0.940528
O O16 0.716401 0.500000 0.620558
O O17 0.000000 0.152106 0.000000
#
# Coordination Sequence:
#
# PCOD9207552 Si02
#       7
#     8   8   8   8   8   8   8
#     4   9  20  37  58  83 111 141 182 230 274 318
#     4   9  19  36  58  84 113 144 182 226 269 318
#     4  11  23  38  56  80 112 147 182 223 273 329
#     4   9  19  35  56  84 114 145 181 223 272 321
#     4  10  21  37  59  83 108 143 185 229 274 321
#     4   9  18  35  59  85 111 142 183 229 273 316
#     4  11  24  39  55  78 112 146 182 225 273 329
#
# _framework density 20.464300999999999
#
# number of rings (size 3 to 8) (size 9 to 14) (size 15 to 20)
#    0.000    2.286    0.000    1.714    0.000   13.429 
#    0.000    6.429    0.000    0.000    0.000    0.000 
#    0.000    0.000    0.000    0.000    0.000    0.000 
#
# Total GULP energy -156335.553041 kJ/mol
# GULP energy per Si atom -5583.412609 kJ/mol
# Density = 2.041772 g / cm^3
# Si number density = 20.464301 Si / 1000 Ang^3
#
#
#
# Elastic Constant Matrix: (Units=GPa)
#
#
# Indices 1 2 3 4 5 6 
#
# 1 49.2670 -10.6625 3.8472 0.0000 -4.4448 0.0000
# 2 -10.6625 72.9952 -3.1951 0.0000 -2.3909 0.0000
# 3 3.8472 -3.1951 18.8547 0.0000 -3.4192 0.0000
# 4 0.0000 0.0000 0.0000 27.6158 0.0000 2.2599
# 5 -4.4448 -2.3909 -3.4192 0.0000 20.5994 0.0000
# 6 0.0000 0.0000 0.0000 2.2599 0.0000 15.4670
#
#
#
# Elastic Compliance Matrix: (Units=1/GPa)
#
#
# Indices 1 2 3 4 5 6 
#
# 1 0.021632 0.003174 -0.003055 0.000000 0.004529 0.000000
# 2 0.003174 0.014352 0.002279 0.000000 0.002729 0.000000
# 3 -0.003055 0.002279 0.055650 0.000000 0.008843 0.000000
# 4 0.000000 0.000000 0.000000 0.036649 0.000000 -0.005355
# 5 0.004529 0.002729 0.008843 0.000000 0.051307 0.000000
# 6 0.000000 0.000000 0.000000 -0.005355 0.000000 0.065436
#
#
# Mechanical properties :
#
#
# Convention : Reuss Voigt Hill
#
# Bulk Modulus (GPa) = 10.36994 13.45514 11.91254
# Shear Modulus (GPa) = 18.35718 22.81159 20.58439
#
# Velocity S-wave (km/s) = 2.99830 3.34234 3.17498
# Velocity P-wave (km/s) = 4.13095 4.63510 4.39027
#
# Compressibility (1/GPa) = 0.09643253
#
# Stress axis : x y z
#
# Youngs Moduli (GPa) = 46.22842 69.67487 17.96936
#
# Poissons Ratio (x) = -0.22118 0.05489
# Poissons Ratio (y) = -0.14675 -0.04096
# Poissons Ratio (z) = 0.14121 -0.15881
#
# Static dielectric constant tensor:
#      x y z
#    x 1.699920 0.000000 -0.020600 
#    y 0.000000 1.731240 0.000000 
#    z -0.020600 0.000000 1.755880 
# 
# From -- ./inp_files/284582.got.cif
#   From: 2010.05.17/outbox.cif.g08.bks.cpg/sg12_143_cif.got.tgz:284582.got - 2010.06.03 13:09:07.
