data_PCOD9207306
_publ_section_title
;
Structure prediction by ZEFSAII (Michael W. Deem and Ramdas Pophale) SiO2 
 PCOD9207306
Probable space group: C 2/M
;
_chemical_formula_sum "Si O2"
_cell_formula_units_Z 64
_cell_length_a 15.102608
_cell_length_b 8.357207
_cell_length_c 31.867848
_cell_angle_alpha 90.000000
_cell_angle_beta 49.104670
_cell_angle_gamma 90.000000
_cell_volume 3040.423757
_symmetry_space_group_name_H-M "C 2/M"
_symmetry_group_IT_number 12
_symmetry_cell_setting 'monoclinic'
loop_
_space_group_symop_operation_xyz
x,y,z
-x,y,-z
-x,-y,-z
x,-y,z
1/2+x,1/2+y,z
1/2-x,1/2+y,-z
1/2-x,1/2-y,-z
1/2+x,1/2-y,z
loop_
_atom_site_type_symbol
_atom_site_label
_atom_site_fract_x
_atom_site_fract_y
_atom_site_fract_z
Si Si1 0.987282 0.304814 0.687020
Si Si2 0.762173 0.306070 0.367597
Si Si3 0.364432 0.808483 0.989977
Si Si4 0.504290 0.192916 0.130116
Si Si5 0.760885 0.692792 0.893541
Si Si6 0.744719 0.306819 0.802524
Si Si7 0.169900 0.810753 0.486874
Si Si8 0.538378 0.189285 0.398963
O O1 0.985144 0.500000 0.687322
O O2 0.102172 0.258649 0.677400
O O3 0.863381 0.249931 0.743376
O O4 0.003283 0.254207 0.633823
O O5 0.754754 0.500000 0.367626
O O6 0.714172 0.251102 0.428155
O O7 0.674058 0.231552 0.361776
O O8 0.343839 0.745786 0.043103
O O9 0.366442 0.000000 0.991059
O O10 0.250000 0.750000 0.000000
O O11 0.467989 0.754931 0.926710
O O12 0.614130 0.245894 0.124903
O O13 0.375926 0.252913 0.181326
O O14 0.504227 0.000000 0.131117
O O15 0.762706 0.500000 0.893072
O O16 0.747476 0.749154 0.850131
O O17 0.746842 0.500000 0.802079
O O18 0.250000 0.750000 0.500000
O O19 0.037984 0.767490 0.540644
O O20 0.181779 0.000000 0.481503
O O21 0.520320 0.000000 0.407098
#
# Coordination Sequence:
#
# PCOD9207306 Si02
#       8
#     8   8   8   8   8   8   8   8
#     4   9  20  40  58  76 110 149 186 229 280 326
#     4  10  21  39  60  83 112 149 186 226 277 334
#     4   9  17  31  53  79 109 144 176 216 273 331
#     4   9  19  35  53  78 111 140 173 224 279 325
#     4   9  19  35  54  79 109 142 180 223 272 327
#     4  10  21  37  58  79 103 145 192 228 268 326
#     4  11  21  36  60  88 118 151 184 224 279 335
#     4  11  22  38  59  86 116 149 186 231 279 329
#
# _framework density 21.049696000000001
#
# number of rings (size 3 to 8) (size 9 to 14) (size 15 to 20)
#    0.000    2.250    1.250    2.250    0.000    7.000 
#    0.000    5.625    0.000    0.000    0.000    0.000 
#    0.000    0.000    0.000    0.000    0.000    0.000 
#
# Total GULP energy -178640.892501 kJ/mol
# GULP energy per Si atom -5582.527891 kJ/mol
# Density = 2.100179 g / cm^3
# Si number density = 21.049696 Si / 1000 Ang^3
#
#
#
# Elastic Constant Matrix: (Units=GPa)
#
#
# Indices 1 2 3 4 5 6 
#
# 1 69.2024 -2.7034 -0.1441 -0.0001 -19.8020 -0.0003
# 2 -2.7034 5.0459 -0.5447 -0.0003 2.2948 -0.0005
# 3 -0.1441 -0.5447 50.0903 -0.0001 -24.1230 -0.0002
# 4 -0.0001 -0.0003 -0.0001 21.0166 0.0000 -7.7491
# 5 -19.8020 2.2948 -24.1230 0.0000 35.5271 -0.0001
# 6 -0.0003 -0.0005 -0.0002 -7.7491 -0.0001 24.4425
#
#
#
# Elastic Compliance Matrix: (Units=1/GPa)
#
#
# Indices 1 2 3 4 5 6 
#
# 1 0.019057 0.003977 0.007563 0.000000 0.015500 0.000001
# 2 0.003977 0.206287 -0.004599 0.000006 -0.014231 0.000006
# 3 0.007563 -0.004599 0.032851 0.000000 0.026818 0.000000
# 4 0.000000 0.000006 0.000000 0.053880 0.000000 0.017082
# 5 0.015500 -0.014231 0.026818 0.000000 0.055916 0.000000
# 6 0.000001 0.000006 0.000000 0.017082 0.000000 0.046328
#
#
# Mechanical properties :
#
#
# Convention : Reuss Voigt Hill
#
# Bulk Modulus (GPa) = 3.67544 13.06158 8.36851
# Shear Modulus (GPa) = 10.18062 24.71261 17.44662
#
# Velocity S-wave (km/s) = 2.20158 3.43010 2.88206
# Velocity P-wave (km/s) = 2.86574 4.68039 3.88063
#
# Compressibility (1/GPa) = 0.27207616
#
# Stress axis : x y z
#
# Youngs Moduli (GPa) = 52.47487 4.84762 30.44025
#
# Poissons Ratio (x) = -0.01928 -0.23021
# Poissons Ratio (y) = -0.20868 0.13999
# Poissons Ratio (z) = -0.39685 0.02229
#
# Static dielectric constant tensor:
#      x y z
#    x 1.772420 0.000000 -0.004470 
#    y 0.000000 1.730510 0.000000 
#    z -0.004470 0.000000 1.785310 
# 
# From -- ./inp_files/375491.got.cif
#   From: 2010.05.17/outbox.cif.g08.bks.cpg/sg12_188_cif.got.tgz:375491.got - 2010.06.03 13:09:07.
