data_PCOD9207284
_publ_section_title
;
Structure prediction by ZEFSAII (Michael W. Deem and Ramdas Pophale) SiO2 
 PCOD9207284
Probable space group: C 2/M
;
_chemical_formula_sum "Si O2"
_cell_formula_units_Z 42
_cell_length_a 15.885329
_cell_length_b 8.850065
_cell_length_c 16.945082
_cell_angle_alpha 90.000000
_cell_angle_beta 104.176628
_cell_angle_gamma 90.000000
_cell_volume 2309.694127
_symmetry_space_group_name_H-M "C 2/M"
_symmetry_group_IT_number 12
_symmetry_cell_setting 'monoclinic'
loop_
_space_group_symop_operation_xyz
x,y,z
-x,y,-z
-x,-y,-z
x,-y,z
1/2+x,1/2+y,z
1/2-x,1/2+y,-z
1/2-x,1/2-y,-z
1/2+x,1/2-y,z
loop_
_atom_site_type_symbol
_atom_site_label
_atom_site_fract_x
_atom_site_fract_y
_atom_site_fract_z
Si Si1 0.278586 0.680003 0.250020
Si Si2 0.500000 0.000000 0.500000
Si Si3 0.700709 0.178845 0.914347
Si Si4 0.540498 0.832807 0.668445
Si Si5 0.979533 0.821748 0.086458
Si Si6 0.395058 0.321161 0.741089
O O1 0.280185 0.500000 0.247830
O O2 0.268140 0.746494 0.159671
O O3 0.369864 0.743350 0.302683
O O4 0.197262 0.739125 0.281719
O O5 0.482789 0.129058 0.427031
O O6 0.599834 0.221555 0.901768
O O7 0.714529 0.000000 0.915111
O O8 0.750000 0.250000 0.000000
O O9 0.463228 0.746413 0.694625
O O10 0.552341 0.000000 0.709701
O O11 0.061040 0.798953 0.162690
O O12 0.954834 0.000000 0.086825
O O13 0.000000 0.789776 0.000000
O O14 0.384037 0.500000 0.726417
#
# Coordination Sequence:
#
# PCOD9207284 Si02
#       6
#     8   2   8   8   8   8
#     4  12  24  40  66  98 133 178 224 271 327 400
#     4   8  24  44  78  96 134 166 212 280 342 412
#     4  12  24  38  58  88 130 178 228 282 326 381
#     4  10  21  44  70  96 130 166 215 269 340 398
#     4  10  21  37  57  87 129 174 223 276 326 384
#     4  11  22  38  66  99 133 177 221 272 332 397
#
# _framework density 18.184225000000001
#
# number of rings (size 3 to 8) (size 9 to 14) (size 15 to 20)
#    0.571    0.571    1.905    5.714    0.000    2.667 
#    0.000    2.857    0.000    0.000    0.000    0.000 
#    0.000    0.000    0.000    0.000    0.000    0.000 
#
# Total GULP energy -117065.043684 kJ/mol
# GULP energy per Si atom -5574.525890 kJ/mol
# Density = 1.814284 g / cm^3
# Si number density = 18.184225 Si / 1000 Ang^3
#
#
#
# Elastic Constant Matrix: (Units=GPa)
#
#
# Indices 1 2 3 4 5 6 
#
# 1 143.8510 77.7792 51.1534 0.0000 6.1584 0.0000
# 2 77.7792 149.8475 50.2005 0.0000 2.7837 0.0000
# 3 51.1534 50.2005 117.0913 0.0000 -7.0816 0.0000
# 4 0.0000 0.0000 0.0000 19.9277 0.0000 10.9611
# 5 6.1584 2.7837 -7.0816 0.0000 5.6840 0.0000
# 6 0.0000 0.0000 0.0000 10.9611 0.0000 26.4621
#
#
#
# Elastic Compliance Matrix: (Units=1/GPa)
#
#
# Indices 1 2 3 4 5 6 
#
# 1 0.011344 -0.004244 -0.004060 0.000000 -0.015270 0.000000
# 2 -0.004244 0.009793 -0.002548 0.000000 -0.003372 0.000000
# 3 -0.004060 -0.002548 0.012705 0.000000 0.021475 0.000000
# 4 0.000000 0.000000 0.000000 0.064988 0.000000 -0.026919
# 5 -0.015270 -0.003372 0.021475 0.000000 0.220882 0.000000
# 6 0.000000 0.000000 0.000000 -0.026919 0.000000 0.048940
#
#
# Mechanical properties :
#
#
# Convention : Reuss Voigt Hill
#
# Bulk Modulus (GPa) = 82.38906 85.45066 83.91986
# Shear Modulus (GPa) = 12.67742 25.85856 19.26799
#
# Velocity S-wave (km/s) = 2.64325 3.77508 3.25868
# Velocity P-wave (km/s) = 7.39744 8.12990 7.77230
#
# Compressibility (1/GPa) = 0.01213753
#
# Stress axis : x y z
#
# Youngs Moduli (GPa) = 88.15355 102.11531 78.70847
#
# Poissons Ratio (x) = 0.43342 0.31952
# Poissons Ratio (y) = 0.37416 0.20056
# Poissons Ratio (z) = 0.35786 0.26021
#
# Static dielectric constant tensor:
#      x y z
#    x 1.624160 0.000000 0.007960 
#    y 0.000000 1.615880 0.000000 
#    z 0.007960 0.000000 1.615080 
# 
# From -- ./inp_files/267055.got.cif
#   From: 2010.05.17/outbox.cif.g08.bks.cpg/sg12_134_cif.got.tgz:267055.got - 2010.06.03 13:09:07.
