data_PCOD9207533
_publ_section_title
;
Structure prediction by ZEFSAII (Michael W. Deem and Ramdas Pophale) SiO2 
 PCOD9207533
Probable space group: C 2/M
;
_chemical_formula_sum "Si O2"
_cell_formula_units_Z 56
_cell_length_a 16.492013
_cell_length_b 14.415616
_cell_length_c 24.620496
_cell_angle_alpha 90.000000
_cell_angle_beta 26.257266
_cell_angle_gamma 90.000000
_cell_volume 2589.531328
_symmetry_space_group_name_H-M "C 2/M"
_symmetry_group_IT_number 12
_symmetry_cell_setting 'monoclinic'
loop_
_space_group_symop_operation_xyz
x,y,z
-x,y,-z
-x,-y,-z
x,-y,z
1/2+x,1/2+y,z
1/2-x,1/2+y,-z
1/2-x,1/2-y,-z
1/2+x,1/2-y,z
loop_
_atom_site_type_symbol
_atom_site_label
_atom_site_fract_x
_atom_site_fract_y
_atom_site_fract_z
Si Si1 0.801820 0.327184 0.101916
Si Si2 0.758150 0.613645 0.443976
Si Si3 0.521278 0.776754 0.209597
Si Si4 0.289648 0.389804 0.308834
Si Si5 0.462994 0.890429 0.431777
Si Si6 0.551359 0.892661 0.098372
Si Si7 0.158908 0.893199 0.298463
O O1 0.656080 0.249103 0.177070
O O2 0.716518 0.388867 0.200684
O O3 0.845117 0.381000 0.020420
O O4 0.000000 0.290109 0.000000
O O5 0.762899 0.500000 0.437769
O O6 0.860573 0.661367 0.332254
O O7 0.860331 0.642239 0.438907
O O8 0.544984 0.645444 0.571818
O O9 0.450216 0.682272 0.224436
O O10 0.631875 0.835039 0.098956
O O11 0.337739 0.500000 0.273823
O O12 0.169785 0.382802 0.436303
O O13 0.160834 0.358011 0.335623
O O14 0.490712 0.000000 0.405885
O O15 0.341025 0.855605 0.218244
O O16 0.543659 0.000000 0.116674
O O17 0.145689 0.000000 0.323715
#
# Coordination Sequence:
#
# PCOD9207533 Si02
#       7
#     8   8   8   8   8   8   8
#     4  10  22  40  61  83 108 147 203 254 287 323
#     4  10  21  37  58  89 126 156 185 226 286 359
#     4  12  24  36  59  88 119 155 186 230 296 359
#     4   9  19  34  53  80 112 149 193 237 279 327
#     4   8  16  33  53  75 113 158 194 229 270 328
#     4  10  22  41  61  83 116 155 197 241 283 336
#     4   9  19  37  62  89 116 151 193 239 290 340
#
# _framework density 21.625534999999999
#
# number of rings (size 3 to 8) (size 9 to 14) (size 15 to 20)
#    0.000    2.286    0.000    3.000    0.000   11.429 
#    0.000    2.143    0.000    1.714    0.000    0.000 
#    0.000    0.000    0.000    0.000    0.000    0.000 
#
# Total GULP energy -156217.340685 kJ/mol
# GULP energy per Si atom -5579.190739 kJ/mol
# Density = 2.157631 g / cm^3
# Si number density = 21.625535 Si / 1000 Ang^3
#
#
#
# Elastic Constant Matrix: (Units=GPa)
#
#
# Indices 1 2 3 4 5 6 
#
# 1 29.9224 -4.1644 -6.5047 -0.0092 4.8713 -0.0055
# 2 -4.1644 52.6043 18.6896 -0.0090 -4.1259 -0.0100
# 3 -6.5047 18.6896 68.0749 -0.0334 -8.3687 -0.0273
# 4 -0.0092 -0.0090 -0.0334 20.5935 0.0022 8.7880
# 5 4.8713 -4.1259 -8.3687 0.0022 23.7787 -0.0065
# 6 -0.0055 -0.0100 -0.0273 8.7880 -0.0065 -2.2049
#
#
#
# Elastic Compliance Matrix: (Units=1/GPa)
#
#
# Indices 1 2 3 4 5 6 
#
# 1 0.035108 0.001522 0.002179 0.000024 -0.006161 -0.000008
# 2 0.001522 0.021196 -0.005498 0.000006 0.001431 -0.000012
# 3 0.002179 -0.005498 0.016969 0.000042 0.004572 -0.000038
# 4 0.000024 0.000006 0.000042 0.017980 0.000029 0.071659
# 5 -0.006161 0.001431 0.004572 0.000029 0.045174 -0.000067
# 6 -0.000008 -0.000012 -0.000038 0.071659 -0.000067 -0.167925
#
#
# Mechanical properties :
#
#
# Convention : Reuss Voigt Hill
#
# Bulk Modulus (GPa) = 14.35123 18.51586 16.43355
# Shear Modulus (GPa) = -1068.78787 17.93886 -525.42450
#
# Velocity S-wave (km/s) = -22.25529 2.88327 -15.60424
# Velocity P-wave (km/s) = 25.56847 4.43452 17.80564
#
# Compressibility (1/GPa) = 0.06968042
#
# Stress axis : x y z
#
# Youngs Moduli (GPa) = 28.48318 47.17895 58.92965
#
# Poissons Ratio (x) = -0.07180 -0.12844
# Poissons Ratio (y) = -0.04335 0.32399
# Poissons Ratio (z) = -0.06208 0.25938
#
# Static dielectric constant tensor:
#      x y z
#    x 1.810330 0.000000 -0.047740 
#    y 0.000000 1.789020 0.000010 
#    z -0.047740 0.000010 1.794800 
# 
# From -- ./inp_files/340326.got.cif
#   From: 2010.05.17/outbox.cif.g08.bks.cpg/sg12_171_cif.got.tgz:340326.got - 2010.06.03 13:09:07.
