data_PCOD9207101
_publ_section_title
;
Structure prediction by ZEFSAII (Michael W. Deem and Ramdas Pophale) SiO2 
 PCOD9207101
Probable space group: C 2/M
;
_chemical_formula_sum "Si O2"
_cell_formula_units_Z 40
_cell_length_a 24.059171
_cell_length_b 9.904634
_cell_length_c 7.985645
_cell_angle_alpha 90.000000
_cell_angle_beta 92.572962
_cell_angle_gamma 90.000000
_cell_volume 1901.039070
_symmetry_space_group_name_H-M "C 2/M"
_symmetry_group_IT_number 12
_symmetry_cell_setting 'monoclinic'
loop_
_space_group_symop_operation_xyz
x,y,z
-x,y,-z
-x,-y,-z
x,-y,z
1/2+x,1/2+y,z
1/2-x,1/2+y,-z
1/2-x,1/2-y,-z
1/2+x,1/2-y,z
loop_
_atom_site_type_symbol
_atom_site_label
_atom_site_fract_x
_atom_site_fract_y
_atom_site_fract_z
Si Si1 0.973158 0.500000 0.266966
Si Si2 0.837705 0.281583 0.731165
Si Si3 0.864978 0.000000 0.261159
Si Si4 0.413634 0.000000 0.897523
Si Si5 0.106658 0.715932 0.626946
Si Si6 0.753076 0.500000 0.603399
Si Si7 0.806639 0.500000 0.246752
Si Si8 0.193429 0.000000 0.105052
O O1 0.949073 0.629443 0.359847
O O2 0.038003 0.500000 0.236214
O O3 0.943040 0.500000 0.080573
O O4 0.875290 0.369777 0.861816
O O5 0.871005 0.277018 0.559843
O O6 0.781849 0.367809 0.687265
O O7 0.823908 0.135548 0.800134
O O8 0.898509 0.864083 0.298940
O O9 0.812221 0.000000 0.379616
O O10 0.837346 0.000000 0.075696
O O11 0.153875 0.630307 0.733906
O O12 0.770631 0.500000 0.412570
O O13 0.760732 0.500000 0.096518
#
# Coordination Sequence:
#
# PCOD9207101 Si02
#       8
#     4   8   4   4   8   4   4   4
#     4  10  21  39  62  85 109 136 171 222 278 327
#     4  10  21  37  57  80 109 146 186 224 263 318
#     4  12  23  33  51  81 116 148 180 225 274 317
#     4  10  21  39  62  85 109 136 171 222 278 327
#     4  10  21  37  57  80 109 146 186 224 263 318
#     4   9  19  35  54  77 108 148 188 222 262 316
#     4   9  19  35  54  77 108 148 188 222 262 316
#     4  12  23  33  51  81 116 148 180 225 274 317
#
# _framework density 21.041125999999998
#
# number of rings (size 3 to 8) (size 9 to 14) (size 15 to 20)
#    0.000    1.800    0.000    6.000    0.000   11.200 
#    0.000    1.000    0.000    6.000    0.000    0.000 
#    0.000    0.000    0.000    0.000    0.000    0.000 
#
# Total GULP energy -111948.958684 kJ/mol
# GULP energy per Si atom -5597.447934 kJ/mol
# Density = 2.099324 g / cm^3
# Si number density = 21.041126 Si / 1000 Ang^3
#
#
#
# Elastic Constant Matrix: (Units=GPa)
#
#
# Indices 1 2 3 4 5 6 
#
# 1 71.1844 30.6586 3.8554 0.0000 -10.7461 0.0000
# 2 30.6586 174.7647 25.9412 0.0000 0.3312 0.0000
# 3 3.8554 25.9412 68.0713 0.0000 0.1274 0.0000
# 4 0.0000 0.0000 0.0000 -6.3719 0.0000 12.4891
# 5 -10.7461 0.3312 0.1274 0.0000 35.8966 0.0000
# 6 0.0000 0.0000 0.0000 12.4891 0.0000 -5.2172
#
#
#
# Elastic Compliance Matrix: (Units=1/GPa)
#
#
# Indices 1 2 3 4 5 6 
#
# 1 0.015988 -0.002839 0.000167 0.000000 0.004812 0.000000
# 2 -0.002839 0.006569 -0.002341 0.000000 -0.000902 0.000000
# 3 0.000167 -0.002341 0.015573 0.000000 0.000016 0.000000
# 4 0.000000 0.000000 0.000000 0.042508 0.000000 0.101757
# 5 0.004812 -0.000902 0.000016 0.000000 0.029307 0.000000
# 6 0.000000 0.000000 0.000000 0.101757 0.000000 0.051916
#
#
# Mechanical properties :
#
#
# Convention : Reuss Voigt Hill
#
# Bulk Modulus (GPa) = 35.58031 48.32565 41.95298
# Shear Modulus (GPa) = 27.58556 21.76585 24.67570
#
# Velocity S-wave (km/s) = 3.62474 3.21977 3.42824
# Velocity P-wave (km/s) = 5.87069 6.06956 5.97095
#
# Compressibility (1/GPa) = 0.02810543
#
# Stress axis : x y z
#
# Youngs Moduli (GPa) = 62.54713 152.22660 64.21336
#
# Poissons Ratio (x) = 0.43212 -0.01074
# Poissons Ratio (y) = 0.17755 0.15032
# Poissons Ratio (z) = -0.01046 0.35636
#
# Static dielectric constant tensor:
#      x y z
#    x 1.728550 0.000000 -0.002130 
#    y 0.000000 1.726440 0.000000 
#    z -0.002130 0.000000 1.794960 
# 
# From -- ./inp_files/93002.got.cif
#   From: 2010.05.17/outbox.cif.g08.bks.cpg/sg12_47_cif.got.tgz:93002.got - 2010.06.03 13:09:07.
