data_PCOD9207038
_publ_section_title
;
Structure prediction by ZEFSAII (Michael W. Deem and Ramdas Pophale) SiO2 
 PCOD9207038
Probable space group: C 2/M
;
_chemical_formula_sum "Si O2"
_cell_formula_units_Z 56
_cell_length_a 25.899795
_cell_length_b 17.381585
_cell_length_c 9.725060
_cell_angle_alpha 90.000000
_cell_angle_beta 37.574220
_cell_angle_gamma 90.000000
_cell_volume 2669.668296
_symmetry_space_group_name_H-M "C 2/M"
_symmetry_group_IT_number 12
_symmetry_cell_setting 'monoclinic'
loop_
_space_group_symop_operation_xyz
x,y,z
-x,y,-z
-x,-y,-z
x,-y,z
1/2+x,1/2+y,z
1/2-x,1/2+y,-z
1/2-x,1/2-y,-z
1/2+x,1/2-y,z
loop_
_atom_site_type_symbol
_atom_site_label
_atom_site_fract_x
_atom_site_fract_y
_atom_site_fract_z
Si Si1 0.789877 0.413126 0.872669
Si Si2 0.745837 0.414136 0.534038
Si Si3 0.509375 0.323641 0.639056
Si Si4 0.431710 0.587359 0.247037
Si Si5 0.816475 0.812948 0.094035
Si Si6 0.848388 0.368850 0.052741
Si Si7 0.967822 0.357508 0.413984
O O1 0.759417 0.500000 0.911292
O O2 0.723467 0.349140 0.960211
O O3 0.876653 0.397023 0.603017
O O4 0.813288 0.405991 0.985228
O O5 0.759126 0.500000 0.564347
O O6 0.656059 0.413435 0.645866
O O7 0.738053 0.350069 0.668015
O O8 0.810757 0.397949 0.274692
O O9 0.500000 0.344678 0.500000
O O10 0.572826 0.371161 0.598219
O O11 0.538123 0.234825 0.586498
O O12 0.414989 0.336632 0.897694
O O13 0.460141 0.500000 0.213986
O O14 0.500000 0.624656 0.000000
O O15 0.822729 0.720941 0.087581
O O16 0.950134 0.380163 0.846875
O O17 0.000000 0.372674 0.500000
#
# Coordination Sequence:
#
# PCOD9207038 Si02
#       7
#     8   8   8   8   8   8   8
#     4  11  23  39  64  93 122 158 197 250 310 357
#     4  11  23  39  59  86 122 161 201 246 300 359
#     4  10  21  38  61  86 118 157 198 249 292 353
#     4  10  21  37  56  81 116 161 199 236 296 355
#     4  11  23  40  60  88 125 159 197 248 307 358
#     4  10  22  40  63  89 116 157 209 248 289 359
#     4   8  19  39  60  87 116 152 197 242 300 352
#
# _framework density 20.976389000000001
#
# number of rings (size 3 to 8) (size 9 to 14) (size 15 to 20)
#    0.000    1.857    1.429    2.571    4.000    4.000 
#    0.000    0.714    0.000    1.714    0.000    0.000 
#    0.000    0.000    0.000    0.000    0.000    0.000 
#
# Total GULP energy -156259.237655 kJ/mol
# GULP energy per Si atom -5580.687059 kJ/mol
# Density = 2.092865 g / cm^3
# Si number density = 20.976389 Si / 1000 Ang^3
#
#
#
# Elastic Constant Matrix: (Units=GPa)
#
#
# Indices 1 2 3 4 5 6 
#
# 1 24.6201 13.9736 -16.5588 0.0000 13.8055 0.0000
# 2 13.9736 44.0225 12.6213 0.0000 0.4900 0.0000
# 3 -16.5588 12.6213 93.5771 0.0000 13.6749 0.0000
# 4 0.0000 0.0000 0.0000 12.9094 0.0000 14.8196
# 5 13.8055 0.4900 13.6749 0.0000 29.1130 0.0000
# 6 0.0000 0.0000 0.0000 14.8196 0.0000 13.6338
#
#
#
# Elastic Compliance Matrix: (Units=1/GPa)
#
#
# Indices 1 2 3 4 5 6 
#
# 1 0.195053 -0.078559 0.062741 0.000000 -0.120644 0.000000
# 2 -0.078559 0.055307 -0.028634 0.000000 0.049772 0.000000
# 3 0.062741 -0.028634 0.032134 0.000000 -0.044364 0.000000
# 4 0.000000 0.000000 0.000000 -0.312594 0.000000 0.339781
# 5 -0.120644 0.049772 -0.044364 0.000000 0.111560 0.000000
# 6 0.000000 0.000000 0.000000 0.339781 0.000000 -0.295985
#
#
# Mechanical properties :
#
#
# Convention : Reuss Voigt Hill
#
# Bulk Modulus (GPa) = 5.16554 20.25465 12.71009
# Shear Modulus (GPa) = -81.84468 21.27683 -30.28393
#
# Velocity S-wave (km/s) = -6.25318 3.18830 -3.80375
# Velocity P-wave (km/s) = 7.04758 4.81981 3.63578
#
# Compressibility (1/GPa) = 0.19359075
#
# Stress axis : x y z
#
# Youngs Moduli (GPa) = 5.12681 18.08083 31.11970
#
# Poissons Ratio (x) = 1.42041 -1.95249
# Poissons Ratio (y) = 0.40276 0.89109
# Poissons Ratio (z) = -0.32166 0.51773
#
# Static dielectric constant tensor:
#      x y z
#    x 1.729130 0.000000 -0.012150 
#    y 0.000000 1.722020 0.000000 
#    z -0.012150 0.000000 1.800460 
# 
# From -- ./inp_files/105949.got.cif
#   From: 2010.05.17/outbox.cif.g08.bks.cpg/sg12_53_cif.got.tgz:105949.got - 2010.06.03 13:09:07.
