data_PCOD9207314
_publ_section_title
;
Structure prediction by ZEFSAII (Michael W. Deem and Ramdas Pophale) SiO2 
 PCOD9207314
Probable space group: C 2/M
;
_chemical_formula_sum "Si O2"
_cell_formula_units_Z 60
_cell_length_a 22.398841
_cell_length_b 22.721842
_cell_length_c 8.938763
_cell_angle_alpha 90.000000
_cell_angle_beta 38.654281
_cell_angle_gamma 90.000000
_cell_volume 2841.595086
_symmetry_space_group_name_H-M "C 2/M"
_symmetry_group_IT_number 12
_symmetry_cell_setting 'monoclinic'
loop_
_space_group_symop_operation_xyz
x,y,z
-x,y,-z
-x,-y,-z
x,-y,z
1/2+x,1/2+y,z
1/2-x,1/2+y,-z
1/2-x,1/2-y,-z
1/2+x,1/2-y,z
loop_
_atom_site_type_symbol
_atom_site_label
_atom_site_fract_x
_atom_site_fract_y
_atom_site_fract_z
Si Si1 0.365600 0.930977 0.617178
Si Si2 0.247691 0.354387 0.369265
Si Si3 0.040529 0.608084 0.079233
Si Si4 0.686585 0.741603 0.975414
Si Si5 0.775632 0.429618 0.111044
Si Si6 0.321379 0.668120 0.545467
Si Si7 0.000000 0.272902 0.500000
Si Si8 0.435357 0.217017 0.328240
O O1 0.292545 0.912888 0.628080
O O2 0.469697 0.912899 0.350528
O O3 0.370318 0.000000 0.626807
O O4 0.324361 0.909814 0.858419
O O5 0.304880 0.355086 0.410405
O O6 0.152312 0.315126 0.581906
O O7 0.301628 0.319025 0.134735
O O8 0.027748 0.679449 0.099442
O O9 0.144554 0.585184 0.918349
O O10 0.000000 0.585700 0.000000
O O11 0.576691 0.743797 0.240690
O O12 0.750000 0.750000 0.000000
O O13 0.733370 0.790532 0.774406
O O14 0.756628 0.500000 0.145741
O O15 0.685879 0.387796 0.328984
O O16 0.411293 0.713674 0.368042
O O17 0.070300 0.300717 0.484553
#
# Coordination Sequence:
#
# PCOD9207314 Si02
#       8
#     8   8   8   8   8   8   4   8
#     4  10  22  37  57  85 117 162 216 258 311 377
#     4  10  21  37  58  81 120 165 200 263 311 366
#     4  11  23  36  55  85 127 167 202 255 311 384
#     4  11  20  37  58  85 122 159 203 255 311 379
#     4  11  23  38  61  88 120 164 212 264 312 375
#     4  11  22  39  59  81 126 164 209 262 310 369
#     4  12  22  32  58  90 108 162 196 248 302 374
#     4  10  22  34  54  86 116 159 206 247 306 361
#
# _framework density 21.114903000000002
#
# number of rings (size 3 to 8) (size 9 to 14) (size 15 to 20)
#    0.000    1.333    2.667    5.600    5.600    4.800 
#    0.000    0.000    0.000    0.000    0.000    1.867 
#    0.000    2.667    0.000    0.000    0.000    0.000 
#
# Total GULP energy -167104.954154 kJ/mol
# GULP energy per Si atom -5570.165138 kJ/mol
# Density = 2.106684 g / cm^3
# Si number density = 21.114903 Si / 1000 Ang^3
#
#
#
# Elastic Constant Matrix: (Units=GPa)
#
#
# Indices 1 2 3 4 5 6 
#
# 1 76.5231 2.5017 9.3044 0.0000 22.8384 0.0000
# 2 2.5017 64.3944 18.0941 0.0000 -7.0109 0.0000
# 3 9.3044 18.0941 76.6457 0.0000 5.8886 0.0000
# 4 0.0000 0.0000 0.0000 4.8460 0.0000 -1.6263
# 5 22.8384 -7.0109 5.8886 0.0000 29.3890 0.0000
# 6 0.0000 0.0000 0.0000 -1.6263 0.0000 20.3393
#
#
#
# Elastic Compliance Matrix: (Units=1/GPa)
#
#
# Indices 1 2 3 4 5 6 
#
# 1 0.017333 -0.002022 -0.000564 0.000000 -0.013839 0.000000
# 2 -0.002022 0.017572 -0.004414 0.000000 0.006647 0.000000
# 3 -0.000564 -0.004414 0.014427 0.000000 -0.003505 0.000000
# 4 0.000000 0.000000 0.000000 0.212046 0.000000 0.016955
# 5 -0.013839 0.006647 -0.003505 0.000000 0.047069 0.000000
# 6 0.000000 0.000000 0.000000 0.016955 0.000000 0.050522
#
#
# Mechanical properties :
#
#
# Convention : Reuss Voigt Hill
#
# Bulk Modulus (GPa) = 28.30173 30.81820 29.55996
# Shear Modulus (GPa) = 12.99568 23.42572 18.21070
#
# Velocity S-wave (km/s) = 2.48357 3.33444 2.93995
# Velocity P-wave (km/s) = 4.65370 5.42695 5.05513
#
# Compressibility (1/GPa) = 0.03533353
#
# Stress axis : x y z
#
# Youngs Moduli (GPa) = 57.69419 56.90972 69.31583
#
# Poissons Ratio (x) = 0.11505 0.03907
# Poissons Ratio (y) = 0.11664 0.30593
# Poissons Ratio (z) = 0.03252 0.25117
#
# Static dielectric constant tensor:
#      x y z
#    x 1.884790 0.000000 0.002360 
#    y 0.000000 1.831550 0.000000 
#    z 0.002360 0.000000 1.821470 
# 
# From -- ./inp_files/99785.got.cif
#   From: 2010.05.17/outbox.cif.g08.bks.cpg/sg12_50_cif.got.tgz:99785.got - 2010.06.03 13:09:07.
