data_PCOD9207979
_publ_section_title
;
Structure prediction by ZEFSAII (Michael W. Deem and Ramdas Pophale) SiO2 
 PCOD9207979
Probable space group: C 2/M
;
_chemical_formula_sum "Si O2"
_cell_formula_units_Z 40
_cell_length_a 12.815636
_cell_length_b 12.364120
_cell_length_c 21.584532
_cell_angle_alpha 90.000000
_cell_angle_beta 145.158381
_cell_angle_gamma 90.000000
_cell_volume 1953.969383
_symmetry_space_group_name_H-M "C 2/M"
_symmetry_group_IT_number 12
_symmetry_cell_setting 'monoclinic'
loop_
_space_group_symop_operation_xyz
x,y,z
-x,y,-z
-x,-y,-z
x,-y,z
1/2+x,1/2+y,z
1/2-x,1/2+y,-z
1/2-x,1/2-y,-z
1/2+x,1/2-y,z
loop_
_atom_site_type_symbol
_atom_site_label
_atom_site_fract_x
_atom_site_fract_y
_atom_site_fract_z
Si Si1 0.073163 0.380666 0.879197
Si Si2 0.816631 0.170207 0.258587
Si Si3 0.301079 0.194783 0.928136
Si Si4 0.386656 0.327498 0.505135
Si Si5 0.517820 0.875413 0.379400
O O1 0.098626 0.500000 0.865960
O O2 0.170498 0.291782 0.885019
O O3 0.859554 0.358040 0.786809
O O4 0.160913 0.371984 0.990985
O O5 0.786130 0.135465 0.173391
O O6 0.998763 0.128120 0.380371
O O7 0.500000 0.232159 0.000000
O O8 0.151764 0.300934 0.724422
O O9 0.500000 0.355617 0.500000
O O10 0.400345 0.197344 0.524008
O O11 0.179768 0.365914 0.407489
O O12 0.478877 0.000000 0.373497
#
# Coordination Sequence:
#
# PCOD9207979 Si02
#       5
#     8   8   8   8   8
#     4  10  21  37  61  84 107 144 185 227 277 333
#     4   9  20  35  54  84 114 145 181 229 272 321
#     4   9  20  39  58  80 117 139 179 232 278 330
#     4   9  20  37  57  81 116 146 187 231 266 321
#     4   9  20  37  55  80 114 150 185 225 274 321
#
# _framework density 20.471150000000002
#
# number of rings (size 3 to 8) (size 9 to 14) (size 15 to 20)
#    1.200    1.600    0.000    0.000    2.800    6.400 
#    0.000    8.000    0.000    0.000    0.000    0.000 
#    0.000    0.000    0.000    0.000    0.000    0.000 
#
# Total GULP energy -111376.131870 kJ/mol
# GULP energy per Si atom -5568.806594 kJ/mol
# Density = 2.042456 g / cm^3
# Si number density = 20.471150 Si / 1000 Ang^3
#
#
#
# Elastic Constant Matrix: (Units=GPa)
#
#
# Indices 1 2 3 4 5 6 
#
# 1 70.3005 -4.3325 2.4154 0.0000 -3.9828 0.0000
# 2 -4.3325 95.5642 -2.6008 0.0000 12.4876 0.0000
# 3 2.4154 -2.6008 47.4662 0.0001 0.1486 0.0000
# 4 0.0000 0.0000 0.0001 3.6272 0.0000 3.9351
# 5 -3.9828 12.4876 0.1486 0.0000 20.9240 0.0000
# 6 0.0000 0.0000 0.0000 3.9351 0.0000 -3.9504
#
#
#
# Elastic Compliance Matrix: (Units=1/GPa)
#
#
# Indices 1 2 3 4 5 6 
#
# 1 0.014414 0.000298 -0.000725 0.000000 0.002571 0.000000
# 2 0.000298 0.011375 0.000629 0.000000 -0.006737 0.000000
# 3 -0.000725 0.000629 0.021141 0.000000 -0.000664 0.000000
# 4 0.000000 0.000000 0.000000 0.132500 0.000000 0.131988
# 5 0.002571 -0.006737 -0.000664 0.000000 0.052307 0.000000
# 6 0.000000 0.000000 0.000000 0.131988 0.000000 -0.121660
#
#
# Mechanical properties :
#
#
# Convention : Reuss Voigt Hill
#
# Bulk Modulus (GPa) = 21.12680 22.69947 21.91314
# Shear Modulus (GPa) = 39.85609 18.64341 29.24975
#
# Velocity S-wave (km/s) = 4.41720 3.02108 3.78408
# Velocity P-wave (km/s) = 6.02978 4.82513 5.46077
#
# Compressibility (1/GPa) = 0.04733324
#
# Stress axis : x y z
#
# Youngs Moduli (GPa) = 69.37904 87.91162 47.30130
#
# Poissons Ratio (x) = -0.02618 0.03430
# Poissons Ratio (y) = -0.02066 -0.02976
# Poissons Ratio (z) = 0.05031 -0.05531
#
# Static dielectric constant tensor:
#      x y z
#    x 1.702530 0.000000 -0.029150 
#    y 0.000000 1.748800 0.000000 
#    z -0.029150 0.000000 1.766380 
# 
# From -- ./inp_files/245252.got.cif
#   From: 2010.05.17/outbox.cif.g08.bks.cpg/sg12_123_cif.got.tgz:245252.got - 2010.06.03 13:09:07.
