data_PCOD9207773
_publ_section_title
;
Structure prediction by ZEFSAII (Michael W. Deem and Ramdas Pophale) SiO2 
 PCOD9207773
Probable space group: C 2/M
;
_chemical_formula_sum "Si O2"
_cell_formula_units_Z 64
_cell_length_a 16.805865
_cell_length_b 15.004386
_cell_length_c 12.407943
_cell_angle_alpha 90.000000
_cell_angle_beta 86.982600
_cell_angle_gamma 90.000000
_cell_volume 3124.470026
_symmetry_space_group_name_H-M "C 2/M"
_symmetry_group_IT_number 12
_symmetry_cell_setting 'monoclinic'
loop_
_space_group_symop_operation_xyz
x,y,z
-x,y,-z
-x,-y,-z
x,-y,z
1/2+x,1/2+y,z
1/2-x,1/2+y,-z
1/2-x,1/2-y,-z
1/2+x,1/2-y,z
loop_
_atom_site_type_symbol
_atom_site_label
_atom_site_fract_x
_atom_site_fract_y
_atom_site_fract_z
Si Si1 0.667726 0.790812 0.051035
Si Si2 0.416187 0.392844 0.559832
Si Si3 0.744263 0.392392 0.546772
Si Si4 0.615331 0.245457 0.831640
Si Si5 0.260850 0.395569 0.207044
Si Si6 0.341703 0.899267 0.330522
Si Si7 0.062933 0.231591 0.245288
Si Si8 0.523528 0.098931 0.375737
O O1 0.693685 0.874405 0.122625
O O2 0.621182 0.730231 0.139658
O O3 0.750000 0.750000 0.000000
O O4 0.612828 0.799703 0.949731
O O5 0.500000 0.367766 0.500000
O O6 0.412570 0.500000 0.568215
O O7 0.341892 0.362553 0.491858
O O8 0.416143 0.347861 0.675918
O O9 0.743264 0.500000 0.548976
O O10 0.758041 0.364838 0.668744
O O11 0.808124 0.369798 0.449539
O O12 0.662240 0.338465 0.832321
O O13 0.669080 0.178025 0.755715
O O14 0.528590 0.265398 0.788965
O O15 0.277310 0.500000 0.208662
O O16 0.437073 0.907652 0.327281
O O17 0.309768 0.000000 0.310013
O O18 0.069972 0.322907 0.314150
O O19 0.500000 0.120167 0.500000
O O20 0.562300 0.000000 0.370865
#
# Coordination Sequence:
#
# PCOD9207773 Si02
#       8
#     8   8   8   8   8   8   8   8
#     4  10  24  42  59  84 118 161 213 266 300 352
#     4  10  21  37  59  92 129 162 200 248 306 382
#     4   9  19  35  58  88 123 159 198 245 306 370
#     4  10  22  41  62  87 119 161 210 262 308 364
#     4  10  22  40  62  91 126 166 205 257 318 375
#     4   9  19  35  57  86 120 156 196 248 308 367
#     4  11  22  38  63  88 118 165 208 252 315 369
#     4   9  19  34  54  85 123 154 191 241 296 369
#
# _framework density 20.483473
#
# number of rings (size 3 to 8) (size 9 to 14) (size 15 to 20)
#    0.000    2.250    0.000    1.500    5.250    4.000 
#    0.000    2.500    0.000    7.500    0.000    0.000 
#    0.000    0.000    0.000    0.000    0.000    0.000 
#
# Total GULP energy -178526.093275 kJ/mol
# GULP energy per Si atom -5578.940415 kJ/mol
# Density = 2.043685 g / cm^3
# Si number density = 20.483473 Si / 1000 Ang^3
#
#
#
# Elastic Constant Matrix: (Units=GPa)
#
#
# Indices 1 2 3 4 5 6 
#
# 1 70.7601 20.3841 14.5480 0.0000 8.2396 0.0000
# 2 20.3841 62.0058 39.6938 0.0000 2.3435 0.0000
# 3 14.5480 39.6938 126.5092 0.0000 4.2316 0.0000
# 4 0.0000 0.0000 0.0000 -26.4476 0.0000 7.6023
# 5 8.2396 2.3435 4.2316 0.0000 37.4594 0.0000
# 6 0.0000 0.0000 0.0000 7.6023 0.0000 3.9923
#
#
#
# Elastic Compliance Matrix: (Units=1/GPa)
#
#
# Indices 1 2 3 4 5 6 
#
# 1 0.015985 -0.005038 -0.000151 0.000000 -0.003184 0.000000
# 2 -0.005038 0.021780 -0.006270 0.000000 0.000454 0.000000
# 3 -0.000151 -0.006270 0.009912 0.000000 -0.000694 0.000000
# 4 0.000000 0.000000 0.000000 -0.024435 0.000000 0.046531
# 5 -0.003184 0.000454 -0.000694 0.000000 0.027446 0.000000
# 6 0.000000 0.000000 0.000000 0.046531 0.000000 0.161875
#
#
# Mechanical properties :
#
#
# Convention : Reuss Voigt Hill
#
# Bulk Modulus (GPa) = 40.38697 45.39187 42.88942
# Shear Modulus (GPa) = 20.51415 15.31078 17.91247
#
# Velocity S-wave (km/s) = 3.16808 2.73696 2.96038
# Velocity P-wave (km/s) = 5.75690 5.67417 5.71569
#
# Compressibility (1/GPa) = 0.02476046
#
# Stress axis : x y z
#
# Youngs Moduli (GPa) = 62.55715 45.91331 100.88460
#
# Poissons Ratio (x) = 0.23132 0.01523
# Poissons Ratio (y) = 0.31517 0.63251
# Poissons Ratio (z) = 0.00945 0.28786
#
# Static dielectric constant tensor:
#      x y z
#    x 1.763300 0.000000 0.025130 
#    y 0.000000 1.744420 0.000000 
#    z 0.025130 0.000000 1.741950 
# 
# From -- ./inp_files/156638.got.cif
#   From: 2010.05.17/outbox.cif.g08.bks.cpg/sg12_79_cif.got.tgz:156638.got - 2010.06.03 13:09:07.
