data_PCOD9207248
_publ_section_title
;
Structure prediction by ZEFSAII (Michael W. Deem and Ramdas Pophale) SiO2 
 PCOD9207248
Probable space group: C 2/M
;
_chemical_formula_sum "Si O2"
_cell_formula_units_Z 56
_cell_length_a 26.528715
_cell_length_b 9.296225
_cell_length_c 17.699433
_cell_angle_alpha 90.000000
_cell_angle_beta 39.565330
_cell_angle_gamma 90.000000
_cell_volume 2780.306914
_symmetry_space_group_name_H-M "C 2/M"
_symmetry_group_IT_number 12
_symmetry_cell_setting 'monoclinic'
loop_
_space_group_symop_operation_xyz
x,y,z
-x,y,-z
-x,-y,-z
x,-y,z
1/2+x,1/2+y,z
1/2-x,1/2+y,-z
1/2-x,1/2-y,-z
1/2+x,1/2-y,z
loop_
_atom_site_type_symbol
_atom_site_label
_atom_site_fract_x
_atom_site_fract_y
_atom_site_fract_z
Si Si1 0.865238 0.164352 0.969718
Si Si2 0.507605 0.166640 0.729988
Si Si3 0.549306 0.832001 0.370604
Si Si4 0.185412 0.327376 0.522866
Si Si5 0.212422 0.166468 0.179663
Si Si6 0.090998 0.165586 0.903261
Si Si7 0.243073 0.333500 0.694187
O O1 0.938549 0.236690 0.843114
O O2 0.853927 0.000000 0.958729
O O3 0.784412 0.253223 0.055186
O O4 0.887219 0.164866 0.033314
O O5 0.502643 0.174874 0.644943
O O6 0.596113 0.207338 0.651731
O O7 0.493254 0.000000 0.768122
O O8 0.500000 0.779831 0.500000
O O9 0.629096 0.744044 0.264772
O O10 0.570076 0.000000 0.360122
O O11 0.194140 0.500000 0.513116
O O12 0.250000 0.250000 0.500000
O O13 0.200696 0.264080 0.421930
O O14 0.231446 0.173005 0.247647
O O15 0.209151 0.000000 0.161229
O O16 0.154709 0.268421 0.790571
O O17 0.098091 0.000000 0.867220
O O18 0.000000 0.211123 0.000000
O O19 0.245014 0.500000 0.667573
#
# Coordination Sequence:
#
# PCOD9207248 Si02
#       7
#     8   8   8   8   8   8   8
#     4  10  21  37  59  86 119 158 198 242 295 354
#     4  10  23  41  60  86 120 155 194 246 300 353
#     4  10  21  39  64  90 117 154 201 246 295 354
#     4  11  24  41  61  85 117 158 199 244 298 355
#     4  10  21  38  61  89 122 156 195 245 297 349
#     4   9  19  35  56  83 112 148 195 245 293 345
#     4  10  21  37  57  85 116 151 193 239 293 351
#
# _framework density 20.141662
#
# number of rings (size 3 to 8) (size 9 to 14) (size 15 to 20)
#    0.000    2.000    0.000    2.571    2.000    6.286 
#    0.000    0.000    0.000    0.000    0.000    0.000 
#    0.000    0.000    0.000    0.000    0.000    0.000 
#
# Total GULP energy -156494.359734 kJ/mol
# GULP energy per Si atom -5589.084276 kJ/mol
# Density = 2.009582 g / cm^3
# Si number density = 20.141662 Si / 1000 Ang^3
#
#
#
# Elastic Constant Matrix: (Units=GPa)
#
#
# Indices 1 2 3 4 5 6 
#
# 1 57.2943 39.9522 27.6436 0.0002 -29.8389 0.0000
# 2 39.9522 110.0971 75.2834 0.0020 -22.2826 -0.0009
# 3 27.6436 75.2834 121.4782 0.0012 -25.1450 -0.0006
# 4 0.0002 0.0020 0.0012 36.6876 -0.0008 -3.0060
# 5 -29.8389 -22.2826 -25.1450 -0.0008 36.0409 0.0002
# 6 0.0000 -0.0009 -0.0006 -3.0060 0.0002 24.1687
#
#
#
# Elastic Compliance Matrix: (Units=1/GPa)
#
#
# Indices 1 2 3 4 5 6 
#
# 1 0.036825 -0.010445 0.003585 0.000001 0.026532 -0.000001
# 2 -0.010445 0.019095 -0.010289 -0.000001 -0.004020 0.000000
# 3 0.003585 -0.010289 0.015300 0.000000 0.007281 0.000000
# 4 0.000001 -0.000001 0.000000 0.027538 0.000001 0.003425
# 5 0.026532 -0.004020 0.007281 0.000001 0.052307 0.000000
# 6 -0.000001 0.000000 0.000000 0.003425 0.000000 0.041802
#
#
# Mechanical properties :
#
#
# Convention : Reuss Voigt Hill
#
# Bulk Modulus (GPa) = 27.08416 63.84753 45.46585
# Shear Modulus (GPa) = 20.87936 29.11213 24.99575
#
# Velocity S-wave (km/s) = 3.22316 3.80593 3.52660
# Velocity P-wave (km/s) = 5.22759 7.14713 6.26136
#
# Compressibility (1/GPa) = 0.03692195
#
# Stress axis : x y z
#
# Youngs Moduli (GPa) = 27.15540 52.36994 65.36099
#
# Poissons Ratio (x) = 0.54698 -0.23430
# Poissons Ratio (y) = 0.28363 0.67250
# Poissons Ratio (z) = -0.09735 0.53883
#
# Static dielectric constant tensor:
#      x y z
#    x 1.733380 0.000000 0.028630 
#    y 0.000000 1.684900 0.000000 
#    z 0.028630 0.000000 1.689100 
# 
# From -- ./inp_files/292399.got.cif
#   From: 2010.05.17/outbox.cif.g08.bks.cpg/sg12_147_cif.got.tgz:292399.got - 2010.06.03 13:09:07.
