data_PCOD9207721
_publ_section_title
;
Structure prediction by ZEFSAII (Michael W. Deem and Ramdas Pophale) SiO2 
 PCOD9207721
Probable space group: C 2/M
;
_chemical_formula_sum "Si O2"
_cell_formula_units_Z 56
_cell_length_a 17.196895
_cell_length_b 21.740925
_cell_length_c 18.727302
_cell_angle_alpha 90.000000
_cell_angle_beta 23.714810
_cell_angle_gamma 90.000000
_cell_volume 2815.973367
_symmetry_space_group_name_H-M "C 2/M"
_symmetry_group_IT_number 12
_symmetry_cell_setting 'monoclinic'
loop_
_space_group_symop_operation_xyz
x,y,z
-x,y,-z
-x,-y,-z
x,-y,z
1/2+x,1/2+y,z
1/2-x,1/2+y,-z
1/2-x,1/2-y,-z
1/2+x,1/2-y,z
loop_
_atom_site_type_symbol
_atom_site_label
_atom_site_fract_x
_atom_site_fract_y
_atom_site_fract_z
Si Si1 0.790561 0.880265 0.708588
Si Si2 0.925530 0.343795 0.690597
Si Si3 0.686811 0.736491 0.792198
Si Si4 0.869436 0.392471 0.005337
Si Si5 0.207152 0.071644 0.986024
Si Si6 0.650405 0.275910 0.154021
Si Si7 0.136790 0.839352 0.698071
O O1 0.779509 0.804725 0.718982
O O2 0.747657 0.909302 0.823446
O O3 0.000000 0.896958 0.500000
O O4 0.598526 0.899536 0.825436
O O5 0.818241 0.320550 0.709593
O O6 0.825958 0.394706 0.823609
O O7 0.913630 0.280320 0.744817
O O8 0.146161 0.360634 0.493431
O O9 0.635732 0.717182 0.754748
O O10 0.500000 0.735311 0.000000
O O11 0.811538 0.320723 0.050225
O O12 0.801413 0.419083 0.986248
O O13 0.188503 0.000000 0.988145
O O14 0.003599 0.106998 0.157813
O O15 0.462945 0.315356 0.290539
O O16 0.750000 0.250000 0.000000
#
# Coordination Sequence:
#
# PCOD9207721 Si02
#       7
#     8   8   8   8   8   8   8
#     4  11  21  34  58  96 133 159 185 233 305 380
#     4  12  22  38  61  93 123 158 201 249 310 362
#     4  12  20  37  59  92 134 160 190 236 305 382
#     4  10  21  37  59  89 125 158 197 245 298 368
#     4  11  26  46  64  82 115 165 218 265 298 340
#     4  11  18  36  56  91 128 160 192 238 309 375
#     4  11  24  37  62  90 125 160 198 252 305 368
#
# _framework density 19.886551000000001
#
# number of rings (size 3 to 8) (size 9 to 14) (size 15 to 20)
#    0.000    0.857    7.143    2.571    0.000    2.857 
#    0.000    2.857    0.000    2.571    0.000    0.000 
#    0.000    0.000    0.000    0.000    0.000    0.000 
#
# Total GULP energy -156276.105116 kJ/mol
# GULP energy per Si atom -5581.289468 kJ/mol
# Density = 1.984129 g / cm^3
# Si number density = 19.886551 Si / 1000 Ang^3
#
#
#
# Elastic Constant Matrix: (Units=GPa)
#
#
# Indices 1 2 3 4 5 6 
#
# 1 41.1289 -14.7601 6.7971 0.0222 -3.9893 0.0217
# 2 -14.7601 48.6991 -9.4021 0.0505 5.6337 -0.0501
# 3 6.7971 -9.4021 132.6977 0.0511 -1.6020 -0.0571
# 4 0.0222 0.0505 0.0511 -0.2071 -0.0436 -2.0989
# 5 -3.9893 5.6337 -1.6020 -0.0436 23.1219 0.0051
# 6 0.0217 -0.0501 -0.0571 -2.0989 0.0051 7.2294
#
#
#
# Elastic Compliance Matrix: (Units=1/GPa)
#
#
# Indices 1 2 3 4 5 6 
#
# 1 0.027541 0.007867 -0.000820 0.001128 0.002780 0.000291
# 2 0.007867 0.023653 0.001220 0.001591 -0.004318 0.000615
# 3 -0.000820 0.001220 0.007665 0.000344 0.000093 0.000171
# 4 0.001128 0.001591 0.000344 -1.224591 -0.002402 -0.355511
# 5 0.002780 -0.004318 0.000093 -0.002402 0.044783 -0.000766
# 6 0.000291 0.000615 0.000171 -0.355511 -0.000766 0.035116
#
#
# Mechanical properties :
#
#
# Convention : Reuss Voigt Hill
#
# Bulk Modulus (GPa) = 13.26375 20.86617 17.06496
# Shear Modulus (GPa) = -4.64151 22.02156 8.69002
#
# Velocity S-wave (km/s) = -1.52940 3.33131 2.09267
# Velocity P-wave (km/s) = 1.88824 5.03113 3.79985
#
# Compressibility (1/GPa) = 0.07539345
#
# Stress axis : x y z
#
# Youngs Moduli (GPa) = 36.30899 42.27847 130.45518
#
# Poissons Ratio (x) = -0.33259 0.10699
# Poissons Ratio (y) = -0.28563 -0.15921
# Poissons Ratio (z) = 0.02978 -0.05160
#
# Static dielectric constant tensor:
#      x y z
#    x 1.743110 0.000050 -0.007250 
#    y 0.000050 1.657120 -0.000010 
#    z -0.007250 -0.000010 1.696220 
# 
# From -- ./inp_files/317980.got.cif
#   From: 2010.05.17/outbox.cif.g08.bks.cpg/sg12_159_cif.got.tgz:317980.got - 2010.06.03 13:09:07.
