data_PCOD9207885
_publ_section_title
;
Structure prediction by ZEFSAII (Michael W. Deem and Ramdas Pophale) SiO2 
 PCOD9207885
Probable space group: C 2/M
;
_chemical_formula_sum "Si O2"
_cell_formula_units_Z 48
_cell_length_a 14.161244
_cell_length_b 19.714022
_cell_length_c 17.973015
_cell_angle_alpha 90.000000
_cell_angle_beta 27.955079
_cell_angle_gamma 90.000000
_cell_volume 2352.154722
_symmetry_space_group_name_H-M "C 2/M"
_symmetry_group_IT_number 12
_symmetry_cell_setting 'monoclinic'
loop_
_space_group_symop_operation_xyz
x,y,z
-x,y,-z
-x,-y,-z
x,-y,z
1/2+x,1/2+y,z
1/2-x,1/2+y,-z
1/2-x,1/2-y,-z
1/2+x,1/2-y,z
loop_
_atom_site_type_symbol
_atom_site_label
_atom_site_fract_x
_atom_site_fract_y
_atom_site_fract_z
Si Si1 0.526399 0.077963 0.208944
Si Si2 0.488387 0.304715 0.760522
Si Si3 0.052050 0.850866 0.050531
Si Si4 0.575381 0.176750 0.613152
Si Si5 0.157593 0.573589 0.324482
Si Si6 0.165040 0.420357 0.947606
O O1 0.366722 0.127587 0.358544
O O2 0.491468 0.000000 0.252544
O O3 0.742737 0.106435 0.085963
O O4 0.542269 0.083485 0.109970
O O5 0.454463 0.298945 0.873902
O O6 0.447803 0.237765 0.739131
O O7 0.726133 0.309512 0.573823
O O8 0.351453 0.367691 0.827150
O O9 0.877374 0.903763 0.195495
O O10 0.000000 0.830955 0.000000
O O11 0.432641 0.133431 0.660645
O O12 0.171304 0.500000 0.277688
O O13 0.000000 0.567499 0.500000
O O14 0.229581 0.500000 0.893079
O O15 0.000000 0.403052 0.000000
#
# Coordination Sequence:
#
# PCOD9207885 Si02
#       6
#     8   8   8   8   8   8
#     4  10  21  37  60  89 122 158 199 254 309 364
#     4  10  24  42  59  87 125 163 205 247 310 372
#     4  11  21  37  60  91 124 158 193 251 305 368
#     4  11  22  41  58  85 130 163 199 250 299 377
#     4  11  22  37  61  93 126 163 206 246 302 372
#     4   9  20  42  65  86 115 156 212 266 307 356
#
# _framework density 20.406821000000001
#
# number of rings (size 3 to 8) (size 9 to 14) (size 15 to 20)
#    0.000    1.667    3.333    1.000    0.000    5.333 
#    6.000    0.833    0.000    3.000    0.000    0.000 
#    0.000    0.000    0.000    0.000    0.000    0.000 
#
# Total GULP energy -133611.993535 kJ/mol
# GULP energy per Si atom -5567.166397 kJ/mol
# Density = 2.036037 g / cm^3
# Si number density = 20.406821 Si / 1000 Ang^3
#
#
#
# Elastic Constant Matrix: (Units=GPa)
#
#
# Indices 1 2 3 4 5 6 
#
# 1 106.3243 25.4587 12.1859 -0.0089 16.9699 0.0126
# 2 25.4587 92.6997 8.7398 0.0058 13.5021 0.0220
# 3 12.1859 8.7398 66.3347 -0.1130 20.5319 0.0348
# 4 -0.0089 0.0058 -0.1130 7.8178 0.0567 40.9067
# 5 16.9699 13.5021 20.5319 0.0567 28.0623 -0.0316
# 6 0.0126 0.0220 0.0348 40.9067 -0.0316 18.3803
#
#
#
# Elastic Compliance Matrix: (Units=1/GPa)
#
#
# Indices 1 2 3 4 5 6 
#
# 1 0.010800 -0.002167 0.000000 -0.000012 -0.005489 0.000013
# 2 -0.002167 0.012039 0.000257 -0.000013 -0.004670 0.000007
# 3 0.000000 0.000257 0.019494 -0.000067 -0.014387 0.000087
# 4 -0.000012 -0.000013 -0.000067 -0.012016 0.000117 0.026742
# 5 -0.005489 -0.004670 -0.014387 0.000117 0.051727 -0.000134
# 6 0.000013 0.000007 0.000087 0.026742 -0.000134 -0.005110
#
#
# Mechanical properties :
#
#
# Convention : Reuss Voigt Hill
#
# Bulk Modulus (GPa) = 25.96412 39.79193 32.87803
# Shear Modulus (GPa) = 53.42480 25.45036 39.43758
#
# Velocity S-wave (km/s) = 5.12218 3.53533 4.40087
# Velocity P-wave (km/s) = 6.90892 6.01718 6.47841
#
# Compressibility (1/GPa) = 0.03851469
#
# Stress axis : x y z
#
# Youngs Moduli (GPa) = 92.59286 83.06649 51.29813
#
# Poissons Ratio (x) = 0.17998 -0.00002
# Poissons Ratio (y) = 0.20062 -0.01321
# Poissons Ratio (z) = -0.00003 -0.02139
#
# Static dielectric constant tensor:
#      x y z
#    x 1.777290 0.000000 0.043130 
#    y 0.000000 1.782790 0.000020 
#    z 0.043130 0.000020 1.776980 
# 
# From -- ./inp_files/271603.got.cif
#   From: 2010.05.17/outbox.cif.g08.bks.cpg/sg12_136_cif.got.tgz:271603.got - 2010.06.03 13:09:07.
