data_PCOD9207513
_publ_section_title
;
Structure prediction by ZEFSAII (Michael W. Deem and Ramdas Pophale) SiO2 
 PCOD9207513
Probable space group: C 2/M
;
_chemical_formula_sum "Si O2"
_cell_formula_units_Z 64
_cell_length_a 20.768834
_cell_length_b 14.191402
_cell_length_c 11.968280
_cell_angle_alpha 90.000000
_cell_angle_beta 109.064402
_cell_angle_gamma 90.000000
_cell_volume 3334.040189
_symmetry_space_group_name_H-M "C 2/M"
_symmetry_group_IT_number 12
_symmetry_cell_setting 'monoclinic'
loop_
_space_group_symop_operation_xyz
x,y,z
-x,y,-z
-x,-y,-z
x,-y,z
1/2+x,1/2+y,z
1/2-x,1/2+y,-z
1/2-x,1/2-y,-z
1/2+x,1/2-y,z
loop_
_atom_site_type_symbol
_atom_site_label
_atom_site_fract_x
_atom_site_fract_y
_atom_site_fract_z
Si Si1 0.741611 0.861121 0.480024
Si Si2 0.879711 0.100661 0.671971
Si Si3 0.418106 0.390178 0.952486
Si Si4 0.020099 0.765872 0.390138
Si Si5 0.323573 0.221934 0.991871
Si Si6 0.603229 0.106218 0.526653
Si Si7 0.377450 0.764047 0.245027
Si Si8 0.239491 0.890166 0.772957
O O1 0.750000 0.750000 0.500000
O O2 0.801615 0.900787 0.591495
O O3 0.669164 0.892307 0.485166
O O4 0.750299 0.885627 0.354838
O O5 0.892006 0.113121 0.809834
O O6 0.916373 0.181744 0.624938
O O7 0.911343 0.000000 0.657960
O O8 0.409465 0.500000 0.986925
O O9 0.370749 0.312163 0.986590
O O10 0.500000 0.370223 0.000000
O O11 0.043105 0.658931 0.426198
O O12 0.000000 0.806126 0.500000
O O13 0.954010 0.774218 0.276954
O O14 0.303816 0.155415 0.876441
O O15 0.250000 0.250000 0.000000
O O16 0.358953 0.179697 0.122314
O O17 0.620938 0.170312 0.644476
O O18 0.586775 0.000000 0.548886
O O19 0.324869 0.677931 0.235501
O O20 0.229430 0.000000 0.799233
#
# Coordination Sequence:
#
# PCOD9207513 Si02
#       8
#     8   8   8   8   8   8   8   8
#     4  12  20  38  61  85 119 149 197 254 302 357
#     4  11  22  35  59  91 120 157 202 251 305 363
#     4  10  22  41  66  95 128 168 212 260 316 375
#     4  10  21  37  58  88 124 158 199 245 307 369
#     4  10  23  40  61  91 126 167 211 258 313 366
#     4  11  23  38  61  88 117 156 197 248 306 361
#     4  10  22  40  60  87 119 158 201 245 297 360
#     4  11  23  40  61  87 120 159 200 247 306 363
#
# _framework density 19.195929
#
# number of rings (size 3 to 8) (size 9 to 14) (size 15 to 20)
#    0.000    1.375    2.500    3.375    1.750    5.500 
#    0.000    0.000    0.000    0.375    0.000    0.000 
#    0.000    0.000    0.000    0.000    0.000    0.000 
#
# Total GULP energy -178446.530457 kJ/mol
# GULP energy per Si atom -5576.454077 kJ/mol
# Density = 1.915224 g / cm^3
# Si number density = 19.195929 Si / 1000 Ang^3
#
#
#
# Elastic Constant Matrix: (Units=GPa)
#
#
# Indices 1 2 3 4 5 6 
#
# 1 99.0258 25.8315 27.4003 0.0000 11.8334 0.0000
# 2 25.8315 130.3727 16.4598 0.0000 -0.8795 0.0000
# 3 27.4003 16.4598 110.8916 0.0000 21.8273 0.0000
# 4 0.0000 0.0000 0.0000 -5.7473 0.0000 7.5641
# 5 11.8334 -0.8795 21.8273 0.0000 26.3274 0.0000
# 6 0.0000 0.0000 0.0000 7.5641 0.0000 -1.1308
#
#
#
# Elastic Compliance Matrix: (Units=1/GPa)
#
#
# Indices 1 2 3 4 5 6 
#
# 1 0.011598 -0.002095 -0.001810 0.000000 -0.003782 0.000000
# 2 -0.002095 0.008243 -0.001130 0.000000 0.002154 0.000000
# 3 -0.001810 -0.001130 0.011329 0.000000 -0.008616 0.000000
# 4 0.000000 0.000000 0.000000 0.022296 0.000000 0.149144
# 5 -0.003782 0.002154 -0.008616 0.000000 0.046899 0.000000
# 6 0.000000 0.000000 0.000000 0.149144 0.000000 0.113321
#
#
# Mechanical properties :
#
#
# Convention : Reuss Voigt Hill
#
# Bulk Modulus (GPa) = 47.39512 53.29704 50.34608
# Shear Modulus (GPa) = 21.66491 21.92977 21.79734
#
# Velocity S-wave (km/s) = 3.36314 3.38363 3.37340
# Velocity P-wave (km/s) = 6.31068 6.56432 6.43875
#
# Compressibility (1/GPa) = 0.02109922
#
# Stress axis : x y z
#
# Youngs Moduli (GPa) = 86.22412 121.32173 88.27035
#
# Poissons Ratio (x) = 0.25415 0.15980
# Poissons Ratio (y) = 0.18063 0.09972
# Poissons Ratio (z) = 0.15609 0.13706
#
# Static dielectric constant tensor:
#      x y z
#    x 1.353210 0.000000 -0.333220 
#    y 0.000000 1.691540 0.000000 
#    z -0.333220 0.000000 1.314470 
# 
# From -- ./inp_files/167298.got.cif
#   From: 2010.05.17/outbox.cif.g08.bks.cpg/sg12_84_cif.got.tgz:167298.got - 2010.06.03 13:09:07.
