data_PCOD9207935
_publ_section_title
;
Structure prediction by ZEFSAII (Michael W. Deem and Ramdas Pophale) SiO2 
 PCOD9207935
Probable space group: C 2/M
;
_chemical_formula_sum "Si O2"
_cell_formula_units_Z 60
_cell_length_a 8.500560
_cell_length_b 11.420021
_cell_length_c 31.140009
_cell_angle_alpha 90.000000
_cell_angle_beta 63.364837
_cell_angle_gamma 90.000000
_cell_volume 2702.166099
_symmetry_space_group_name_H-M "C 2/M"
_symmetry_group_IT_number 12
_symmetry_cell_setting 'monoclinic'
loop_
_space_group_symop_operation_xyz
x,y,z
-x,y,-z
-x,-y,-z
x,-y,z
1/2+x,1/2+y,z
1/2-x,1/2+y,-z
1/2-x,1/2-y,-z
1/2+x,1/2-y,z
loop_
_atom_site_type_symbol
_atom_site_label
_atom_site_fract_x
_atom_site_fract_y
_atom_site_fract_z
Si Si1 0.278269 0.283598 0.248025
Si Si2 0.162165 0.175433 0.181260
Si Si3 0.100101 0.628727 0.692355
Si Si4 0.840517 0.867764 0.111555
Si Si5 0.663660 0.868311 0.446996
Si Si6 0.619099 0.865975 0.587629
Si Si7 0.862598 0.698946 0.947568
Si Si8 0.627568 0.000000 0.906919
O O1 0.244979 0.177663 0.218461
O O2 0.456145 0.346367 0.210912
O O3 0.104817 0.360866 0.270026
O O4 0.306939 0.228393 0.291304
O O5 0.199358 0.306659 0.159464
O O6 0.267909 0.098796 0.134813
O O7 0.169399 0.500000 0.695004
O O8 0.113631 0.642781 0.639653
O O9 0.761239 0.858889 0.073272
O O10 0.026757 0.802447 0.088420
O O11 0.868879 0.000000 0.120425
O O12 0.500000 0.866200 0.500000
O O13 0.571452 0.861347 0.411593
O O14 0.777718 0.751069 0.440215
O O15 0.747074 0.000000 0.440960
O O16 0.687568 0.000000 0.568775
O O17 0.006037 0.603376 0.943645
O O18 0.750000 0.750000 0.000000
#
# Coordination Sequence:
#
# PCOD9207935 Si02
#       8
#     8   8   8   8   8   8   8   4
#     4  10  22  39  61  92 119 156 208 251 302 389
#     4  10  22  40  63  93 121 159 203 245 313 358
#     4  10  22  40  61  90 123 167 209 255 325 374
#     4  11  24  45  67  91 126 161 197 247 301 362
#     4  10  21  37  60  91 126 174 226 278 338 391
#     4  10  21  38  60  88 130 169 216 280 326 396
#     4  11  24  43  67  95 119 162 202 236 299 358
#     4  10  22  40  62  90 128 152 190 256 290 356
#
# _framework density 22.204408999999998
#
# number of rings (size 3 to 8) (size 9 to 14) (size 15 to 20)
#    0.000    1.733    0.667    3.200    2.800    3.467 
#    9.600    3.333    0.000    0.000    0.000    0.000 
#    0.000    0.000    0.000    0.000    0.000    0.000 
#
# Total GULP energy -167073.902237 kJ/mol
# GULP energy per Si atom -5569.130075 kJ/mol
# Density = 2.215387 g / cm^3
# Si number density = 22.204409 Si / 1000 Ang^3
#
#
#
# Elastic Constant Matrix: (Units=GPa)
#
#
# Indices 1 2 3 4 5 6 
#
# 1 37.4533 8.5726 -1.8155 0.0000 6.1740 0.0000
# 2 8.5726 151.9528 12.5532 0.0000 -16.6191 0.0000
# 3 -1.8155 12.5532 60.2160 0.0000 3.3752 0.0000
# 4 0.0000 0.0000 0.0000 20.3822 0.0000 -2.7547
# 5 6.1740 -16.6191 3.3752 0.0000 32.9306 0.0000
# 6 0.0000 0.0000 0.0000 -2.7547 0.0000 14.6326
#
#
#
# Elastic Compliance Matrix: (Units=1/GPa)
#
#
# Indices 1 2 3 4 5 6 
#
# 1 0.028473 -0.002493 0.001758 0.000000 -0.006776 0.000000
# 2 -0.002493 0.007352 -0.001853 0.000000 0.004368 0.000000
# 3 0.001758 -0.001853 0.017216 0.000000 -0.003029 0.000000
# 4 0.000000 0.000000 0.000000 0.050343 0.000000 0.009478
# 5 -0.006776 0.004368 -0.003029 0.000000 0.034152 0.000000
# 6 0.000000 0.000000 0.000000 0.009478 0.000000 0.070125
#
#
# Mechanical properties :
#
#
# Convention : Reuss Voigt Hill
#
# Bulk Modulus (GPa) = 20.89162 32.02695 26.45929
# Shear Modulus (GPa) = 21.85393 28.94319 25.39856
#
# Velocity S-wave (km/s) = 3.14063 3.61430 3.38576
# Velocity P-wave (km/s) = 4.75190 5.64558 5.21791
#
# Compressibility (1/GPa) = 0.04786607
#
# Stress axis : x y z
#
# Youngs Moduli (GPa) = 35.12132 136.01034 58.08578
#
# Poissons Ratio (x) = 0.33903 -0.10211
# Poissons Ratio (y) = 0.08755 0.10762
# Poissons Ratio (z) = -0.06174 0.25199
#
# Static dielectric constant tensor:
#      x y z
#    x 1.850990 0.000000 0.052670 
#    y 0.000000 1.857700 0.000000 
#    z 0.052670 0.000000 1.807690 
# 
# From -- ./inp_files/372136.got.cif
#   From: 2010.05.17/outbox.cif.g08.bks.cpg/sg12_187_cif.got.tgz:372136.got - 2010.06.03 13:09:07.
