data_PCOD9207690
_publ_section_title
;
Structure prediction by ZEFSAII (Michael W. Deem and Ramdas Pophale) SiO2 
 PCOD9207690
Probable space group: C 2/M
;
_chemical_formula_sum "Si O2"
_cell_formula_units_Z 56
_cell_length_a 22.962914
_cell_length_b 8.998822
_cell_length_c 14.859810
_cell_angle_alpha 90.000000
_cell_angle_beta 67.784896
_cell_angle_gamma 90.000000
_cell_volume 2842.689761
_symmetry_space_group_name_H-M "C 2/M"
_symmetry_group_IT_number 12
_symmetry_cell_setting 'monoclinic'
loop_
_space_group_symop_operation_xyz
x,y,z
-x,y,-z
-x,-y,-z
x,-y,z
1/2+x,1/2+y,z
1/2-x,1/2+y,-z
1/2-x,1/2-y,-z
1/2+x,1/2-y,z
loop_
_atom_site_type_symbol
_atom_site_label
_atom_site_fract_x
_atom_site_fract_y
_atom_site_fract_z
Si Si1 0.838309 0.824322 0.145908
Si Si2 0.169933 0.678656 0.464014
Si Si3 0.058436 0.324901 0.398580
Si Si4 0.942760 0.325257 0.965145
Si Si5 0.183311 0.821175 0.642471
Si Si6 0.716686 0.175681 0.105342
Si Si7 0.919288 0.176482 0.796278
O O1 0.846047 0.776419 0.244799
O O2 0.765664 0.809167 0.158845
O O3 0.853735 0.000000 0.129379
O O4 0.880969 0.734810 0.051721
O O5 0.166217 0.500000 0.473061
O O6 0.121012 0.724489 0.415726
O O7 0.154841 0.748226 0.570034
O O8 0.242225 0.718389 0.399839
O O9 0.065861 0.500000 0.371326
O O10 0.049164 0.233689 0.313332
O O11 0.000000 0.310842 0.500000
O O12 0.936485 0.500000 0.950067
O O13 0.951779 0.238583 0.867036
O O14 0.000000 0.301826 0.000000
O O15 0.179302 0.000000 0.638305
O O16 0.650922 0.254663 0.161789
O O17 0.706892 0.000000 0.095300
O O18 0.750000 0.250000 0.000000
O O19 0.916281 0.000000 0.801176
#
# Coordination Sequence:
#
# PCOD9207690 Si02
#       7
#     8   8   8   8   8   8   8
#     4  10  21  37  59  88 121 157 196 242 300 361
#     4   9  18  35  57  83 114 150 190 238 294 350
#     4  10  22  41  64  87 116 156 202 252 304 359
#     4  11  25  43  62  84 115 157 203 249 297 358
#     4   9  18  33  55  83 116 151 186 233 292 351
#     4  11  21  36  61  92 125 159 199 247 302 361
#     4  12  25  41  63  91 123 161 201 251 310 363
#
# _framework density 19.699652
#
# number of rings (size 3 to 8) (size 9 to 14) (size 15 to 20)
#    0.000    1.714    1.429    3.000    0.000    6.571 
#    0.000    7.143    0.000    0.000    0.000    0.000 
#    0.000    0.000    0.000    0.000    0.000    0.000 
#
# Total GULP energy -156504.263270 kJ/mol
# GULP energy per Si atom -5589.437974 kJ/mol
# Density = 1.965482 g / cm^3
# Si number density = 19.699652 Si / 1000 Ang^3
#
#
#
# Elastic Constant Matrix: (Units=GPa)
#
#
# Indices 1 2 3 4 5 6 
#
# 1 47.7484 39.3707 18.8977 0.0000 14.2681 0.0000
# 2 39.3707 97.6461 58.9335 0.0000 15.6885 0.0000
# 3 18.8977 58.9335 117.6618 0.0000 31.2870 0.0000
# 4 0.0000 0.0000 0.0000 33.8481 0.0000 2.9677
# 5 14.2681 15.6885 31.2870 0.0000 24.2299 0.0000
# 6 0.0000 0.0000 0.0000 2.9677 0.0000 23.8142
#
#
#
# Elastic Compliance Matrix: (Units=1/GPa)
#
#
# Indices 1 2 3 4 5 6 
#
# 1 0.038131 -0.016732 0.008142 0.000000 -0.022133 0.000000
# 2 -0.016732 0.022020 -0.010920 0.000000 0.009696 0.000000
# 3 0.008142 -0.010920 0.018359 0.000000 -0.021430 0.000000
# 4 0.000000 0.000000 0.000000 0.029870 0.000000 -0.003722
# 5 -0.022133 0.009696 -0.021430 0.000000 0.075699 0.000000
# 6 0.000000 0.000000 0.000000 -0.003722 0.000000 0.042456
#
#
# Mechanical properties :
#
#
# Convention : Reuss Voigt Hill
#
# Bulk Modulus (GPa) = 25.32309 55.27334 40.29821
# Shear Modulus (GPa) = 17.93913 26.10206 22.02059
#
# Velocity S-wave (km/s) = 3.02094 3.64401 3.34700
# Velocity P-wave (km/s) = 5.00506 6.76934 5.95292
#
# Compressibility (1/GPa) = 0.03948965
#
# Stress axis : x y z
#
# Youngs Moduli (GPa) = 26.22538 45.41228 54.46791
#
# Poissons Ratio (x) = 0.75985 -0.44347
# Poissons Ratio (y) = 0.43881 0.59481
# Poissons Ratio (z) = -0.21352 0.49592
#
# Static dielectric constant tensor:
#      x y z
#    x 1.700710 0.000000 0.007310 
#    y 0.000000 1.657760 0.000000 
#    z 0.007310 0.000000 1.682430 
# 
# From -- ./inp_files/237361.got.cif
#   From: 2010.05.17/outbox.cif.g08.bks.cpg/sg12_119_cif.got.tgz:237361.got - 2010.06.03 13:09:07.
