data_PCOD9207014
_publ_section_title
;
Structure prediction by ZEFSAII (Michael W. Deem and Ramdas Pophale) SiO2 
 PCOD9207014
Probable space group: C 2/M
;
_chemical_formula_sum "Si O2"
_cell_formula_units_Z 56
_cell_length_a 22.882958
_cell_length_b 8.838279
_cell_length_c 14.891099
_cell_angle_alpha 90.000000
_cell_angle_beta 75.647026
_cell_angle_gamma 90.000000
_cell_volume 2917.661475
_symmetry_space_group_name_H-M "C 2/M"
_symmetry_group_IT_number 12
_symmetry_cell_setting 'monoclinic'
loop_
_space_group_symop_operation_xyz
x,y,z
-x,y,-z
-x,-y,-z
x,-y,z
1/2+x,1/2+y,z
1/2-x,1/2+y,-z
1/2-x,1/2-y,-z
1/2+x,1/2-y,z
loop_
_atom_site_type_symbol
_atom_site_label
_atom_site_fract_x
_atom_site_fract_y
_atom_site_fract_z
Si Si1 0.895673 0.818184 0.384477
Si Si2 0.346909 0.319845 0.214287
Si Si3 0.886355 0.818415 0.871706
Si Si4 0.027738 0.319626 0.311312
Si Si5 0.779378 0.819213 0.781158
Si Si6 0.876655 0.818361 0.594316
Si Si7 0.929805 0.681033 0.037285
O O1 0.853159 0.778656 0.316914
O O2 0.870684 0.778586 0.492315
O O3 0.960133 0.740477 0.345729
O O4 0.904569 0.000000 0.379661
O O5 0.351232 0.500000 0.204143
O O6 0.284028 0.263146 0.198108
O O7 0.401361 0.244618 0.138964
O O8 0.938568 0.752073 0.787555
O O9 0.822929 0.779604 0.847903
O O10 0.891442 0.000000 0.871620
O O11 0.893899 0.750462 0.967055
O O12 0.028797 0.500000 0.303961
O O13 0.066613 0.264351 0.382074
O O14 0.818646 0.782218 0.677286
O O15 0.769585 0.000000 0.786632
O O16 0.886442 0.000000 0.598460
O O17 0.925211 0.500000 0.037700
O O18 0.000000 0.722911 0.000000
#
# Coordination Sequence:
#
# PCOD9207014 Si02
#       7
#     8   8   8   8   8   8   8
#     4  10  21  37  56  80 113 154 196 235 281 338
#     4  11  24  39  58  84 114 151 192 233 279 336
#     4  10  21  39  63  86 112 151 191 230 281 338
#     4  11  21  33  54  87 120 148 186 236 287 338
#     4   9  20  39  60  83 112 147 189 235 283 333
#     4   9  19  37  59  81 111 153 194 234 283 337
#     4  11  24  41  62  89 118 147 182 229 284 336
#
# _framework density 19.193453000000002
#
# number of rings (size 3 to 8) (size 9 to 14) (size 15 to 20)
#    0.000    1.857    0.000    4.714    0.000   10.857 
#    0.000    0.000    0.000    0.000    0.000    0.000 
#    0.000    0.000    0.000    0.000    0.000    0.000 
#
# Total GULP energy -156483.360660 kJ/mol
# GULP energy per Si atom -5588.691452 kJ/mol
# Density = 1.914977 g / cm^3
# Si number density = 19.193453 Si / 1000 Ang^3
#
#
#
# Elastic Constant Matrix: (Units=GPa)
#
#
# Indices 1 2 3 4 5 6 
#
# 1 70.9253 25.2695 6.7112 0.0000 2.8177 0.0000
# 2 25.2695 32.2316 18.1328 0.0000 5.5731 0.0000
# 3 6.7112 18.1328 74.9030 0.0000 22.3533 0.0000
# 4 0.0000 0.0000 0.0000 3.0174 0.0000 -0.1223
# 5 2.8177 5.5731 22.3533 0.0000 13.9077 0.0000
# 6 0.0000 0.0000 0.0000 -0.1223 0.0000 20.7675
#
#
#
# Elastic Compliance Matrix: (Units=1/GPa)
#
#
# Indices 1 2 3 4 5 6 
#
# 1 0.019928 -0.016913 0.002866 0.000000 -0.001866 0.000000
# 2 -0.016913 0.050276 -0.010889 0.000000 0.000781 0.000000
# 3 0.002866 -0.010889 0.028060 0.000000 -0.041317 0.000000
# 4 0.000000 0.000000 0.000000 0.331488 0.000000 0.001953
# 5 -0.001866 0.000781 -0.041317 0.000000 0.138375 0.000000
# 6 0.000000 0.000000 0.000000 0.001953 0.000000 0.048164
#
#
# Mechanical properties :
#
#
# Convention : Reuss Voigt Hill
#
# Bulk Modulus (GPa) = 20.66454 30.92076 25.79265
# Shear Modulus (GPa) = 7.32822 16.06830 11.69826
#
# Velocity S-wave (km/s) = 1.95611 2.89654 2.47147
# Velocity P-wave (km/s) = 3.98643 5.22796 4.64883
#
# Compressibility (1/GPa) = 0.04839207
#
# Stress axis : x y z
#
# Youngs Moduli (GPa) = 50.18014 19.89016 35.63776
#
# Poissons Ratio (x) = 0.33641 -0.10213
# Poissons Ratio (y) = 0.84871 0.38805
# Poissons Ratio (z) = -0.14380 0.21658
#
# Static dielectric constant tensor:
#      x y z
#    x 1.634920 0.000000 0.007200 
#    y 0.000000 1.639000 0.000000 
#    z 0.007200 0.000000 1.677130 
# 
# From -- ./inp_files/230879.got.cif
#   From: 2010.05.17/outbox.cif.g08.bks.cpg/sg12_116_cif.got.tgz:230879.got - 2010.06.03 13:09:07.
