data_PCOD9207627
_publ_section_title
;
Structure prediction by ZEFSAII (Michael W. Deem and Ramdas Pophale) SiO2 
 PCOD9207627
Probable space group: C 2/M
;
_chemical_formula_sum "Si O2"
_cell_formula_units_Z 40
_cell_length_a 15.618057
_cell_length_b 14.006710
_cell_length_c 19.590847
_cell_angle_alpha 90.000000
_cell_angle_beta 154.064888
_cell_angle_gamma 90.000000
_cell_volume 1874.340273
_symmetry_space_group_name_H-M "C 2/M"
_symmetry_group_IT_number 12
_symmetry_cell_setting 'monoclinic'
loop_
_space_group_symop_operation_xyz
x,y,z
-x,y,-z
-x,-y,-z
x,-y,z
1/2+x,1/2+y,z
1/2-x,1/2+y,-z
1/2-x,1/2-y,-z
1/2+x,1/2-y,z
loop_
_atom_site_type_symbol
_atom_site_label
_atom_site_fract_x
_atom_site_fract_y
_atom_site_fract_z
Si Si1 0.725795 0.389436 0.680607
Si Si2 0.956443 0.240056 0.110258
Si Si3 0.469249 0.108067 0.396839
Si Si4 0.718305 0.714992 0.810779
Si Si5 0.084354 0.109320 0.309535
O O1 0.500000 0.366870 0.500000
O O2 0.761276 0.500000 0.689808
O O3 0.751561 0.368358 0.779473
O O4 0.881404 0.320094 0.755871
O O5 0.040161 0.141695 0.199860
O O6 0.750000 0.250000 0.000000
O O7 0.892552 0.256709 0.986800
O O8 0.500000 0.119836 0.500000
O O9 0.338697 0.191772 0.273229
O O10 0.683109 0.116041 0.515409
O O11 0.395514 0.000000 0.332339
O O12 0.537291 0.677644 0.727612
O O13 0.023173 0.000000 0.276398
#
# Coordination Sequence:
#
# PCOD9207627 Si02
#       5
#     8   8   8   8   8
#     4  11  24  42  66  95 128 167 211 262 318 378
#     4  10  23  39  59  90 126 165 204 255 318 376
#     4  10  21  37  59  86 122 168 212 256 308 374
#     4  11  21  37  62  91 122 158 206 264 320 372
#     4  10  21  38  58  84 121 165 210 258 316 376
#
# _framework density 21.340841999999999
#
# number of rings (size 3 to 8) (size 9 to 14) (size 15 to 20)
#    0.000    1.600    0.000    4.800    0.000    7.200 
#    0.000    7.000    0.000    6.000    0.000    0.000 
#    0.000    0.000    0.000    0.000    0.000    0.000 
#
# Total GULP energy -111699.505412 kJ/mol
# GULP energy per Si atom -5584.975271 kJ/mol
# Density = 2.129227 g / cm^3
# Si number density = 21.340842 Si / 1000 Ang^3
#
#
#
# Elastic Constant Matrix: (Units=GPa)
#
#
# Indices 1 2 3 4 5 6 
#
# 1 76.6393 15.8729 8.7260 -0.0004 10.8485 -0.0001
# 2 15.8729 123.8706 44.1151 0.0005 5.9408 -0.0007
# 3 8.7260 44.1151 78.7116 0.0044 4.7302 0.0019
# 4 -0.0004 0.0005 0.0044 9.2057 0.0016 -7.7848
# 5 10.8485 5.9408 4.7302 0.0016 32.1292 0.0010
# 6 -0.0001 -0.0007 0.0019 -7.7848 0.0010 30.7383
#
#
#
# Elastic Compliance Matrix: (Units=1/GPa)
#
#
# Indices 1 2 3 4 5 6 
#
# 1 0.014019 -0.001407 -0.000501 0.000002 -0.004400 0.000001
# 2 -0.001407 0.010262 -0.005559 0.000003 -0.000604 0.000001
# 3 -0.000501 -0.005559 0.015945 -0.000010 -0.001150 -0.000004
# 4 0.000002 0.000003 -0.000010 0.138234 -0.000008 0.035009
# 5 -0.004400 -0.000604 -0.001150 -0.000008 0.032891 -0.000003
# 6 0.000001 0.000001 -0.000004 0.035009 -0.000003 0.041399
#
#
# Mechanical properties :
#
#
# Convention : Reuss Voigt Hill
#
# Bulk Modulus (GPa) = 39.53880 46.29441 42.91660
# Shear Modulus (GPa) = 18.10830 28.44847 23.27839
#
# Velocity S-wave (km/s) = 2.91611 3.65506 3.30629
# Velocity P-wave (km/s) = 5.46862 6.28908 5.89315
#
# Compressibility (1/GPa) = 0.02529161
#
# Stress axis : x y z
#
# Youngs Moduli (GPa) = 71.32983 97.44632 62.71530
#
# Poissons Ratio (x) = 0.13710 0.03144
# Poissons Ratio (y) = 0.10036 0.34865
# Poissons Ratio (z) = 0.03576 0.54173
#
# Static dielectric constant tensor:
#      x y z
#    x 1.839310 0.000000 0.036000 
#    y 0.000000 1.732400 0.000000 
#    z 0.036000 0.000000 1.817430 
# 
# From -- ./inp_files/96639.got.cif
#   From: 2010.05.17/outbox.cif.g08.bks.cpg/sg12_49_cif.got.tgz:96639.got - 2010.06.03 13:09:07.
