data_PCOD9207116
_publ_section_title
;
Structure prediction by ZEFSAII (Michael W. Deem and Ramdas Pophale) SiO2 
 PCOD9207116
Probable space group: C 2/M
;
_chemical_formula_sum "Si O2"
_cell_formula_units_Z 56
_cell_length_a 28.292087
_cell_length_b 7.776623
_cell_length_c 14.058976
_cell_angle_alpha 90.000000
_cell_angle_beta 120.575617
_cell_angle_gamma 90.000000
_cell_volume 2663.127613
_symmetry_space_group_name_H-M "C 2/M"
_symmetry_group_IT_number 12
_symmetry_cell_setting 'monoclinic'
loop_
_space_group_symop_operation_xyz
x,y,z
-x,y,-z
-x,-y,-z
x,-y,z
1/2+x,1/2+y,z
1/2-x,1/2+y,-z
1/2-x,1/2-y,-z
1/2+x,1/2-y,z
loop_
_atom_site_type_symbol
_atom_site_label
_atom_site_fract_x
_atom_site_fract_y
_atom_site_fract_z
Si Si1 0.761581 0.792532 0.121095
Si Si2 0.832874 0.707191 0.832793
Si Si3 0.311077 0.792828 0.596459
Si Si4 0.454490 0.706944 0.027679
Si Si5 0.381178 0.702721 0.301077
Si Si6 0.478723 0.708868 0.266470
Si Si7 0.099433 0.296451 0.463009
O O1 0.713492 0.728270 0.141548
O O2 0.821423 0.725493 0.213242
O O3 0.762139 0.000000 0.130524
O O4 0.750000 0.750000 0.000000
O O5 0.828558 0.500000 0.825689
O O6 0.822590 0.771489 0.715032
O O7 0.893487 0.750225 0.931053
O O8 0.250000 0.750000 0.500000
O O9 0.355867 0.727926 0.566512
O O10 0.316118 0.000000 0.604474
O O11 0.458955 0.500000 0.034622
O O12 0.466314 0.768531 0.146641
O O13 0.500000 0.772345 0.000000
O O14 0.378800 0.500000 0.276436
O O15 0.431189 0.772480 0.289032
O O16 0.392833 0.721345 0.424318
O O17 0.478465 0.500000 0.266905
O O18 0.538513 0.764133 0.362225
O O19 0.107951 0.500000 0.480768
#
# Coordination Sequence:
#
# PCOD9207116 Si02
#       7
#     8   8   8   8   8   8   8
#     4  10  21  37  58  83 111 145 183 224 271 323
#     4  10  21  37  57  82 112 146 182 221 273 331
#     4  10  22  39  58  82 111 144 183 225 272 327
#     4  10  21  37  58  84 111 142 184 229 271 320
#     4  10  21  38  58  79 109 150 188 221 266 327
#     4  10  21  37  57  81 110 147 187 223 267 326
#     4  11  23  37  56  84 113 141 180 231 279 320
#
# _framework density 21.027908
#
# number of rings (size 3 to 8) (size 9 to 14) (size 15 to 20)
#    0.000    1.857    0.000    3.429    0.000    8.286 
#    0.000    0.000    0.000    0.000    0.000    0.000 
#    0.000    0.000    0.000    0.000    0.000    0.000 
#
# Total GULP energy -156536.946439 kJ/mol
# GULP energy per Si atom -5590.605230 kJ/mol
# Density = 2.098005 g / cm^3
# Si number density = 21.027908 Si / 1000 Ang^3
#
#
#
# Elastic Constant Matrix: (Units=GPa)
#
#
# Indices 1 2 3 4 5 6 
#
# 1 237.6047 -7.1227 111.9418 0.0000 -5.8519 0.0000
# 2 -7.1227 20.8658 -24.0361 0.0000 -5.3625 0.0000
# 3 111.9418 -24.0361 173.7794 0.0000 -0.9548 0.0000
# 4 0.0000 0.0000 0.0000 26.9250 0.0000 2.7825
# 5 -5.8519 -5.3625 -0.9548 0.0000 47.1990 0.0000
# 6 0.0000 0.0000 0.0000 2.7825 0.0000 19.0948
#
#
#
# Elastic Compliance Matrix: (Units=1/GPa)
#
#
# Indices 1 2 3 4 5 6 
#
# 1 0.006197 -0.002842 -0.004383 0.000000 0.000357 0.000000
# 2 -0.002842 0.060469 0.010231 0.000000 0.006725 0.000000
# 3 -0.004383 0.010231 0.009998 0.000000 0.000821 0.000000
# 4 0.000000 0.000000 0.000000 0.037708 0.000000 -0.005495
# 5 0.000357 0.006725 0.000821 0.000000 0.022012 0.000000
# 6 0.000000 0.000000 0.000000 -0.005495 0.000000 0.053171
#
#
# Mechanical properties :
#
#
# Convention : Reuss Voigt Hill
#
# Bulk Modulus (GPa) = 12.09530 65.97953 39.03742
# Shear Modulus (GPa) = 23.68530 42.07490 32.88010
#
# Velocity S-wave (km/s) = 3.35979 4.47800 3.95858
# Velocity P-wave (km/s) = 4.56239 7.62771 6.28480
#
# Compressibility (1/GPa) = 0.08267673
#
# Stress axis : x y z
#
# Youngs Moduli (GPa) = 161.36088 16.53730 100.02467
#
# Poissons Ratio (x) = 0.04700 0.43842
# Poissons Ratio (y) = 0.45858 -1.02339
# Poissons Ratio (z) = 0.70727 -0.16920
#
# Static dielectric constant tensor:
#      x y z
#    x 1.736350 0.000000 -0.023120 
#    y 0.000000 1.792140 0.000000 
#    z -0.023120 0.000000 1.697630 
# 
# From -- ./inp_files/180707.got.cif
#   From: 2010.05.17/outbox.cif.g08.bks.cpg/sg12_91_cif.got.tgz:180707.got - 2010.06.03 13:09:07.
