data_PCOD9207963
_publ_section_title
;
Structure prediction by ZEFSAII (Michael W. Deem and Ramdas Pophale) SiO2 
 PCOD9207963
Probable space group: C 2/M
;
_chemical_formula_sum "Si O2"
_cell_formula_units_Z 52
_cell_length_a 13.586762
_cell_length_b 18.700198
_cell_length_c 14.426003
_cell_angle_alpha 90.000000
_cell_angle_beta 136.528017
_cell_angle_gamma 90.000000
_cell_volume 2521.717886
_symmetry_space_group_name_H-M "C 2/M"
_symmetry_group_IT_number 12
_symmetry_cell_setting 'monoclinic'
loop_
_space_group_symop_operation_xyz
x,y,z
-x,y,-z
-x,-y,-z
x,-y,z
1/2+x,1/2+y,z
1/2-x,1/2+y,-z
1/2-x,1/2-y,-z
1/2+x,1/2-y,z
loop_
_atom_site_type_symbol
_atom_site_label
_atom_site_fract_x
_atom_site_fract_y
_atom_site_fract_z
Si Si1 0.445250 0.000000 0.859842
Si Si2 0.393420 0.500000 0.337855
Si Si3 0.925777 0.343849 0.808219
Si Si4 0.087717 0.802164 0.966613
Si Si5 0.201727 0.667301 0.478176
Si Si6 0.007474 0.125910 0.728721
Si Si7 0.193175 0.766813 0.761369
Si Si8 0.000000 0.684918 0.500000
O O1 0.270780 0.000000 0.739133
O O2 0.496998 0.921827 0.861735
O O3 0.500000 0.000000 0.000000
O O4 0.500000 0.500000 0.500000
O O5 0.426665 0.565504 0.291494
O O6 0.838619 0.350303 0.654054
O O7 0.812690 0.325258 0.813720
O O8 0.024520 0.273100 0.883291
O O9 0.069824 0.861121 0.874433
O O10 0.241193 0.783822 0.114871
O O11 0.000000 0.821111 0.000000
O O12 0.250000 0.750000 0.500000
O O13 0.336749 0.623704 0.610182
O O14 0.067232 0.651164 0.453534
O O15 0.053622 0.197141 0.706339
O O16 0.138981 0.727596 0.632571
#
# Coordination Sequence:
#
# PCOD9207963 Si02
#       8
#     4   4   8   8   8   8   8   4
#     4  12  24  42  66  95 141 171 211 265 330 407
#     4  12  28  44  67 101 137 186 214 273 347 405
#     4  11  21  38  61  95 132 172 209 265 335 388
#     4  10  21  37  60  93 130 173 220 270 317 381
#     4  12  21  37  60  91 126 165 216 272 328 381
#     4  12  23  40  62  93 133 170 223 269 329 395
#     4  11  19  33  61  91 130 163 211 266 332 389
#     4  12  22  36  60  94 124 166 212 278 328 388
#
# _framework density 20.620863
#
# number of rings (size 3 to 8) (size 9 to 14) (size 15 to 20)
#    0.000    0.615    6.154    3.692    1.077    0.000 
#    0.000    0.385    0.000    1.846    0.000    0.000 
#    0.000    0.000    0.000    0.000    0.000    0.000 
#
# Total GULP energy -144918.864073 kJ/mol
# GULP energy per Si atom -5573.802464 kJ/mol
# Density = 2.057393 g / cm^3
# Si number density = 20.620863 Si / 1000 Ang^3
#
#
#
# Elastic Constant Matrix: (Units=GPa)
#
#
# Indices 1 2 3 4 5 6 
#
# 1 84.8949 -1.8754 -0.8478 0.0000 -11.7254 0.0000
# 2 -1.8754 38.9090 27.3215 0.0000 -21.1367 0.0000
# 3 -0.8478 27.3215 116.2570 0.0000 -23.0989 0.0000
# 4 0.0000 0.0000 0.0000 22.1711 0.0000 -3.3222
# 5 -11.7254 -21.1367 -23.0989 0.0000 39.8935 0.0000
# 6 0.0000 0.0000 0.0000 -3.3222 0.0000 10.4653
#
#
#
# Elastic Compliance Matrix: (Units=1/GPa)
#
#
# Indices 1 2 3 4 5 6 
#
# 1 0.012662 0.003460 0.000433 0.000000 0.005805 0.000000
# 2 0.003460 0.040163 -0.005631 0.000000 0.019036 0.000000
# 3 0.000433 -0.005631 0.010578 0.000000 0.003268 0.000000
# 4 0.000000 0.000000 0.000000 0.047356 0.000000 0.015033
# 5 0.005805 0.019036 0.003268 0.000000 0.038751 0.000000
# 6 0.000000 0.000000 0.000000 0.015033 0.000000 0.100326
#
#
# Mechanical properties :
#
#
# Convention : Reuss Voigt Hill
#
# Bulk Modulus (GPa) = 16.68743 32.13973 24.41358
# Shear Modulus (GPa) = 18.29577 28.87018 23.58298
#
# Velocity S-wave (km/s) = 2.98190 3.74578 3.38545
# Velocity P-wave (km/s) = 4.46830 5.85898 5.21025
#
# Compressibility (1/GPa) = 0.05992533
#
# Stress axis : x y z
#
# Youngs Moduli (GPa) = 78.97749 24.89864 94.54023
#
# Poissons Ratio (x) = -0.08615 -0.04090
# Poissons Ratio (y) = -0.27328 0.53237
# Poissons Ratio (z) = -0.03417 0.14021
#
# Static dielectric constant tensor:
#      x y z
#    x 1.764840 0.000000 0.020680 
#    y 0.000000 3.602390 0.000000 
#    z 0.020680 0.000000 1.763650 
# 
# From -- ./inp_files/216912.got.cif
#   From: 2010.05.17/outbox.cif.g08.bks.cpg/sg12_109_cif.got.tgz:216912.got - 2010.06.03 13:09:07.
