data_PCOD9207036
_publ_section_title
;
Structure prediction by ZEFSAII (Michael W. Deem and Ramdas Pophale) SiO2 
 PCOD9207036
Probable space group: C 2/M
;
_chemical_formula_sum "Si O2"
_cell_formula_units_Z 56
_cell_length_a 22.184121
_cell_length_b 7.759348
_cell_length_c 13.957584
_cell_angle_alpha 90.000000
_cell_angle_beta 88.998291
_cell_angle_gamma 90.000000
_cell_volume 2402.211983
_symmetry_space_group_name_H-M "C 2/M"
_symmetry_group_IT_number 12
_symmetry_cell_setting 'monoclinic'
loop_
_space_group_symop_operation_xyz
x,y,z
-x,y,-z
-x,-y,-z
x,-y,z
1/2+x,1/2+y,z
1/2-x,1/2+y,-z
1/2-x,1/2-y,-z
1/2+x,1/2-y,z
loop_
_atom_site_type_symbol
_atom_site_label
_atom_site_fract_x
_atom_site_fract_y
_atom_site_fract_z
Si Si1 0.934533 0.696555 0.187878
Si Si2 0.247558 0.705672 0.613096
Si Si3 0.813029 0.301572 0.872286
Si Si4 0.186144 0.201894 0.910084
Si Si5 0.063505 0.294127 0.212390
Si Si6 0.120008 0.208063 0.398815
Si Si7 0.615095 0.300165 0.618100
O O1 0.934235 0.500000 0.153213
O O2 0.876848 0.783021 0.141958
O O3 0.922811 0.701205 0.302108
O O4 0.000907 0.774584 0.171784
O O5 0.242478 0.500000 0.626007
O O6 0.250000 0.750000 0.500000
O O7 0.314076 0.764972 0.643266
O O8 0.185465 0.789928 0.647635
O O9 0.813440 0.500000 0.839742
O O10 0.745954 0.229343 0.853044
O O11 0.874654 0.219021 0.832440
O O12 0.817405 0.293433 0.987448
O O13 0.197655 0.000000 0.928167
O O14 0.062087 0.500000 0.195003
O O15 0.069740 0.264709 0.325806
O O16 0.111434 0.266285 0.508851
O O17 0.122132 0.000000 0.402718
O O18 0.596461 0.500000 0.619535
#
# Coordination Sequence:
#
# PCOD9207036 Si02
#       7
#     8   8   8   8   8   8   8
#     4  11  24  40  58  85 121 159 200 245 296 354
#     4   9  17  31  51  80 111 146 191 241 296 347
#     4   9  20  41  65  90 118 151 192 238 293 356
#     4  10  21  39  65  94 119 149 191 241 298 356
#     4  10  23  40  59  85 118 160 202 242 292 352
#     4   9  20  36  55  82 116 154 197 247 296 343
#     4  10  21  37  56  81 116 158 202 249 299 351
#
# _framework density 23.311845999999999
#
# number of rings (size 3 to 8) (size 9 to 14) (size 15 to 20)
#    0.000    2.286    0.000    2.571    2.000    6.857 
#    0.000    5.714    0.000    0.000    0.000    0.000 
#    0.000    0.000    0.000    0.000    0.000    0.000 
#
# Total GULP energy -156342.995802 kJ/mol
# GULP energy per Si atom -5583.678422 kJ/mol
# Density = 2.325879 g / cm^3
# Si number density = 23.311846 Si / 1000 Ang^3
#
#
#
# Elastic Constant Matrix: (Units=GPa)
#
#
# Indices 1 2 3 4 5 6 
#
# 1 167.9090 0.7509 49.1015 0.0000 26.2409 0.0000
# 2 0.7509 55.7513 -2.0268 0.0000 2.5450 0.0000
# 3 49.1015 -2.0268 54.7773 0.0000 8.5669 0.0000
# 4 0.0000 0.0000 0.0000 25.8765 0.0000 6.0034
# 5 26.2409 2.5450 8.5669 0.0000 22.9244 0.0000
# 6 0.0000 0.0000 0.0000 6.0034 0.0000 20.1759
#
#
#
# Elastic Compliance Matrix: (Units=1/GPa)
#
#
# Indices 1 2 3 4 5 6 
#
# 1 0.009265 -0.000018 -0.007060 0.000000 -0.007965 0.000000
# 2 -0.000018 0.018084 0.001058 0.000000 -0.002383 0.000000
# 3 -0.007060 0.001058 0.024829 0.000000 -0.001315 0.000000
# 4 0.000000 0.000000 0.000000 0.041511 0.000000 -0.012352
# 5 -0.007965 -0.002383 -0.001315 0.000000 0.053495 0.000000
# 6 0.000000 0.000000 0.000000 -0.012352 0.000000 0.053239
#
#
# Mechanical properties :
#
#
# Convention : Reuss Voigt Hill
#
# Bulk Modulus (GPa) = 24.91403 41.56544 33.23973
# Shear Modulus (GPa) = 22.13932 29.16950 25.65441
#
# Velocity S-wave (km/s) = 3.08507 3.54117 3.32096
# Velocity P-wave (km/s) = 4.83742 5.88122 5.38467
#
# Compressibility (1/GPa) = 0.04013803
#
# Stress axis : x y z
#
# Youngs Moduli (GPa) = 107.93298 55.29676 40.27558
#
# Poissons Ratio (x) = 0.00099 0.28434
# Poissons Ratio (y) = 0.00193 -0.04260
# Poissons Ratio (z) = 0.76200 -0.05849
#
# Static dielectric constant tensor:
#      x y z
#    x 1.932190 0.000000 -0.009220 
#    y 0.000000 1.745000 0.000000 
#    z -0.009220 0.000000 1.856020 
# 
# From -- ./inp_files/231070.got.cif
#   From: 2010.05.17/outbox.cif.g08.bks.cpg/sg12_116_cif.got.tgz:231070.got - 2010.06.03 13:09:07.
