data_PCOD9207130
_publ_section_title
;
Structure prediction by ZEFSAII (Michael W. Deem and Ramdas Pophale) SiO2 
 PCOD9207130
Probable space group: C 2/M
;
_chemical_formula_sum "Si O2"
_cell_formula_units_Z 56
_cell_length_a 24.129037
_cell_length_b 9.142567
_cell_length_c 16.052688
_cell_angle_alpha 90.000000
_cell_angle_beta 56.183907
_cell_angle_gamma 90.000000
_cell_volume 2942.165698
_symmetry_space_group_name_H-M "C 2/M"
_symmetry_group_IT_number 12
_symmetry_cell_setting 'monoclinic'
loop_
_space_group_symop_operation_xyz
x,y,z
-x,y,-z
-x,-y,-z
x,-y,z
1/2+x,1/2+y,z
1/2-x,1/2+y,-z
1/2-x,1/2-y,-z
1/2+x,1/2-y,z
loop_
_atom_site_type_symbol
_atom_site_label
_atom_site_fract_x
_atom_site_fract_y
_atom_site_fract_z
Si Si1 0.290425 0.827149 0.892246
Si Si2 0.069632 0.676240 0.665699
Si Si3 0.931105 0.823661 0.512911
Si Si4 0.660489 0.175197 0.740883
Si Si5 0.578418 0.329528 0.955504
Si Si6 0.293841 0.324837 0.715074
Si Si7 0.927617 0.327305 0.865435
O O1 0.275759 0.755546 0.815659
O O2 0.368670 0.806419 0.848387
O O3 0.276128 0.000000 0.903379
O O4 0.250000 0.750000 0.000000
O O5 0.070572 0.500000 0.654978
O O6 0.074222 0.751815 0.572945
O O7 0.128673 0.720150 0.679577
O O8 0.999240 0.715640 0.768375
O O9 0.866969 0.782746 0.621823
O O10 0.000000 0.780441 0.500000
O O11 0.930994 0.000000 0.504427
O O12 0.619370 0.247745 0.850014
O O13 0.737913 0.208375 0.692427
O O14 0.651966 0.000000 0.753970
O O15 0.596406 0.500000 0.941572
O O16 0.500000 0.316085 0.000000
O O17 0.589105 0.259613 0.036942
O O18 0.293009 0.500000 0.730386
O O19 0.930576 0.500000 0.883620
#
# Coordination Sequence:
#
# PCOD9207130 Si02
#       7
#     8   8   8   8   8   8   8
#     4  11  23  38  58  85 115 150 192 235 282 336
#     4  10  21  37  59  85 110 143 191 238 279 333
#     4  10  22  40  61  85 115 149 185 233 292 341
#     4  10  21  38  59  82 114 154 193 231 280 342
#     4  11  22  34  53  85 119 150 188 233 282 337
#     4  10  22  40  60  84 115 153 193 233 282 341
#     4  10  21  37  57  81 112 152 193 233 282 340
#
# _framework density 19.033598000000001
#
# number of rings (size 3 to 8) (size 9 to 14) (size 15 to 20)
#    0.000    1.714    1.429    2.571    0.000    8.286 
#    0.000    0.000    0.000    0.000    0.000    0.000 
#    0.000    0.000    0.000    0.000    0.000    0.000 
#
# Total GULP energy -156479.282514 kJ/mol
# GULP energy per Si atom -5588.545804 kJ/mol
# Density = 1.899028 g / cm^3
# Si number density = 19.033598 Si / 1000 Ang^3
#
#
#
# Elastic Constant Matrix: (Units=GPa)
#
#
# Indices 1 2 3 4 5 6 
#
# 1 137.1899 47.8896 68.0098 0.0000 5.4557 0.0000
# 2 47.8896 23.8822 34.6426 0.0000 4.8321 0.0000
# 3 68.0098 34.6426 116.2347 0.0000 11.8236 0.0000
# 4 0.0000 0.0000 0.0000 33.5865 0.0000 8.6570
# 5 5.4557 4.8321 11.8236 0.0000 34.2805 0.0000
# 6 0.0000 0.0000 0.0000 8.6570 0.0000 24.8812
#
#
#
# Elastic Compliance Matrix: (Units=1/GPa)
#
#
# Indices 1 2 3 4 5 6 
#
# 1 0.024624 -0.050463 0.000319 0.000000 0.003084 0.000000
# 2 -0.050463 0.177460 -0.022423 0.000000 -0.009250 0.000000
# 3 0.000319 -0.022423 0.015321 0.000000 -0.002174 0.000000
# 4 0.000000 0.000000 0.000000 0.032707 0.000000 -0.011380
# 5 0.003084 -0.009250 -0.002174 0.000000 0.030734 0.000000
# 6 0.000000 0.000000 0.000000 -0.011380 0.000000 0.044150
#
#
# Mechanical properties :
#
#
# Convention : Reuss Voigt Hill
#
# Bulk Modulus (GPa) = 13.83699 64.26563 39.05131
# Shear Modulus (GPa) = 10.11692 27.00062 18.55877
#
# Velocity S-wave (km/s) = 2.30799 3.77049 3.12597
# Velocity P-wave (km/s) = 3.79315 7.26588 5.79573
#
# Compressibility (1/GPa) = 0.07227007
#
# Stress axis : x y z
#
# Youngs Moduli (GPa) = 40.61073 5.63507 65.27003
#
# Poissons Ratio (x) = 0.28436 -0.02079
# Poissons Ratio (y) = 2.04935 1.46354
# Poissons Ratio (z) = -0.01294 0.12635
#
# Static dielectric constant tensor:
#      x y z
#    x 1.687060 0.000000 -0.019070 
#    y 0.000000 1.634530 0.000000 
#    z -0.019070 0.000000 1.608130 
# 
# From -- ./inp_files/238294.got.cif
#   From: 2010.05.17/outbox.cif.g08.bks.cpg/sg12_120_cif.got.tgz:238294.got - 2010.06.03 13:09:07.
