data_PCOD9207069
_publ_section_title
;
Structure prediction by ZEFSAII (Michael W. Deem and Ramdas Pophale) SiO2 
 PCOD9207069
Probable space group: C 2/M
;
_chemical_formula_sum "Si O2"
_cell_formula_units_Z 64
_cell_length_a 32.265181
_cell_length_b 8.354701
_cell_length_c 15.228309
_cell_angle_alpha 90.000000
_cell_angle_beta 135.771593
_cell_angle_gamma 90.000000
_cell_volume 2863.344799
_symmetry_space_group_name_H-M "C 2/M"
_symmetry_group_IT_number 12
_symmetry_cell_setting 'monoclinic'
loop_
_space_group_symop_operation_xyz
x,y,z
-x,y,-z
-x,-y,-z
x,-y,z
1/2+x,1/2+y,z
1/2-x,1/2+y,-z
1/2-x,1/2-y,-z
1/2+x,1/2-y,z
loop_
_atom_site_type_symbol
_atom_site_label
_atom_site_fract_x
_atom_site_fract_y
_atom_site_fract_z
Si Si1 0.422342 0.193230 0.123314
Si Si2 0.635107 0.315918 0.476227
Si Si3 0.640351 0.179280 0.306791
Si Si4 0.562318 0.678549 0.045621
Si Si5 0.237201 0.817997 0.344219
Si Si6 0.953184 0.692200 0.357012
Si Si7 0.344245 0.306135 0.297345
Si Si8 0.208799 0.307527 0.116926
O O1 0.457989 0.248827 0.263632
O O2 0.427342 0.000000 0.124022
O O3 0.442281 0.269464 0.062065
O O4 0.351527 0.230584 0.026605
O O5 0.616799 0.500000 0.445407
O O6 0.610221 0.226006 0.353242
O O7 0.706152 0.297320 0.570234
O O8 0.629323 0.253773 0.567069
O O9 0.597566 0.196970 0.159138
O O10 0.694602 0.292737 0.361706
O O11 0.663188 0.000000 0.347839
O O12 0.590099 0.500000 0.092915
O O13 0.500000 0.668022 0.000000
O O14 0.202598 0.772544 0.202814
O O15 0.258074 0.000000 0.369697
O O16 0.959171 0.500000 0.364034
O O17 0.887549 0.735430 0.290962
O O18 0.000000 0.756092 0.500000
O O19 0.346180 0.500000 0.298884
O O20 0.274614 0.258908 0.183201
O O21 0.210549 0.500000 0.130218
#
# Coordination Sequence:
#
# PCOD9207069 Si02
#       8
#     8   8   8   8   8   8   8   8
#     4  10  21  40  66  91 120 162 205 250 311 373
#     4  10  21  37  56  83 122 162 201 247 299 354
#     4  12  23  36  56  83 117 159 205 248 299 363
#     4  11  25  43  62  89 123 157 202 259 308 363
#     4  11  20  32  53  84 121 159 202 246 297 357
#     4  10  23  42  63  90 124 160 204 256 303 361
#     4   9  20  38  60  88 122 159 203 256 311 364
#     4   9  18  35  59  88 122 159 202 255 311 371
#
# _framework density 22.351483000000002
#
# number of rings (size 3 to 8) (size 9 to 14) (size 15 to 20)
#    0.000    1.750    1.250    4.125    0.000    5.750 
#    0.000    2.500    0.000    0.000    0.000    0.000 
#    0.000    0.000    0.000    0.000    0.000    0.000 
#
# Total GULP energy -178673.338382 kJ/mol
# GULP energy per Si atom -5583.541824 kJ/mol
# Density = 2.230061 g / cm^3
# Si number density = 22.351483 Si / 1000 Ang^3
#
#
#
# Elastic Constant Matrix: (Units=GPa)
#
#
# Indices 1 2 3 4 5 6 
#
# 1 74.1339 0.4892 38.4855 0.0000 -18.9094 0.0000
# 2 0.4892 26.5957 21.9568 0.0000 -5.0840 0.0000
# 3 38.4855 21.9568 125.1877 0.0000 -30.3933 0.0000
# 4 0.0000 0.0000 0.0000 13.4660 0.0000 0.0478
# 5 -18.9094 -5.0840 -30.3933 0.0000 33.5423 0.0000
# 6 0.0000 0.0000 0.0000 0.0478 0.0000 19.1845
#
#
#
# Elastic Compliance Matrix: (Units=1/GPa)
#
#
# Indices 1 2 3 4 5 6 
#
# 1 0.017504 0.004749 -0.004671 0.000000 0.006355 0.000000
# 2 0.004749 0.045259 -0.009080 0.000000 0.001310 0.000000
# 3 -0.004671 -0.009080 0.012876 0.000000 0.007657 0.000000
# 4 0.000000 0.000000 0.000000 0.074262 0.000000 -0.000185
# 5 0.006355 0.001310 0.007657 0.000000 0.040533 0.000000
# 6 0.000000 0.000000 0.000000 -0.000185 0.000000 0.052126
#
#
# Mechanical properties :
#
#
# Convention : Reuss Voigt Hill
#
# Bulk Modulus (GPa) = 17.35070 38.64227 27.99648
# Shear Modulus (GPa) = 17.87153 24.23761 21.05457
#
# Velocity S-wave (km/s) = 2.83073 3.29657 3.07249
# Velocity P-wave (km/s) = 4.29693 5.64055 5.01395
#
# Compressibility (1/GPa) = 0.05763456
#
# Stress axis : x y z
#
# Youngs Moduli (GPa) = 57.13085 22.09484 77.66607
#
# Poissons Ratio (x) = -0.10493 0.36279
# Poissons Ratio (y) = -0.27133 0.70522
# Poissons Ratio (z) = 0.26687 0.20062
#
# Static dielectric constant tensor:
#      x y z
#    x 1.806830 0.000000 0.012750 
#    y 0.000000 1.784820 0.000000 
#    z 0.012750 0.000000 1.906350 
# 
# From -- ./inp_files/249963.got.cif
#   From: 2010.05.17/outbox.cif.g08.bks.cpg/sg12_125_cif.got.tgz:249963.got - 2010.06.03 13:09:07.
