data_PCOD9207162
_publ_section_title
;
Structure prediction by ZEFSAII (Michael W. Deem and Ramdas Pophale) SiO2 
 PCOD9207162
Probable space group: C 2/M
;
_chemical_formula_sum "Si O2"
_cell_formula_units_Z 50
_cell_length_a 9.880556
_cell_length_b 7.746152
_cell_length_c 29.468185
_cell_angle_alpha 90.000000
_cell_angle_beta 116.588914
_cell_angle_gamma 90.000000
_cell_volume 2016.857871
_symmetry_space_group_name_H-M "C 2/M"
_symmetry_group_IT_number 12
_symmetry_cell_setting 'monoclinic'
loop_
_space_group_symop_operation_xyz
x,y,z
-x,y,-z
-x,-y,-z
x,-y,z
1/2+x,1/2+y,z
1/2-x,1/2+y,-z
1/2-x,1/2-y,-z
1/2+x,1/2-y,z
loop_
_atom_site_type_symbol
_atom_site_label
_atom_site_fract_x
_atom_site_fract_y
_atom_site_fract_z
Si Si1 0.921506 0.796816 0.262653
Si Si2 0.977790 0.702631 0.046570
Si Si3 0.500000 0.000000 0.500000
Si Si4 0.911146 0.699105 0.364881
Si Si5 0.092769 0.700850 0.205913
Si Si6 0.307012 0.789803 0.106444
Si Si7 0.223554 0.806302 0.418135
O O1 0.926269 0.772753 0.317124
O O2 0.054099 0.713060 0.253443
O O3 0.945850 0.772425 0.158316
O O4 0.928145 0.000000 0.254062
O O5 0.945264 0.500000 0.036099
O O6 0.851574 0.770138 0.062088
O O7 0.142395 0.721876 0.094484
O O8 0.000000 0.782633 0.000000
O O9 0.632076 0.149301 0.529613
O O10 0.866874 0.500000 0.353112
O O11 0.078063 0.703502 0.412676
O O12 0.791166 0.774996 0.382110
O O13 0.101687 0.500000 0.194507
O O14 0.258128 0.777114 0.222277
O O15 0.301554 0.000000 0.106763
O O16 0.160490 0.000000 0.398843
#
# Coordination Sequence:
#
# PCOD9207162 Si02
#       7
#     8   8   2   8   8   8   8
#     4  11  23  38  60  86 116 154 192 236 288 346
#     4  10  21  37  57  83 114 150 193 241 289 343
#     4   8  20  44  62  86 124 156 190 242 284 336
#     4  11  22  38  60  90 118 154 196 238 285 339
#     4  10  22  39  57  84 117 151 192 239 290 345
#     4  10  21  37  57  82 115 150 190 241 290 345
#     4   9  21  40  61  86 120 154 190 237 283 335
#
# _framework density 24.791038
#
# number of rings (size 3 to 8) (size 9 to 14) (size 15 to 20)
#    0.480    1.440    0.000    3.360    0.000    8.640 
#    0.000    0.400    0.000    0.000    0.000    0.000 
#    0.000    0.000    0.000    0.000    0.000    0.000 
#
# Total GULP energy -139417.066272 kJ/mol
# GULP energy per Si atom -5576.682651 kJ/mol
# Density = 2.473461 g / cm^3
# Si number density = 24.791038 Si / 1000 Ang^3
#
#
#
# Elastic Constant Matrix: (Units=GPa)
#
#
# Indices 1 2 3 4 5 6 
#
# 1 104.0214 -11.4552 -6.8847 0.0000 -3.5581 0.0000
# 2 -11.4552 49.7103 -8.3879 0.0000 -0.5885 0.0000
# 3 -6.8847 -8.3879 68.3439 0.0000 4.1539 0.0000
# 4 0.0000 0.0000 0.0000 18.3997 0.0000 12.3004
# 5 -3.5581 -0.5885 4.1539 0.0000 43.1439 0.0000
# 6 0.0000 0.0000 0.0000 12.3004 0.0000 14.3983
#
#
#
# Elastic Compliance Matrix: (Units=1/GPa)
#
#
# Indices 1 2 3 4 5 6 
#
# 1 0.010001 0.002528 0.001273 0.000000 0.000737 0.000000
# 2 0.002528 0.021181 0.002841 0.000000 0.000224 0.000000
# 3 0.001273 0.002841 0.015189 0.000000 -0.001319 0.000000
# 4 0.000000 0.000000 0.000000 0.126718 0.000000 -0.108254
# 5 0.000737 0.000224 -0.001319 0.000000 0.023369 0.000000
# 6 0.000000 0.000000 0.000000 -0.108254 0.000000 0.161933
#
#
# Mechanical properties :
#
#
# Convention : Reuss Voigt Hill
#
# Bulk Modulus (GPa) = 16.76306 18.73556 17.74931
# Shear Modulus (GPa) = 13.69888 31.77527 22.73708
#
# Velocity S-wave (km/s) = 2.35324 3.58400 3.03173
# Velocity P-wave (km/s) = 3.76299 4.96996 4.40798
#
# Compressibility (1/GPa) = 0.05965499
#
# Stress axis : x y z
#
# Youngs Moduli (GPa) = 99.98726 47.21188 65.83754
#
# Poissons Ratio (x) = -0.11936 -0.08381
# Poissons Ratio (y) = -0.25279 -0.18702
# Poissons Ratio (z) = -0.12728 -0.13411
#
# Static dielectric constant tensor:
#      x y z
#    x 1.938790 0.000000 0.005230 
#    y 0.000000 1.915840 0.000000 
#    z 0.005230 0.000000 2.102810 
# 
# From -- ./inp_files/357363.got.cif
#   From: 2010.05.17/outbox.cif.g08.bks.cpg/sg12_179_cif.got.tgz:357363.got - 2010.06.03 13:09:07.
