data_PCOD9207867
_publ_section_title
;
Structure prediction by ZEFSAII (Michael W. Deem and Ramdas Pophale) SiO2 
 PCOD9207867
Probable space group: C 2/M
;
_chemical_formula_sum "Si O2"
_cell_formula_units_Z 50
_cell_length_a 9.497412
_cell_length_b 28.008693
_cell_length_c 14.563061
_cell_angle_alpha 90.000000
_cell_angle_beta 144.854665
_cell_angle_gamma 90.000000
_cell_volume 2230.032188
_symmetry_space_group_name_H-M "C 2/M"
_symmetry_group_IT_number 12
_symmetry_cell_setting 'monoclinic'
loop_
_space_group_symop_operation_xyz
x,y,z
-x,y,-z
-x,-y,-z
x,-y,z
1/2+x,1/2+y,z
1/2-x,1/2+y,-z
1/2-x,1/2-y,-z
1/2+x,1/2-y,z
loop_
_atom_site_type_symbol
_atom_site_label
_atom_site_fract_x
_atom_site_fract_y
_atom_site_fract_z
Si Si1 0.784473 0.069922 0.539546
Si Si2 0.000000 0.000000 0.500000
Si Si3 0.040769 0.679681 0.870926
Si Si4 0.037211 0.211561 0.228175
Si Si5 0.210543 0.153504 0.170963
Si Si6 0.987110 0.830624 0.385033
Si Si7 0.701882 0.552943 0.242341
O O1 0.495525 0.058052 0.386512
O O2 0.864540 0.056898 0.685740
O O3 0.916399 0.040797 0.530572
O O4 0.845869 0.124789 0.553511
O O5 0.976786 0.734591 0.813536
O O6 0.085227 0.652920 0.797782
O O7 0.799203 0.657070 0.784965
O O8 0.285134 0.684207 0.062653
O O9 0.054384 0.209379 0.346510
O O10 0.245160 0.183076 0.282295
O O11 0.114339 0.101310 0.147486
O O12 0.000000 0.180744 0.000000
O O13 0.000000 0.818809 0.500000
O O14 0.628306 0.500000 0.170281
#
# Coordination Sequence:
#
# PCOD9207867 Si02
#       7
#     8   2   8   8   8   8   8
#     4  11  22  36  60  86 118 152 198 246 301 366
#     4  12  20  38  60  92 110 154 212 238 292 390
#     4  10  22  40  65  87 120 167 213 247 306 374
#     4  10  21  42  63  86 120 170 211 247 298 384
#     4  10  21  37  60  89 115 155 212 259 299 365
#     4  12  23  36  58  95 127 154 195 262 318 349
#     4  11  21  40  60  83 119 167 200 243 311 378
#
# _framework density 22.421201
#
# number of rings (size 3 to 8) (size 9 to 14) (size 15 to 20)
#    0.000    1.280    4.000    2.880    0.000    3.520 
#    0.000    1.600    0.000    0.000    0.000    4.480 
#    0.000    0.000    0.000    0.000    0.000    0.000 
#
# Total GULP energy -139282.343587 kJ/mol
# GULP energy per Si atom -5571.293743 kJ/mol
# Density = 2.237017 g / cm^3
# Si number density = 22.421201 Si / 1000 Ang^3
#
#
#
# Elastic Constant Matrix: (Units=GPa)
#
#
# Indices 1 2 3 4 5 6 
#
# 1 158.4114 30.9337 31.2582 0.0000 -42.4009 0.0000
# 2 30.9337 76.9751 18.1063 0.0000 -19.4755 0.0000
# 3 31.2582 18.1063 50.3761 0.0000 -16.8704 0.0000
# 4 0.0000 0.0000 0.0000 13.9211 0.0000 13.5900
# 5 -42.4009 -19.4755 -16.8704 0.0000 38.9534 0.0000
# 6 0.0000 0.0000 0.0000 13.5900 0.0000 2.6399
#
#
#
# Elastic Compliance Matrix: (Units=1/GPa)
#
#
# Indices 1 2 3 4 5 6 
#
# 1 0.009287 -0.000976 -0.002561 0.000000 0.008512 0.000000
# 2 -0.000976 0.015472 -0.003182 0.000000 0.005295 0.000000
# 3 -0.002561 -0.003182 0.024700 0.000000 0.006318 0.000000
# 4 0.000000 0.000000 0.000000 -0.017844 0.000000 0.091863
# 5 0.008512 0.005295 0.006318 0.000000 0.040320 0.000000
# 6 0.000000 0.000000 0.000000 0.091863 0.000000 -0.094101
#
#
# Mechanical properties :
#
#
# Convention : Reuss Voigt Hill
#
# Bulk Modulus (GPa) = 27.76286 49.59542 38.67914
# Shear Modulus (GPa) = 1525.56524 24.80051 775.18287
#
# Velocity S-wave (km/s) = 26.11300 3.32944 18.61416
# Velocity P-wave (km/s) = 30.35778 6.07850 21.89227
#
# Compressibility (1/GPa) = 0.03601935
#
# Stress axis : x y z
#
# Youngs Moduli (GPa) = 107.67848 64.63467 40.48662
#
# Poissons Ratio (x) = 0.06309 0.10369
# Poissons Ratio (y) = 0.10511 0.12883
# Poissons Ratio (z) = 0.27579 0.20567
#
# Static dielectric constant tensor:
#      x y z
#    x 1.871110 0.000000 0.025550 
#    y 0.000000 1.819770 0.000000 
#    z 0.025550 0.000000 1.907470 
# 
# From -- ./inp_files/199977.got.cif
#   From: 2010.05.17/outbox.cif.g08.bks.cpg/sg12_100_cif.got.tgz:199977.got - 2010.06.03 13:09:07.
