data_PCOD9207104
_publ_section_title
;
Structure prediction by ZEFSAII (Michael W. Deem and Ramdas Pophale) SiO2 
 PCOD9207104
Probable space group: C 2/M
;
_chemical_formula_sum "Si O2"
_cell_formula_units_Z 64
_cell_length_a 15.050978
_cell_length_b 7.764155
_cell_length_c 27.514313
_cell_angle_alpha 90.000000
_cell_angle_beta 104.716283
_cell_angle_gamma 90.000000
_cell_volume 3109.796013
_symmetry_space_group_name_H-M "C 2/M"
_symmetry_group_IT_number 12
_symmetry_cell_setting 'monoclinic'
loop_
_space_group_symop_operation_xyz
x,y,z
-x,y,-z
-x,-y,-z
x,-y,z
1/2+x,1/2+y,z
1/2-x,1/2+y,-z
1/2-x,1/2-y,-z
1/2+x,1/2-y,z
loop_
_atom_site_type_symbol
_atom_site_label
_atom_site_fract_x
_atom_site_fract_y
_atom_site_fract_z
Si Si1 0.820069 0.201527 0.251345
Si Si2 0.805737 0.710245 0.361591
Si Si3 0.981983 0.300214 0.444559
Si Si4 0.524255 0.801471 0.275330
Si Si5 0.624646 0.211086 0.192124
Si Si6 0.354819 0.793339 0.001679
Si Si7 0.618948 0.301952 0.384987
Si Si8 0.462313 0.789343 0.920774
O O1 0.800424 0.223066 0.306003
O O2 0.730797 0.264606 0.210049
O O3 0.915393 0.292918 0.253348
O O4 0.832773 0.000000 0.242617
O O5 0.806360 0.500000 0.358160
O O6 0.897521 0.772117 0.401451
O O7 0.716969 0.763416 0.380067
O O8 0.956661 0.500000 0.449186
O O9 0.000000 0.221960 0.500000
O O10 0.071010 0.291857 0.422897
O O11 0.574746 0.732276 0.234636
O O12 0.553273 0.707949 0.328665
O O13 0.552283 0.000000 0.286136
O O14 0.572987 0.268627 0.136502
O O15 0.623311 0.000000 0.192346
O O16 0.434386 0.734074 0.050326
O O17 0.359549 0.000000 0.001806
O O18 0.250000 0.750000 0.000000
O O19 0.392229 0.735410 0.953989
O O20 0.629982 0.500000 0.401126
O O21 0.462408 0.000000 0.920316
#
# Coordination Sequence:
#
# PCOD9207104 Si02
#       8
#     8   8   8   8   8   8   8   8
#     4  11  21  34  54  81 106 140 183 222 265 322
#     4  10  21  37  57  80 110 143 175 219 268 317
#     4  10  22  40  60  82 110 146 183 221 271 327
#     4  11  21  35  54  78 106 143 181 220 271 325
#     4   9  19  34  53  77 110 144 183 223 267 326
#     4   9  17  31  56  80 104 141 186 226 272 322
#     4  11  22  36  57  83 109 140 180 225 270 318
#     4   8  16  33  52  75 107 147 183 219 267 330
#
# _framework density 20.580128999999999
#
# number of rings (size 3 to 8) (size 9 to 14) (size 15 to 20)
#    0.000    2.125    2.500    1.875    0.000    2.250 
#    0.000    1.250    0.000    4.500    0.000    0.000 
#    0.000    0.000    0.000    0.000    0.000    0.000 
#
# Total GULP energy -178653.295234 kJ/mol
# GULP energy per Si atom -5582.915476 kJ/mol
# Density = 2.053329 g / cm^3
# Si number density = 20.580129 Si / 1000 Ang^3
#
#
#
# Elastic Constant Matrix: (Units=GPa)
#
#
# Indices 1 2 3 4 5 6 
#
# 1 92.1157 -2.3082 -4.0758 0.0000 2.0660 0.0000
# 2 -2.3082 29.7002 1.7736 0.0000 1.9099 0.0000
# 3 -4.0758 1.7736 63.7877 0.0000 6.1953 0.0000
# 4 0.0000 0.0000 0.0000 4.2553 0.0000 3.1736
# 5 2.0660 1.9099 6.1953 0.0000 21.4218 0.0000
# 6 0.0000 0.0000 0.0000 3.1736 0.0000 17.0702
#
#
#
# Elastic Compliance Matrix: (Units=1/GPa)
#
#
# Indices 1 2 3 4 5 6 
#
# 1 0.010945 0.000890 0.000807 0.000000 -0.001368 0.000000
# 2 0.000890 0.033964 -0.000602 0.000000 -0.002940 0.000000
# 3 0.000807 -0.000602 0.016203 0.000000 -0.004710 0.000000
# 4 0.000000 0.000000 0.000000 0.272833 0.000000 -0.050724
# 5 -0.001368 -0.002940 -0.004710 0.000000 0.048438 0.000000
# 6 0.000000 0.000000 0.000000 -0.050724 0.000000 0.068012
#
#
# Mechanical properties :
#
#
# Convention : Reuss Voigt Hill
#
# Bulk Modulus (GPa) = 15.79696 19.59807 17.69752
# Shear Modulus (GPa) = 10.65408 21.23037 15.94223
#
# Velocity S-wave (km/s) = 2.27774 3.21533 2.78626
# Velocity P-wave (km/s) = 3.82230 4.82990 4.35534
#
# Compressibility (1/GPa) = 0.06330331
#
# Stress axis : x y z
#
# Youngs Moduli (GPa) = 91.36885 29.44291 61.71767
#
# Poissons Ratio (x) = -0.02621 -0.04984
# Poissons Ratio (y) = -0.08135 0.03715
# Poissons Ratio (z) = -0.07378 0.01772
#
# Static dielectric constant tensor:
#      x y z
#    x 1.723500 0.000000 0.016690 
#    y 0.000000 1.761630 0.000000 
#    z 0.016690 0.000000 1.710910 
# 
# From -- ./inp_files/359889.got.cif
#   From: 2010.05.17/outbox.cif.g08.bks.cpg/sg12_180_cif.got.tgz:359889.got - 2010.06.03 13:09:07.
