data_PCOD9207123
_publ_section_title
;
Structure prediction by ZEFSAII (Michael W. Deem and Ramdas Pophale) SiO2 
 PCOD9207123
Probable space group: C 2/M
;
_chemical_formula_sum "Si O2"
_cell_formula_units_Z 48
_cell_length_a 10.582255
_cell_length_b 8.523490
_cell_length_c 27.508476
_cell_angle_alpha 90.000000
_cell_angle_beta 90.005828
_cell_angle_gamma 90.000000
_cell_volume 2481.202482
_symmetry_space_group_name_H-M "C 2/M"
_symmetry_group_IT_number 12
_symmetry_cell_setting 'monoclinic'
loop_
_space_group_symop_operation_xyz
x,y,z
-x,y,-z
-x,-y,-z
x,-y,z
1/2+x,1/2+y,z
1/2-x,1/2+y,-z
1/2-x,1/2-y,-z
1/2+x,1/2-y,z
loop_
_atom_site_type_symbol
_atom_site_label
_atom_site_fract_x
_atom_site_fract_y
_atom_site_fract_z
Si Si1 0.372841 0.688159 0.527868
Si Si2 0.640280 0.189844 0.692994
Si Si3 0.384177 0.810427 0.194943
Si Si4 0.885599 0.688156 0.637432
Si Si5 0.626841 0.810322 0.027628
Si Si6 0.637927 0.189739 0.139941
O O1 0.500000 0.740007 0.500000
O O2 0.369720 0.500000 0.527869
O O3 0.250000 0.750000 0.500000
O O4 0.375328 0.747299 0.583022
O O5 0.626368 0.240510 0.749003
O O6 0.766929 0.254852 0.668922
O O7 0.516837 0.239118 0.662511
O O8 0.645502 0.000000 0.692062
O O9 0.515028 0.758126 0.170243
O O10 0.265015 0.751125 0.164540
O O11 0.383526 0.000000 0.194360
O O12 0.884648 0.500000 0.635803
O O13 0.627451 0.759373 0.083848
O O14 0.628234 0.000000 0.026990
O O15 0.500000 0.757934 0.000000
O O16 0.750000 0.750000 0.000000
O O17 0.640327 0.000000 0.140674
#
# Coordination Sequence:
#
# PCOD9207123 Si02
#       6
#     8   8   8   8   8   8
#     4  11  24  41  62  89 119 152 192 236 283 336
#     4  10  22  39  59  85 116 150 189 233 281 335
#     4  10  21  38  59  83 113 149 188 231 281 336
#     4  11  23  39  61  87 116 152 191 233 282 334
#     4  10  21  37  57  81 111 147 186 231 282 336
#     4  10  21  37  57  83 113 145 186 234 282 335
#
# _framework density 19.345459999999999
#
# number of rings (size 3 to 8) (size 9 to 14) (size 15 to 20)
#    0.000    1.667    0.000    4.000    0.000   10.333 
#    0.000    0.000    0.000    0.000    0.000    0.000 
#    0.000    0.000    0.000    0.000    0.000    0.000 
#
# Total GULP energy -134195.904638 kJ/mol
# GULP energy per Si atom -5591.496027 kJ/mol
# Density = 1.930143 g / cm^3
# Si number density = 19.345460 Si / 1000 Ang^3
#
#
#
# Elastic Constant Matrix: (Units=GPa)
#
#
# Indices 1 2 3 4 5 6 
#
# 1 82.0306 8.3518 -16.2704 0.0000 -0.5917 0.0000
# 2 8.3518 11.0354 8.8573 0.0000 -0.3127 0.0000
# 3 -16.2704 8.8573 71.9300 0.0000 -0.5040 0.0000
# 4 0.0000 0.0000 0.0000 25.6497 0.0000 3.0490
# 5 -0.5917 -0.3127 -0.5040 0.0000 46.8398 0.0000
# 6 0.0000 0.0000 0.0000 3.0490 0.0000 34.9729
#
#
#
# Elastic Compliance Matrix: (Units=1/GPa)
#
#
# Indices 1 2 3 4 5 6 
#
# 1 0.014801 -0.015408 0.005246 0.000000 0.000141 0.000000
# 2 -0.015408 0.116610 -0.017842 0.000000 0.000392 0.000000
# 3 0.005246 -0.017842 0.017287 0.000000 0.000133 0.000000
# 4 0.000000 0.000000 0.000000 0.039395 0.000000 -0.003435
# 5 0.000141 0.000392 0.000133 0.000000 0.021355 0.000000
# 6 0.000000 0.000000 0.000000 -0.003435 0.000000 0.028893
#
#
# Mechanical properties :
#
#
# Convention : Reuss Voigt Hill
#
# Bulk Modulus (GPa) = 10.78863 18.54149 14.66506
# Shear Modulus (GPa) = 15.37300 32.42961 23.90130
#
# Velocity S-wave (km/s) = 2.82202 4.09876 3.51878
# Velocity P-wave (km/s) = 4.02584 5.65729 4.90980
#
# Compressibility (1/GPa) = 0.09269019
#
# Stress axis : x y z
#
# Youngs Moduli (GPa) = 67.56322 8.57560 57.84686
#
# Poissons Ratio (x) = 0.13214 -0.30348
# Poissons Ratio (y) = 1.04105 1.03208
# Poissons Ratio (z) = -0.35446 0.15300
#
# Static dielectric constant tensor:
#      x y z
#    x 1.626940 0.000000 -0.005560 
#    y 0.000000 1.668290 0.000000 
#    z -0.005560 0.000000 1.643180 
# 
# From -- ./inp_files/334640.got.cif
#   From: 2010.05.17/outbox.cif.g08.bks.cpg/sg12_168_cif.got.tgz:334640.got - 2010.06.03 13:09:07.
