data_PCOD9207061
_publ_section_title
;
Structure prediction by ZEFSAII (Michael W. Deem and Ramdas Pophale) SiO2 
 PCOD9207061
Probable space group: C 2/M
;
_chemical_formula_sum "Si O2"
_cell_formula_units_Z 58
_cell_length_a 24.599910
_cell_length_b 10.162821
_cell_length_c 11.155245
_cell_angle_alpha 90.000000
_cell_angle_beta 67.145394
_cell_angle_gamma 90.000000
_cell_volume 2569.917259
_symmetry_space_group_name_H-M "C 2/M"
_symmetry_group_IT_number 12
_symmetry_cell_setting 'monoclinic'
loop_
_space_group_symop_operation_xyz
x,y,z
-x,y,-z
-x,-y,-z
x,-y,z
1/2+x,1/2+y,z
1/2-x,1/2+y,-z
1/2-x,1/2-y,-z
1/2+x,1/2-y,z
loop_
_atom_site_type_symbol
_atom_site_label
_atom_site_fract_x
_atom_site_fract_y
_atom_site_fract_z
Si Si1 0.597131 0.851047 0.235392
Si Si2 0.477940 0.850110 0.205784
Si Si3 0.103590 0.852605 0.833676
Si Si4 0.580432 0.750024 0.503573
Si Si5 0.693741 0.345051 0.530401
Si Si6 0.214446 0.857574 0.875874
Si Si7 0.000000 0.000000 0.500000
Si Si8 0.702089 0.353470 0.162972
O O1 0.545482 0.825132 0.184552
O O2 0.572645 0.836817 0.391468
O O3 0.645749 0.738355 0.193202
O O4 0.619812 0.000000 0.197747
O O5 0.447316 0.751971 0.140055
O O6 0.442777 0.826048 0.360252
O O7 0.471750 0.000000 0.171748
O O8 0.151838 0.840357 0.685044
O O9 0.145106 0.838783 0.913399
O O10 0.078861 0.000000 0.849676
O O11 0.648678 0.709473 0.467762
O O12 0.543372 0.616277 0.518293
O O13 0.709174 0.500000 0.498643
O O14 0.750000 0.250000 0.500000
O O15 0.250447 0.730824 0.803526
O O16 0.230857 0.000000 0.806023
O O17 0.226262 0.869519 0.006798
O O18 0.689305 0.500000 0.219409
#
# Coordination Sequence:
#
# PCOD9207061 Si02
#       8
#     8   8   8   8   8   8   2   8
#     4  11  23  37  56  83 116 152 189 234 288 338
#     4  10  21  37  56  83 114 149 192 233 277 335
#     4   9  20  37  60  79 106 150 190 223 281 342
#     4  11  22  36  59  82 115 154 195 235 288 330
#     4  10  22  36  51  80 115 149 186 226 275 340
#     4   9  19  41  61  83 112 146 184 232 289 347
#     4  12  20  36  62  88 112 154 202 258 276 338
#     4  10  22  36  60  87 112 141 187 239 286 337
#
# _framework density 22.568818
#
# number of rings (size 3 to 8) (size 9 to 14) (size 15 to 20)
#    0.000    1.931    2.069    0.828    3.862    5.517 
#    0.000    0.690    0.000    4.138    0.000    0.000 
#    0.000    0.000    0.000    0.000    0.000    0.000 
#
# Total GULP energy -161735.165162 kJ/mol
# GULP energy per Si atom -5577.074661 kJ/mol
# Density = 2.251745 g / cm^3
# Si number density = 22.568818 Si / 1000 Ang^3
#
#
#
# Elastic Constant Matrix: (Units=GPa)
#
#
# Indices 1 2 3 4 5 6 
#
# 1 139.5439 113.8668 -1.0761 0.0000 16.7186 0.0000
# 2 113.8668 212.6876 3.4613 0.0000 -0.0154 0.0000
# 3 -1.0761 3.4613 31.2464 0.0000 2.4644 0.0000
# 4 0.0000 0.0000 0.0000 7.7356 0.0000 3.6131
# 5 16.7186 -0.0154 2.4644 0.0000 30.1815 0.0000
# 6 0.0000 0.0000 0.0000 3.6131 0.0000 45.8777
#
#
#
# Elastic Compliance Matrix: (Units=1/GPa)
#
#
# Indices 1 2 3 4 5 6 
#
# 1 0.014552 -0.007824 0.002017 0.000000 -0.008230 0.000000
# 2 -0.007824 0.008917 -0.001610 0.000000 0.004470 0.000000
# 3 0.002017 -0.001610 0.032549 0.000000 -0.003776 0.000000
# 4 0.000000 0.000000 0.000000 0.134209 0.000000 -0.010570
# 5 -0.008230 0.004470 -0.003776 0.000000 0.038002 0.000000
# 6 0.000000 0.000000 0.000000 -0.010570 0.000000 0.022630
#
#
# Mechanical properties :
#
#
# Convention : Reuss Voigt Hill
#
# Bulk Modulus (GPa) = 24.28100 68.44243 46.36172
# Shear Modulus (GPa) = 17.89407 34.57401 26.23404
#
# Velocity S-wave (km/s) = 2.81884 3.91824 3.41310
# Velocity P-wave (km/s) = 4.62347 7.13177 6.00993
#
# Compressibility (1/GPa) = 0.04118447
#
# Stress axis : x y z
#
# Youngs Moduli (GPa) = 68.71741 112.14319 30.72266
#
# Poissons Ratio (x) = 0.87745 -0.06197
# Poissons Ratio (y) = 0.53767 0.04946
# Poissons Ratio (z) = -0.13860 0.18053
#
# Static dielectric constant tensor:
#      x y z
#    x 1.828920 0.000000 0.003470 
#    y 0.000000 1.834100 0.000000 
#    z 0.003470 0.000000 1.939850 
# 
# From -- ./inp_files/237584.got.cif
#   From: 2010.05.17/outbox.cif.g08.bks.cpg/sg12_119_cif.got.tgz:237584.got - 2010.06.03 13:09:07.
