data_PCOD9207358
_publ_section_title
;
Structure prediction by ZEFSAII (Michael W. Deem and Ramdas Pophale) SiO2 
 PCOD9207358
Probable space group: C 2/M
;
_chemical_formula_sum "Si O2"
_cell_formula_units_Z 56
_cell_length_a 16.301242
_cell_length_b 15.986975
_cell_length_c 12.149295
_cell_angle_alpha 90.000000
_cell_angle_beta 56.479023
_cell_angle_gamma 90.000000
_cell_volume 2639.607626
_symmetry_space_group_name_H-M "C 2/M"
_symmetry_group_IT_number 12
_symmetry_cell_setting 'monoclinic'
loop_
_space_group_symop_operation_xyz
x,y,z
-x,y,-z
-x,-y,-z
x,-y,z
1/2+x,1/2+y,z
1/2-x,1/2+y,-z
1/2-x,1/2-y,-z
1/2+x,1/2-y,z
loop_
_atom_site_type_symbol
_atom_site_label
_atom_site_fract_x
_atom_site_fract_y
_atom_site_fract_z
Si Si1 0.481785 0.758982 0.386494
Si Si2 0.139868 0.093954 0.463707
Si Si3 0.977780 0.091559 0.146688
Si Si4 0.781013 0.837179 0.253277
Si Si5 0.660823 0.095232 0.544598
Si Si6 0.315119 0.313948 0.778812
Si Si7 0.296434 0.595686 0.994123
O O1 0.500000 0.786013 0.500000
O O2 0.425206 0.669972 0.439927
O O3 0.418451 0.831546 0.377052
O O4 0.590059 0.741926 0.259381
O O5 0.247362 0.099047 0.439664
O O6 0.148567 0.111093 0.326618
O O7 0.101248 0.000000 0.511674
O O8 0.890059 0.156300 0.223521
O O9 0.085410 0.100926 0.116659
O O10 0.936906 0.000000 0.207296
O O11 0.000000 0.089946 0.000000
O O12 0.708221 0.883439 0.390341
O O13 0.748377 0.743265 0.255758
O O14 0.780321 0.877975 0.131954
O O15 0.621812 0.000000 0.574948
O O16 0.256028 0.344764 0.928810
O O17 0.265784 0.500000 0.003273
#
# Coordination Sequence:
#
# PCOD9207358 Si02
#       7
#     8   8   8   8   8   8   8
#     4  10  21  39  54  83 116 151 190 235 280 338
#     4  10  22  38  58  82 110 151 195 234 284 335
#     4   8  16  31  51  76 104 136 179 226 272 321
#     4  11  20  36  55  84 116 149 184 229 283 346
#     4  11  22  37  60  86 115 152 190 235 284 336
#     4  11  23  36  56  81 118 153 189 230 284 338
#     4  10  21  37  58  84 113 145 188 239 288 338
#
# _framework density 21.215274000000001
#
# number of rings (size 3 to 8) (size 9 to 14) (size 15 to 20)
#    0.000    1.857    2.857    3.429    2.000    3.429 
#    0.000    0.000    0.000    0.000    0.000    0.000 
#    0.000   17.143    0.000    0.000    0.000    0.000 
#
# Total GULP energy -156332.035520 kJ/mol
# GULP energy per Si atom -5583.286983 kJ/mol
# Density = 2.116699 g / cm^3
# Si number density = 21.215274 Si / 1000 Ang^3
#
#
#
# Elastic Constant Matrix: (Units=GPa)
#
#
# Indices 1 2 3 4 5 6 
#
# 1 59.9876 32.6077 9.4807 0.0000 3.1185 0.0000
# 2 32.6077 111.8388 14.4547 0.0000 -6.7553 0.0000
# 3 9.4807 14.4547 67.0252 0.0000 17.0878 0.0000
# 4 0.0000 0.0000 0.0000 3.8195 0.0000 -0.2984
# 5 3.1185 -6.7553 17.0878 0.0000 30.2124 0.0000
# 6 0.0000 0.0000 0.0000 -0.2984 0.0000 29.1306
#
#
#
# Elastic Compliance Matrix: (Units=1/GPa)
#
#
# Indices 1 2 3 4 5 6 
#
# 1 0.020193 -0.005960 -0.000818 0.000000 -0.002955 0.000000
# 2 -0.005960 0.011328 -0.002807 0.000000 0.004736 0.000000
# 3 -0.000818 -0.002807 0.018438 0.000000 -0.010972 0.000000
# 4 0.000000 0.000000 0.000000 0.262026 0.000000 0.002684
# 5 -0.002955 0.004736 -0.010972 0.000000 0.040668 0.000000
# 6 0.000000 0.000000 0.000000 0.002684 0.000000 0.034356
#
#
# Mechanical properties :
#
#
# Convention : Reuss Voigt Hill
#
# Bulk Modulus (GPa) = 32.47965 39.10419 35.79192
# Shear Modulus (GPa) = 12.00647 24.78640 18.39643
#
# Velocity S-wave (km/s) = 2.38152 3.42179 2.94790
# Velocity P-wave (km/s) = 4.78591 5.83812 5.33801
#
# Compressibility (1/GPa) = 0.03078851
#
# Stress axis : x y z
#
# Youngs Moduli (GPa) = 49.52280 88.27614 54.23573
#
# Poissons Ratio (x) = 0.52614 0.04434
# Poissons Ratio (y) = 0.29516 0.15226
# Poissons Ratio (z) = 0.04049 0.24782
#
# Static dielectric constant tensor:
#      x y z
#    x 1.809220 0.000000 0.009880 
#    y 0.000000 1.799410 0.000000 
#    z 0.009880 0.000000 1.769660 
# 
# From -- ./inp_files/225207.got.cif
#   From: 2010.05.17/outbox.cif.g08.bks.cpg/sg12_113_cif.got.tgz:225207.got - 2010.06.03 13:09:07.
