data_PCOD9207148
_publ_section_title
;
Structure prediction by ZEFSAII (Michael W. Deem and Ramdas Pophale) SiO2 
 PCOD9207148
Probable space group: C 2/M
;
_chemical_formula_sum "Si O2"
_cell_formula_units_Z 64
_cell_length_a 18.400260
_cell_length_b 8.336494
_cell_length_c 34.840917
_cell_angle_alpha 90.000000
_cell_angle_beta 37.595322
_cell_angle_gamma 90.000000
_cell_volume 3260.499246
_symmetry_space_group_name_H-M "C 2/M"
_symmetry_group_IT_number 12
_symmetry_cell_setting 'monoclinic'
loop_
_space_group_symop_operation_xyz
x,y,z
-x,y,-z
-x,-y,-z
x,-y,z
1/2+x,1/2+y,z
1/2-x,1/2+y,-z
1/2-x,1/2-y,-z
1/2+x,1/2-y,z
loop_
_atom_site_type_symbol
_atom_site_label
_atom_site_fract_x
_atom_site_fract_y
_atom_site_fract_z
Si Si1 0.363764 0.694066 0.562478
Si Si2 0.675144 0.192278 0.188638
Si Si3 0.259025 0.693937 0.688026
Si Si4 0.489639 0.692225 0.811933
Si Si5 0.447191 0.304062 0.062987
Si Si6 0.884468 0.806056 0.937500
Si Si7 0.801054 0.192192 0.438112
Si Si8 0.927179 0.806033 0.687477
O O1 0.500000 0.748338 0.500000
O O2 0.364566 0.500000 0.562340
O O3 0.310630 0.748836 0.625462
O O4 0.281663 0.749322 0.561906
O O5 0.592146 0.250077 0.188762
O O6 0.811124 0.248592 0.125677
O O7 0.624217 0.250733 0.250443
O O8 0.675817 0.000000 0.188387
O O9 0.260800 0.500000 0.687120
O O10 0.343019 0.749055 0.687798
O O11 0.124255 0.749084 0.750312
O O12 0.490079 0.500000 0.812067
O O13 0.435889 0.749340 0.875059
O O14 0.447084 0.500000 0.063023
O O15 0.530869 0.251779 0.063067
O O16 0.500000 0.252052 0.000000
O O17 0.885543 0.000000 0.937035
O O18 0.750000 0.750000 0.000000
O O19 0.750000 0.250000 0.500000
O O20 0.936968 0.249274 0.375261
O O21 0.802501 0.000000 0.437532
O O22 0.927908 0.000000 0.686713
#
# Coordination Sequence:
#
# PCOD9207148 Si02
#       8
#     8   8   8   8   8   8   8   8
#     4  10  21  39  61  85 116 152 190 234 283 335
#     4  11  22  37  60  86 112 150 196 235 280 340
#     4  10  21  38  61  86 113 151 194 231 277 341
#     4  11  23  38  56  82 118 153 188 237 289 333
#     4   9  18  34  56  81 110 144 184 231 280 332
#     4  10  21  37  57  82 112 147 186 231 285 340
#     4  11  23  39  60  86 116 151 190 234 286 339
#     4  10  22  40  60  85 118 151 185 233 289 337
#
# _framework density 19.628896999999998
#
# number of rings (size 3 to 8) (size 9 to 14) (size 15 to 20)
#    0.000    1.750    0.000    4.125    0.000    9.250 
#    0.000    2.500    0.000    3.375    0.000    0.000 
#    0.000    0.000    0.000    0.000    0.000    0.000 
#
# Total GULP energy -178905.965366 kJ/mol
# GULP energy per Si atom -5590.811418 kJ/mol
# Density = 1.958422 g / cm^3
# Si number density = 19.628897 Si / 1000 Ang^3
#
#
#
# Elastic Constant Matrix: (Units=GPa)
#
#
# Indices 1 2 3 4 5 6 
#
# 1 247.5833 24.0494 153.2863 -0.0009 0.3101 0.0090
# 2 24.0494 12.1481 24.8808 -0.0768 0.1233 0.0150
# 3 153.2863 24.8808 248.0155 0.0028 0.4036 -0.0022
# 4 -0.0009 -0.0768 0.0028 22.0993 -0.0015 -3.3641
# 5 0.3101 0.1233 0.4036 -0.0015 47.5506 0.0087
# 6 0.0090 0.0150 -0.0022 -3.3641 0.0087 21.6876
#
#
#
# Elastic Compliance Matrix: (Units=1/GPa)
#
#
# Indices 1 2 3 4 5 6 
#
# 1 0.006894 -0.006194 -0.003639 -0.000021 0.000002 -0.000002
# 2 -0.006194 0.109174 -0.007124 0.000378 -0.000182 -0.000015
# 3 -0.003639 -0.007124 0.006996 -0.000025 -0.000017 0.000003
# 4 -0.000021 0.000378 -0.000025 0.046346 0.000000 0.007189
# 5 0.000002 -0.000182 -0.000017 0.000000 0.021031 -0.000008
# 6 -0.000002 -0.000015 0.000003 0.007189 -0.000008 0.047224
#
#
# Mechanical properties :
#
#
# Convention : Reuss Voigt Hill
#
# Bulk Modulus (GPa) = 11.21713 101.35331 56.28522
# Shear Modulus (GPa) = 16.59499 38.63620 27.61560
#
# Velocity S-wave (km/s) = 2.91079 4.44140 3.75492
# Velocity P-wave (km/s) = 4.12601 8.83449 6.89464
#
# Compressibility (1/GPa) = 0.08914935
#
# Stress axis : x y z
#
# Youngs Moduli (GPa) = 145.05332 9.15971 142.93741
#
# Poissons Ratio (x) = 0.05674 0.52022
# Poissons Ratio (y) = 0.89846 1.01825
# Poissons Ratio (z) = 0.52792 0.06525
#
# Static dielectric constant tensor:
#      x y z
#    x 1.651090 -0.000010 0.000340 
#    y -0.000010 1.687630 -0.000010 
#    z 0.000340 -0.000010 1.657730 
# 
# From -- ./inp_files/378183.got.cif
#   From: 2010.05.17/outbox.cif.g08.bks.cpg/sg12_190_cif.got.tgz:378183.got - 2010.06.03 13:09:07.
