data_PCOD9207779
_publ_section_title
;
Structure prediction by ZEFSAII (Michael W. Deem and Ramdas Pophale) SiO2 
 PCOD9207779
Probable space group: C 2/M
;
_chemical_formula_sum "Si O2"
_cell_formula_units_Z 26
_cell_length_a 19.004943
_cell_length_b 11.884000
_cell_length_c 5.054528
_cell_angle_alpha 90.000000
_cell_angle_beta 109.657563
_cell_angle_gamma 90.000000
_cell_volume 1075.057262
_symmetry_space_group_name_H-M "C 2/M"
_symmetry_group_IT_number 12
_symmetry_cell_setting 'monoclinic'
loop_
_space_group_symop_operation_xyz
x,y,z
-x,y,-z
-x,-y,-z
x,-y,z
1/2+x,1/2+y,z
1/2-x,1/2+y,-z
1/2-x,1/2-y,-z
1/2+x,1/2-y,z
loop_
_atom_site_type_symbol
_atom_site_label
_atom_site_fract_x
_atom_site_fract_y
_atom_site_fract_z
Si Si1 0.127862 0.154167 0.909224
Si Si2 0.219981 0.876796 0.520122
Si Si3 0.448479 0.873065 0.177311
Si Si4 0.000000 0.000000 0.500000
O O1 0.192621 0.122028 0.786912
O O2 0.118595 0.287827 0.880565
O O3 0.148569 0.120536 0.232175
O O4 0.052453 0.096782 0.711369
O O5 0.250000 0.750000 0.500000
O O6 0.259337 0.000000 0.520567
O O7 0.500000 0.872672 0.500000
O O8 0.423565 0.000000 0.092638
O O9 0.500000 0.834786 0.000000
#
# Coordination Sequence:
#
# PCOD9207779 Si02
#       4
#     8   8   8   2
#     4  12  25  42  72 103 139 178 228 293 364 416
#     4  12  27  48  69 100 137 189 244 287 338 418
#     4  10  21  37  59  93 135 174 215 268 345 426
#     4  12  24  42  74 110 144 170 232 294 382 416
#
# _framework density 24.184757000000001
#
# number of rings (size 3 to 8) (size 9 to 14) (size 15 to 20)
#    0.000    0.615    4.615    2.769    0.000    3.692 
#    0.000    0.000    0.000    0.000    0.000    0.000 
#    0.000    0.000    0.000    0.000    0.000    0.000 
#
# Total GULP energy -72409.060339 kJ/mol
# GULP energy per Si atom -5569.927718 kJ/mol
# Density = 2.412971 g / cm^3
# Si number density = 24.184757 Si / 1000 Ang^3
#
#
#
# Elastic Constant Matrix: (Units=GPa)
#
#
# Indices 1 2 3 4 5 6 
#
# 1 26.1432 42.2795 18.2704 0.0000 -6.0186 0.0000
# 2 42.2795 197.7321 -14.6251 0.0000 9.6325 0.0000
# 3 18.2704 -14.6251 79.2688 0.0000 2.3295 0.0000
# 4 0.0000 0.0000 0.0000 1.0336 0.0000 -14.4934
# 5 -6.0186 9.6325 2.3295 0.0000 37.7463 0.0000
# 6 0.0000 0.0000 0.0000 -14.4934 0.0000 14.0768
#
#
#
# Elastic Compliance Matrix: (Units=1/GPa)
#
#
# Indices 1 2 3 4 5 6 
#
# 1 0.109768 -0.027051 -0.031064 0.000000 0.026322 0.000000
# 2 -0.027051 0.011865 0.008655 0.000000 -0.007875 0.000000
# 3 -0.031064 0.008655 0.021622 0.000000 -0.008496 0.000000
# 4 0.000000 0.000000 0.000000 -0.072000 0.000000 -0.074131
# 5 0.026322 -0.007875 -0.008496 0.000000 0.033224 0.000000
# 6 0.000000 0.000000 0.000000 -0.074131 0.000000 -0.005286
#
#
# Mechanical properties :
#
#
# Convention : Reuss Voigt Hill
#
# Bulk Modulus (GPa) = 22.55539 43.88818 33.22178
# Shear Modulus (GPa) = 23.48638 27.71927 25.60282
#
# Velocity S-wave (km/s) = 3.11967 3.38915 3.25720
# Velocity P-wave (km/s) = 4.72472 5.78805 5.28320
#
# Compressibility (1/GPa) = 0.04433531
#
# Stress axis : x y z
#
# Youngs Moduli (GPa) = 9.11016 84.27998 46.24954
#
# Poissons Ratio (x) = 2.27983 1.43671
# Poissons Ratio (y) = 0.24644 -0.40031
# Poissons Ratio (z) = 0.28300 -0.72948
#
# Static dielectric constant tensor:
#      x y z
#    x 1.944440 0.000000 0.007590 
#    y 0.000000 2.045550 0.000000 
#    z 0.007590 0.000000 1.848230 
# 
# From -- ./inp_files/18919.got.cif
#   From: 2010.05.17/outbox.cif.g08.bks.cpg/sg12_10_cif.got.tgz:18919.got - 2010.06.03 13:09:07.
