data_PCOD9207441
_publ_section_title
;
Structure prediction by ZEFSAII (Michael W. Deem and Ramdas Pophale) SiO2 
 PCOD9207441
Probable space group: C 2/M
;
_chemical_formula_sum "Si O2"
_cell_formula_units_Z 40
_cell_length_a 25.155024
_cell_length_b 8.535947
_cell_length_c 21.040597
_cell_angle_alpha 90.000000
_cell_angle_beta 158.590579
_cell_angle_gamma 90.000000
_cell_volume 1649.160440
_symmetry_space_group_name_H-M "C 2/M"
_symmetry_group_IT_number 12
_symmetry_cell_setting 'monoclinic'
loop_
_space_group_symop_operation_xyz
x,y,z
-x,y,-z
-x,-y,-z
x,-y,z
1/2+x,1/2+y,z
1/2-x,1/2+y,-z
1/2-x,1/2-y,-z
1/2+x,1/2-y,z
loop_
_atom_site_type_symbol
_atom_site_label
_atom_site_fract_x
_atom_site_fract_y
_atom_site_fract_z
Si Si1 0.915324 0.827311 0.122289
Si Si2 0.199630 0.326133 0.193499
Si Si3 0.590115 0.251330 0.196662
Si Si4 0.113997 0.685005 0.446523
Si Si5 0.131123 0.688090 0.731487
O O1 0.008085 0.842767 0.160659
O O2 0.002906 0.713526 0.265457
O O3 0.902423 0.000000 0.137568
O O4 0.756539 0.772331 0.922905
O O5 0.229799 0.500000 0.253617
O O6 0.162088 0.204212 0.208236
O O7 0.322844 0.270177 0.282291
O O8 0.049909 0.339883 0.986151
O O9 0.742342 0.208368 0.400220
O O10 0.155216 0.500000 0.493583
O O11 0.022765 0.725663 0.408343
O O12 0.138411 0.500000 0.730275
#
# Coordination Sequence:
#
# PCOD9207441 Si02
#       5
#     8   8   8   8   8
#     4  10  21  37  58  85 118 158 199 239 288 343
#     4  10  22  41  64  86 112 153 200 244 293 347
#     4  10  21  37  58  86 116 147 191 242 290 343
#     4  11  23  38  59  88 121 157 195 238 291 349
#     4   9  21  40  60  86 120 156 194 238 292 350
#
# _framework density 24.254767000000001
#
# number of rings (size 3 to 8) (size 9 to 14) (size 15 to 20)
#    0.000    2.000    0.000    3.000    0.000    9.600 
#    0.000   10.000    0.000    0.000    0.000    0.000 
#    0.000    0.000    0.000    0.000    0.000    0.000 
#
# Total GULP energy -111383.238420 kJ/mol
# GULP energy per Si atom -5569.161921 kJ/mol
# Density = 2.419956 g / cm^3
# Si number density = 24.254767 Si / 1000 Ang^3
#
#
#
# Elastic Constant Matrix: (Units=GPa)
#
#
# Indices 1 2 3 4 5 6 
#
# 1 93.2137 26.7578 18.5752 0.0000 15.2848 0.0000
# 2 26.7578 40.2564 11.1407 0.0000 -7.1487 0.0000
# 3 18.5752 11.1407 102.7524 0.0001 23.3532 0.0000
# 4 0.0000 0.0000 0.0001 25.2029 0.0000 -3.5500
# 5 15.2848 -7.1487 23.3532 0.0000 45.3121 0.0000
# 6 0.0000 0.0000 0.0000 -3.5500 0.0000 6.3605
#
#
#
# Elastic Compliance Matrix: (Units=1/GPa)
#
#
# Indices 1 2 3 4 5 6 
#
# 1 0.015080 -0.011266 0.000063 0.000000 -0.006897 0.000000
# 2 -0.011266 0.035660 -0.004499 0.000000 0.011745 0.000000
# 3 0.000063 -0.004499 0.011751 0.000000 -0.006787 0.000000
# 4 0.000000 0.000000 0.000000 0.043064 0.000000 0.024035
# 5 -0.006897 0.011745 -0.006787 0.000000 0.029747 0.000000
# 6 0.000000 0.000000 0.000000 0.024035 0.000000 0.170634
#
#
# Mechanical properties :
#
#
# Convention : Reuss Voigt Hill
#
# Bulk Modulus (GPa) = 32.16769 38.79664 35.48216
# Shear Modulus (GPa) = 14.38012 27.35835 20.86923
#
# Velocity S-wave (km/s) = 2.43755 3.36215 2.93647
# Velocity P-wave (km/s) = 4.60580 5.57694 5.11447
#
# Compressibility (1/GPa) = 0.03108710
#
# Stress axis : x y z
#
# Youngs Moduli (GPa) = 66.31148 28.04288 85.09776
#
# Poissons Ratio (x) = 0.31592 -0.00534
# Poissons Ratio (y) = 0.74705 0.38286
# Poissons Ratio (z) = -0.00416 0.12617
#
# Static dielectric constant tensor:
#      x y z
#    x 1.921440 0.000000 -0.035970 
#    y 0.000000 1.935990 0.000000 
#    z -0.035970 0.000000 1.958650 
# 
# From -- ./inp_files/93030.got.cif
#   From: 2010.05.17/outbox.cif.g08.bks.cpg/sg12_47_cif.got.tgz:93030.got - 2010.06.03 13:09:07.
