data_PCOD9207697
_publ_section_title
;
Structure prediction by ZEFSAII (Michael W. Deem and Ramdas Pophale) SiO2 
 PCOD9207697
Probable space group: C 2/M
;
_chemical_formula_sum "Si O2"
_cell_formula_units_Z 56
_cell_length_a 10.042169
_cell_length_b 18.060019
_cell_length_c 16.750546
_cell_angle_alpha 90.000000
_cell_angle_beta 103.908180
_cell_angle_gamma 90.000000
_cell_volume 2948.843681
_symmetry_space_group_name_H-M "C 2/M"
_symmetry_group_IT_number 12
_symmetry_cell_setting 'monoclinic'
loop_
_space_group_symop_operation_xyz
x,y,z
-x,y,-z
-x,-y,-z
x,-y,z
1/2+x,1/2+y,z
1/2-x,1/2+y,-z
1/2-x,1/2-y,-z
1/2+x,1/2-y,z
loop_
_atom_site_type_symbol
_atom_site_label
_atom_site_fract_x
_atom_site_fract_y
_atom_site_fract_z
Si Si1 0.036686 0.413262 0.139490
Si Si2 0.536029 0.589223 0.188751
Si Si3 0.238049 0.155404 0.087361
Si Si4 0.153130 0.320632 0.488718
Si Si5 0.755076 0.412511 0.349142
Si Si6 0.056142 0.412861 0.327059
Si Si7 0.224417 0.174067 0.899939
O O1 0.054381 0.500000 0.123400
O O2 0.084054 0.400475 0.237965
O O3 0.128987 0.362514 0.096634
O O4 0.877918 0.391311 0.110406
O O5 0.521987 0.500000 0.184649
O O6 0.625290 0.616728 0.126169
O O7 0.624019 0.611474 0.279262
O O8 0.390716 0.629562 0.164715
O O9 0.270079 0.239259 0.119965
O O10 0.191824 0.164185 0.988980
O O11 0.250000 0.250000 0.500000
O O12 0.221363 0.374943 0.563054
O O13 0.134735 0.361178 0.400970
O O14 0.000000 0.303590 0.500000
O O15 0.743915 0.500000 0.358992
O O16 0.893645 0.399553 0.317981
O O17 0.081352 0.500000 0.348804
#
# Coordination Sequence:
#
# PCOD9207697 Si02
#       7
#     8   8   8   8   8   8   8
#     4  11  22  39  62  88 116 152 202 249 289 345
#     4  11  22  39  62  88 116 152 202 249 289 345
#     4  11  23  41  59  82 117 164 197 239 294 367
#     4  10  21  37  59  89 119 148 188 234 280 338
#     4   9  18  37  62  85 111 150 195 235 281 341
#     4   9  18  37  62  85 111 150 195 235 281 341
#     4  11  25  39  57  86 123 154 195 243 310 349
#
# _framework density 18.990494000000002
#
# number of rings (size 3 to 8) (size 9 to 14) (size 15 to 20)
#    0.000    1.714    1.429    3.000    0.000    9.714 
#    2.571    0.000    0.000    0.857    0.000    0.000 
#    0.000    0.000    0.000    0.000    0.000    0.000 
#
# Total GULP energy -156432.426758 kJ/mol
# GULP energy per Si atom -5586.872384 kJ/mol
# Density = 1.894727 g / cm^3
# Si number density = 18.990494 Si / 1000 Ang^3
#
#
#
# Elastic Constant Matrix: (Units=GPa)
#
#
# Indices 1 2 3 4 5 6 
#
# 1 33.7861 0.2228 -2.3321 0.0000 13.8477 0.0000
# 2 0.2228 49.0311 21.3953 0.0000 13.5345 0.0000
# 3 -2.3321 21.3953 53.8748 0.0000 17.7562 0.0000
# 4 0.0000 0.0000 0.0000 53.4439 0.0000 -99.7521
# 5 13.8477 13.5345 17.7562 0.0000 23.6847 0.0000
# 6 0.0000 0.0000 0.0000 -99.7521 0.0000 322.5262
#
#
#
# Elastic Compliance Matrix: (Units=1/GPa)
#
#
# Indices 1 2 3 4 5 6 
#
# 1 0.047057 0.005134 0.013325 0.000000 -0.040436 0.000000
# 2 0.005134 0.026753 -0.005810 0.000000 -0.013934 0.000000
# 3 0.013325 -0.005810 0.030441 0.000000 -0.027292 0.000000
# 4 0.000000 0.000000 0.000000 0.044263 0.000000 0.013690
# 5 -0.040436 -0.013934 -0.027292 0.000000 0.094286 0.000000
# 6 0.000000 0.000000 0.000000 0.013690 0.000000 0.007335
#
#
# Mechanical properties :
#
#
# Convention : Reuss Voigt Hill
#
# Bulk Modulus (GPa) = 7.71909 19.47379 13.59644
# Shear Modulus (GPa) = 18.65530 87.75801 53.20666
#
# Velocity S-wave (km/s) = 3.13765 6.80528 5.29890
# Velocity P-wave (km/s) = 4.14728 8.48681 6.67929
#
# Compressibility (1/GPa) = 0.12954890
#
# Stress axis : x y z
#
# Youngs Moduli (GPa) = 21.25071 37.37835 32.85085
#
# Poissons Ratio (x) = -0.19188 -0.43775
# Poissons Ratio (y) = -0.10909 0.19087
# Poissons Ratio (z) = -0.28317 0.21717
#
# Static dielectric constant tensor:
#      x y z
#    x 1.660670 0.000000 -0.022460 
#    y 0.000000 1.636910 0.000000 
#    z -0.022460 0.000000 1.681840 
# 
# From -- ./inp_files/257173.got.cif
#   From: 2010.05.17/outbox.cif.g08.bks.cpg/sg12_129_cif.got.tgz:257173.got - 2010.06.03 13:09:07.
