data_PCOD9207277
_publ_section_title
;
Structure prediction by ZEFSAII (Michael W. Deem and Ramdas Pophale) SiO2 
 PCOD9207277
Probable space group: C 2/M
;
_chemical_formula_sum "Si O2"
_cell_formula_units_Z 32
_cell_length_a 4.968590
_cell_length_b 25.414470
_cell_length_c 11.948002
_cell_angle_alpha 90.000000
_cell_angle_beta 59.998161
_cell_angle_gamma 90.000000
_cell_volume 1306.568213
_symmetry_space_group_name_H-M "C 2/M"
_symmetry_group_IT_number 12
_symmetry_cell_setting 'monoclinic'
loop_
_space_group_symop_operation_xyz
x,y,z
-x,y,-z
-x,-y,-z
x,-y,z
1/2+x,1/2+y,z
1/2-x,1/2+y,-z
1/2-x,1/2-y,-z
1/2+x,1/2-y,z
loop_
_atom_site_type_symbol
_atom_site_label
_atom_site_fract_x
_atom_site_fract_y
_atom_site_fract_z
Si Si1 0.270900 0.440785 0.699041
Si Si2 0.544717 0.558663 0.872514
Si Si3 0.836236 0.662168 0.413994
Si Si4 0.350116 0.716550 0.150640
O O1 0.406119 0.500000 0.648015
O O2 0.422460 0.418918 0.781817
O O3 0.259445 0.395225 0.611037
O O4 0.908370 0.448320 0.792119
O O5 0.393619 0.500000 0.910040
O O6 0.500000 0.586371 0.000000
O O7 0.500000 0.691527 0.500000
O O8 0.000000 0.659803 0.500000
O O9 0.094502 0.682847 0.271529
O O10 0.647889 0.731110 0.163670
O O11 0.500000 0.699589 0.000000
#
# Coordination Sequence:
#
# PCOD9207277 Si02
#       4
#     8   8   8   8
#     4  10  21  37  57  86 130 180 226 272 322 384
#     4   9  17  32  55  83 117 163 221 279 331 381
#     4  12  26  42  65 100 138 179 228 277 331 397
#     4  10  23  46  74 101 131 169 215 274 345 413
#
# _framework density 24.491638999999999
#
# number of rings (size 3 to 8) (size 9 to 14) (size 15 to 20)
#    0.000    1.750    0.000    3.750    0.000    8.000 
#    0.000    7.500    0.000    0.000    0.000    0.000 
#    0.000    0.000    0.000    0.000    0.000    0.000 
#
# Total GULP energy -89217.227389 kJ/mol
# GULP energy per Si atom -5576.076712 kJ/mol
# Density = 2.443590 g / cm^3
# Si number density = 24.491639 Si / 1000 Ang^3
#
#
#
# Elastic Constant Matrix: (Units=GPa)
#
#
# Indices 1 2 3 4 5 6 
#
# 1 192.1067 14.7149 74.7777 0.0000 28.2082 0.0000
# 2 14.7149 75.3488 59.0731 0.0000 4.3305 0.0000
# 3 74.7777 59.0731 213.1152 0.0000 -7.7247 0.0000
# 4 0.0000 0.0000 0.0000 10.5439 0.0000 0.3868
# 5 28.2082 4.3305 -7.7247 0.0000 48.1679 0.0000
# 6 0.0000 0.0000 0.0000 0.3868 0.0000 12.8177
#
#
#
# Elastic Compliance Matrix: (Units=1/GPa)
#
#
# Indices 1 2 3 4 5 6 
#
# 1 0.006939 0.001217 -0.002940 0.000000 -0.004644 0.000000
# 2 0.001217 0.017425 -0.005371 0.000000 -0.003141 0.000000
# 3 -0.002940 -0.005371 0.007335 0.000000 0.003381 0.000000
# 4 0.000000 0.000000 0.000000 0.094946 0.000000 -0.002865
# 5 -0.004644 -0.003141 0.003381 0.000000 0.024305 0.000000
# 6 0.000000 0.000000 0.000000 -0.002865 0.000000 0.078104
#
#
# Mechanical properties :
#
#
# Convention : Reuss Voigt Hill
#
# Bulk Modulus (GPa) = 57.10756 86.41133 71.75944
# Shear Modulus (GPa) = 20.07388 36.43958 28.25673
#
# Velocity S-wave (km/s) = 2.86601 3.86143 3.40034
# Velocity P-wave (km/s) = 5.85831 7.43233 6.69176
#
# Compressibility (1/GPa) = 0.01751082
#
# Stress axis : x y z
#
# Youngs Moduli (GPa) = 144.11879 57.38804 136.32642
#
# Poissons Ratio (x) = -0.06985 0.40085
# Poissons Ratio (y) = -0.17541 0.73220
# Poissons Ratio (z) = 0.42376 0.30823
#
# Static dielectric constant tensor:
#      x y z
#    x 1.849940 0.000000 -0.015300 
#    y 0.000000 2.082600 0.000000 
#    z -0.015300 0.000000 1.811330 
# 
# From -- ./inp_files/115787.got.cif
#   From: 2010.05.17/outbox.cif.g08.bks.cpg/sg12_58_cif.got.tgz:115787.got - 2010.06.03 13:09:07.
