data_PCOD9207554
_publ_section_title
;
Structure prediction by ZEFSAII (Michael W. Deem and Ramdas Pophale) SiO2 
 PCOD9207554
Probable space group: C 2/M
;
_chemical_formula_sum "Si O2"
_cell_formula_units_Z 56
_cell_length_a 20.189652
_cell_length_b 8.935835
_cell_length_c 26.285376
_cell_angle_alpha 90.000000
_cell_angle_beta 139.928586
_cell_angle_gamma 90.000000
_cell_volume 3052.740973
_symmetry_space_group_name_H-M "C 2/M"
_symmetry_group_IT_number 12
_symmetry_cell_setting 'monoclinic'
loop_
_space_group_symop_operation_xyz
x,y,z
-x,y,-z
-x,-y,-z
x,-y,z
1/2+x,1/2+y,z
1/2-x,1/2+y,-z
1/2-x,1/2-y,-z
1/2+x,1/2-y,z
loop_
_atom_site_type_symbol
_atom_site_label
_atom_site_fract_x
_atom_site_fract_y
_atom_site_fract_z
Si Si1 0.306246 0.176989 0.167925
Si Si2 0.855421 0.322023 0.081920
Si Si3 0.758419 0.822501 0.332082
Si Si4 0.413112 0.172539 0.493514
Si Si5 0.094315 0.680001 0.666667
Si Si6 0.608686 0.174333 0.092074
Si Si7 0.433086 0.677671 0.826355
O O1 0.358784 0.202860 0.144698
O O2 0.376493 0.212214 0.258147
O O3 0.201978 0.271037 0.111908
O O4 0.280283 0.000000 0.155385
O O5 0.855483 0.500000 0.072080
O O6 0.954371 0.246999 0.114849
O O7 0.750000 0.250000 0.000000
O O8 0.820047 0.771837 0.418613
O O9 0.827066 0.762612 0.324977
O O10 0.647513 0.746796 0.260959
O O11 0.749556 0.000000 0.324290
O O12 0.500000 0.176414 0.500000
O O13 0.478282 0.219295 0.581299
O O14 0.379635 0.000000 0.478842
O O15 0.105243 0.500000 0.664665
O O16 0.607173 0.273216 0.141852
O O17 0.622190 0.000000 0.113748
O O18 0.500000 0.190678 0.000000
O O19 0.435814 0.500000 0.823874
#
# Coordination Sequence:
#
# PCOD9207554 Si02
#       7
#     8   8   8   8   8   8   8
#     4  10  21  37  59  83 111 148 187 229 279 340
#     4  11  24  42  61  84 113 149 193 235 283 339
#     4  11  20  31  51  82 115 146 184 232 282 328
#     4   8  15  28  48  75 111 149 182 219 271 335
#     4   9  17  32  53  80 112 148 185 224 275 337
#     4  11  23  37  56  84 114 142 179 233 288 336
#     4  12  24  39  59  81 111 151 193 235 283 335
#
# _framework density 18.344169000000001
#
# number of rings (size 3 to 8) (size 9 to 14) (size 15 to 20)
#    0.000    1.714    1.429    5.143    0.000    7.143 
#    0.000    0.000    0.000    0.857    0.000    0.000 
#    0.000    0.000    0.000    0.000    0.000    0.000 
#
# Total GULP energy -156376.237663 kJ/mol
# GULP energy per Si atom -5584.865631 kJ/mol
# Density = 1.830242 g / cm^3
# Si number density = 18.344169 Si / 1000 Ang^3
#
#
#
# Elastic Constant Matrix: (Units=GPa)
#
#
# Indices 1 2 3 4 5 6 
#
# 1 20.5806 15.0791 -5.6208 0.0000 3.5788 0.0000
# 2 15.0791 88.2889 37.1910 0.0000 4.1159 0.0000
# 3 -5.6208 37.1910 80.6833 0.0000 0.7181 0.0000
# 4 0.0000 0.0000 0.0000 26.2772 0.0000 1.9920
# 5 3.5788 4.1159 0.7181 0.0000 25.0226 0.0000
# 6 0.0000 0.0000 0.0000 1.9920 0.0000 22.1971
#
#
#
# Elastic Compliance Matrix: (Units=1/GPa)
#
#
# Indices 1 2 3 4 5 6 
#
# 1 0.064478 -0.015642 0.011764 0.000000 -0.006986 0.000000
# 2 -0.015642 0.017965 -0.009366 0.000000 -0.000449 0.000000
# 3 0.011764 -0.009366 0.017537 0.000000 -0.000645 0.000000
# 4 0.000000 0.000000 0.000000 0.038316 0.000000 -0.003439
# 5 -0.006986 -0.000449 -0.000645 0.000000 0.041055 0.000000
# 6 0.000000 0.000000 0.000000 -0.003439 0.000000 0.045360
#
#
# Mechanical properties :
#
#
# Convention : Reuss Voigt Hill
#
# Bulk Modulus (GPa) = 13.60720 31.42794 22.51757
# Shear Modulus (GPa) = 18.13589 24.22628 21.18108
#
# Velocity S-wave (km/s) = 3.14769 3.63802 3.40170
# Velocity P-wave (km/s) = 4.54361 5.90055 5.26597
#
# Compressibility (1/GPa) = 0.07349052
#
# Stress axis : x y z
#
# Youngs Moduli (GPa) = 15.50918 55.66529 57.02260
#
# Poissons Ratio (x) = 0.87073 -0.67083
# Poissons Ratio (y) = 0.24260 0.53410
# Poissons Ratio (z) = -0.18245 0.52139
#
# Static dielectric constant tensor:
#      x y z
#    x 1.604120 0.000000 -0.024330 
#    y 0.000000 1.610100 0.000000 
#    z -0.024330 0.000000 1.664860 
# 
# From -- ./inp_files/363143.got.cif
#   From: 2010.05.17/outbox.cif.g08.bks.cpg/sg12_182_cif.got.tgz:363143.got - 2010.06.03 13:09:07.
