data_PCOD9207427
_publ_section_title
;
Structure prediction by ZEFSAII (Michael W. Deem and Ramdas Pophale) SiO2 
 PCOD9207427
Probable space group: C 2/M
;
_chemical_formula_sum "Si O2"
_cell_formula_units_Z 40
_cell_length_a 27.883705
_cell_length_b 8.104872
_cell_length_c 19.005664
_cell_angle_alpha 90.000000
_cell_angle_beta 27.030408
_cell_angle_gamma 90.000000
_cell_volume 1951.994163
_symmetry_space_group_name_H-M "C 2/M"
_symmetry_group_IT_number 12
_symmetry_cell_setting 'monoclinic'
loop_
_space_group_symop_operation_xyz
x,y,z
-x,y,-z
-x,-y,-z
x,-y,z
1/2+x,1/2+y,z
1/2-x,1/2+y,-z
1/2-x,1/2-y,-z
1/2+x,1/2-y,z
loop_
_atom_site_type_symbol
_atom_site_label
_atom_site_fract_x
_atom_site_fract_y
_atom_site_fract_z
Si Si1 0.382159 0.701590 0.133448
Si Si2 0.213951 0.699078 0.469650
Si Si3 0.174260 0.806110 0.950101
Si Si4 0.408357 0.693666 0.672002
Si Si5 0.017809 0.693997 0.273811
O O1 0.380536 0.500000 0.135961
O O2 0.297090 0.757409 0.302218
O O3 0.352230 0.754139 0.093882
O O4 0.500000 0.753757 0.000000
O O5 0.213136 0.500000 0.468861
O O6 0.250000 0.750000 0.500000
O O7 0.095804 0.755320 0.605099
O O8 0.297572 0.782299 0.804145
O O9 0.148165 0.000000 0.987818
O O10 0.104001 0.717613 0.100414
O O11 0.500000 0.755193 0.500000
O O12 0.391822 0.500000 0.679137
O O13 0.445818 0.717066 0.702894
O O14 0.008247 0.500000 0.302997
#
# Coordination Sequence:
#
# PCOD9207427 Si02
#       5
#     8   8   8   8   8
#     4   9  18  34  57  84 113 147 189 234 282 341
#     4  10  21  37  58  85 116 151 191 237 289 345
#     4  11  22  38  62  87 115 153 195 241 292 344
#     4  11  24  41  61  86 117 152 192 239 290 347
#     4  11  23  39  59  85 119 155 195 241 288 344
#
# _framework density 20.491864
#
# number of rings (size 3 to 8) (size 9 to 14) (size 15 to 20)
#    0.000    1.600    0.000    4.800    0.000    6.400 
#    0.000    2.000    0.000    5.400    0.000    0.000 
#    0.000    0.000    0.000    0.000    0.000    0.000 
#
# Total GULP energy -111852.423679 kJ/mol
# GULP energy per Si atom -5592.621184 kJ/mol
# Density = 2.044522 g / cm^3
# Si number density = 20.491864 Si / 1000 Ang^3
#
#
#
# Elastic Constant Matrix: (Units=GPa)
#
#
# Indices 1 2 3 4 5 6 
#
# 1 161.1589 -12.7225 70.9619 0.0001 0.0189 -0.0003
# 2 -12.7225 17.4233 -9.4279 -0.0029 -0.8249 0.0008
# 3 70.9619 -9.4279 158.2217 -0.0027 1.8494 0.0002
# 4 0.0001 -0.0029 -0.0027 -6.7222 0.0008 -7.0250
# 5 0.0189 -0.8249 1.8494 0.0008 43.6505 -0.0001
# 6 -0.0003 0.0008 0.0002 -7.0250 -0.0001 16.8987
#
#
#
# Elastic Compliance Matrix: (Units=1/GPa)
#
#
# Indices 1 2 3 4 5 6 
#
# 1 0.007999 0.004038 -0.003349 0.000000 0.000215 0.000000
# 2 0.004038 0.061387 0.001834 -0.000017 0.001081 -0.000010
# 3 -0.003349 0.001834 0.007935 -0.000003 -0.000300 -0.000001
# 4 0.000000 -0.000017 -0.000003 -0.103707 0.000002 -0.043112
# 5 0.000215 0.001081 -0.000300 0.000002 0.022942 0.000001
# 6 0.000000 -0.000010 -0.000001 -0.043112 0.000001 0.041254
#
#
# Mechanical properties :
#
#
# Convention : Reuss Voigt Hill
#
# Bulk Modulus (GPa) = 12.14080 48.26966 30.20523
# Shear Modulus (GPa) = 83.03014 29.96490 56.49752
#
# Velocity S-wave (km/s) = 6.37233 3.82813 5.25648
# Velocity P-wave (km/s) = 7.75110 6.56857 7.18421
#
# Compressibility (1/GPa) = 0.08236687
#
# Stress axis : x y z
#
# Youngs Moduli (GPa) = 125.02228 16.29017 126.02171
#
# Poissons Ratio (x) = -0.06579 0.42207
# Poissons Ratio (y) = -0.50490 -0.23112
# Poissons Ratio (z) = 0.41873 -0.02988
#
# Static dielectric constant tensor:
#      x y z
#    x 1.679580 0.000000 -0.002310 
#    y 0.000000 1.723570 0.000000 
#    z -0.002310 0.000000 1.697130 
# 
# From -- ./inp_files/151690.got.cif
#   From: 2010.05.17/outbox.cif.g08.bks.cpg/sg12_76_cif.got.tgz:151690.got - 2010.06.03 13:09:07.
