data_PCOD9207730
_publ_section_title
;
Structure prediction by ZEFSAII (Michael W. Deem and Ramdas Pophale) SiO2 
 PCOD9207730
Probable space group: C 2/M
;
_chemical_formula_sum "Si O2"
_cell_formula_units_Z 48
_cell_length_a 9.599383
_cell_length_b 13.330696
_cell_length_c 30.028473
_cell_angle_alpha 90.000000
_cell_angle_beta 143.049020
_cell_angle_gamma 90.000000
_cell_volume 2309.930400
_symmetry_space_group_name_H-M "C 2/M"
_symmetry_group_IT_number 12
_symmetry_cell_setting 'monoclinic'
loop_
_space_group_symop_operation_xyz
x,y,z
-x,y,-z
-x,-y,-z
x,-y,z
1/2+x,1/2+y,z
1/2-x,1/2+y,-z
1/2-x,1/2-y,-z
1/2+x,1/2-y,z
loop_
_atom_site_type_symbol
_atom_site_label
_atom_site_fract_x
_atom_site_fract_y
_atom_site_fract_z
Si Si1 0.080854 0.378781 0.569992
Si Si2 0.222311 0.619305 0.088949
Si Si3 0.422118 0.881492 0.707172
Si Si4 0.886195 0.881476 0.292855
Si Si5 0.231009 0.621213 0.430084
Si Si6 0.850266 0.250031 0.840069
O O1 0.069870 0.500000 0.568823
O O2 0.347681 0.354067 0.647324
O O3 0.000000 0.352403 0.500000
O O4 0.913144 0.338634 0.565241
O O5 0.283700 0.500000 0.113508
O O6 0.153748 0.681748 0.116260
O O7 0.427459 0.681767 0.116290
O O8 0.000000 0.618341 0.000000
O O9 0.187832 0.863834 0.675101
O O10 0.389073 0.854291 0.647313
O O11 0.629684 0.823784 0.783757
O O12 0.470319 0.000000 0.721248
O O13 0.710624 0.823894 0.216212
O O14 0.864453 0.000000 0.278897
O O15 0.500000 0.647810 0.500000
O O16 0.226372 0.500000 0.431457
#
# Coordination Sequence:
#
# PCOD9207730 Si02
#       6
#     8   8   8   8   8   8
#     4   9  17  30  52  83 123 174 227 281 341 398
#     4  11  26  48  75 107 142 181 226 278 341 417
#     4  10  21  37  59  89 127 173 224 277 337 402
#     4  10  21  37  59  89 127 173 224 277 337 402
#     4   9  17  30  52  83 123 174 227 281 341 398
#     4  12  23  44  69 100 138 178 222 280 341 408
#
# _framework density 20.779845999999999
#
# number of rings (size 3 to 8) (size 9 to 14) (size 15 to 20)
#    0.000    1.833    1.667    2.500    2.333    4.000 
#    0.000    0.833    0.000    8.000    0.000    0.000 
#    0.000    0.000    0.000    0.000    0.000    0.000 
#
# Total GULP energy -134085.134331 kJ/mol
# GULP energy per Si atom -5586.880597 kJ/mol
# Density = 2.073255 g / cm^3
# Si number density = 20.779846 Si / 1000 Ang^3
#
#
#
# Elastic Constant Matrix: (Units=GPa)
#
#
# Indices 1 2 3 4 5 6 
#
# 1 173.9550 66.6129 69.0291 0.0000 -2.1514 0.0000
# 2 66.6129 150.8976 49.6105 0.0000 -0.3362 0.0000
# 3 69.0291 49.6105 114.6588 -0.0001 -0.6862 0.0000
# 4 0.0000 0.0000 -0.0001 106.7940 0.0000 4.6412
# 5 -2.1514 -0.3362 -0.6862 0.0000 31.8689 0.0000
# 6 0.0000 0.0000 0.0000 4.6412 0.0000 18.4992
#
#
#
# Elastic Compliance Matrix: (Units=1/GPa)
#
#
# Indices 1 2 3 4 5 6 
#
# 1 0.008205 -0.002329 -0.003929 0.000000 0.000445 0.000000
# 2 -0.002329 0.008387 -0.002227 0.000000 -0.000117 0.000000
# 3 -0.003929 -0.002227 0.012051 0.000000 -0.000029 0.000000
# 4 0.000000 0.000000 0.000000 0.009467 0.000000 -0.002375
# 5 0.000445 -0.000117 -0.000029 0.000000 0.031407 0.000000
# 6 0.000000 0.000000 0.000000 -0.002375 0.000000 0.054652
#
#
# Mechanical properties :
#
#
# Convention : Reuss Voigt Hill
#
# Bulk Modulus (GPa) = 85.68125 90.00183 87.84154
# Shear Modulus (GPa) = 34.47510 48.38301 41.42906
#
# Velocity S-wave (km/s) = 4.07758 4.83055 4.46995
# Velocity P-wave (km/s) = 7.96814 8.63240 8.30691
#
# Compressibility (1/GPa) = 0.01167117
#
# Stress axis : x y z
#
# Youngs Moduli (GPa) = 121.87127 119.22761 82.98234
#
# Poissons Ratio (x) = 0.27772 0.32607
# Poissons Ratio (y) = 0.28388 0.18483
# Poissons Ratio (z) = 0.47888 0.26556
#
# Static dielectric constant tensor:
#      x y z
#    x 1.750490 0.000000 -0.003550 
#    y 0.000000 1.798650 0.000000 
#    z -0.003550 0.000000 1.683230 
# 
# From -- ./inp_files/356366.got.cif
#   From: 2010.05.17/outbox.cif.g08.bks.cpg/sg12_179_cif.got.tgz:356366.got - 2010.06.03 13:09:07.
