data_PCOD9207965
_publ_section_title
;
Structure prediction by ZEFSAII (Michael W. Deem and Ramdas Pophale) SiO2 
 PCOD9207965
Probable space group: C 2/M
;
_chemical_formula_sum "Si O2"
_cell_formula_units_Z 64
_cell_length_a 9.444394
_cell_length_b 25.901428
_cell_length_c 17.015753
_cell_angle_alpha 90.000000
_cell_angle_beta 46.466211
_cell_angle_gamma 90.000000
_cell_volume 3017.643947
_symmetry_space_group_name_H-M "C 2/M"
_symmetry_group_IT_number 12
_symmetry_cell_setting 'monoclinic'
loop_
_space_group_symop_operation_xyz
x,y,z
-x,y,-z
-x,-y,-z
x,-y,z
1/2+x,1/2+y,z
1/2-x,1/2+y,-z
1/2-x,1/2-y,-z
1/2+x,1/2-y,z
loop_
_atom_site_type_symbol
_atom_site_label
_atom_site_fract_x
_atom_site_fract_y
_atom_site_fract_z
Si Si1 0.383002 0.205849 0.126464
Si Si2 0.605726 0.886480 0.751907
Si Si3 0.562637 0.720539 0.752270
Si Si4 0.772529 0.192551 0.570965
Si Si5 0.954481 0.939838 0.701903
Si Si6 0.779175 0.643075 0.573055
Si Si7 0.206494 0.441426 0.933519
Si Si8 0.216219 0.941062 0.912727
O O1 0.422108 0.157274 0.169672
O O2 0.428218 0.255937 0.163733
O O3 0.155113 0.206085 0.190743
O O4 0.500000 0.206060 0.000000
O O5 0.715442 0.859934 0.637823
O O6 0.396296 0.909765 0.808307
O O7 0.755479 0.928622 0.729777
O O8 0.639112 0.765398 0.664743
O O9 0.703936 0.672715 0.679481
O O10 0.732220 0.183486 0.494957
O O11 0.000000 0.204393 0.500000
O O12 0.129151 0.902643 0.610355
O O13 0.890754 0.922428 0.814645
O O14 0.008625 0.000000 0.677670
O O15 0.000000 0.625417 0.500000
O O16 0.186467 0.500000 0.908854
O O17 0.232603 0.444430 0.015168
O O18 0.000000 0.414169 0.000000
O O19 0.202117 0.000000 0.885841
O O20 0.000000 0.917355 0.000000
#
# Coordination Sequence:
#
# PCOD9207965 Si02
#       8
#     8   8   8   8   8   8   8   8
#     4  11  24  41  66  99 135 169 207 263 329 406
#     4  11  22  39  63  95 129 173 218 266 325 392
#     4  11  22  43  66  97 129 171 215 268 330 388
#     4  11  22  42  65  94 125 166 228 276 321 389
#     4  11  22  39  63  94 129 168 222 269 316 389
#     4  12  24  41  65  93 124 171 224 274 328 375
#     4   9  17  31  57  86 115 160 213 260 307 378
#     4  10  21  37  60  93 131 172 221 273 326 383
#
# _framework density 21.208599
#
# number of rings (size 3 to 8) (size 9 to 14) (size 15 to 20)
#    0.000    1.250    3.750    3.000    1.750    1.250 
#    0.000    6.875    0.000    0.000    0.000    0.000 
#    0.000    0.000    0.000    0.000    0.000    0.000 
#
# Total GULP energy -178716.752485 kJ/mol
# GULP energy per Si atom -5584.898515 kJ/mol
# Density = 2.116033 g / cm^3
# Si number density = 21.208599 Si / 1000 Ang^3
#
#
#
# Elastic Constant Matrix: (Units=GPa)
#
#
# Indices 1 2 3 4 5 6 
#
# 1 45.8357 7.4684 25.9947 0.0000 -14.1520 0.0000
# 2 7.4684 70.4637 31.6506 0.0000 -6.4962 0.0000
# 3 25.9947 31.6506 110.8598 0.0000 -15.9531 0.0000
# 4 0.0000 0.0000 0.0000 40.9289 0.0000 12.7813
# 5 -14.1520 -6.4962 -15.9531 0.0000 50.8344 0.0000
# 6 0.0000 0.0000 0.0000 12.7813 0.0000 30.6719
#
#
#
# Elastic Compliance Matrix: (Units=1/GPa)
#
#
# Indices 1 2 3 4 5 6 
#
# 1 0.026663 0.000161 -0.005474 0.000000 0.005726 0.000000
# 2 0.000161 0.016301 -0.004593 0.000000 0.000687 0.000000
# 3 -0.005474 -0.004593 0.011846 0.000000 0.001607 0.000000
# 4 0.000000 0.000000 0.000000 0.028088 0.000000 -0.011704
# 5 0.005726 0.000687 0.001607 0.000000 0.021858 0.000000
# 6 0.000000 0.000000 0.000000 -0.011704 0.000000 0.037480
#
#
# Mechanical properties :
#
#
# Convention : Reuss Voigt Hill
#
# Bulk Modulus (GPa) = 28.57293 39.70963 34.14128
# Shear Modulus (GPa) = 28.78283 35.29008 32.03645
#
# Velocity S-wave (km/s) = 3.68792 4.08358 3.89078
# Velocity P-wave (km/s) = 5.62458 6.40298 6.02636
#
# Compressibility (1/GPa) = 0.03499817
#
# Stress axis : x y z
#
# Youngs Moduli (GPa) = 37.50501 61.34613 84.41349
#
# Poissons Ratio (x) = -0.00985 0.46208
# Poissons Ratio (y) = -0.00602 0.38770
# Poissons Ratio (z) = 0.20530 0.28175
#
# Static dielectric constant tensor:
#      x y z
#    x 1.793770 0.000000 -0.013860 
#    y 0.000000 1.824280 0.000000 
#    z -0.013860 0.000000 1.824380 
# 
# From -- ./inp_files/260306.got.cif
#   From: 2010.05.17/outbox.cif.g08.bks.cpg/sg12_131_cif.got.tgz:260306.got - 2010.06.03 13:09:07.
