data_PCOD9207493
_publ_section_title
;
Structure prediction by ZEFSAII (Michael W. Deem and Ramdas Pophale) SiO2 
 PCOD9207493
Probable space group: C 2/M
;
_chemical_formula_sum "Si O2"
_cell_formula_units_Z 56
_cell_length_a 30.125368
_cell_length_b 9.220146
_cell_length_c 20.699459
_cell_angle_alpha 90.000000
_cell_angle_beta 26.496776
_cell_angle_gamma 90.000000
_cell_volume 2565.119332
_symmetry_space_group_name_H-M "C 2/M"
_symmetry_group_IT_number 12
_symmetry_cell_setting 'monoclinic'
loop_
_space_group_symop_operation_xyz
x,y,z
-x,y,-z
-x,-y,-z
x,-y,z
1/2+x,1/2+y,z
1/2-x,1/2+y,-z
1/2-x,1/2-y,-z
1/2+x,1/2-y,z
loop_
_atom_site_type_symbol
_atom_site_label
_atom_site_fract_x
_atom_site_fract_y
_atom_site_fract_z
Si Si1 0.114661 0.338663 0.637887
Si Si2 0.056757 0.831541 0.586604
Si Si3 0.614675 0.165766 0.872780
Si Si4 0.157327 0.159566 0.698667
Si Si5 0.608934 0.172553 0.389400
Si Si6 0.306618 0.827217 0.087361
Si Si7 0.341452 0.669600 0.913873
O O1 0.069767 0.500000 0.690938
O O2 0.098136 0.268903 0.729411
O O3 0.233311 0.354145 0.473986
O O4 0.084526 0.231367 0.620183
O O5 0.102639 0.736986 0.469766
O O6 0.085881 0.000000 0.542168
O O7 0.937047 0.821727 0.743074
O O8 0.669320 0.275430 0.753992
O O9 0.636594 0.196506 0.918812
O O10 0.647722 0.000000 0.817385
O O11 0.500000 0.175932 0.000000
O O12 0.110715 0.000000 0.761228
O O13 0.500000 0.196466 0.500000
O O14 0.697256 0.256286 0.237826
O O15 0.628357 0.000000 0.364524
O O16 0.359457 0.749451 0.958534
O O17 0.298872 0.000000 0.086456
O O18 0.320053 0.500000 0.953110
O O19 0.250000 0.750000 0.000000
#
# Coordination Sequence:
#
# PCOD9207493 Si02
#       7
#     8   8   8   8   8   8   8
#     4  10  21  37  60  87 119 159 199 249 308 370
#     4  11  24  40  62  93 126 160 206 261 314 373
#     4  10  23  41  60  87 123 167 213 255 307 373
#     4  10  21  37  58  87 120 156 202 254 306 358
#     4  11  24  42  66  95 127 166 212 264 323 389
#     4  11  24  42  67  96 131 173 216 267 323 383
#     4  11  25  44  66  94 130 168 211 264 321 385
#
# _framework density 21.831344000000001
#
# number of rings (size 3 to 8) (size 9 to 14) (size 15 to 20)
#    0.000    1.429    0.000    4.286    2.000   11.143 
#    0.000    0.000    0.000    0.000    0.000    0.000 
#    0.000    0.000    0.000    0.000    0.000    0.000 
#
# Total GULP energy -156630.566617 kJ/mol
# GULP energy per Si atom -5593.948808 kJ/mol
# Density = 2.178166 g / cm^3
# Si number density = 21.831344 Si / 1000 Ang^3
#
#
#
# Elastic Constant Matrix: (Units=GPa)
#
#
# Indices 1 2 3 4 5 6 
#
# 1 67.2938 27.2552 -1.3257 0.0000 10.3397 -0.0004
# 2 27.2552 102.3784 26.5436 -0.0005 10.8566 0.0001
# 3 -1.3257 26.5436 62.7386 -0.0008 9.4357 0.0003
# 4 0.0000 -0.0005 -0.0008 25.7480 0.0005 2.8092
# 5 10.3397 10.8566 9.4357 0.0005 35.5038 0.0000
# 6 -0.0004 0.0001 0.0003 2.8092 0.0000 31.0736
#
#
#
# Elastic Compliance Matrix: (Units=1/GPa)
#
#
# Indices 1 2 3 4 5 6 
#
# 1 0.017651 -0.005052 0.003178 0.000000 -0.004440 0.000000
# 2 -0.005052 0.012586 -0.005285 0.000000 -0.000973 0.000000
# 3 0.003178 -0.005285 0.018894 0.000001 -0.004331 0.000000
# 4 0.000000 0.000000 0.000001 0.039225 -0.000001 -0.003546
# 5 -0.004440 -0.000973 -0.004331 -0.000001 0.030908 0.000000
# 6 0.000000 0.000000 0.000000 -0.003546 0.000000 0.032502
#
#
# Mechanical properties :
#
#
# Convention : Reuss Voigt Hill
#
# Bulk Modulus (GPa) = 28.72532 37.48412 33.10472
# Shear Modulus (GPa) = 28.13901 30.46091 29.29996
#
# Velocity S-wave (km/s) = 3.59406 3.73940 3.66745
# Velocity P-wave (km/s) = 5.51447 5.98760 5.75590
#
# Compressibility (1/GPa) = 0.03481249
#
# Stress axis : x y z
#
# Youngs Moduli (GPa) = 56.65281 79.45193 52.92729
#
# Poissons Ratio (x) = 0.40142 -0.16822
# Poissons Ratio (y) = 0.28623 0.27975
# Poissons Ratio (z) = -0.18006 0.41994
#
# Static dielectric constant tensor:
#      x y z
#    x 1.777920 0.000000 -0.036300 
#    y 0.000000 1.770430 0.000000 
#    z -0.036300 0.000000 1.818270 
# 
# From -- ./inp_files/329556.got.cif
#   From: 2010.05.17/outbox.cif.g08.bks.cpg/sg12_165_cif.got.tgz:329556.got - 2010.06.03 13:09:07.
