data_PCOD9207610
_publ_section_title
;
Structure prediction by ZEFSAII (Michael W. Deem and Ramdas Pophale) SiO2 
 PCOD9207610
Probable space group: C 2/M
;
_chemical_formula_sum "Si O2"
_cell_formula_units_Z 40
_cell_length_a 9.200231
_cell_length_b 22.048040
_cell_length_c 9.870596
_cell_angle_alpha 90.000000
_cell_angle_beta 88.818933
_cell_angle_gamma 90.000000
_cell_volume 2001.796016
_symmetry_space_group_name_H-M "C 2/M"
_symmetry_group_IT_number 12
_symmetry_cell_setting 'monoclinic'
loop_
_space_group_symop_operation_xyz
x,y,z
-x,y,-z
-x,-y,-z
x,-y,z
1/2+x,1/2+y,z
1/2-x,1/2+y,-z
1/2-x,1/2-y,-z
1/2+x,1/2-y,z
loop_
_atom_site_type_symbol
_atom_site_label
_atom_site_fract_x
_atom_site_fract_y
_atom_site_fract_z
Si Si1 0.332349 0.927592 0.963939
Si Si2 0.831016 0.861236 0.271948
Si Si3 0.650769 0.890773 0.547726
Si Si4 0.867001 0.930844 0.771321
Si Si5 0.117561 0.255544 0.602044
O O1 0.272388 0.887641 0.842071
O O2 0.324851 0.000000 0.931577
O O3 0.500000 0.914635 0.000000
O O4 0.223541 0.916124 0.091583
O O5 0.751725 0.877282 0.415369
O O6 0.856022 0.788453 0.273199
O O7 0.990904 0.890431 0.255960
O O8 0.500000 0.920209 0.500000
O O9 0.751225 0.925057 0.652063
O O10 0.598678 0.827411 0.621503
O O11 0.918544 0.000000 0.781531
O O12 0.250000 0.250000 0.500000
O O13 0.000000 0.229599 0.500000
#
# Coordination Sequence:
#
# PCOD9207610 Si02
#       5
#     8   8   8   8   8
#     4  10  22  40  59  82 118 160 198 241 297 356
#     4  11  20  35  60  86 113 154 200 242 292 351
#     4  10  21  37  59  86 117 155 197 241 289 347
#     4  11  23  38  58  89 125 156 193 245 300 349
#     4   9  18  34  56  83 114 148 188 236 290 340
#
# _framework density 19.982057000000001
#
# number of rings (size 3 to 8) (size 9 to 14) (size 15 to 20)
#    0.000    1.800    0.000    5.400    0.000    4.400 
#    0.000    1.000    0.000    4.800    0.000    0.000 
#    0.000    0.000    0.000    0.000    0.000    0.000 
#
# Total GULP energy -111514.918868 kJ/mol
# GULP energy per Si atom -5575.745943 kJ/mol
# Density = 1.993658 g / cm^3
# Si number density = 19.982057 Si / 1000 Ang^3
#
#
#
# Elastic Constant Matrix: (Units=GPa)
#
#
# Indices 1 2 3 4 5 6 
#
# 1 138.9240 46.4810 33.9812 0.0000 8.4803 0.0000
# 2 46.4810 71.1007 48.8268 0.0000 -0.1038 0.0000
# 3 33.9812 48.8268 98.7402 0.0000 6.2487 0.0000
# 4 0.0000 0.0000 0.0000 37.5670 0.0000 21.2624
# 5 8.4803 -0.1038 6.2487 0.0000 33.6482 0.0000
# 6 0.0000 0.0000 0.0000 21.2624 0.0000 47.7042
#
#
#
# Elastic Compliance Matrix: (Units=1/GPa)
#
#
# Indices 1 2 3 4 5 6 
#
# 1 0.009402 -0.006104 -0.000067 0.000000 -0.002376 0.000000
# 2 -0.006104 0.025399 -0.010687 0.000000 0.003601 0.000000
# 3 -0.000067 -0.010687 0.015620 0.000000 -0.002917 0.000000
# 4 0.000000 0.000000 0.000000 0.035600 0.000000 -0.015867
# 5 -0.002376 0.003601 -0.002917 0.000000 0.030871 0.000000
# 6 0.000000 0.000000 0.000000 -0.015867 0.000000 0.028035
#
#
# Mechanical properties :
#
#
# Convention : Reuss Voigt Hill
#
# Bulk Modulus (GPa) = 59.86145 63.03810 61.44978
# Shear Modulus (GPa) = 27.14284 35.74894 31.44589
#
# Velocity S-wave (km/s) = 3.68959 4.23431 3.97130
# Velocity P-wave (km/s) = 6.94071 7.45129 7.20052
#
# Compressibility (1/GPa) = 0.01670524
#
# Stress axis : x y z
#
# Youngs Moduli (GPa) = 106.36280 39.37128 64.02052
#
# Poissons Ratio (x) = 0.24031 0.00429
# Poissons Ratio (y) = 0.64921 0.68420
# Poissons Ratio (z) = 0.00712 0.42077
#
# Static dielectric constant tensor:
#      x y z
#    x 1.693120 0.000000 0.011890 
#    y 0.000000 1.797730 0.000000 
#    z 0.011890 0.000000 1.683870 
# 
# From -- ./inp_files/39365.got.cif
#   From: 2010.05.17/outbox.cif.g08.bks.cpg/sg12_20_cif.got.tgz:39365.got - 2010.06.03 13:09:07.
