data_PCOD9207200
_publ_section_title
;
Structure prediction by ZEFSAII (Michael W. Deem and Ramdas Pophale) SiO2 
 PCOD9207200
Probable space group: C 2/M
;
_chemical_formula_sum "Si O2"
_cell_formula_units_Z 56
_cell_length_a 20.555087
_cell_length_b 9.062194
_cell_length_c 29.330225
_cell_angle_alpha 90.000000
_cell_angle_beta 147.711331
_cell_angle_gamma 90.000000
_cell_volume 2918.501373
_symmetry_space_group_name_H-M "C 2/M"
_symmetry_group_IT_number 12
_symmetry_cell_setting 'monoclinic'
loop_
_space_group_symop_operation_xyz
x,y,z
-x,y,-z
-x,-y,-z
x,-y,z
1/2+x,1/2+y,z
1/2-x,1/2+y,-z
1/2-x,1/2-y,-z
1/2+x,1/2-y,z
loop_
_atom_site_type_symbol
_atom_site_label
_atom_site_fract_x
_atom_site_fract_y
_atom_site_fract_z
Si Si1 0.209447 0.824459 0.242050
Si Si2 0.214850 0.327194 0.550016
Si Si3 0.139866 0.824208 0.594196
Si Si4 0.436851 0.323172 0.105227
Si Si5 0.246453 0.823960 0.924618
Si Si6 0.054541 0.173231 0.379549
Si Si7 0.804794 0.675650 0.201281
O O1 0.314458 0.738360 0.330854
O O2 0.217345 0.796536 0.192776
O O3 0.077863 0.782675 0.184059
O O4 0.227181 0.000000 0.259583
O O5 0.185457 0.500000 0.537175
O O6 0.218991 0.251066 0.601382
O O7 0.113393 0.246291 0.459185
O O8 0.341571 0.314782 0.597816
O O9 0.000000 0.786418 0.500000
O O10 0.152204 0.000000 0.600351
O O11 0.426994 0.500000 0.091868
O O12 0.375385 0.291796 0.117732
O O13 0.356548 0.240463 0.019885
O O14 0.239385 0.749692 0.871323
O O15 0.257147 0.000000 0.926660
O O16 0.934588 0.256318 0.292265
O O17 0.030262 0.000000 0.373233
O O18 0.815340 0.500000 0.201415
#
# Coordination Sequence:
#
# PCOD9207200 Si02
#       7
#     8   8   8   8   8   8   8
#     4  10  23  41  61  86 118 159 204 246 292 353
#     4  10  21  37  58  82 111 153 199 244 295 354
#     4  11  24  39  57  84 119 157 198 248 299 346
#     4   9  20  41  64  87 117 153 197 243 293 356
#     4  10  21  38  63  91 120 153 193 245 300 354
#     4  10  21  37  57  83 117 151 194 248 297 348
#     4  11  23  38  59  87 120 158 197 242 295 354
#
# _framework density 19.187930000000001
#
# number of rings (size 3 to 8) (size 9 to 14) (size 15 to 20)
#    0.000    1.857    0.000    3.000    2.000    8.000 
#    0.000    2.857    0.000    0.000    0.000    0.000 
#    0.000    0.000    0.000    0.000    0.000    0.000 
#
# Total GULP energy -156503.520988 kJ/mol
# GULP energy per Si atom -5589.411464 kJ/mol
# Density = 1.914426 g / cm^3
# Si number density = 19.187930 Si / 1000 Ang^3
#
#
#
# Elastic Constant Matrix: (Units=GPa)
#
#
# Indices 1 2 3 4 5 6 
#
# 1 87.1978 53.5179 46.1981 0.0000 -15.7774 0.0000
# 2 53.5179 64.9664 39.8207 0.0000 -3.1487 0.0000
# 3 46.1981 39.8207 65.6740 0.0001 -2.0593 0.0000
# 4 0.0000 0.0000 0.0001 34.9494 0.0000 -5.0259
# 5 -15.7774 -3.1487 -2.0593 0.0000 30.0311 0.0000
# 6 0.0000 0.0000 0.0000 -5.0259 0.0000 24.6900
#
#
#
# Elastic Compliance Matrix: (Units=1/GPa)
#
#
# Indices 1 2 3 4 5 6 
#
# 1 0.030319 -0.018323 -0.009799 0.000000 0.013335 0.000000
# 2 -0.018323 0.035643 -0.008926 0.000000 -0.006501 0.000000
# 3 -0.009799 -0.008926 0.027401 0.000000 -0.004205 0.000000
# 4 0.000000 0.000000 0.000000 0.029476 0.000000 0.006000
# 5 0.013335 -0.006501 -0.004205 0.000000 0.039335 0.000000
# 6 0.000000 0.000000 0.000000 0.006000 0.000000 0.041724
#
#
# Mechanical properties :
#
#
# Convention : Reuss Voigt Hill
#
# Bulk Modulus (GPa) = 51.90849 55.21239 53.56044
# Shear Modulus (GPa) = 17.57994 23.15422 20.36708
#
# Velocity S-wave (km/s) = 3.03016 3.47754 3.26153
# Velocity P-wave (km/s) = 6.27327 6.70532 6.49289
#
# Compressibility (1/GPa) = 0.01926467
#
# Stress axis : x y z
#
# Youngs Moduli (GPa) = 32.98300 28.05607 36.49562
#
# Poissons Ratio (x) = 0.51407 0.35763
# Poissons Ratio (y) = 0.60435 0.32577
# Poissons Ratio (z) = 0.32321 0.25044
#
# Static dielectric constant tensor:
#      x y z
#    x 1.683630 0.000000 0.009080 
#    y 0.000000 1.635270 0.000000 
#    z 0.009080 0.000000 1.632980 
# 
# From -- ./inp_files/380617.got.cif
#   From: 2010.05.17/outbox.cif.g08.bks.cpg/sg12_191_cif.got.tgz:380617.got - 2010.06.03 13:09:07.
