data_PCOD9207389
_publ_section_title
;
Structure prediction by ZEFSAII (Michael W. Deem and Ramdas Pophale) SiO2 
 PCOD9207389
Probable space group: C 2/M
;
_chemical_formula_sum "Si O2"
_cell_formula_units_Z 48
_cell_length_a 18.804698
_cell_length_b 8.836439
_cell_length_c 15.714017
_cell_angle_alpha 90.000000
_cell_angle_beta 89.590400
_cell_angle_gamma 90.000000
_cell_volume 2611.077533
_symmetry_space_group_name_H-M "C 2/M"
_symmetry_group_IT_number 12
_symmetry_cell_setting 'monoclinic'
loop_
_space_group_symop_operation_xyz
x,y,z
-x,y,-z
-x,-y,-z
x,-y,z
1/2+x,1/2+y,z
1/2-x,1/2+y,-z
1/2-x,1/2-y,-z
1/2+x,1/2-y,z
loop_
_atom_site_type_symbol
_atom_site_label
_atom_site_fract_x
_atom_site_fract_y
_atom_site_fract_z
Si Si1 0.296964 0.318835 0.574135
Si Si2 0.704913 0.680331 0.922971
Si Si3 0.040634 0.818853 0.237443
Si Si4 0.209193 0.819363 0.231875
Si Si5 0.047775 0.319071 0.916628
Si Si6 0.452981 0.180940 0.582754
O O1 0.301189 0.500000 0.566334
O O2 0.250000 0.250000 0.500000
O O3 0.270135 0.286113 0.670426
O O4 0.374988 0.247821 0.568447
O O5 0.703219 0.500000 0.930702
O O6 0.744195 0.729850 0.835982
O O7 0.625176 0.745195 0.924598
O O8 0.750000 0.750000 0.000000
O O9 0.124865 0.784074 0.223569
O O10 0.019815 0.754520 0.329980
O O11 0.993493 0.745620 0.164527
O O12 0.033505 0.000000 0.236787
O O13 0.217468 0.000000 0.217594
O O14 0.055418 0.500000 0.909193
O O15 0.000000 0.286006 0.000000
O O16 0.500000 0.215680 0.500000
O O17 0.449666 0.000000 0.593164
#
# Coordination Sequence:
#
# PCOD9207389 Si02
#       6
#     8   8   8   8   8   8
#     4  10  21  37  59  85 115 152 192 238 288 338
#     4  12  25  40  61  87 116 151 189 233 284 338
#     4  10  21  38  61  87 116 151 189 235 288 338
#     4   9  20  39  60  84 116 151 189 235 285 337
#     4  11  24  41  62  87 115 150 191 234 281 336
#     4  10  21  37  58  84 116 154 193 236 285 337
#
# _framework density 18.383216000000001
#
# number of rings (size 3 to 8) (size 9 to 14) (size 15 to 20)
#    0.000    1.667    0.000    5.500    0.000   10.667 
#    0.000    1.667    0.000    0.000    0.000    0.000 
#    0.000    0.000    0.000    0.000    0.000    0.000 
#
# Total GULP energy -134143.751359 kJ/mol
# GULP energy per Si atom -5589.322973 kJ/mol
# Density = 1.834137 g / cm^3
# Si number density = 18.383216 Si / 1000 Ang^3
#
#
#
# Elastic Constant Matrix: (Units=GPa)
#
#
# Indices 1 2 3 4 5 6 
#
# 1 117.1268 81.1740 113.6284 0.0000 5.9001 0.0000
# 2 81.1740 108.8337 102.3703 0.0000 -9.4083 0.0000
# 3 113.6284 102.3703 188.6901 0.0000 8.1507 0.0000
# 4 0.0000 0.0000 0.0000 34.7634 0.0000 4.8077
# 5 5.9001 -9.4083 8.1507 0.0000 39.5898 0.0000
# 6 0.0000 0.0000 0.0000 4.8077 0.0000 34.4557
#
#
#
# Elastic Compliance Matrix: (Units=1/GPa)
#
#
# Indices 1 2 3 4 5 6 
#
# 1 0.024682 -0.010132 -0.009185 0.000000 -0.004195 0.000000
# 2 -0.010132 0.024812 -0.007749 0.000000 0.009002 0.000000
# 3 -0.009185 -0.007749 0.015190 0.000000 -0.003600 0.000000
# 4 0.000000 0.000000 0.000000 0.029332 0.000000 -0.004093
# 5 -0.004195 0.009002 -0.003600 0.000000 0.028765 0.000000
# 6 0.000000 0.000000 0.000000 -0.004093 0.000000 0.029594
#
#
# Mechanical properties :
#
#
# Convention : Reuss Voigt Hill
#
# Bulk Modulus (GPa) = 94.76422 112.11067 103.43745
# Shear Modulus (GPa) = 23.80687 29.59364 26.70025
#
# Velocity S-wave (km/s) = 3.60256 4.01661 3.81520
# Velocity P-wave (km/s) = 8.30457 9.09003 8.70616
#
# Compressibility (1/GPa) = 0.01055251
#
# Stress axis : x y z
#
# Youngs Moduli (GPa) = 40.51574 40.30314 65.83134
#
# Poissons Ratio (x) = 0.40835 0.60467
# Poissons Ratio (y) = 0.41051 0.51010
# Poissons Ratio (z) = 0.37214 0.31230
#
# Static dielectric constant tensor:
#      x y z
#    x 1.582140 0.000000 -0.013300 
#    y 0.000000 1.611630 0.000000 
#    z -0.013300 0.000000 1.616880 
# 
# From -- ./inp_files/221712.got.cif
#   From: 2010.05.17/outbox.cif.g08.bks.cpg/sg12_111_cif.got.tgz:221712.got - 2010.06.03 13:09:07.
