data_PCOD9207855
_publ_section_title
;
Structure prediction by ZEFSAII (Michael W. Deem and Ramdas Pophale) SiO2 
 PCOD9207855
Probable space group: C 2/M
;
_chemical_formula_sum "Si O2"
_cell_formula_units_Z 48
_cell_length_a 28.733596
_cell_length_b 14.782901
_cell_length_c 11.591578
_cell_angle_alpha 90.000000
_cell_angle_beta 151.509607
_cell_angle_gamma 90.000000
_cell_volume 2348.664421
_symmetry_space_group_name_H-M "C 2/M"
_symmetry_group_IT_number 12
_symmetry_cell_setting 'monoclinic'
loop_
_space_group_symop_operation_xyz
x,y,z
-x,y,-z
-x,-y,-z
x,-y,z
1/2+x,1/2+y,z
1/2-x,1/2+y,-z
1/2-x,1/2-y,-z
1/2+x,1/2-y,z
loop_
_atom_site_type_symbol
_atom_site_label
_atom_site_fract_x
_atom_site_fract_y
_atom_site_fract_z
Si Si1 0.779968 0.103785 0.294523
Si Si2 0.850173 0.757574 0.099510
Si Si3 0.181571 0.107061 0.156299
Si Si4 0.805451 0.604688 0.651836
Si Si5 0.570464 0.724060 0.486008
Si Si6 0.034543 0.755369 0.950299
O O1 0.775848 0.116838 0.424272
O O2 0.881694 0.131496 0.457123
O O3 0.757141 0.000000 0.221102
O O4 0.698352 0.169963 0.063495
O O5 0.856665 0.749023 0.251859
O O6 0.963317 0.770620 0.308342
O O7 0.799631 0.843044 0.924887
O O8 0.263517 0.120840 0.433122
O O9 0.165702 0.000000 0.107524
O O10 0.090071 0.160237 0.012921
O O11 0.837406 0.500000 0.728038
O O12 0.890263 0.673726 0.867960
O O13 0.551920 0.775365 0.324710
O O14 0.000000 0.783050 0.000000
#
# Coordination Sequence:
#
# PCOD9207855 Si02
#       6
#     8   8   8   8   8   8
#     4  11  22  40  66  94 125 165 213 261 313 370
#     4  10  22  42  63  89 134 168 207 259 314 374
#     4  10  21  37  60  88 120 161 206 251 308 371
#     4  10  21  39  62  90 123 162 210 260 310 373
#     4  10  22  39  62  95 123 167 212 254 307 376
#     4  11  22  37  63  88 126 164 201 260 321 367
#
# _framework density 20.437147
#
# number of rings (size 3 to 8) (size 9 to 14) (size 15 to 20)
#    0.000    1.667    3.333    2.000    2.333    4.000 
#    0.000    6.667    0.000    1.000    0.000    0.000 
#    0.000    0.000    0.000    0.000    0.000    0.000 
#
# Total GULP energy -133678.860403 kJ/mol
# GULP energy per Si atom -5569.952517 kJ/mol
# Density = 2.039063 g / cm^3
# Si number density = 20.437147 Si / 1000 Ang^3
#
#
#
# Elastic Constant Matrix: (Units=GPa)
#
#
# Indices 1 2 3 4 5 6 
#
# 1 87.2240 38.3152 40.9468 0.0000 -21.3403 0.0000
# 2 38.3152 108.9300 69.7976 0.0000 1.8198 0.0000
# 3 40.9468 69.7976 125.1874 0.0000 -28.9484 0.0000
# 4 0.0000 0.0000 0.0000 -3.3008 0.0000 -9.2834
# 5 -21.3403 1.8198 -28.9484 0.0000 30.2069 0.0000
# 6 0.0000 0.0000 0.0000 -9.2834 0.0000 11.9664
#
#
#
# Elastic Compliance Matrix: (Units=1/GPa)
#
#
# Indices 1 2 3 4 5 6 
#
# 1 0.017505 -0.007635 0.001923 0.000000 0.014670 0.000000
# 2 -0.007635 0.021093 -0.013880 0.000000 -0.019966 0.000000
# 3 0.001923 -0.013880 0.020048 0.000000 0.021408 0.000000
# 4 0.000000 0.000000 0.000000 -0.095214 0.000000 -0.073866
# 5 0.014670 -0.019966 0.021408 0.000000 0.065188 0.000000
# 6 0.000000 0.000000 0.000000 -0.073866 0.000000 0.026263
#
#
# Mechanical properties :
#
#
# Convention : Reuss Voigt Hill
#
# Bulk Modulus (GPa) = 51.37968 68.82898 60.10433
# Shear Modulus (GPa) = 49.72492 19.25995 34.49244
#
# Velocity S-wave (km/s) = 4.93796 3.07318 4.11266
# Velocity P-wave (km/s) = 7.59646 6.80765 7.21285
#
# Compressibility (1/GPa) = 0.01946295
#
# Stress axis : x y z
#
# Youngs Moduli (GPa) = 57.12794 47.40922 49.88013
#
# Poissons Ratio (x) = 0.36195 -0.09594
# Poissons Ratio (y) = 0.43615 0.69234
# Poissons Ratio (z) = -0.10988 0.65805
#
# Static dielectric constant tensor:
#      x y z
#    x 1.817420 0.000000 -0.002160 
#    y 0.000000 1.673920 0.000000 
#    z -0.002160 0.000000 1.802240 
# 
# From -- ./inp_files/189540.got.cif
#   From: 2010.05.17/outbox.cif.g08.bks.cpg/sg12_95_cif.got.tgz:189540.got - 2010.06.03 13:09:07.
