data_PCOD9207842
_publ_section_title
;
Structure prediction by ZEFSAII (Michael W. Deem and Ramdas Pophale) SiO2 
 PCOD9207842
Probable space group: C 2/M
;
_chemical_formula_sum "Si O2"
_cell_formula_units_Z 42
_cell_length_a 18.782602
_cell_length_b 9.416898
_cell_length_c 13.756488
_cell_angle_alpha 90.000000
_cell_angle_beta 63.726643
_cell_angle_gamma 90.000000
_cell_volume 2181.798646
_symmetry_space_group_name_H-M "C 2/M"
_symmetry_group_IT_number 12
_symmetry_cell_setting 'monoclinic'
loop_
_space_group_symop_operation_xyz
x,y,z
-x,y,-z
-x,-y,-z
x,-y,z
1/2+x,1/2+y,z
1/2-x,1/2+y,-z
1/2-x,1/2-y,-z
1/2+x,1/2-y,z
loop_
_atom_site_type_symbol
_atom_site_label
_atom_site_fract_x
_atom_site_fract_y
_atom_site_fract_z
Si Si1 0.186683 0.341166 0.819556
Si Si2 0.579508 0.768659 0.057966
Si Si3 0.000000 0.000000 0.000000
Si Si4 0.666362 0.171043 0.194392
Si Si5 0.978530 0.834449 0.625892
Si Si6 0.569235 0.160047 0.722131
O O1 0.221806 0.500000 0.791929
O O2 0.250691 0.227049 0.814603
O O3 0.144989 0.305041 0.742675
O O4 0.117791 0.343833 0.942262
O O5 0.545142 0.622837 0.037680
O O6 0.647669 0.764467 0.099178
O O7 0.506296 0.839471 0.159251
O O8 0.596945 0.236665 0.303389
O O9 0.662959 0.000000 0.191733
O O10 0.000000 0.825183 0.500000
O O11 0.048442 0.772342 0.651612
O O12 0.963284 0.000000 0.659509
O O13 0.577648 0.000000 0.677810
#
# Coordination Sequence:
#
# PCOD9207842 Si02
#       6
#     8   8   2   8   8   8
#     4  11  22  37  57  85 122 159 191 237 284 341
#     4  11  22  36  55  85 119 159 199 233 276 336
#     4  12  24  32  58  88 114 168 198 244 270 340
#     4  11  25  39  59  86 119 154 193 239 291 344
#     4  10  22  41  65  88 111 145 191 241 293 350
#     4  10  21  37  60  88 117 152 196 240 287 339
#
# _framework density 19.250171999999999
#
# number of rings (size 3 to 8) (size 9 to 14) (size 15 to 20)
#    0.000    1.333    1.905    4.571    8.000    3.810 
#    0.000    0.952    0.000    0.000    0.000    0.000 
#    0.000    0.000    0.000    0.000    0.000    0.000 
#
# Total GULP energy -116952.874763 kJ/mol
# GULP energy per Si atom -5569.184513 kJ/mol
# Density = 1.920636 g / cm^3
# Si number density = 19.250172 Si / 1000 Ang^3
#
#
#
# Elastic Constant Matrix: (Units=GPa)
#
#
# Indices 1 2 3 4 5 6 
#
# 1 123.5264 79.0579 25.7127 0.0000 24.2750 0.0000
# 2 79.0579 155.3496 38.0155 0.0000 19.0893 0.0000
# 3 25.7127 38.0155 51.4552 0.0000 20.9715 0.0000
# 4 0.0000 0.0000 0.0000 47.9274 0.0000 -14.7740
# 5 24.2750 19.0893 20.9715 0.0000 16.3733 0.0000
# 6 0.0000 0.0000 0.0000 -14.7740 0.0000 44.2043
#
#
#
# Elastic Compliance Matrix: (Units=1/GPa)
#
#
# Indices 1 2 3 4 5 6 
#
# 1 0.015777 -0.006748 0.007173 0.000000 -0.024711 0.000000
# 2 -0.006748 0.010847 -0.007459 0.000000 0.006911 0.000000
# 3 0.007173 -0.007459 0.046343 0.000000 -0.061296 0.000000
# 4 0.000000 0.000000 0.000000 0.023261 0.000000 0.007774
# 5 -0.024711 0.006911 -0.061296 0.000000 0.168163 0.000000
# 6 0.000000 0.000000 0.000000 0.007774 0.000000 0.025221
#
#
# Mechanical properties :
#
#
# Convention : Reuss Voigt Hill
#
# Bulk Modulus (GPa) = 16.97811 68.43372 42.70592
# Shear Modulus (GPa) = 15.46491 34.20401 24.83446
#
# Velocity S-wave (km/s) = 2.83744 4.21980 3.59568
# Velocity P-wave (km/s) = 4.42421 7.70514 6.28263
#
# Compressibility (1/GPa) = 0.05889938
#
# Stress axis : x y z
#
# Youngs Moduli (GPa) = 63.38272 92.19096 21.57830
#
# Poissons Ratio (x) = 0.62209 -0.15478
# Poissons Ratio (y) = 0.42769 0.16095
# Poissons Ratio (z) = -0.45463 0.68763
#
# Static dielectric constant tensor:
#      x y z
#    x 1.703550 0.000000 -0.007010 
#    y 0.000000 1.658740 0.000000 
#    z -0.007010 0.000000 1.660470 
# 
# From -- ./inp_files/221466.got.cif
#   From: 2010.05.17/outbox.cif.g08.bks.cpg/sg12_111_cif.got.tgz:221466.got - 2010.06.03 13:09:07.
