data_PCOD9207144
_publ_section_title
;
Structure prediction by ZEFSAII (Michael W. Deem and Ramdas Pophale) SiO2 
 PCOD9207144
Probable space group: C 2/M
;
_chemical_formula_sum "Si O2"
_cell_formula_units_Z 48
_cell_length_a 18.755696
_cell_length_b 8.579075
_cell_length_c 28.289522
_cell_angle_alpha 90.000000
_cell_angle_beta 33.977826
_cell_angle_gamma 90.000000
_cell_volume 2543.967877
_symmetry_space_group_name_H-M "C 2/M"
_symmetry_group_IT_number 12
_symmetry_cell_setting 'monoclinic'
loop_
_space_group_symop_operation_xyz
x,y,z
-x,y,-z
-x,-y,-z
x,-y,z
1/2+x,1/2+y,z
1/2-x,1/2+y,-z
1/2-x,1/2-y,-z
1/2+x,1/2-y,z
loop_
_atom_site_type_symbol
_atom_site_label
_atom_site_fract_x
_atom_site_fract_y
_atom_site_fract_z
Si Si1 0.854285 0.686595 0.252712
Si Si2 0.537238 0.688042 0.903913
Si Si3 0.060379 0.190170 0.416995
Si Si4 0.296557 0.311966 0.096890
Si Si5 0.393558 0.688626 0.418868
Si Si6 0.487108 0.686470 0.746624
O O1 0.854175 0.500000 0.254356
O O2 0.926624 0.741561 0.165978
O O3 0.707040 0.740742 0.332013
O O4 0.924234 0.749126 0.260622
O O5 0.538411 0.500000 0.900049
O O6 0.640348 0.732854 0.887474
O O7 0.398948 0.734506 0.000484
O O8 0.000000 0.240437 0.500000
O O9 0.975390 0.241014 0.419257
O O10 0.060064 0.000000 0.416988
O O11 0.288230 0.500000 0.100707
O O12 0.157693 0.241872 0.167170
O O13 0.390601 0.500000 0.421085
O O14 0.250000 0.750000 0.500000
O O15 0.460558 0.738869 0.333293
O O16 0.490579 0.500000 0.745830
#
# Coordination Sequence:
#
# PCOD9207144 Si02
#       6
#     8   8   8   8   8   8
#     4  11  22  36  57  82 109 147 190 228 276 334
#     4   9  19  37  59  83 112 143 180 230 280 327
#     4   9  18  34  56  80 107 139 177 222 269 322
#     4   9  19  37  60  83 109 146 186 223 274 337
#     4  10  21  37  57  82 111 143 180 223 274 329
#     4  11  23  37  54  80 115 149 185 233 277 318
#
# _framework density 18.868164
#
# number of rings (size 3 to 8) (size 9 to 14) (size 15 to 20)
#    0.000    2.167    0.000    4.000    0.000    6.000 
#    0.000    3.333    0.000    4.500    0.000    0.000 
#    0.000    0.000    0.000    0.000    0.000    0.000 
#
# Total GULP energy -134057.001888 kJ/mol
# GULP energy per Si atom -5585.708412 kJ/mol
# Density = 1.882522 g / cm^3
# Si number density = 18.868164 Si / 1000 Ang^3
#
#
#
# Elastic Constant Matrix: (Units=GPa)
#
#
# Indices 1 2 3 4 5 6 
#
# 1 199.9600 35.5233 131.9377 0.0001 2.6802 -0.0003
# 2 35.5233 18.9019 31.7894 0.0004 0.1657 -0.0005
# 3 131.9377 31.7894 169.9058 0.0000 -4.9926 -0.0001
# 4 0.0001 0.0004 0.0000 27.2259 0.0000 -6.9744
# 5 2.6802 0.1657 -4.9926 0.0000 40.5790 0.0000
# 6 -0.0003 -0.0005 -0.0001 -6.9744 0.0000 -1.5675
#
#
#
# Elastic Compliance Matrix: (Units=1/GPa)
#
#
# Indices 1 2 3 4 5 6 
#
# 1 0.011409 -0.009410 -0.007146 0.000000 -0.001594 0.000001
# 2 -0.009410 0.085135 -0.008645 -0.000004 -0.000790 -0.000010
# 3 -0.007146 -0.008645 0.013114 0.000000 0.002121 0.000001
# 4 0.000000 -0.000004 0.000000 0.017165 0.000000 -0.076374
# 5 -0.001594 -0.000790 0.002121 0.000000 0.025013 0.000000
# 6 0.000001 -0.000010 0.000001 -0.076374 0.000000 -0.298141
#
#
# Mechanical properties :
#
#
# Convention : Reuss Voigt Hill
#
# Bulk Modulus (GPa) = 16.87550 87.47426 52.17488
# Shear Modulus (GPa) = -65.65903 25.88196 -19.88854
#
# Velocity S-wave (km/s) = -5.90545 3.70770 -3.25018
# Velocity P-wave (km/s) = 6.12665 8.04927 3.69154
#
# Compressibility (1/GPa) = 0.05925750
#
# Stress axis : x y z
#
# Youngs Moduli (GPa) = 87.65098 11.74603 76.25254
#
# Poissons Ratio (x) = 0.11053 0.54488
# Poissons Ratio (y) = 0.82476 0.65921
# Poissons Ratio (z) = 0.62633 0.10155
#
# Static dielectric constant tensor:
#      x y z
#    x 1.627560 0.000000 0.005930 
#    y 0.000000 1.643990 0.000000 
#    z 0.005930 0.000000 1.630410 
# 
# From -- ./inp_files/313571.got.cif
#   From: 2010.05.17/outbox.cif.g08.bks.cpg/sg12_157_cif.got.tgz:313571.got - 2010.06.03 13:09:07.
