data_PCOD9207591
_publ_section_title
;
Structure prediction by ZEFSAII (Michael W. Deem and Ramdas Pophale) SiO2 
 PCOD9207591
Probable space group: C 2/M
;
_chemical_formula_sum "Si O2"
_cell_formula_units_Z 48
_cell_length_a 19.429971
_cell_length_b 20.446710
_cell_length_c 7.612017
_cell_angle_alpha 90.000000
_cell_angle_beta 46.759754
_cell_angle_gamma 90.000000
_cell_volume 2203.015261
_symmetry_space_group_name_H-M "C 2/M"
_symmetry_group_IT_number 12
_symmetry_cell_setting 'monoclinic'
loop_
_space_group_symop_operation_xyz
x,y,z
-x,y,-z
-x,-y,-z
x,-y,z
1/2+x,1/2+y,z
1/2-x,1/2+y,-z
1/2-x,1/2-y,-z
1/2+x,1/2-y,z
loop_
_atom_site_type_symbol
_atom_site_label
_atom_site_fract_x
_atom_site_fract_y
_atom_site_fract_z
Si Si1 0.514107 0.575117 0.186971
Si Si2 0.581958 0.703861 0.488271
Si Si3 0.108582 0.429667 0.751602
Si Si4 0.311398 0.803300 0.484205
Si Si5 0.101359 0.427253 0.341503
Si Si6 0.207470 0.136329 0.997760
O O1 0.490606 0.500000 0.281793
O O2 0.449963 0.634629 0.370786
O O3 0.500000 0.577145 0.000000
O O4 0.619193 0.592155 0.080797
O O5 0.500000 0.724381 0.500000
O O6 0.601352 0.762664 0.587682
O O7 0.669862 0.685549 0.210619
O O8 0.146853 0.500000 0.748142
O O9 0.161731 0.362239 0.693211
O O10 0.113469 0.431427 0.530617
O O11 0.000000 0.425352 0.000000
O O12 0.250000 0.750000 0.500000
O O13 0.247959 0.828830 0.754982
O O14 0.089809 0.500000 0.285223
O O15 0.198593 0.399773 0.096770
O O16 0.000000 0.392385 0.500000
#
# Coordination Sequence:
#
# PCOD9207591 Si02
#       6
#     8   8   8   8   8   8
#     4  10  21  39  63  91 124 162 207 258 313 371
#     4  10  23  40  60  88 122 162 206 253 311 375
#     4   9  20  38  58  80 109 148 192 238 288 348
#     4  11  23  38  59  88 121 157 199 251 309 366
#     4   9  18  33  54  82 114 150 193 240 292 348
#     4  10  21  37  59  85 120 160 204 251 305 368
#
# _framework density 21.788319000000001
#
# number of rings (size 3 to 8) (size 9 to 14) (size 15 to 20)
#    0.000    2.167    0.000    2.000    0.000   11.667 
#    0.000    0.833    0.000    0.000    0.000    0.000 
#    0.000    0.000    0.000    0.000    0.000    0.000 
#
# Total GULP energy -133801.022693 kJ/mol
# GULP energy per Si atom -5575.042612 kJ/mol
# Density = 2.173873 g / cm^3
# Si number density = 21.788319 Si / 1000 Ang^3
#
#
#
# Elastic Constant Matrix: (Units=GPa)
#
#
# Indices 1 2 3 4 5 6 
#
# 1 47.5358 14.9898 6.8033 0.0000 -4.0451 0.0000
# 2 14.9898 141.0780 51.4565 0.0000 -4.4784 0.0000
# 3 6.8033 51.4565 87.5769 0.0000 -21.6876 0.0000
# 4 0.0000 0.0000 0.0000 17.5038 0.0000 -4.2419
# 5 -4.0451 -4.4784 -21.6876 0.0000 23.9242 0.0000
# 6 0.0000 0.0000 0.0000 -4.2419 0.0000 30.0974
#
#
#
# Elastic Compliance Matrix: (Units=1/GPa)
#
#
# Indices 1 2 3 4 5 6 
#
# 1 0.022049 -0.002478 0.000711 0.000000 0.003909 0.000000
# 2 -0.002478 0.009610 -0.006592 0.000000 -0.004596 0.000000
# 3 0.000711 -0.006592 0.019291 0.000000 0.016374 0.000000
# 4 0.000000 0.000000 0.000000 0.059151 0.000000 0.008337
# 5 0.003909 -0.004596 0.016374 0.000000 0.056443 0.000000
# 6 0.000000 0.000000 0.000000 0.008337 0.000000 0.034400
#
#
# Mechanical properties :
#
#
# Convention : Reuss Voigt Hill
#
# Bulk Modulus (GPa) = 29.21198 46.96554 38.08876
# Shear Modulus (GPa) = 21.82707 27.83449 24.83078
#
# Velocity S-wave (km/s) = 3.16852 3.57808 3.37951
# Velocity P-wave (km/s) = 5.17903 6.21872 5.72253
#
# Compressibility (1/GPa) = 0.03423253
#
# Stress axis : x y z
#
# Youngs Moduli (GPa) = 45.35349 104.05756 51.83639
#
# Poissons Ratio (x) = 0.25786 -0.03686
# Poissons Ratio (y) = 0.11239 0.34171
# Poissons Ratio (z) = -0.03225 0.68596
#
# Static dielectric constant tensor:
#      x y z
#    x 1.747540 0.000000 -0.026080 
#    y 0.000000 2.478760 0.000000 
#    z -0.026080 0.000000 1.789280 
# 
# From -- ./inp_files/89422.got.cif
#   From: 2010.05.17/outbox.cif.g08.bks.cpg/sg12_45_cif.got.tgz:89422.got - 2010.06.03 13:09:07.
