data_PCOD9207532
_publ_section_title
;
Structure prediction by ZEFSAII (Michael W. Deem and Ramdas Pophale) SiO2 
 PCOD9207532
Probable space group: C 2/M
;
_chemical_formula_sum "Si O2"
_cell_formula_units_Z 64
_cell_length_a 18.445105
_cell_length_b 23.907064
_cell_length_c 13.899798
_cell_angle_alpha 90.000000
_cell_angle_beta 148.605734
_cell_angle_gamma 90.000000
_cell_volume 3192.937409
_symmetry_space_group_name_H-M "C 2/M"
_symmetry_group_IT_number 12
_symmetry_cell_setting 'monoclinic'
loop_
_space_group_symop_operation_xyz
x,y,z
-x,y,-z
-x,-y,-z
x,-y,z
1/2+x,1/2+y,z
1/2-x,1/2+y,-z
1/2-x,1/2-y,-z
1/2+x,1/2-y,z
loop_
_atom_site_type_symbol
_atom_site_label
_atom_site_fract_x
_atom_site_fract_y
_atom_site_fract_z
Si Si1 0.188220 0.630273 0.974013
Si Si2 0.568917 0.800698 0.293122
Si Si3 0.942214 0.816583 0.187905
Si Si4 0.627533 0.620265 0.073516
Si Si5 0.168462 0.065443 0.695388
Si Si6 0.705032 0.670476 0.611572
Si Si7 0.623865 0.936778 0.709619
Si Si8 0.645107 0.211904 0.605596
O O1 0.140906 0.601230 0.821818
O O2 0.049267 0.654099 0.862816
O O3 0.289192 0.681852 0.060353
O O4 0.272585 0.587114 0.135656
O O5 0.497818 0.739909 0.202376
O O6 0.693979 0.812846 0.362046
O O7 0.615429 0.801321 0.458579
O O8 0.050390 0.831311 0.393177
O O9 0.937153 0.864611 0.102610
O O10 0.730402 0.568002 0.181317
O O11 0.734871 0.670350 0.222145
O O12 0.500000 0.614564 0.000000
O O13 0.230489 0.111272 0.691141
O O14 0.000000 0.069612 0.500000
O O15 0.204200 0.000000 0.719290
O O16 0.701769 0.724442 0.677406
O O17 0.500000 0.917631 0.500000
O O18 0.593508 0.000000 0.704017
O O19 0.500000 0.208249 0.500000
#
# Coordination Sequence:
#
# PCOD9207532 Si02
#       8
#     8   8   8   8   8   8   8   8
#     4  11  22  39  65  93 123 162 218 261 316 379
#     4  11  23  38  60  92 132 162 201 265 326 384
#     4  10  21  37  58  89 125 164 206 253 311 387
#     4  11  21  35  58  91 124 155 199 256 318 379
#     4  11  24  44  68  92 123 172 228 273 311 378
#     4  11  23  41  60  91 128 171 208 264 324 379
#     4  10  22  41  63  88 122 165 213 260 313 378
#     4  11  22  38  64  90 128 168 210 251 321 397
#
# _framework density 20.044238
#
# number of rings (size 3 to 8) (size 9 to 14) (size 15 to 20)
#    0.000    1.250    1.250    6.750    3.500    0.750 
#    0.000    1.875    0.000    2.250    0.000    0.000 
#    0.000    0.000    0.000    0.000    0.000    0.000 
#
# Total GULP energy -178722.835141 kJ/mol
# GULP energy per Si atom -5585.088598 kJ/mol
# Density = 1.999862 g / cm^3
# Si number density = 20.044238 Si / 1000 Ang^3
#
#
#
# Elastic Constant Matrix: (Units=GPa)
#
#
# Indices 1 2 3 4 5 6 
#
# 1 78.8529 27.8712 13.4187 0.0000 11.2593 0.0000
# 2 27.8712 118.5720 33.7872 0.0000 -3.1630 0.0000
# 3 13.4187 33.7872 78.2612 0.0000 -8.7130 0.0000
# 4 0.0000 0.0000 0.0000 5.8610 0.0000 0.1034
# 5 11.2593 -3.1630 -8.7130 0.0000 30.6328 0.0000
# 6 0.0000 0.0000 0.0000 0.1034 0.0000 16.9687
#
#
#
# Elastic Compliance Matrix: (Units=1/GPa)
#
#
# Indices 1 2 3 4 5 6 
#
# 1 0.015040 -0.003156 -0.001929 0.000000 -0.006403 0.000000
# 2 -0.003156 0.010280 -0.003769 0.000000 0.001150 0.000000
# 3 -0.001929 -0.003769 0.015254 0.000000 0.004659 0.000000
# 4 0.000000 0.000000 0.000000 0.170638 0.000000 -0.001040
# 5 -0.006403 0.001150 0.004659 0.000000 0.036442 0.000000
# 6 0.000000 0.000000 0.000000 -0.001040 0.000000 0.058939
#
#
# Mechanical properties :
#
#
# Convention : Reuss Voigt Hill
#
# Bulk Modulus (GPa) = 43.73331 47.31559 45.52445
# Shear Modulus (GPa) = 15.06371 24.06643 19.56507
#
# Velocity S-wave (km/s) = 2.74437 3.46882 3.12764
# Velocity P-wave (km/s) = 5.64870 6.30083 5.98366
#
# Compressibility (1/GPa) = 0.02286587
#
# Stress axis : x y z
#
# Youngs Moduli (GPa) = 66.48955 97.27352 65.55531
#
# Poissons Ratio (x) = 0.30703 0.12645
# Poissons Ratio (y) = 0.20987 0.24708
# Poissons Ratio (z) = 0.12825 0.36663
#
# Static dielectric constant tensor:
#      x y z
#    x 1.759890 0.000000 0.014090 
#    y 0.000000 1.717540 0.000000 
#    z 0.014090 0.000000 1.713940 
# 
# From -- ./inp_files/228187.got.cif
#   From: 2010.05.17/outbox.cif.g08.bks.cpg/sg12_115_cif.got.tgz:228187.got - 2010.06.03 13:09:07.
