data_PCOD9207640
_publ_section_title
;
Structure prediction by ZEFSAII (Michael W. Deem and Ramdas Pophale) SiO2 
 PCOD9207640
Probable space group: C 2/M
;
_chemical_formula_sum "Si O2"
_cell_formula_units_Z 36
_cell_length_a 9.294047
_cell_length_b 9.940799
_cell_length_c 20.339085
_cell_angle_alpha 90.000000
_cell_angle_beta 110.129056
_cell_angle_gamma 90.000000
_cell_volume 1764.355480
_symmetry_space_group_name_H-M "C 2/M"
_symmetry_group_IT_number 12
_symmetry_cell_setting 'monoclinic'
loop_
_space_group_symop_operation_xyz
x,y,z
-x,y,-z
-x,-y,-z
x,-y,z
1/2+x,1/2+y,z
1/2-x,1/2+y,-z
1/2-x,1/2-y,-z
1/2+x,1/2-y,z
loop_
_atom_site_type_symbol
_atom_site_label
_atom_site_fract_x
_atom_site_fract_y
_atom_site_fract_z
Si Si1 0.688043 0.844102 0.695746
Si Si2 0.319716 0.851891 0.096133
Si Si3 0.000000 0.254461 0.000000
Si Si4 0.319596 0.848970 0.457985
Si Si5 0.460640 0.656446 0.224619
O O1 0.703837 0.808985 0.621438
O O2 0.582312 0.739303 0.716888
O O3 0.856278 0.838536 0.754647
O O4 0.633229 0.000000 0.690442
O O5 0.376589 0.734080 0.152670
O O6 0.140784 0.831327 0.051474
O O7 0.343946 0.000000 0.129468
O O8 0.419202 0.838722 0.045159
O O9 0.500000 0.854138 0.500000
O O10 0.250000 0.750000 0.500000
O O11 0.255259 0.000000 0.455457
O O12 0.414897 0.500000 0.221471
#
# Coordination Sequence:
#
# PCOD9207640 Si02
#       5
#     8   8   4   8   8
#     4  10  22  40  59  84 119 155 193 239 289 341
#     4  11  23  41  63  87 117 152 190 236 288 341
#     4  10  24  40  62  90 116 148 192 236 284 344
#     4  10  21  37  59  87 117 152 195 240 288 343
#     4  11  24  39  59  87 117 152 195 238 285 343
#
# _framework density 20.404050000000002
#
# number of rings (size 3 to 8) (size 9 to 14) (size 15 to 20)
#    0.000    1.556    0.000    4.000    0.000   12.000 
#    0.000    0.000    0.000    0.000    0.000    0.000 
#    0.000    0.000    0.000    0.000    0.000    0.000 
#
# Total GULP energy -100614.625552 kJ/mol
# GULP energy per Si atom -5589.701420 kJ/mol
# Density = 2.035761 g / cm^3
# Si number density = 20.404050 Si / 1000 Ang^3
#
#
#
# Elastic Constant Matrix: (Units=GPa)
#
#
# Indices 1 2 3 4 5 6 
#
# 1 76.2577 32.2806 7.8906 0.0000 -1.0756 0.0000
# 2 32.2806 111.5762 17.1707 0.0000 -13.4382 0.0000
# 3 7.8906 17.1707 75.5857 0.0000 3.3368 0.0000
# 4 0.0000 0.0000 0.0000 31.3010 0.0000 0.0495
# 5 -1.0756 -13.4382 3.3368 0.0000 32.0437 0.0000
# 6 0.0000 0.0000 0.0000 0.0495 0.0000 214.1874
#
#
#
# Elastic Compliance Matrix: (Units=1/GPa)
#
#
# Indices 1 2 3 4 5 6 
#
# 1 0.015020 -0.004424 -0.000506 0.000000 -0.001299 0.000000
# 2 -0.004424 0.011169 -0.002286 0.000000 0.004774 0.000000
# 3 -0.000506 -0.002286 0.013909 0.000000 -0.002424 0.000000
# 4 0.000000 0.000000 0.000000 0.031948 0.000000 -0.000007
# 5 -0.001299 0.004774 -0.002424 0.000000 0.033418 0.000000
# 6 0.000000 0.000000 0.000000 -0.000007 0.000000 0.004669
#
#
# Mechanical properties :
#
#
# Convention : Reuss Voigt Hill
#
# Bulk Modulus (GPa) = 38.96107 42.01149 40.48628
# Shear Modulus (GPa) = 37.55985 69.24494 53.40240
#
# Velocity S-wave (km/s) = 4.29511 5.83186 5.12145
# Velocity P-wave (km/s) = 6.61314 8.12292 7.40660
#
# Compressibility (1/GPa) = 0.02566664
#
# Stress axis : x y z
#
# Youngs Moduli (GPa) = 66.57698 89.53193 71.89500
#
# Poissons Ratio (x) = 0.39610 0.03635
# Poissons Ratio (y) = 0.29455 0.16437
# Poissons Ratio (z) = 0.03366 0.20469
#
# Static dielectric constant tensor:
#      x y z
#    x 1.694540 0.000000 -0.003750 
#    y 0.000000 1.711660 0.000000 
#    z -0.003750 0.000000 1.731250 
# 
# From -- ./inp_files/298744.got.cif
#   From: 2010.05.17/outbox.cif.g08.bks.cpg/sg12_150_cif.got.tgz:298744.got - 2010.06.03 13:09:07.
