data_PCOD9207716
_publ_section_title
;
Structure prediction by ZEFSAII (Michael W. Deem and Ramdas Pophale) SiO2 
 PCOD9207716
Probable space group: C 2/M
;
_chemical_formula_sum "Si O2"
_cell_formula_units_Z 56
_cell_length_a 30.348992
_cell_length_b 8.910834
_cell_length_c 11.866921
_cell_angle_alpha 90.000000
_cell_angle_beta 61.857267
_cell_angle_gamma 90.000000
_cell_volume 2829.818734
_symmetry_space_group_name_H-M "C 2/M"
_symmetry_group_IT_number 12
_symmetry_cell_setting 'monoclinic'
loop_
_space_group_symop_operation_xyz
x,y,z
-x,y,-z
-x,-y,-z
x,-y,z
1/2+x,1/2+y,z
1/2-x,1/2+y,-z
1/2-x,1/2-y,-z
1/2+x,1/2-y,z
loop_
_atom_site_type_symbol
_atom_site_label
_atom_site_fract_x
_atom_site_fract_y
_atom_site_fract_z
Si Si1 0.896758 0.829962 0.271710
Si Si2 0.090977 0.822306 0.135454
Si Si3 0.941488 0.822631 0.568974
Si Si4 0.245409 0.822077 0.380040
Si Si5 0.332719 0.326135 0.133230
Si Si6 0.497008 0.169166 0.138489
Si Si7 0.143415 0.325154 0.476509
O O1 0.879585 0.820015 0.163453
O O2 0.954098 0.787741 0.219044
O O3 0.865900 0.711411 0.381069
O O4 0.886043 0.000000 0.323222
O O5 0.083088 0.805158 0.278029
O O6 0.048529 0.722954 0.128814
O O7 0.083172 0.000000 0.118964
O O8 0.144349 0.782195 0.015286
O O9 0.905853 0.734301 0.527020
O O10 0.000000 0.775086 0.500000
O O11 0.941327 0.000000 0.539708
O O12 0.250000 0.750000 0.500000
O O13 0.289756 0.769313 0.244094
O O14 0.193400 0.766127 0.388473
O O15 0.245438 0.000000 0.393446
O O16 0.316012 0.500000 0.149181
O O17 0.483993 0.000000 0.192776
O O18 0.500000 0.165881 0.000000
O O19 0.150743 0.500000 0.447857
#
# Coordination Sequence:
#
# PCOD9207716 Si02
#       7
#     8   8   8   8   8   8   8
#     4  11  21  35  58  85 121 161 203 252 305 369
#     4  10  21  39  62  87 122 166 209 257 312 372
#     4  10  22  42  67  94 125 165 213 259 307 368
#     4  12  24  40  64  93 127 164 206 258 316 376
#     4  10  21  37  59  89 123 161 204 253 310 370
#     4  11  22  33  51  84 125 161 200 249 304 370
#     4  12  25  41  64  92 125 162 208 259 312 373
#
# _framework density 19.789252999999999
#
# number of rings (size 3 to 8) (size 9 to 14) (size 15 to 20)
#    0.000    1.143    2.857    4.286    0.000    3.714 
#    0.000    0.714    0.000    0.000    0.000    0.000 
#    0.000    0.000    0.000    0.000    0.000    0.000 
#
# Total GULP energy -156412.969253 kJ/mol
# GULP energy per Si atom -5586.177473 kJ/mol
# Density = 1.974421 g / cm^3
# Si number density = 19.789253 Si / 1000 Ang^3
#
#
#
# Elastic Constant Matrix: (Units=GPa)
#
#
# Indices 1 2 3 4 5 6 
#
# 1 70.0175 34.3433 25.1389 0.0000 -16.0922 0.0000
# 2 34.3433 95.1906 34.3800 0.0000 -9.5067 0.0000
# 3 25.1389 34.3800 102.4953 0.0000 -15.2008 0.0000
# 4 0.0000 0.0000 0.0000 26.1594 0.0000 -5.1413
# 5 -16.0922 -9.5067 -15.2008 0.0000 31.7751 0.0000
# 6 0.0000 0.0000 0.0000 -5.1413 0.0000 22.8842
#
#
#
# Elastic Compliance Matrix: (Units=1/GPa)
#
#
# Indices 1 2 3 4 5 6 
#
# 1 0.019344 -0.005608 -0.001786 0.000000 0.007264 0.000000
# 2 -0.005608 0.013674 -0.003257 0.000000 -0.000307 0.000000
# 3 -0.001786 -0.003257 0.011849 0.000000 0.003790 0.000000
# 4 0.000000 0.000000 0.000000 0.039993 0.000000 0.008985
# 5 0.007264 -0.000307 0.003790 0.000000 0.036871 0.000000
# 6 0.000000 0.000000 0.000000 0.008985 0.000000 0.045717
#
#
# Mechanical properties :
#
#
# Convention : Reuss Voigt Hill
#
# Bulk Modulus (GPa) = 42.43590 50.60307 46.51949
# Shear Modulus (GPa) = 25.43168 27.75316 26.59242
#
# Velocity S-wave (km/s) = 3.58875 3.74897 3.66974
# Velocity P-wave (km/s) = 6.21793 6.66080 6.44317
#
# Compressibility (1/GPa) = 0.02356495
#
# Stress axis : x y z
#
# Youngs Moduli (GPa) = 51.69612 73.13020 84.39534
#
# Poissons Ratio (x) = 0.41015 0.15072
# Poissons Ratio (y) = 0.28994 0.27485
# Poissons Ratio (z) = 0.09232 0.23816
#
# Static dielectric constant tensor:
#      x y z
#    x 1.681690 0.000000 -0.016550 
#    y 0.000000 1.678140 0.000000 
#    z -0.016550 0.000000 1.729330 
# 
# From -- ./inp_files/180632.got.cif
#   From: 2010.05.17/outbox.cif.g08.bks.cpg/sg12_91_cif.got.tgz:180632.got - 2010.06.03 13:09:07.
