data_PCOD9207529
_publ_section_title
;
Structure prediction by ZEFSAII (Michael W. Deem and Ramdas Pophale) SiO2 
 PCOD9207529
Probable space group: C 2/M
;
_chemical_formula_sum "Si O2"
_cell_formula_units_Z 64
_cell_length_a 14.767806
_cell_length_b 9.022480
_cell_length_c 24.591837
_cell_angle_alpha 90.000000
_cell_angle_beta 89.742628
_cell_angle_gamma 90.000000
_cell_volume 3276.638249
_symmetry_space_group_name_H-M "C 2/M"
_symmetry_group_IT_number 12
_symmetry_cell_setting 'monoclinic'
loop_
_space_group_symop_operation_xyz
x,y,z
-x,y,-z
-x,-y,-z
x,-y,z
1/2+x,1/2+y,z
1/2-x,1/2+y,-z
1/2-x,1/2-y,-z
1/2+x,1/2-y,z
loop_
_atom_site_type_symbol
_atom_site_label
_atom_site_fract_x
_atom_site_fract_y
_atom_site_fract_z
Si Si1 0.894513 0.677902 0.504750
Si Si2 0.246797 0.176890 0.414358
Si Si3 0.605332 0.666179 0.902567
Si Si4 0.426975 0.174075 0.775509
Si Si5 0.767318 0.323632 0.702150
Si Si6 0.140060 0.676935 0.793133
Si Si7 0.105583 0.164241 0.118714
Si Si8 0.846381 0.675747 0.990682
O O1 0.891241 0.500000 0.513899
O O2 0.839174 0.758061 0.552718
O O3 0.836271 0.709267 0.450396
O O4 0.000000 0.720975 0.500000
O O5 0.252026 0.249642 0.355394
O O6 0.238749 0.000000 0.409814
O O7 0.644178 0.500000 0.910269
O O8 0.653542 0.755083 0.853717
O O9 0.502681 0.650181 0.883553
O O10 0.599011 0.752808 0.959428
O O11 0.371690 0.201428 0.720559
O O12 0.534567 0.203554 0.775783
O O13 0.377722 0.268240 0.822462
O O14 0.416851 0.000000 0.789211
O O15 0.752599 0.500000 0.699647
O O16 0.703668 0.254154 0.748829
O O17 0.154164 0.500000 0.794682
O O18 0.145941 0.000000 0.110684
O O19 0.128017 0.272595 0.069479
O O20 0.847297 0.500000 0.995258
O O21 0.750000 0.750000 0.000000
#
# Coordination Sequence:
#
# PCOD9207529 Si02
#       8
#     8   8   8   8   8   8   8   8
#     4   9  19  38  63  88 120 162 200 238 289 345
#     4  10  21  37  58  89 123 155 199 246 288 341
#     4  10  21  39  60  82 110 143 181 230 289 355
#     4   9  21  40  60  82 112 154 198 238 289 354
#     4  11  23  39  60  85 120 161 198 243 295 346
#     4  10  21  39  61  85 113 150 198 245 291 349
#     4  10  21  38  60  83 109 141 181 232 290 351
#     4  12  25  38  55  80 110 143 183 232 286 351
#
# _framework density 19.532212999999999
#
# number of rings (size 3 to 8) (size 9 to 14) (size 15 to 20)
#    0.000    1.875    0.000    3.375    1.750    6.250 
#    0.000    5.000    0.000    0.000    0.000    0.000 
#    0.000    0.000    0.000    0.000    0.000    0.000 
#
# Total GULP energy -178666.363954 kJ/mol
# GULP energy per Si atom -5583.323874 kJ/mol
# Density = 1.948776 g / cm^3
# Si number density = 19.532213 Si / 1000 Ang^3
#
#
#
# Elastic Constant Matrix: (Units=GPa)
#
#
# Indices 1 2 3 4 5 6 
#
# 1 74.6684 35.1925 28.4731 0.0000 1.0862 0.0000
# 2 35.1925 104.5717 55.0181 0.0000 4.3379 0.0000
# 3 28.4731 55.0181 114.3253 0.0000 3.9443 0.0000
# 4 0.0000 0.0000 0.0000 39.5012 0.0000 -4.4428
# 5 1.0862 4.3379 3.9443 0.0000 18.2651 0.0000
# 6 0.0000 0.0000 0.0000 -4.4428 0.0000 26.6121
#
#
#
# Elastic Compliance Matrix: (Units=1/GPa)
#
#
# Indices 1 2 3 4 5 6 
#
# 1 0.016222 -0.004480 -0.001902 0.000000 0.000510 0.000000
# 2 -0.004480 0.014096 -0.005603 0.000000 -0.001871 0.000000
# 3 -0.001902 -0.005603 0.011956 0.000000 -0.001138 0.000000
# 4 0.000000 0.000000 0.000000 0.025800 0.000000 0.004307
# 5 0.000510 -0.001871 -0.001138 0.000000 0.055409 0.000000
# 6 0.000000 0.000000 0.000000 0.004307 0.000000 0.038296
#
#
# Mechanical properties :
#
#
# Convention : Reuss Voigt Hill
#
# Bulk Modulus (GPa) = 54.63173 58.99253 56.81213
# Shear Modulus (GPa) = 26.06187 28.53445 27.29816
#
# Velocity S-wave (km/s) = 3.65677 3.82631 3.74250
# Velocity P-wave (km/s) = 6.77201 7.05614 6.91553
#
# Compressibility (1/GPa) = 0.01830438
#
# Stress axis : x y z
#
# Youngs Moduli (GPa) = 61.64557 70.94112 83.63671
#
# Poissons Ratio (x) = 0.31780 0.15906
# Poissons Ratio (y) = 0.27616 0.46865
# Poissons Ratio (z) = 0.11724 0.39751
#
# Static dielectric constant tensor:
#      x y z
#    x 1.712280 0.000000 0.104480 
#    y 0.000000 1.682460 0.000000 
#    z 0.104480 0.000000 1.719550 
# 
# From -- ./inp_files/338938.got.cif
#   From: 2010.05.17/outbox.cif.g08.bks.cpg/sg12_170_cif.got.tgz:338938.got - 2010.06.03 13:09:07.
