data_PCOD9207218
_publ_section_title
;
Structure prediction by ZEFSAII (Michael W. Deem and Ramdas Pophale) SiO2 
 PCOD9207218
Probable space group: C 2/M
;
_chemical_formula_sum "Si O2"
_cell_formula_units_Z 48
_cell_length_a 31.838820
_cell_length_b 8.480079
_cell_length_c 18.391283
_cell_angle_alpha 90.000000
_cell_angle_beta 150.049281
_cell_angle_gamma 90.000000
_cell_volume 2479.084065
_symmetry_space_group_name_H-M "C 2/M"
_symmetry_group_IT_number 12
_symmetry_cell_setting 'monoclinic'
loop_
_space_group_symop_operation_xyz
x,y,z
-x,y,-z
-x,-y,-z
x,-y,z
1/2+x,1/2+y,z
1/2-x,1/2+y,-z
1/2-x,1/2-y,-z
1/2+x,1/2-y,z
loop_
_atom_site_type_symbol
_atom_site_label
_atom_site_fract_x
_atom_site_fract_y
_atom_site_fract_z
Si Si1 0.664930 0.810857 0.582527
Si Si2 0.666780 0.810813 0.915033
Si Si3 0.000566 0.692429 0.917035
Si Si4 0.331911 0.809281 0.580846
Si Si5 0.000975 0.810881 0.585575
Si Si6 0.169678 0.309019 0.087850
O O1 0.667844 0.757606 0.502793
O O2 0.582055 0.747334 0.497844
O O3 0.747808 0.754126 0.748643
O O4 0.661849 0.000000 0.578499
O O5 0.583914 0.750643 0.750133
O O6 0.666682 0.000000 0.913680
O O7 0.750000 0.750000 0.000000
O O8 0.666964 0.759534 0.999605
O O9 0.000381 0.500000 0.916694
O O10 0.916818 0.743419 0.749075
O O11 0.000000 0.744000 0.000000
O O12 0.085227 0.742413 0.002894
O O13 0.250000 0.750000 0.500000
O O14 0.331177 0.000000 0.580532
O O15 0.000000 0.757605 0.500000
O O16 0.002122 0.000000 0.587798
O O17 0.172375 0.500000 0.093637
#
# Coordination Sequence:
#
# PCOD9207218 Si02
#       6
#     8   8   8   8   8   8
#     4  11  23  38  58  86 119 153 192 241 293 344
#     4  11  23  39  60  86 117 152 192 240 291 344
#     4   9  17  32  56  81 106 142 186 228 275 334
#     4  10  21  37  57  84 116 150 191 238 289 346
#     4  11  24  41  61  86 116 153 197 240 287 348
#     4  10  21  38  59  83 113 150 191 235 286 346
#
# _framework density 19.361989999999999
#
# number of rings (size 3 to 8) (size 9 to 14) (size 15 to 20)
#    0.000    1.667    0.000    4.500    0.000   12.000 
#    0.000    0.833    0.000    3.000    0.000    0.000 
#    0.000    0.000    0.000    0.000    0.000    0.000 
#
# Total GULP energy -134192.279282 kJ/mol
# GULP energy per Si atom -5591.344970 kJ/mol
# Density = 1.931792 g / cm^3
# Si number density = 19.361990 Si / 1000 Ang^3
#
#
#
# Elastic Constant Matrix: (Units=GPa)
#
#
# Indices 1 2 3 4 5 6 
#
# 1 246.0909 39.5596 151.5000 0.0000 -1.1865 0.0000
# 2 39.5596 22.8413 36.1555 0.0000 -2.9983 0.0000
# 3 151.5000 36.1555 244.6089 0.0000 -0.4147 0.0000
# 4 0.0000 0.0000 0.0000 34.2792 0.0000 6.2601
# 5 -1.1865 -2.9983 -0.4147 0.0000 46.9991 0.0000
# 6 0.0000 0.0000 0.0000 6.2601 0.0000 27.6186
#
#
#
# Elastic Compliance Matrix: (Units=1/GPa)
#
#
# Indices 1 2 3 4 5 6 
#
# 1 0.007389 -0.007301 -0.003498 0.000000 -0.000310 0.000000
# 2 -0.007301 0.064973 -0.005075 0.000000 0.003916 0.000000
# 3 -0.003498 -0.005075 0.007004 0.000000 -0.000350 0.000000
# 4 0.000000 0.000000 0.000000 0.030432 0.000000 -0.006898
# 5 -0.000310 0.003916 -0.000350 0.000000 0.021516 0.000000
# 6 0.000000 0.000000 0.000000 -0.006898 0.000000 0.037771
#
#
# Mechanical properties :
#
#
# Convention : Reuss Voigt Hill
#
# Bulk Modulus (GPa) = 21.00048 107.55237 64.27642
# Shear Modulus (GPa) = 23.07280 40.86777 31.97028
#
# Velocity S-wave (km/s) = 3.45578 4.59924 4.06789
# Velocity P-wave (km/s) = 5.17620 9.15821 7.43861
#
# Compressibility (1/GPa) = 0.04761796
#
# Stress axis : x y z
#
# Youngs Moduli (GPa) = 135.33452 15.39104 142.77494
#
# Poissons Ratio (x) = 0.11238 0.49940
# Poissons Ratio (y) = 0.98814 0.72454
# Poissons Ratio (z) = 0.47337 0.07811
#
# Static dielectric constant tensor:
#      x y z
#    x 1.673120 0.000000 0.012300 
#    y 0.000000 1.614030 0.000000 
#    z 0.012300 0.000000 1.669670 
# 
# From -- ./inp_files/295337.got.cif
#   From: 2010.05.17/outbox.cif.g08.bks.cpg/sg12_148_cif.got.tgz:295337.got - 2010.06.03 13:09:07.
