data_PCOD9207951
_publ_section_title
;
Structure prediction by ZEFSAII (Michael W. Deem and Ramdas Pophale) SiO2 
 PCOD9207951
Probable space group: C 2/M
;
_chemical_formula_sum "Si O2"
_cell_formula_units_Z 32
_cell_length_a 13.037378
_cell_length_b 11.970877
_cell_length_c 16.186845
_cell_angle_alpha 90.000000
_cell_angle_beta 152.164152
_cell_angle_gamma 90.000000
_cell_volume 1179.612902
_symmetry_space_group_name_H-M "C 2/M"
_symmetry_group_IT_number 12
_symmetry_cell_setting 'monoclinic'
loop_
_space_group_symop_operation_xyz
x,y,z
-x,y,-z
-x,-y,-z
x,-y,z
1/2+x,1/2+y,z
1/2-x,1/2+y,-z
1/2-x,1/2-y,-z
1/2+x,1/2-y,z
loop_
_atom_site_type_symbol
_atom_site_label
_atom_site_fract_x
_atom_site_fract_y
_atom_site_fract_z
Si Si1 0.304162 0.882682 0.476086
Si Si2 0.629818 0.121852 0.006060
Si Si3 0.275238 0.627457 0.890194
Si Si4 0.716741 0.345157 0.602688
O O1 0.561070 0.873712 0.680033
O O2 0.249408 0.786875 0.374500
O O3 0.195683 0.873333 0.490368
O O4 0.251669 0.000000 0.400425
O O5 0.440546 0.113560 0.801919
O O6 0.751454 0.000000 0.093150
O O7 0.500000 0.123889 0.000000
O O8 0.738728 0.246235 0.079381
O O9 0.273942 0.500000 0.928420
O O10 0.500000 0.630413 0.000000
O O11 0.500000 0.374854 0.500000
#
# Coordination Sequence:
#
# PCOD9207951 Si02
#       4
#     8   8   8   8
#     4  10  23  42  65  96 129 167 221 273 323 391
#     4  10  21  37  60  92 127 166 213 263 320 387
#     4   9  18  37  62  87 122 166 209 259 319 381
#     4  11  23  41  65  93 131 173 215 268 330 389
#
# _framework density 27.127542999999999
#
# number of rings (size 3 to 8) (size 9 to 14) (size 15 to 20)
#    0.000    2.000    0.000    3.750    0.000    4.500 
#    0.000    8.750    0.000    0.000    0.000    0.000 
#    0.000    0.000    0.000    0.000    0.000    0.000 
#
# Total GULP energy -89391.757367 kJ/mol
# GULP energy per Si atom -5586.984835 kJ/mol
# Density = 2.706580 g / cm^3
# Si number density = 27.127543 Si / 1000 Ang^3
#
#
#
# Elastic Constant Matrix: (Units=GPa)
#
#
# Indices 1 2 3 4 5 6 
#
# 1 119.8408 13.5696 24.3909 0.0027 20.0411 0.0000
# 2 13.5696 347.3692 48.4403 0.0116 -0.1211 -0.0003
# 3 24.3909 48.4403 83.2740 0.0093 21.8132 -0.0021
# 4 0.0027 0.0116 0.0093 49.2054 0.0045 -12.9095
# 5 20.0411 -0.1211 21.8132 0.0045 42.5866 -0.0015
# 6 0.0000 -0.0003 -0.0021 -12.9095 -0.0015 -26.3035
#
#
#
# Elastic Compliance Matrix: (Units=1/GPa)
#
#
# Indices 1 2 3 4 5 6 
#
# 1 0.009295 -0.000122 -0.001739 0.000000 -0.003484 0.000000
# 2 -0.000122 0.003179 -0.002115 0.000000 0.001149 0.000000
# 3 -0.001739 -0.002115 0.015633 -0.000002 -0.007195 0.000000
# 4 0.000000 0.000000 -0.000002 0.018005 -0.000001 -0.008837
# 5 -0.003484 0.001149 -0.007195 -0.000001 0.028809 0.000000
# 6 0.000000 0.000000 0.000000 -0.008837 0.000000 -0.033681
#
#
# Mechanical properties :
#
#
# Convention : Reuss Voigt Hill
#
# Bulk Modulus (GPa) = 49.61461 80.36508 64.98984
# Shear Modulus (GPa) = 89.43200 44.03657 66.73429
#
# Velocity S-wave (km/s) = 5.74794 4.03341 4.96524
# Velocity P-wave (km/s) = 7.89815 7.16801 7.54192
#
# Compressibility (1/GPa) = 0.02015535
#
# Stress axis : x y z
#
# Youngs Moduli (GPa) = 107.58802 314.58344 63.96914
#
# Poissons Ratio (x) = 0.03831 0.11125
# Poissons Ratio (y) = 0.01310 0.13526
# Poissons Ratio (z) = 0.18710 0.66519
#
# Static dielectric constant tensor:
#      x y z
#    x 2.097100 0.000000 -0.001340 
#    y 0.000000 2.210670 0.000000 
#    z -0.001340 0.000000 1.978220 
# 
# From -- ./inp_files/56493.got.cif
#   From: 2010.05.17/outbox.cif.g08.bks.cpg/sg12_29_cif.got.tgz:56493.got - 2010.06.03 13:09:07.
