data_PCOD9207626
_publ_section_title
;
Structure prediction by ZEFSAII (Michael W. Deem and Ramdas Pophale) SiO2 
 PCOD9207626
Probable space group: C 2/M
;
_chemical_formula_sum "Si O2"
_cell_formula_units_Z 36
_cell_length_a 14.075210
_cell_length_b 25.353676
_cell_length_c 8.490112
_cell_angle_alpha 90.000000
_cell_angle_beta 31.626657
_cell_angle_gamma 90.000000
_cell_volume 1588.755662
_symmetry_space_group_name_H-M "C 2/M"
_symmetry_group_IT_number 12
_symmetry_cell_setting 'monoclinic'
loop_
_space_group_symop_operation_xyz
x,y,z
-x,y,-z
-x,-y,-z
x,-y,z
1/2+x,1/2+y,z
1/2-x,1/2+y,-z
1/2-x,1/2-y,-z
1/2+x,1/2-y,z
loop_
_atom_site_type_symbol
_atom_site_label
_atom_site_fract_x
_atom_site_fract_y
_atom_site_fract_z
Si Si1 0.540146 0.562887 0.763601
Si Si2 0.386477 0.268496 0.517840
Si Si3 0.000000 0.779747 0.000000
Si Si4 0.820184 0.631620 0.177931
Si Si5 0.851617 0.562474 0.837668
O O1 0.582725 0.500000 0.699932
O O2 0.702397 0.596709 0.463908
O O3 0.500000 0.578372 0.000000
O O4 0.354128 0.570822 0.930254
O O5 0.500000 0.243128 0.500000
O O6 0.215567 0.233452 0.710087
O O7 0.483564 0.287393 0.219496
O O8 0.301216 0.321444 0.713627
O O9 0.882759 0.593511 0.952356
O O10 0.000000 0.656700 0.000000
O O11 0.873360 0.500000 0.833602
O O12 0.000000 0.578392 0.500000
#
# Coordination Sequence:
#
# PCOD9207626 Si02
#       5
#     8   8   4   8   8
#     4  10  21  37  59  86 122 167 212 260 319 376
#     4  11  23  45  70 100 131 169 212 269 329 395
#     4  10  24  46  72  98 130 168 214 266 330 412
#     4  12  24  39  59  92 128 164 217 265 315 380
#     4  10  21  39  60  88 125 170 217 264 321 381
#
# _framework density 22.659241999999999
#
# number of rings (size 3 to 8) (size 9 to 14) (size 15 to 20)
#    0.000    1.333    1.111    4.667    1.556    5.333 
#    4.000    1.111    0.000    0.000    0.000    0.000 
#    0.000    0.000    0.000    0.000    0.000    0.000 
#
# Total GULP energy -100286.373633 kJ/mol
# GULP energy per Si atom -5571.465202 kJ/mol
# Density = 2.260767 g / cm^3
# Si number density = 22.659242 Si / 1000 Ang^3
#
#
#
# Elastic Constant Matrix: (Units=GPa)
#
#
# Indices 1 2 3 4 5 6 
#
# 1 106.8639 9.1093 13.7599 0.0000 -1.2591 0.0000
# 2 9.1093 72.5240 51.3688 -0.0001 -1.0264 -0.0001
# 3 13.7599 51.3688 114.1203 0.0001 4.8188 0.0001
# 4 0.0000 -0.0001 0.0001 45.7523 -0.0001 25.7980
# 5 -1.2591 -1.0264 4.8188 -0.0001 34.3181 -0.0001
# 6 0.0000 -0.0001 0.0001 25.7980 -0.0001 40.7267
#
#
#
# Elastic Compliance Matrix: (Units=1/GPa)
#
#
# Indices 1 2 3 4 5 6 
#
# 1 0.009528 -0.000532 -0.000929 0.000000 0.000464 0.000000
# 2 -0.000532 0.020395 -0.009196 0.000000 0.001882 0.000000
# 3 -0.000929 -0.009196 0.013105 0.000000 -0.002149 0.000000
# 4 0.000000 0.000000 0.000000 0.034001 0.000000 -0.021538
# 5 0.000464 0.001882 -0.002149 0.000000 0.029514 0.000000
# 6 0.000000 0.000000 0.000000 -0.021538 0.000000 0.038197
#
#
# Mechanical properties :
#
#
# Convention : Reuss Voigt Hill
#
# Bulk Modulus (GPa) = 46.05248 49.10935 47.58092
# Shear Modulus (GPa) = 28.85295 38.77744 33.81519
#
# Velocity S-wave (km/s) = 3.57226 4.14131 3.86727
# Velocity P-wave (km/s) = 6.11415 6.67737 6.40196
#
# Compressibility (1/GPa) = 0.02171435
#
# Stress axis : x y z
#
# Youngs Moduli (GPa) = 104.95228 49.03052 76.30820
#
# Poissons Ratio (x) = 0.02610 0.07088
# Poissons Ratio (y) = 0.05587 0.70172
# Poissons Ratio (z) = 0.09748 0.45088
#
# Static dielectric constant tensor:
#      x y z
#    x 1.880030 0.000000 -0.023470 
#    y 0.000000 1.869030 0.000000 
#    z -0.023470 0.000000 1.840820 
# 
# From -- ./inp_files/40640.got.cif
#   From: 2010.05.17/outbox.cif.g08.bks.cpg/sg12_21_cif.got.tgz:40640.got - 2010.06.03 13:09:07.
