data_PCOD9207338
_publ_section_title
;
Structure prediction by ZEFSAII (Michael W. Deem and Ramdas Pophale) SiO2 
 PCOD9207338
Probable space group: C 2/M
;
_chemical_formula_sum "Si O2"
_cell_formula_units_Z 42
_cell_length_a 10.303294
_cell_length_b 8.807564
_cell_length_c 31.563067
_cell_angle_alpha 90.000000
_cell_angle_beta 47.158239
_cell_angle_gamma 90.000000
_cell_volume 2100.167615
_symmetry_space_group_name_H-M "C 2/M"
_symmetry_group_IT_number 12
_symmetry_cell_setting 'monoclinic'
loop_
_space_group_symop_operation_xyz
x,y,z
-x,y,-z
-x,-y,-z
x,-y,z
1/2+x,1/2+y,z
1/2-x,1/2+y,-z
1/2-x,1/2-y,-z
1/2+x,1/2-y,z
loop_
_atom_site_type_symbol
_atom_site_label
_atom_site_fract_x
_atom_site_fract_y
_atom_site_fract_z
Si Si1 0.149038 0.168555 0.096198
Si Si2 0.764660 0.182976 0.334205
Si Si3 0.441100 0.182603 0.466130
Si Si4 0.859264 0.318713 0.732031
Si Si5 0.191494 0.681989 0.853465
Si Si6 0.500000 0.000000 0.000000
O O1 0.190157 0.237862 0.133390
O O2 0.011843 0.264851 0.099745
O O3 0.063906 0.000000 0.121182
O O4 0.341499 0.129908 0.034980
O O5 0.590321 0.228308 0.399133
O O6 0.735721 0.219399 0.291178
O O7 0.938307 0.263019 0.313625
O O8 0.785840 0.000000 0.333094
O O9 0.500000 0.228260 0.500000
O O10 0.250000 0.250000 0.500000
O O11 0.429759 0.000000 0.467219
O O12 0.853689 0.500000 0.738415
O O13 0.767807 0.238085 0.792156
O O14 0.193795 0.500000 0.856461
#
# Coordination Sequence:
#
# PCOD9207338 Si02
#       6
#     8   8   8   8   8   2
#     4   9  21  40  60  84 117 151 185 232 280 333
#     4  10  22  39  56  83 118 150 191 241 288 339
#     4  10  21  37  58  83 113 151 193 239 289 341
#     4  11  23  37  58  85 115 153 191 236 288 343
#     4  11  22  38  60  89 116 150 192 234 285 340
#     4   8  20  44  62  82 120 156 182 234 282 328
#
# _framework density 19.998403
#
# number of rings (size 3 to 8) (size 9 to 14) (size 15 to 20)
#    0.571    1.333    0.000    3.429    0.000    9.524 
#    0.000    0.476    0.000    0.000    0.000    0.000 
#    0.000    0.000    0.000    0.000    0.000    0.000 
#
# Total GULP energy -116980.976656 kJ/mol
# GULP energy per Si atom -5570.522698 kJ/mol
# Density = 1.995289 g / cm^3
# Si number density = 19.998403 Si / 1000 Ang^3
#
#
#
# Elastic Constant Matrix: (Units=GPa)
#
#
# Indices 1 2 3 4 5 6 
#
# 1 70.5676 18.9405 2.4972 0.0000 2.3040 0.0000
# 2 18.9405 19.7622 -0.8736 0.0000 0.5779 0.0000
# 3 2.4972 -0.8736 45.9479 0.0000 -13.7521 0.0000
# 4 0.0000 0.0000 0.0000 32.0251 0.0000 -16.7498
# 5 2.3040 0.5779 -13.7521 0.0000 35.7328 0.0000
# 6 0.0000 0.0000 0.0000 -16.7498 0.0000 29.4076
#
#
#
# Elastic Compliance Matrix: (Units=1/GPa)
#
#
# Indices 1 2 3 4 5 6 
#
# 1 0.019255 -0.018490 -0.001899 0.000000 -0.001673 0.000000
# 2 -0.018490 0.068407 0.002635 0.000000 0.001100 0.000000
# 3 -0.001899 0.002635 0.024797 0.000000 0.009623 0.000000
# 4 0.000000 0.000000 0.000000 0.044475 0.000000 0.025332
# 5 -0.001673 0.001100 0.009623 0.000000 0.031779 0.000000
# 6 0.000000 0.000000 0.000000 0.025332 0.000000 0.048433
#
#
# Mechanical properties :
#
#
# Convention : Reuss Voigt Hill
#
# Bulk Modulus (GPa) = 12.99521 19.71180 16.35350
# Shear Modulus (GPa) = 16.76140 27.14732 21.95436
#
# Velocity S-wave (km/s) = 2.89820 3.68839 3.31691
# Velocity P-wave (km/s) = 4.20852 5.29311 4.78167
#
# Compressibility (1/GPa) = 0.07695143
#
# Stress axis : x y z
#
# Youngs Moduli (GPa) = 51.93375 14.61845 40.32703
#
# Poissons Ratio (x) = 0.27029 0.07657
# Poissons Ratio (y) = 0.96024 -0.10624
# Poissons Ratio (z) = 0.09861 -0.03851
#
# Static dielectric constant tensor:
#      x y z
#    x 1.669400 0.000000 0.012190 
#    y 0.000000 1.682400 0.000000 
#    z 0.012190 0.000000 1.742300 
# 
# From -- ./inp_files/371785.got.cif
#   From: 2010.05.17/outbox.cif.g08.bks.cpg/sg12_186_cif.got.tgz:371785.got - 2010.06.03 13:09:07.
