data_PCOD9207820
_publ_section_title
;
Structure prediction by ZEFSAII (Michael W. Deem and Ramdas Pophale) SiO2 
 PCOD9207820
Probable space group: C 2/M
;
_chemical_formula_sum "Si O2"
_cell_formula_units_Z 64
_cell_length_a 18.430751
_cell_length_b 8.782224
_cell_length_c 31.042658
_cell_angle_alpha 90.000000
_cell_angle_beta 137.879115
_cell_angle_gamma 90.000000
_cell_volume 3370.022711
_symmetry_space_group_name_H-M "C 2/M"
_symmetry_group_IT_number 12
_symmetry_cell_setting 'monoclinic'
loop_
_space_group_symop_operation_xyz
x,y,z
-x,y,-z
-x,-y,-z
x,-y,z
1/2+x,1/2+y,z
1/2-x,1/2+y,-z
1/2-x,1/2-y,-z
1/2+x,1/2-y,z
loop_
_atom_site_type_symbol
_atom_site_label
_atom_site_fract_x
_atom_site_fract_y
_atom_site_fract_z
Si Si1 0.581874 0.318717 0.427198
Si Si2 0.268193 0.183216 0.182401
Si Si3 0.368273 0.681718 0.060775
Si Si4 0.328286 0.318477 0.693781
Si Si5 0.262604 0.818748 0.575417
Si Si6 0.849843 0.682708 0.313401
Si Si7 0.560509 0.182205 0.816732
Si Si8 0.531985 0.181820 0.063199
O O1 0.587888 0.500000 0.422833
O O2 0.640965 0.234719 0.413639
O O3 0.652415 0.283741 0.500861
O O4 0.459264 0.264410 0.375948
O O5 0.319278 0.224267 0.251041
O O6 0.350734 0.221977 0.180423
O O7 0.153491 0.262947 0.125466
O O8 0.252117 0.000000 0.175080
O O9 0.362888 0.500000 0.058050
O O10 0.409850 0.739595 0.125250
O O11 0.450396 0.738772 0.060317
O O12 0.250000 0.750000 0.000000
O O13 0.345087 0.500000 0.700924
O O14 0.273735 0.265894 0.625379
O O15 0.249138 0.280275 0.698545
O O16 0.442884 0.236379 0.749763
O O17 0.269334 0.000000 0.584960
O O18 0.866717 0.500000 0.322355
O O19 0.561175 0.000000 0.822418
O O20 0.524374 0.000000 0.065299
O O21 0.500000 0.219371 0.000000
#
# Coordination Sequence:
#
# PCOD9207820 Si02
#       8
#     8   8   8   8   8   8   8   8
#     4  10  21  37  60  87 113 149 198 247 297 355
#     4  10  22  40  62  88 118 155 196 240 296 356
#     4  12  25  42  64  90 124 162 202 247 295 352
#     4  11  23  38  59  88 121 158 199 242 292 353
#     4  10  21  38  59  84 117 154 194 244 298 354
#     4  10  22  39  58  84 119 155 193 241 296 353
#     4  11  23  40  64  92 122 157 198 246 300 353
#     4  11  24  41  63  92 123 156 198 247 298 352
#
# _framework density 18.990970999999998
#
# number of rings (size 3 to 8) (size 9 to 14) (size 15 to 20)
#    0.000    1.375    0.000    5.250    0.000    9.500 
#    0.000    2.500    0.000    0.000    0.000    0.000 
#    0.000    0.000    0.000    0.000    0.000    0.000 
#
# Total GULP energy -179006.549100 kJ/mol
# GULP energy per Si atom -5593.954659 kJ/mol
# Density = 1.894775 g / cm^3
# Si number density = 18.990971 Si / 1000 Ang^3
#
#
#
# Elastic Constant Matrix: (Units=GPa)
#
#
# Indices 1 2 3 4 5 6 
#
# 1 159.1942 74.1890 82.7654 0.0000 -1.4907 0.0000
# 2 74.1890 70.2261 52.0938 0.0000 1.6256 0.0000
# 3 82.7654 52.0938 112.1212 0.0000 3.1880 0.0000
# 4 0.0000 0.0000 0.0000 35.9231 0.0000 5.1485
# 5 -1.4907 1.6256 3.1880 0.0000 39.6833 0.0000
# 6 0.0000 0.0000 0.0000 5.1485 0.0000 30.1616
#
#
#
# Elastic Compliance Matrix: (Units=1/GPa)
#
#
# Indices 1 2 3 4 5 6 
#
# 1 0.014295 -0.011104 -0.005434 0.000000 0.001428 0.000000
# 2 -0.011104 0.030354 -0.005873 0.000000 -0.001189 0.000000
# 3 -0.005434 -0.005873 0.015693 0.000000 -0.001224 0.000000
# 4 0.000000 0.000000 0.000000 0.028535 0.000000 -0.004871
# 5 0.001428 -0.001189 -0.001224 0.000000 0.025400 0.000000
# 6 0.000000 0.000000 0.000000 -0.004871 0.000000 0.033986
#
#
# Mechanical properties :
#
#
# Convention : Reuss Voigt Hill
#
# Bulk Modulus (GPa) = 64.42564 84.40422 74.41493
# Shear Modulus (GPa) = 25.21977 29.98649 27.60313
#
# Velocity S-wave (km/s) = 3.64811 3.97796 3.81660
# Velocity P-wave (km/s) = 7.19326 8.10184 7.66103
#
# Compressibility (1/GPa) = 0.01552177
#
# Stress axis : x y z
#
# Youngs Moduli (GPa) = 69.95684 32.94474 63.72159
#
# Poissons Ratio (x) = 0.36581 0.34623
# Poissons Ratio (y) = 0.77677 0.37422
# Poissons Ratio (z) = 0.38011 0.19348
#
# Static dielectric constant tensor:
#      x y z
#    x 1.625350 0.000000 -0.007320 
#    y 0.000000 1.643650 0.000000 
#    z -0.007320 0.000000 1.630920 
# 
# From -- ./inp_files/378321.got.cif
#   From: 2010.05.17/outbox.cif.g08.bks.cpg/sg12_190_cif.got.tgz:378321.got - 2010.06.03 13:09:07.
