data_PCOD9207483
_publ_section_title
;
Structure prediction by ZEFSAII (Michael W. Deem and Ramdas Pophale) SiO2 
 PCOD9207483
Probable space group: C 2/M
;
_chemical_formula_sum "Si O2"
_cell_formula_units_Z 44
_cell_length_a 24.851051
_cell_length_b 16.187676
_cell_length_c 21.144468
_cell_angle_alpha 90.000000
_cell_angle_beta 14.450892
_cell_angle_gamma 90.000000
_cell_volume 2122.676459
_symmetry_space_group_name_H-M "C 2/M"
_symmetry_group_IT_number 12
_symmetry_cell_setting 'monoclinic'
loop_
_space_group_symop_operation_xyz
x,y,z
-x,y,-z
-x,-y,-z
x,-y,z
1/2+x,1/2+y,z
1/2-x,1/2+y,-z
1/2-x,1/2-y,-z
1/2+x,1/2-y,z
loop_
_atom_site_type_symbol
_atom_site_label
_atom_site_fract_x
_atom_site_fract_y
_atom_site_fract_z
Si Si1 0.469825 0.594818 0.961765
Si Si2 0.048685 0.804441 0.751412
Si Si3 0.888991 0.094739 0.439269
Si Si4 0.500000 0.153939 0.500000
Si Si5 0.583652 0.096482 0.974923
Si Si6 0.128074 0.791206 0.266959
O O1 0.543028 0.500000 0.870785
O O2 0.212395 0.601609 0.245937
O O3 0.500000 0.620208 0.000000
O O4 0.574817 0.655536 0.791098
O O5 0.250000 0.750000 0.500000
O O6 0.030318 0.876847 0.720873
O O7 0.832421 0.750262 0.999623
O O8 0.629808 0.102328 0.738719
O O9 0.994741 0.151950 0.371883
O O10 0.944037 0.000000 0.389789
O O11 0.486332 0.216849 0.456474
O O12 0.652780 0.000000 0.893538
O O13 0.500000 0.119508 0.000000
O O14 0.765689 0.154366 0.797445
#
# Coordination Sequence:
#
# PCOD9207483 Si02
#       6
#     8   8   8   4   8   8
#     4  10  23  44  68  93 125 168 214 264 321 379
#     4  11  23  41  64  93 127 163 209 267 320 380
#     4  11  23  40  60  86 126 166 207 256 318 386
#     4  10  23  36  65  94 124 158 212 270 309 368
#     4  10  21  37  58  86 124 165 208 254 305 375
#     4  11  22  38  62  90 123 163 211 261 316 376
#
# _framework density 20.728546999999999
#
# number of rings (size 3 to 8) (size 9 to 14) (size 15 to 20)
#    0.000    1.455    1.818    3.000    2.545    2.909 
#    0.000    3.636    0.000    0.000    0.000    0.000 
#    0.000    0.000    0.000    0.000    0.000    0.000 
#
# Total GULP energy -122982.560894 kJ/mol
# GULP energy per Si atom -5590.116404 kJ/mol
# Density = 2.068137 g / cm^3
# Si number density = 20.728547 Si / 1000 Ang^3
#
#
#
# Elastic Constant Matrix: (Units=GPa)
#
#
# Indices 1 2 3 4 5 6 
#
# 1 85.8791 25.8747 3.6154 0.0209 11.7026 0.0040
# 2 25.8747 66.9557 27.2492 0.0025 7.7440 -0.0038
# 3 3.6154 27.2492 71.2039 0.0197 19.9045 -0.0317
# 4 0.0209 0.0025 0.0197 24.8721 -0.0195 7.5416
# 5 11.7026 7.7440 19.9045 -0.0195 24.1668 0.0124
# 6 0.0040 -0.0038 -0.0317 7.5416 0.0124 16.8342
#
#
#
# Elastic Compliance Matrix: (Units=1/GPa)
#
#
# Indices 1 2 3 4 5 6 
#
# 1 0.014492 -0.006260 0.003976 -0.000028 -0.008287 0.000021
# 2 -0.006260 0.020395 -0.008454 0.000019 0.003459 -0.000021
# 3 0.003976 -0.008454 0.021901 -0.000057 -0.017255 0.000076
# 4 -0.000028 0.000019 -0.000057 0.046526 0.000102 -0.020844
# 5 -0.008287 0.003459 -0.017255 0.000102 0.058495 -0.000119
# 6 0.000021 -0.000021 0.000076 -0.020844 -0.000119 0.068741
#
#
# Mechanical properties :
#
#
# Convention : Reuss Voigt Hill
#
# Bulk Modulus (GPa) = 28.31859 37.50193 32.91026
# Shear Modulus (GPa) = 18.95392 24.32792 21.64092
#
# Velocity S-wave (km/s) = 3.02716 3.42956 3.23463
# Velocity P-wave (km/s) = 5.09015 5.81496 5.46458
#
# Compressibility (1/GPa) = 0.03531249
#
# Stress axis : x y z
#
# Youngs Moduli (GPa) = 69.00210 49.03151 45.65957
#
# Poissons Ratio (x) = 0.30695 -0.18157
# Poissons Ratio (y) = 0.43198 0.38601
# Poissons Ratio (z) = -0.27439 0.41452
#
# Static dielectric constant tensor:
#      x y z
#    x 1.739070 -0.000010 0.017640 
#    y -0.000010 1.745800 0.000000 
#    z 0.017640 0.000000 1.735270 
# 
# From -- ./inp_files/285119.got.cif
#   From: 2010.05.17/outbox.cif.g08.bks.cpg/sg12_143_cif.got.tgz:285119.got - 2010.06.03 13:09:07.
