data_PCOD9207954
_publ_section_title
;
Structure prediction by ZEFSAII (Michael W. Deem and Ramdas Pophale) SiO2 
 PCOD9207954
Probable space group: C 2/M
;
_chemical_formula_sum "Si O2"
_cell_formula_units_Z 32
_cell_length_a 11.260055
_cell_length_b 27.347880
_cell_length_c 7.733358
_cell_angle_alpha 90.000000
_cell_angle_beta 35.535798
_cell_angle_gamma 90.000000
_cell_volume 1384.096877
_symmetry_space_group_name_H-M "C 2/M"
_symmetry_group_IT_number 12
_symmetry_cell_setting 'monoclinic'
loop_
_space_group_symop_operation_xyz
x,y,z
-x,y,-z
-x,-y,-z
x,-y,z
1/2+x,1/2+y,z
1/2-x,1/2+y,-z
1/2-x,1/2-y,-z
1/2+x,1/2-y,z
loop_
_atom_site_type_symbol
_atom_site_label
_atom_site_fract_x
_atom_site_fract_y
_atom_site_fract_z
Si Si1 0.151888 0.897240 0.162206
Si Si2 0.705575 0.500000 0.931276
Si Si3 0.357469 0.000000 0.384746
Si Si4 0.051527 0.202008 0.633783
Si Si5 0.000000 0.722039 0.000000
Si Si6 0.500000 0.914850 0.000000
O O1 0.000000 0.903437 0.500000
O O2 0.070111 0.847386 0.174960
O O3 0.133523 0.946320 0.074060
O O4 0.374334 0.890736 0.990925
O O5 0.289035 0.500000 0.281020
O O6 0.924139 0.500000 0.776038
O O7 0.346853 0.047392 0.277609
O O8 0.000000 0.218393 0.500000
O O9 0.980503 0.241588 0.858070
O O10 0.296958 0.193783 0.311593
#
# Coordination Sequence:
#
# PCOD9207954 Si02
#       6
#     8   4   4   8   4   4
#     4  10  21  37  60  92 129 169 215 259 319 388
#     4   9  17  35  59  89 134 169 215 265 305 377
#     4   8  16  33  62  84 117 180 224 260 310 361
#     4  10  22  42  72 100 128 166 220 273 335 395
#     4  10  22  45  74  97 128 168 218 281 339 392
#     4   9  18  37  60  85 124 176 218 261 321 371
#
# _framework density 23.119771
#
# number of rings (size 3 to 8) (size 9 to 14) (size 15 to 20)
#    0.000    2.500    0.000    1.875    0.000    4.000 
#    9.000    1.250   60.500    2.250    0.000    0.000 
#    0.000    0.000    0.000    0.000    0.000    0.000 
#
# Total GULP energy -89097.289143 kJ/mol
# GULP energy per Si atom -5568.580571 kJ/mol
# Density = 2.306715 g / cm^3
# Si number density = 23.119771 Si / 1000 Ang^3
#
#
#
# Elastic Constant Matrix: (Units=GPa)
#
#
# Indices 1 2 3 4 5 6 
#
# 1 55.3104 34.4804 -8.5346 0.0000 -13.1336 0.0000
# 2 34.4804 115.7998 4.9614 0.0000 -14.6720 0.0000
# 3 -8.5346 4.9614 47.3388 0.0000 -34.3210 0.0000
# 4 0.0000 0.0000 0.0000 -31.7982 0.0000 -11.0592
# 5 -13.1336 -14.6720 -34.3210 0.0000 43.7864 0.0000
# 6 0.0000 0.0000 0.0000 -11.0592 0.0000 46.7583
#
#
#
# Elastic Compliance Matrix: (Units=1/GPa)
#
#
# Indices 1 2 3 4 5 6 
#
# 1 0.034838 -0.007703 0.029632 0.000000 0.031095 0.000000
# 2 -0.007703 0.010895 -0.003611 0.000000 -0.001490 0.000000
# 3 0.029632 -0.003611 0.075076 0.000000 0.066525 0.000000
# 4 0.000000 0.000000 0.000000 -0.029058 0.000000 -0.006873
# 5 0.031095 -0.001490 0.066525 0.000000 0.083810 0.000000
# 6 0.000000 0.000000 0.000000 -0.006873 0.000000 0.019761
#
#
# Mechanical properties :
#
#
# Convention : Reuss Voigt Hill
#
# Bulk Modulus (GPa) = 6.35143 31.14040 18.74591
# Shear Modulus (GPa) = 23.67791 24.25209 23.96500
#
# Velocity S-wave (km/s) = 3.20369 3.24230 3.22306
# Velocity P-wave (km/s) = 4.05438 5.24549 4.68792
#
# Compressibility (1/GPa) = 0.15744497
#
# Stress axis : x y z
#
# Youngs Moduli (GPa) = 28.70459 91.78408 13.31982
#
# Poissons Ratio (x) = 0.70701 -0.39469
# Poissons Ratio (y) = 0.22111 0.04810
# Poissons Ratio (z) = -0.85058 0.33143
#
# Static dielectric constant tensor:
#      x y z
#    x 1.908730 0.000000 -0.128790 
#    y 0.000000 2.001740 0.000000 
#    z -0.128790 0.000000 1.952150 
# 
# From -- ./inp_files/53962.got.cif
#   From: 2010.05.17/outbox.cif.g08.bks.cpg/sg12_27_cif.got.tgz:53962.got - 2010.06.03 13:09:07.
