data_PCOD9207022
_publ_section_title
;
Structure prediction by ZEFSAII (Michael W. Deem and Ramdas Pophale) SiO2 
 PCOD9207022
Probable space group: C 2/M
;
_chemical_formula_sum "Si O2"
_cell_formula_units_Z 56
_cell_length_a 12.952042
_cell_length_b 13.677362
_cell_length_c 28.140195
_cell_angle_alpha 90.000000
_cell_angle_beta 38.603155
_cell_angle_gamma 90.000000
_cell_volume 3110.272399
_symmetry_space_group_name_H-M "C 2/M"
_symmetry_group_IT_number 12
_symmetry_cell_setting 'monoclinic'
loop_
_space_group_symop_operation_xyz
x,y,z
-x,y,-z
-x,-y,-z
x,-y,z
1/2+x,1/2+y,z
1/2-x,1/2+y,-z
1/2-x,1/2-y,-z
1/2+x,1/2-y,z
loop_
_atom_site_type_symbol
_atom_site_label
_atom_site_fract_x
_atom_site_fract_y
_atom_site_fract_z
Si Si1 0.424786 0.384901 0.297065
Si Si2 0.322662 0.227735 0.547198
Si Si3 0.602980 0.113602 0.575631
Si Si4 0.227224 0.888091 0.748312
Si Si5 0.810830 0.781115 0.056141
Si Si6 0.738789 0.778839 0.821677
Si Si7 0.888290 0.384616 0.954472
O O1 0.419224 0.500000 0.309414
O O2 0.275902 0.331019 0.377317
O O3 0.398373 0.373083 0.250069
O O4 0.597720 0.338444 0.250772
O O5 0.500000 0.265055 0.500000
O O6 0.361075 0.154848 0.489705
O O7 0.209770 0.317074 0.571040
O O8 0.410987 0.121636 0.659654
O O9 0.649047 0.000000 0.562117
O O10 0.206256 0.809139 0.796924
O O11 0.209808 0.000000 0.771989
O O12 0.732862 0.763973 0.135683
O O13 0.714834 0.853839 0.055434
O O14 0.819896 0.679174 0.023338
O O15 0.000000 0.811847 0.000000
O O16 0.577353 0.847834 0.880825
O O17 0.879604 0.500000 0.965886
#
# Coordination Sequence:
#
# PCOD9207022 Si02
#       7
#     8   8   8   8   8   8   8
#     4  11  22  35  55  84 112 148 191 236 284 332
#     4  11  21  36  59  81 110 149 191 244 283 333
#     4  10  21  37  56  81 109 145 191 237 286 340
#     4  10  21  37  57  80 112 150 190 231 280 339
#     4   9  21  39  60  86 116 149 184 230 272 335
#     4  11  21  38  57  84 119 148 186 229 283 334
#     4  10  21  39  62  87 114 149 187 229 278 331
#
# _framework density 18.004854999999999
#
# number of rings (size 3 to 8) (size 9 to 14) (size 15 to 20)
#    0.000    1.714    2.857    1.714    0.000    4.857 
#    0.000    8.571    0.000    0.857    0.000    0.000 
#    0.000    0.000    0.000    0.000    0.000    0.000 
#
# Total GULP energy -156329.750559 kJ/mol
# GULP energy per Si atom -5583.205377 kJ/mol
# Density = 1.796387 g / cm^3
# Si number density = 18.004855 Si / 1000 Ang^3
#
#
#
# Elastic Constant Matrix: (Units=GPa)
#
#
# Indices 1 2 3 4 5 6 
#
# 1 70.4805 27.7541 -2.5903 0.0000 5.6039 0.0000
# 2 27.7541 102.2794 12.2035 0.0000 5.2537 0.0000
# 3 -2.5903 12.2035 19.7721 -0.0001 1.3472 0.0000
# 4 0.0000 0.0000 -0.0001 21.4786 0.0000 -2.2833
# 5 5.6039 5.2537 1.3472 0.0000 21.7574 0.0000
# 6 0.0000 0.0000 0.0000 -2.2833 0.0000 18.8679
#
#
#
# Elastic Compliance Matrix: (Units=1/GPa)
#
#
# Indices 1 2 3 4 5 6 
#
# 1 0.016628 -0.004992 0.005492 0.000000 -0.003417 0.000000
# 2 -0.004992 0.012154 -0.008077 0.000000 -0.001149 0.000000
# 3 0.005492 -0.008077 0.056483 0.000000 -0.002961 0.000000
# 4 0.000000 0.000000 0.000000 0.047165 0.000000 0.005708
# 5 -0.003417 -0.001149 -0.002961 0.000000 0.047302 0.000000
# 6 0.000000 0.000000 0.000000 0.005708 0.000000 0.053691
#
#
# Mechanical properties :
#
#
# Convention : Reuss Voigt Hill
#
# Bulk Modulus (GPa) = 14.26315 29.69629 21.97972
# Shear Modulus (GPa) = 18.38590 22.76509 20.57549
#
# Velocity S-wave (km/s) = 3.19903 3.55968 3.38416
# Velocity P-wave (km/s) = 4.64587 5.78138 5.24445
#
# Compressibility (1/GPa) = 0.07011076
#
# Stress axis : x y z
#
# Youngs Moduli (GPa) = 60.14112 82.27425 17.70445
#
# Poissons Ratio (x) = 0.41069 -0.09723
# Poissons Ratio (y) = 0.30021 0.14301
# Poissons Ratio (z) = -0.33030 0.66457
#
# Static dielectric constant tensor:
#      x y z
#    x 1.614870 0.000000 -0.004400 
#    y 0.000000 1.575420 0.000000 
#    z -0.004400 0.000000 1.614140 
# 
# From -- ./inp_files/358177.got.cif
#   From: 2010.05.17/outbox.cif.g08.bks.cpg/sg12_180_cif.got.tgz:358177.got - 2010.06.03 13:09:07.
