data_PCOD9207907
_publ_section_title
;
Structure prediction by ZEFSAII (Michael W. Deem and Ramdas Pophale) SiO2 
 PCOD9207907
Probable space group: C 2/M
;
_chemical_formula_sum "Si O2"
_cell_formula_units_Z 60
_cell_length_a 17.935570
_cell_length_b 19.722966
_cell_length_c 12.556226
_cell_angle_alpha 90.000000
_cell_angle_beta 40.543563
_cell_angle_gamma 90.000000
_cell_volume 2887.202656
_symmetry_space_group_name_H-M "C 2/M"
_symmetry_group_IT_number 12
_symmetry_cell_setting 'monoclinic'
loop_
_space_group_symop_operation_xyz
x,y,z
-x,y,-z
-x,-y,-z
x,-y,z
1/2+x,1/2+y,z
1/2-x,1/2+y,-z
1/2-x,1/2-y,-z
1/2+x,1/2-y,z
loop_
_atom_site_type_symbol
_atom_site_label
_atom_site_fract_x
_atom_site_fract_y
_atom_site_fract_z
Si Si1 0.407573 0.077459 0.450970
Si Si2 0.776169 0.355910 0.423805
Si Si3 0.233443 0.078973 0.815505
Si Si4 0.000000 0.204558 0.500000
Si Si5 0.643645 0.078907 0.097323
Si Si6 0.399105 0.288570 0.029973
Si Si7 0.249294 0.660604 0.788826
Si Si8 0.561528 0.735403 0.665362
O O1 0.313330 0.083614 0.459927
O O2 0.343350 0.102480 0.626015
O O3 0.524772 0.106548 0.275712
O O4 0.438170 0.000000 0.442773
O O5 0.788405 0.367859 0.285181
O O6 0.647176 0.329193 0.580469
O O7 0.861636 0.295747 0.369493
O O8 0.267458 0.081013 0.902114
O O9 0.136082 0.134755 0.905383
O O10 0.208224 0.000000 0.814748
O O11 0.113379 0.160608 0.351790
O O12 0.031118 0.244639 0.574243
O O13 0.627256 0.000000 0.083695
O O14 0.687644 0.121626 0.950672
O O15 0.292123 0.238777 0.162759
O O16 0.500000 0.266591 0.000000
O O17 0.450056 0.278540 0.856980
#
# Coordination Sequence:
#
# PCOD9207907 Si02
#       8
#     8   8   8   4   8   8   8   8
#     4  10  21  37  60  90 123 161 207 251 307 377
#     4  10  21  39  59  84 124 163 198 251 312 364
#     4  10  23  41  60  89 128 167 209 256 313 374
#     4  10  24  40  59  88 125 158 210 250 310 374
#     4  10  22  41  65  92 126 164 208 262 314 366
#     4  12  23  39  64  92 125 164 211 263 311 367
#     4  11  24  42  62  94 127 163 209 264 307 375
#     4  10  21  38  59  86 120 159 204 251 303 369
#
# _framework density 20.781361
#
# number of rings (size 3 to 8) (size 9 to 14) (size 15 to 20)
#    0.000    1.600    1.333    2.800    3.733    5.600 
#    0.000    2.333    0.000    1.600    0.000    0.000 
#    0.000    0.000    0.000    0.000    0.000    0.000 
#
# Total GULP energy -167543.676072 kJ/mol
# GULP energy per Si atom -5584.789202 kJ/mol
# Density = 2.073406 g / cm^3
# Si number density = 20.781361 Si / 1000 Ang^3
#
#
#
# Elastic Constant Matrix: (Units=GPa)
#
#
# Indices 1 2 3 4 5 6 
#
# 1 85.0919 9.5462 30.0571 0.0000 12.7280 0.0000
# 2 9.5462 54.7428 20.4352 0.0000 0.0887 0.0000
# 3 30.0571 20.4352 76.6792 0.0000 19.7060 0.0000
# 4 0.0000 0.0000 0.0000 26.9998 0.0000 0.1168
# 5 12.7280 0.0887 19.7060 0.0000 38.3934 0.0000
# 6 0.0000 0.0000 0.0000 0.1168 0.0000 23.7985
#
#
#
# Elastic Compliance Matrix: (Units=1/GPa)
#
#
# Indices 1 2 3 4 5 6 
#
# 1 0.013803 -0.000658 -0.004677 0.000000 -0.002174 0.000000
# 2 -0.000658 0.020651 -0.006093 0.000000 0.003298 0.000000
# 3 -0.004677 -0.006093 0.018542 0.000000 -0.007953 0.000000
# 4 0.000000 0.000000 0.000000 0.037038 0.000000 -0.000182
# 5 -0.002174 0.003298 -0.007953 0.000000 0.030841 0.000000
# 6 0.000000 0.000000 0.000000 -0.000182 0.000000 0.042020
#
#
# Mechanical properties :
#
#
# Convention : Reuss Voigt Hill
#
# Bulk Modulus (GPa) = 33.17729 37.39898 35.28814
# Shear Modulus (GPa) = 25.53657 28.27006 26.90331
#
# Velocity S-wave (km/s) = 3.50926 3.69230 3.60194
# Velocity P-wave (km/s) = 5.69381 6.01772 5.85800
#
# Compressibility (1/GPa) = 0.03014110
#
# Stress axis : x y z
#
# Youngs Moduli (GPa) = 72.44869 48.42339 53.93131
#
# Poissons Ratio (x) = 0.03185 0.25221
# Poissons Ratio (y) = 0.04765 0.32862
# Poissons Ratio (z) = 0.33881 0.29506
#
# Static dielectric constant tensor:
#      x y z
#    x 1.736240 0.000000 0.001700 
#    y 0.000000 1.772430 0.000000 
#    z 0.001700 0.000000 1.743900 
# 
# From -- ./inp_files/159730.got.cif
#   From: 2010.05.17/outbox.cif.g08.bks.cpg/sg12_80_cif.got.tgz:159730.got - 2010.06.03 13:09:07.
