data_PCOD9207006
_publ_section_title
;
Structure prediction by ZEFSAII (Michael W. Deem and Ramdas Pophale) SiO2 
 PCOD9207006
Probable space group: C 2/M
;
_chemical_formula_sum "Si O2"
_cell_formula_units_Z 56
_cell_length_a 15.408760
_cell_length_b 8.876131
_cell_length_c 22.444464
_cell_angle_alpha 90.000000
_cell_angle_beta 80.166368
_cell_angle_gamma 90.000000
_cell_volume 3024.632128
_symmetry_space_group_name_H-M "C 2/M"
_symmetry_group_IT_number 12
_symmetry_cell_setting 'monoclinic'
loop_
_space_group_symop_operation_xyz
x,y,z
-x,y,-z
-x,-y,-z
x,-y,z
1/2+x,1/2+y,z
1/2-x,1/2+y,-z
1/2-x,1/2-y,-z
1/2+x,1/2-y,z
loop_
_atom_site_type_symbol
_atom_site_label
_atom_site_fract_x
_atom_site_fract_y
_atom_site_fract_z
Si Si1 0.666389 0.679991 0.187723
Si Si2 0.195689 0.683294 0.729095
Si Si3 0.898368 0.818114 0.496590
Si Si4 0.253682 0.326887 0.063820
Si Si5 0.223728 0.682037 0.590201
Si Si6 0.987374 0.320422 0.190214
Si Si7 0.459956 0.674215 0.067259
O O1 0.667293 0.500000 0.185780
O O2 0.731421 0.733372 0.232116
O O3 0.698309 0.741266 0.120229
O O4 0.569959 0.741906 0.210527
O O5 0.197659 0.500000 0.728354
O O6 0.212225 0.732380 0.659707
O O7 0.101732 0.728362 0.766601
O O8 0.853526 0.750272 0.442209
O O9 0.822049 0.779212 0.554320
O O10 0.000000 0.770845 0.500000
O O11 0.900434 0.000000 0.491255
O O12 0.224031 0.500000 0.062963
O O13 0.354954 0.324917 0.072852
O O14 0.250000 0.250000 0.000000
O O15 0.216695 0.500000 0.588146
O O16 0.994777 0.500000 0.192440
O O17 0.984979 0.269653 0.121683
O O18 0.489826 0.500000 0.072056
O O19 0.500000 0.728856 0.000000
#
# Coordination Sequence:
#
# PCOD9207006 Si02
#       7
#     8   8   8   8   8   8   8
#     4  11  22  39  59  81 112 150 189 233 290 348
#     4   9  20  38  58  80 113 154 191 232 287 347
#     4   9  18  33  55  85 119 151 189 236 280 329
#     4  11  22  36  57  84 114 146 186 234 288 346
#     4   9  18  35  57  81 113 154 194 232 280 335
#     4  11  22  38  58  82 109 143 190 238 285 343
#     4  10  21  37  56  80 109 141 180 230 286 344
#
# _framework density 18.514647
#
# number of rings (size 3 to 8) (size 9 to 14) (size 15 to 20)
#    0.000    2.000    1.429    2.143    0.000    3.429 
#    0.000    4.286    0.000    0.000    0.000    0.000 
#    0.000    0.000    0.000    0.000    0.000    0.000 
#
# Total GULP energy -156277.039134 kJ/mol
# GULP energy per Si atom -5581.322826 kJ/mol
# Density = 1.847251 g / cm^3
# Si number density = 18.514647 Si / 1000 Ang^3
#
#
#
# Elastic Constant Matrix: (Units=GPa)
#
#
# Indices 1 2 3 4 5 6 
#
# 1 162.4001 42.3383 84.2365 0.0000 8.7578 0.0000
# 2 42.3383 50.1237 39.3742 0.0000 3.1821 0.0000
# 3 84.2365 39.3742 155.6189 0.0000 1.5195 0.0000
# 4 0.0000 0.0000 0.0000 21.9290 0.0000 7.1647
# 5 8.7578 3.1821 1.5195 0.0000 18.6687 0.0000
# 6 0.0000 0.0000 0.0000 7.1647 0.0000 22.0198
#
#
#
# Elastic Compliance Matrix: (Units=1/GPa)
#
#
# Indices 1 2 3 4 5 6 
#
# 1 0.009659 -0.004821 -0.003976 0.000000 -0.003386 0.000000
# 2 -0.004821 0.027569 -0.004345 0.000000 -0.002084 0.000000
# 3 -0.003976 -0.004345 0.009660 0.000000 0.001820 0.000000
# 4 0.000000 0.000000 0.000000 0.051026 0.000000 -0.016603
# 5 -0.003386 -0.002084 0.001820 0.000000 0.055361 0.000000
# 6 0.000000 0.000000 0.000000 -0.016603 0.000000 0.050816
#
#
# Mechanical properties :
#
#
# Convention : Reuss Voigt Hill
#
# Bulk Modulus (GPa) = 48.53554 77.78230 63.15892
# Shear Modulus (GPa) = 21.07545 26.00306 23.53926
#
# Velocity S-wave (km/s) = 3.37755 3.75168 3.56952
# Velocity P-wave (km/s) = 6.44065 7.80187 7.15371
#
# Compressibility (1/GPa) = 0.02060346
#
# Stress axis : x y z
#
# Youngs Moduli (GPa) = 103.52774 36.27322 103.52281
#
# Poissons Ratio (x) = 0.17487 0.41158
# Poissons Ratio (y) = 0.49910 0.44985
# Poissons Ratio (z) = 0.41160 0.15762
#
# Static dielectric constant tensor:
#      x y z
#    x 1.649530 0.000000 -0.005170 
#    y 0.000000 1.642700 0.000000 
#    z -0.005170 0.000000 1.618440 
# 
# From -- ./inp_files/308941.got.cif
#   From: 2010.05.17/outbox.cif.g08.bks.cpg/sg12_155_cif.got.tgz:308941.got - 2010.06.03 13:09:07.
