data_PCOD9207037
_publ_section_title
;
Structure prediction by ZEFSAII (Michael W. Deem and Ramdas Pophale) SiO2 
 PCOD9207037
Probable space group: C 2/M
;
_chemical_formula_sum "Si O2"
_cell_formula_units_Z 56
_cell_length_a 12.761786
_cell_length_b 14.757535
_cell_length_c 18.719409
_cell_angle_alpha 90.000000
_cell_angle_beta 48.159316
_cell_angle_gamma 90.000000
_cell_volume 2626.486415
_symmetry_space_group_name_H-M "C 2/M"
_symmetry_group_IT_number 12
_symmetry_cell_setting 'monoclinic'
loop_
_space_group_symop_operation_xyz
x,y,z
-x,y,-z
-x,-y,-z
x,-y,z
1/2+x,1/2+y,z
1/2-x,1/2+y,-z
1/2-x,1/2-y,-z
1/2+x,1/2-y,z
loop_
_atom_site_type_symbol
_atom_site_label
_atom_site_fract_x
_atom_site_fract_y
_atom_site_fract_z
Si Si1 0.488042 0.392071 0.791567
Si Si2 0.285613 0.102116 0.185463
Si Si3 0.948192 0.098455 0.604882
Si Si4 0.913893 0.794228 0.110867
Si Si5 0.627378 0.895491 0.265720
Si Si6 0.211525 0.603136 0.394263
Si Si7 0.407614 0.215077 0.427894
O O1 0.503605 0.500000 0.800350
O O2 0.345070 0.381985 0.810973
O O3 0.505685 0.337196 0.857287
O O4 0.625912 0.365038 0.682717
O O5 0.388705 0.186727 0.132587
O O6 0.214032 0.101167 0.296851
O O7 0.340905 0.000000 0.146810
O O8 0.999815 0.196048 0.605500
O O9 0.000000 0.094601 0.500000
O O10 0.997662 0.000000 0.614076
O O11 0.759598 0.841262 0.173644
O O12 0.000000 0.810763 0.000000
O O13 0.664113 0.893940 0.333696
O O14 0.477720 0.844018 0.332920
O O15 0.620713 0.000000 0.245122
O O16 0.210761 0.500000 0.419071
O O17 0.111534 0.654503 0.493140
O O18 0.250000 0.250000 0.500000
#
# Coordination Sequence:
#
# PCOD9207037 Si02
#       7
#     8   8   8   8   8   8   8
#     4   9  20  39  64  92 124 166 214 259 313 384
#     4  10  21  41  65  89 124 168 215 261 310 383
#     4  10  21  37  56  81 116 159 204 244 295 365
#     4  11  23  39  66  97 125 161 213 272 333 379
#     4  10  21  38  57  84 117 151 196 252 308 367
#     4   9  18  33  56  82 110 149 195 240 290 361
#     4  12  22  31  53  84 118 158 195 240 300 370
#
# _framework density 21.321259000000001
#
# number of rings (size 3 to 8) (size 9 to 14) (size 15 to 20)
#    0.000    1.857    1.429    3.857    2.000    5.429 
#    0.000    0.000    0.000    1.714    0.000    0.000 
#    0.000    0.000    0.000    0.000    0.000    0.000 
#
# Total GULP energy -156098.621412 kJ/mol
# GULP energy per Si atom -5574.950765 kJ/mol
# Density = 2.127273 g / cm^3
# Si number density = 21.321259 Si / 1000 Ang^3
#
#
#
# Elastic Constant Matrix: (Units=GPa)
#
#
# Indices 1 2 3 4 5 6 
#
# 1 35.0180 11.0011 16.8143 0.0000 3.7538 0.0000
# 2 11.0011 140.3622 56.8667 0.0000 2.7834 0.0000
# 3 16.8143 56.8667 130.6245 0.0000 9.5182 0.0000
# 4 0.0000 0.0000 0.0000 6.0698 0.0000 -7.0195
# 5 3.7538 2.7834 9.5182 0.0000 19.1152 0.0000
# 6 0.0000 0.0000 0.0000 -7.0195 0.0000 25.7276
#
#
#
# Elastic Compliance Matrix: (Units=1/GPa)
#
#
# Indices 1 2 3 4 5 6 
#
# 1 0.030886 -0.001034 -0.003211 0.000000 -0.004316 0.000000
# 2 -0.001034 0.008692 -0.003708 0.000000 0.000784 0.000000
# 3 -0.003211 -0.003708 0.009959 0.000000 -0.003789 0.000000
# 4 0.000000 0.000000 0.000000 0.240697 0.000000 0.065672
# 5 -0.004316 0.000784 -0.003789 0.000000 0.054934 0.000000
# 6 0.000000 0.000000 0.000000 0.065672 0.000000 0.056787
#
#
# Mechanical properties :
#
#
# Convention : Reuss Voigt Hill
#
# Bulk Modulus (GPa) = 29.73459 52.81878 41.27669
# Shear Modulus (GPa) = 11.65305 24.93737 18.29521
#
# Velocity S-wave (km/s) = 2.34037 3.42365 2.93247
# Velocity P-wave (km/s) = 4.61296 6.36044 5.55583
#
# Compressibility (1/GPa) = 0.03363087
#
# Stress axis : x y z
#
# Youngs Moduli (GPa) = 32.37701 115.04498 100.40943
#
# Poissons Ratio (x) = 0.11899 0.32241
# Poissons Ratio (y) = 0.03349 0.37233
# Poissons Ratio (z) = 0.10396 0.42660
#
# Static dielectric constant tensor:
#      x y z
#    x 1.959910 0.000000 0.018610 
#    y 0.000000 1.818510 0.000000 
#    z 0.018610 0.000000 1.709710 
# 
# From -- ./inp_files/310772.got.cif
#   From: 2010.05.17/outbox.cif.g08.bks.cpg/sg12_156_cif.got.tgz:310772.got - 2010.06.03 13:09:07.
