data_PCOD9208015
_publ_section_title
;
Structure prediction by ZEFSAII (Michael W. Deem and Ramdas Pophale) SiO2 
 PCOD9208015
Probable space group: C 2/M
;
_chemical_formula_sum "Si O2"
_cell_formula_units_Z 64
_cell_length_a 29.350742
_cell_length_b 13.990608
_cell_length_c 12.495623
_cell_angle_alpha 90.000000
_cell_angle_beta 142.283681
_cell_angle_gamma 90.000000
_cell_volume 3138.985062
_symmetry_space_group_name_H-M "C 2/M"
_symmetry_group_IT_number 12
_symmetry_cell_setting 'monoclinic'
loop_
_space_group_symop_operation_xyz
x,y,z
-x,y,-z
-x,-y,-z
x,-y,z
1/2+x,1/2+y,z
1/2-x,1/2+y,-z
1/2-x,1/2-y,-z
1/2+x,1/2-y,z
loop_
_atom_site_type_symbol
_atom_site_label
_atom_site_fract_x
_atom_site_fract_y
_atom_site_fract_z
Si Si1 0.835629 0.720706 0.181132
Si Si2 0.397672 0.611758 0.425096
Si Si3 0.382510 0.613534 0.731682
Si Si4 0.624518 0.207227 0.970119
Si Si5 0.464285 0.739381 0.725336
Si Si6 0.174496 0.892506 0.138398
Si Si7 0.239977 0.890052 0.665143
Si Si8 0.845494 0.611237 0.423164
O O1 0.882715 0.815534 0.300413
O O2 0.867508 0.668720 0.134964
O O3 0.839665 0.651961 0.291703
O O4 0.750000 0.750000 0.000000
O O5 0.413020 0.500000 0.430333
O O6 0.456922 0.662056 0.614598
O O7 0.320637 0.615589 0.351514
O O8 0.396831 0.500000 0.737154
O O9 0.445423 0.678905 0.795893
O O10 0.368148 0.625413 0.829881
O O11 0.306669 0.639318 0.526028
O O12 0.542584 0.207473 0.865144
O O13 0.647151 0.317984 0.001592
O O14 0.686940 0.165866 0.164888
O O15 0.401235 0.818910 0.588062
O O16 0.262793 0.881607 0.318593
O O17 0.160390 0.000000 0.077419
O O18 0.261097 0.000000 0.689668
O O19 0.867712 0.500000 0.465717
#
# Coordination Sequence:
#
# PCOD9208015 Si02
#       8
#     8   8   8   8   8   8   8   8
#     4  11  20  36  57  82 113 147 184 237 288 332
#     4   9  18  35  57  77 102 145 191 227 274 333
#     4   9  19  39  64  85 110 150 193 232 282 342
#     4  12  23  35  53  86 117 145 187 234 287 338
#     4  10  22  37  55  81 119 151 182 231 281 341
#     4  10  21  37  61  89 113 145 192 239 283 337
#     4   9  18  34  57  80 102 138 193 239 268 319
#     4  10  22  40  59  83 115 153 194 235 281 333
#
# _framework density 20.388755
#
# number of rings (size 3 to 8) (size 9 to 14) (size 15 to 20)
#    0.000    2.000    2.500    2.625    0.000    7.500 
#    0.000    2.500    0.000    0.000    0.000    5.250 
#    0.000    0.000    0.000    0.000    0.000    0.000 
#
# Total GULP energy -178672.532737 kJ/mol
# GULP energy per Si atom -5583.516648 kJ/mol
# Density = 2.034235 g / cm^3
# Si number density = 20.388755 Si / 1000 Ang^3
#
#
#
# Elastic Constant Matrix: (Units=GPa)
#
#
# Indices 1 2 3 4 5 6 
#
# 1 58.9873 13.1145 9.7665 0.0000 7.0778 0.0000
# 2 13.1145 70.9369 12.8771 0.0000 0.6934 0.0000
# 3 9.7665 12.8771 39.8818 0.0000 4.3828 0.0000
# 4 0.0000 0.0000 0.0000 7.7907 0.0000 -3.2621
# 5 7.0778 0.6934 4.3828 0.0000 20.1567 0.0000
# 6 0.0000 0.0000 0.0000 -3.2621 0.0000 20.1947
#
#
#
# Elastic Compliance Matrix: (Units=1/GPa)
#
#
# Indices 1 2 3 4 5 6 
#
# 1 0.018793 -0.002866 -0.003035 0.000000 -0.005841 0.000000
# 2 -0.002866 0.015418 -0.004435 0.000000 0.001440 0.000000
# 3 -0.003035 -0.004435 0.027779 0.000000 -0.004822 0.000000
# 4 0.000000 0.000000 0.000000 0.137670 0.000000 0.022238
# 5 -0.005841 0.001440 -0.004822 0.000000 0.052661 0.000000
# 6 0.000000 0.000000 0.000000 0.022238 0.000000 0.053110
#
#
# Mechanical properties :
#
#
# Convention : Reuss Voigt Hill
#
# Bulk Modulus (GPa) = 24.20214 26.81358 25.50786
# Shear Modulus (GPa) = 14.71126 18.56493 16.63810
#
# Velocity S-wave (km/s) = 2.68906 3.02080 2.85975
# Velocity P-wave (km/s) = 4.64085 5.03455 4.84170
#
# Compressibility (1/GPa) = 0.04131867
#
# Stress axis : x y z
#
# Youngs Moduli (GPa) = 53.21023 64.85977 35.99839
#
# Poissons Ratio (x) = 0.18592 0.10925
# Poissons Ratio (y) = 0.15252 0.15964
# Poissons Ratio (z) = 0.16149 0.28762
#
# Static dielectric constant tensor:
#      x y z
#    x 1.730700 0.000000 0.009030 
#    y 0.000000 1.729650 0.000000 
#    z 0.009030 0.000000 1.727730 
# 
# From -- ./inp_files/183819.got.cif
#   From: 2010.05.17/outbox.cif.g08.bks.cpg/sg12_92_cif.got.tgz:183819.got - 2010.06.03 13:09:07.
