data_PCOD9208651
_publ_section_title
;
Structure prediction by ZEFSAII (Michael W. Deem and Ramdas Pophale) SiO2 
 PCOD9208651
Probable space group: C 2/M
;
_chemical_formula_sum "Si O2"
_cell_formula_units_Z 48
_cell_length_a 27.995956
_cell_length_b 8.645006
_cell_length_c 15.871260
_cell_angle_alpha 90.000000
_cell_angle_beta 40.945909
_cell_angle_gamma 90.000000
_cell_volume 2517.345469
_symmetry_space_group_name_H-M "C 2/M"
_symmetry_group_IT_number 12
_symmetry_cell_setting 'monoclinic'
loop_
_space_group_symop_operation_xyz
x,y,z
-x,y,-z
-x,-y,-z
x,-y,z
1/2+x,1/2+y,z
1/2-x,1/2+y,-z
1/2-x,1/2-y,-z
1/2+x,1/2-y,z
loop_
_atom_site_type_symbol
_atom_site_label
_atom_site_fract_x
_atom_site_fract_y
_atom_site_fract_z
Si Si1 0.208426 0.813184 0.474152
Si Si2 0.040500 0.313082 0.360294
Si Si3 0.709986 0.185585 0.135679
Si Si4 0.210584 0.687061 0.805143
Si Si5 0.539622 0.685445 0.697486
Si Si6 0.959047 0.686972 0.969057
O O1 0.250000 0.750000 0.500000
O O2 0.248685 0.764176 0.334640
O O3 0.124096 0.763569 0.585956
O O4 0.210255 0.000000 0.474503
O O5 0.037923 0.500000 0.359442
O O6 0.125179 0.266052 0.248982
O O7 0.000000 0.264502 0.500000
O O8 0.000202 0.246955 0.332620
O O9 0.749853 0.245515 0.166033
O O10 0.712461 0.000000 0.130629
O O11 0.750000 0.250000 0.000000
O O12 0.213450 0.500000 0.805950
O O13 0.125744 0.732903 0.915875
O O14 0.538070 0.500000 0.699015
O O15 0.498752 0.746258 0.834585
O O16 0.961953 0.500000 0.960730
O O17 0.000000 0.735097 0.000000
#
# Coordination Sequence:
#
# PCOD9208651 Si02
#       6
#     8   8   8   8   8   8
#     4  10  22  39  59  85 115 148 187 230 278 331
#     4  10  22  40  60  82 110 148 192 231 272 331
#     4  11  23  38  58  84 113 147 187 231 280 333
#     4  10  21  38  59  83 112 147 189 233 276 328
#     4  11  23  37  57  87 118 146 181 231 286 333
#     4  10  21  38  60  83 110 150 193 229 272 330
#
# _framework density 19.067705
#
# number of rings (size 3 to 8) (size 9 to 14) (size 15 to 20)
#    0.000    1.667    0.000    4.000    0.000   10.000 
#    0.000    0.000    0.000    0.000    0.000    0.000 
#    0.000    0.000    0.000    0.000    0.000    0.000 
#
# Total GULP energy -134196.128008 kJ/mol
# GULP energy per Si atom -5591.505334 kJ/mol
# Density = 1.902431 g / cm^3
# Si number density = 19.067705 Si / 1000 Ang^3
#
#
#
# Elastic Constant Matrix: (Units=GPa)
#
#
# Indices 1 2 3 4 5 6 
#
# 1 230.9165 40.3002 138.0132 -0.0001 0.2741 0.0002
# 2 40.3002 13.5798 41.4531 0.0034 -2.5160 -0.0044
# 3 138.0132 41.4531 231.5004 0.0005 0.2713 -0.0022
# 4 -0.0001 0.0034 0.0005 11.4395 -0.0005 -11.2434
# 5 0.2741 -2.5160 0.2713 -0.0005 45.7737 0.0000
# 6 0.0002 -0.0044 -0.0022 -11.2434 0.0000 24.9092
#
#
#
# Elastic Compliance Matrix: (Units=1/GPa)
#
#
# Indices 1 2 3 4 5 6 
#
# 1 0.009242 -0.023966 -0.001217 0.000005 -0.001365 -0.000002
# 2 -0.023966 0.228440 -0.026633 -0.000052 0.012858 0.000015
# 3 -0.001217 -0.026633 0.009816 0.000007 -0.001515 -0.000001
# 4 0.000005 -0.000052 0.000007 0.157122 -0.000001 0.070921
# 5 -0.001365 0.012858 -0.001515 -0.000001 0.022570 0.000002
# 6 -0.000002 0.000015 -0.000001 0.070921 0.000002 0.072158
#
#
# Mechanical properties :
#
#
# Convention : Reuss Voigt Hill
#
# Bulk Modulus (GPa) = 6.95084 101.72552 54.33818
# Shear Modulus (GPa) = 7.68128 33.50651 20.59389
#
# Velocity S-wave (km/s) = 2.00927 4.19649 3.28996
# Velocity P-wave (km/s) = 3.00602 8.77190 6.55676
#
# Compressibility (1/GPa) = 0.14386760
#
# Stress axis : x y z
#
# Youngs Moduli (GPa) = 108.20164 4.37752 101.87675
#
# Poissons Ratio (x) = 0.10491 0.12397
# Poissons Ratio (y) = 2.59311 2.71324
# Poissons Ratio (z) = 0.13167 0.11658
#
# Static dielectric constant tensor:
#      x y z
#    x 1.614750 0.000000 -0.017740 
#    y 0.000000 1.652900 0.000000 
#    z -0.017740 0.000000 1.639610 
# 
# From -- ./inp_files/244600.got.cif
#   From: 2010.05.17/outbox.cif.g08.bks.cpg/sg12_123_cif.got.tgz:244600.got - 2010.06.03 13:09:07.
