data_PCOD9208579
_publ_section_title
;
Structure prediction by ZEFSAII (Michael W. Deem and Ramdas Pophale) SiO2 
 PCOD9208579
Probable space group: C 2/M
;
_chemical_formula_sum "Si O2"
_cell_formula_units_Z 48
_cell_length_a 20.720876
_cell_length_b 16.938584
_cell_length_c 16.630763
_cell_angle_alpha 90.000000
_cell_angle_beta 24.804613
_cell_angle_gamma 90.000000
_cell_volume 2448.811796
_symmetry_space_group_name_H-M "C 2/M"
_symmetry_group_IT_number 12
_symmetry_cell_setting 'monoclinic'
loop_
_space_group_symop_operation_xyz
x,y,z
-x,y,-z
-x,-y,-z
x,-y,z
1/2+x,1/2+y,z
1/2-x,1/2+y,-z
1/2-x,1/2-y,-z
1/2+x,1/2-y,z
loop_
_atom_site_type_symbol
_atom_site_label
_atom_site_fract_x
_atom_site_fract_y
_atom_site_fract_z
Si Si1 0.165944 0.500000 0.424787
Si Si2 0.096782 0.834964 0.010923
Si Si3 0.647879 0.500000 0.614921
Si Si4 0.462238 0.237468 0.307975
Si Si5 0.500000 0.798598 0.000000
Si Si6 0.058054 0.349784 0.350247
Si Si7 0.073026 0.000000 0.011567
Si Si8 0.301091 0.852724 0.362899
O O1 0.250061 0.500000 0.417009
O O2 0.290394 0.500000 0.210330
O O3 0.054811 0.423470 0.540465
O O4 0.265031 0.871207 0.835212
O O5 0.090907 0.761687 0.956248
O O6 0.005619 0.910073 0.078943
O O7 0.034232 0.800464 0.165298
O O8 0.697142 0.425267 0.506230
O O9 0.467871 0.500000 0.844785
O O10 0.556259 0.210504 0.278403
O O11 0.421616 0.162529 0.298547
O O12 0.303701 0.274168 0.519963
O O13 0.390577 0.852290 0.178306
O O14 0.000000 0.313822 0.500000
#
# Coordination Sequence:
#
# PCOD9208579 Si02
#       8
#     4   8   4   8   4   8   4   8
#     4  12  25  38  58  92 128 155 198 251 296 371
#     4  11  23  38  60  88 123 160 198 247 300 360
#     4  12  23  40  64  86 118 168 198 248 302 356
#     4  10  21  38  58  86 122 156 201 246 292 367
#     4  10  24  40  62  94 118 152 210 262 290 352
#     4  12  22  37  58  87 123 162 195 240 308 354
#     4  12  24  36  57  92 121 158 196 236 305 362
#     4  10  21  39  61  86 119 157 204 249 302 348
#
# _framework density 19.601343
#
# number of rings (size 3 to 8) (size 9 to 14) (size 15 to 20)
#    0.000    1.000    5.000    2.500    2.333    0.333 
#    0.000    0.000    0.000    0.000    0.000    2.333 
#    0.000    0.000    0.000    0.000    0.000    0.000 
#
# Total GULP energy -133604.345058 kJ/mol
# GULP energy per Si atom -5566.847711 kJ/mol
# Density = 1.955673 g / cm^3
# Si number density = 19.601343 Si / 1000 Ang^3
#
#
#
# Elastic Constant Matrix: (Units=GPa)
#
#
# Indices 1 2 3 4 5 6 
#
# 1 91.6943 21.1393 30.8347 0.0011 18.4888 -0.0009
# 2 21.1393 69.6195 29.4547 0.0009 19.1129 -0.0009
# 3 30.8347 29.4547 125.8209 0.0008 33.9395 -0.0009
# 4 0.0011 0.0009 0.0008 32.2960 -0.0005 5.0204
# 5 18.4888 19.1129 33.9395 -0.0005 38.0307 0.0005
# 6 -0.0009 -0.0009 -0.0009 5.0204 0.0005 19.9117
#
#
#
# Elastic Compliance Matrix: (Units=1/GPa)
#
#
# Indices 1 2 3 4 5 6 
#
# 1 0.012683 -0.002169 -0.001622 -0.000001 -0.003629 0.000001
# 2 -0.002169 0.017493 -0.001945 -0.000001 -0.006001 0.000001
# 3 -0.001622 -0.001945 0.010963 0.000000 -0.008018 0.000001
# 4 -0.000001 -0.000001 0.000000 0.032227 0.000001 -0.008125
# 5 -0.003629 -0.006001 -0.008018 0.000001 0.038230 -0.000002
# 6 0.000001 0.000001 0.000001 -0.008125 -0.000002 0.052270
#
#
# Mechanical properties :
#
#
# Convention : Reuss Voigt Hill
#
# Bulk Modulus (GPa) = 33.70563 49.99913 41.85238
# Shear Modulus (GPa) = 26.99407 31.76141 29.37774
#
# Velocity S-wave (km/s) = 3.71503 4.02975 3.87558
# Velocity P-wave (km/s) = 5.96949 6.87133 6.43623
#
# Compressibility (1/GPa) = 0.02966863
#
# Stress axis : x y z
#
# Youngs Moduli (GPa) = 78.84711 57.16693 91.21285
#
# Poissons Ratio (x) = 0.12398 0.14791
# Poissons Ratio (y) = 0.17100 0.17738
# Poissons Ratio (z) = 0.12786 0.11117
#
# Static dielectric constant tensor:
#      x y z
#    x 1.774570 0.000000 -0.082200 
#    y 0.000000 1.690300 0.000000 
#    z -0.082200 0.000000 1.787490 
# 
# From -- ./inp_files/290556.got.cif
#   From: 2010.05.17/outbox.cif.g08.bks.cpg/sg12_146_cif.got.tgz:290556.got - 2010.06.03 13:09:07.
