data_PCOD9208069
_publ_section_title
;
Structure prediction by ZEFSAII (Michael W. Deem and Ramdas Pophale) SiO2 
 PCOD9208069
Probable space group: C 2/M
;
_chemical_formula_sum "Si O2"
_cell_formula_units_Z 64
_cell_length_a 20.845527
_cell_length_b 14.173655
_cell_length_c 30.421198
_cell_angle_alpha 90.000000
_cell_angle_beta 19.954457
_cell_angle_gamma 90.000000
_cell_volume 3067.418996
_symmetry_space_group_name_H-M "C 2/M"
_symmetry_group_IT_number 12
_symmetry_cell_setting 'monoclinic'
loop_
_space_group_symop_operation_xyz
x,y,z
-x,y,-z
-x,-y,-z
x,-y,z
1/2+x,1/2+y,z
1/2-x,1/2+y,-z
1/2-x,1/2-y,-z
1/2+x,1/2-y,z
loop_
_atom_site_type_symbol
_atom_site_label
_atom_site_fract_x
_atom_site_fract_y
_atom_site_fract_z
Si Si1 0.212213 0.606674 0.173017
Si Si2 0.791511 0.328786 0.437475
Si Si3 0.557610 0.722509 0.742871
Si Si4 0.678724 0.104646 0.090535
Si Si5 0.387091 0.399916 0.701709
Si Si6 0.373773 0.744718 0.141801
Si Si7 0.770964 0.388824 0.096565
Si Si8 0.909602 0.893071 0.200330
O O1 0.266822 0.500000 0.150080
O O2 0.242071 0.617806 0.101129
O O3 0.316063 0.683740 0.135837
O O4 0.988277 0.621064 0.321803
O O5 0.750000 0.250000 0.500000
O O6 0.610679 0.394645 0.555327
O O7 0.822202 0.274895 0.371706
O O8 0.453916 0.808426 0.834938
O O9 0.398004 0.658877 0.821979
O O10 0.665081 0.657476 0.708109
O O11 0.590428 0.000000 0.145522
O O12 0.862602 0.104191 0.942258
O O13 0.319912 0.500000 0.727332
O O14 0.300781 0.311177 0.733536
O O15 0.306161 0.390961 0.803576
O O16 0.385712 0.669903 0.172963
O O17 0.548766 0.818596 0.023897
O O18 0.808366 0.500000 0.060951
O O19 0.843257 0.000000 0.237417
#
# Coordination Sequence:
#
# PCOD9208069 Si02
#       8
#     8   8   8   8   8   8   8   8
#     4  10  21  37  61  92 124 159 206 260 309 356
#     4  11  20  40  67  89 113 156 205 258 311 354
#     4  11  21  41  63  85 124 159 205 257 302 359
#     4   9  19  35  58  88 118 154 201 250 302 357
#     4  11  23  40  64  94 125 157 203 258 310 367
#     4  12  23  37  60  89 133 168 204 244 309 370
#     4  11  23  37  60  95 129 162 200 252 311 368
#     4  11  24  39  59  89 125 166 206 247 303 368
#
# _framework density 20.864446999999998
#
# number of rings (size 3 to 8) (size 9 to 14) (size 15 to 20)
#    0.000    1.250    3.750    3.000    1.750    1.500 
#    0.000    3.125    0.000    1.500    0.000    0.000 
#    0.000    0.000    0.000    0.000    0.000    0.000 
#
# Total GULP energy -178701.358232 kJ/mol
# GULP energy per Si atom -5584.417445 kJ/mol
# Density = 2.081696 g / cm^3
# Si number density = 20.864447 Si / 1000 Ang^3
#
#
#
# Elastic Constant Matrix: (Units=GPa)
#
#
# Indices 1 2 3 4 5 6 
#
# 1 28.0806 36.0817 20.6961 -0.0097 -1.7602 -0.0097
# 2 36.0817 186.4982 27.8881 -0.0061 -5.9475 0.0072
# 3 20.6961 27.8881 56.4323 -0.0244 -7.0917 0.0149
# 4 -0.0097 -0.0061 -0.0244 21.2016 0.0036 2.3454
# 5 -1.7602 -5.9475 -7.0917 0.0036 15.1828 0.0097
# 6 -0.0097 0.0072 0.0149 2.3454 0.0097 14.6628
#
#
#
# Elastic Compliance Matrix: (Units=1/GPa)
#
#
# Indices 1 2 3 4 5 6 
#
# 1 0.060539 -0.009135 -0.018332 -0.000002 -0.005122 0.000067
# 2 -0.009135 0.007182 0.000022 -0.000001 0.001765 -0.000011
# 3 -0.018332 0.000022 0.025673 0.000025 0.009875 -0.000049
# 4 -0.000002 -0.000001 0.000025 0.048016 0.000004 -0.007680
# 5 -0.005122 0.001765 0.009875 0.000004 0.070574 -0.000062
# 6 0.000067 -0.000011 -0.000049 -0.007680 -0.000062 0.069428
#
#
# Mechanical properties :
#
#
# Convention : Reuss Voigt Hill
#
# Bulk Modulus (GPa) = 25.96944 48.92699 37.44821
# Shear Modulus (GPa) = 14.32107 22.63245 18.47676
#
# Velocity S-wave (km/s) = 2.62274 3.29711 2.97907
# Velocity P-wave (km/s) = 4.65247 6.16404 5.46081
#
# Compressibility (1/GPa) = 0.03850680
#
# Stress axis : x y z
#
# Youngs Moduli (GPa) = 16.51830 139.23401 38.95098
#
# Poissons Ratio (x) = 1.27184 0.71404
# Poissons Ratio (y) = 0.15089 -0.00088
# Poissons Ratio (z) = 0.30281 -0.00313
#
# Static dielectric constant tensor:
#      x y z
#    x 1.782200 0.000000 -0.008140 
#    y 0.000000 1.786540 0.000020 
#    z -0.008140 0.000020 1.780630 
# 
# From -- ./inp_files/381469.got.cif
#   From: 2010.05.17/outbox.cif.g08.bks.cpg/sg12_191_cif.got.tgz:381469.got - 2010.06.03 13:09:07.
