data_PCOD9208404
_publ_section_title
;
Structure prediction by ZEFSAII (Michael W. Deem and Ramdas Pophale) SiO2 
 PCOD9208404
Probable space group: C 2/M
;
_chemical_formula_sum "Si O2"
_cell_formula_units_Z 56
_cell_length_a 18.430342
_cell_length_b 30.576307
_cell_length_c 5.937651
_cell_angle_alpha 90.000000
_cell_angle_beta 54.796325
_cell_angle_gamma 90.000000
_cell_volume 2734.088158
_symmetry_space_group_name_H-M "C 2/M"
_symmetry_group_IT_number 12
_symmetry_cell_setting 'monoclinic'
loop_
_space_group_symop_operation_xyz
x,y,z
-x,y,-z
-x,-y,-z
x,-y,z
1/2+x,1/2+y,z
1/2-x,1/2+y,-z
1/2-x,1/2-y,-z
1/2+x,1/2-y,z
loop_
_atom_site_type_symbol
_atom_site_label
_atom_site_fract_x
_atom_site_fract_y
_atom_site_fract_z
Si Si1 0.708987 0.291612 0.323077
Si Si2 0.270186 0.377202 0.022686
Si Si3 0.175198 0.549793 0.931525
Si Si4 0.108304 0.748779 0.120042
Si Si5 0.500000 0.191360 0.000000
Si Si6 0.594087 0.661852 0.920693
Si Si7 0.500000 0.070821 0.500000
Si Si8 0.613705 0.885001 0.653374
O O1 0.646003 0.256400 0.305106
O O2 0.658418 0.315925 0.617572
O O3 0.730286 0.332872 0.121718
O O4 0.803314 0.266599 0.178199
O O5 0.356753 0.374939 0.022818
O O6 0.189403 0.375165 0.340127
O O7 0.251032 0.420235 0.909813
O O8 0.200909 0.500000 0.833645
O O9 0.144363 0.577260 0.768637
O O10 0.089790 0.547795 0.253566
O O11 0.028715 0.718584 0.170082
O O12 0.076093 0.797008 0.113317
O O13 0.416155 0.159719 0.182236
O O14 0.500000 0.646273 0.000000
O O15 0.470283 0.098915 0.339868
#
# Coordination Sequence:
#
# PCOD9208404 Si02
#       8
#     8   8   8   8   4   8   4   8
#     4  10  22  42  59  81 119 161 199 255 310 356
#     4  10  23  40  62  87 118 161 203 248 307 370
#     4  11  22  39  61  90 124 162 203 248 301 364
#     4  10  22  36  57  85 116 160 204 256 295 357
#     4  12  20  38  55  86 124 162 211 250 292 346
#     4  11  22  42  61  89 116 151 206 256 317 363
#     4  10  21  38  56  90 124 168 208 246 292 352
#     4  11  23  38  58  88 126 169 206 248 300 351
#
# _framework density 20.482150000000001
#
# number of rings (size 3 to 8) (size 9 to 14) (size 15 to 20)
#    0.000    1.429    2.143    3.214    2.000    8.000 
#    2.571    0.000    0.000    0.429    0.000    4.000 
#    0.000    0.000    0.000    0.000    0.000    0.000 
#
# Total GULP energy -156221.938221 kJ/mol
# GULP energy per Si atom -5579.354936 kJ/mol
# Density = 2.043553 g / cm^3
# Si number density = 20.482150 Si / 1000 Ang^3
#
#
#
# Elastic Constant Matrix: (Units=GPa)
#
#
# Indices 1 2 3 4 5 6 
#
# 1 148.9604 73.5562 10.2737 0.0000 7.2608 0.0000
# 2 73.5562 124.5587 22.4198 0.0000 9.5507 0.0000
# 3 10.2737 22.4198 45.0596 0.0000 4.3454 0.0000
# 4 0.0000 0.0000 0.0000 15.9641 0.0000 -1.8900
# 5 7.2608 9.5507 4.3454 0.0000 25.0827 0.0000
# 6 0.0000 0.0000 0.0000 -1.8900 0.0000 12.2180
#
#
#
# Elastic Compliance Matrix: (Units=1/GPa)
#
#
# Indices 1 2 3 4 5 6 
#
# 1 0.009508 -0.005692 0.000733 0.000000 -0.000712 0.000000
# 2 -0.005692 0.012401 -0.004654 0.000000 -0.002268 0.000000
# 3 0.000733 -0.004654 0.024602 0.000000 -0.002702 0.000000
# 4 0.000000 0.000000 0.000000 0.063809 0.000000 0.009871
# 5 -0.000712 -0.002268 -0.002702 0.000000 0.041406 0.000000
# 6 0.000000 0.000000 0.000000 0.009871 0.000000 0.083373
#
#
# Mechanical properties :
#
#
# Convention : Reuss Voigt Hill
#
# Bulk Modulus (GPa) = 36.64989 59.00867 47.82928
# Shear Modulus (GPa) = 18.98102 24.80823 21.89463
#
# Velocity S-wave (km/s) = 3.04749 3.48402 3.27304
# Velocity P-wave (km/s) = 5.50594 6.71244 6.13890
#
# Compressibility (1/GPa) = 0.02728521
#
# Stress axis : x y z
#
# Youngs Moduli (GPa) = 105.17297 80.63628 40.64736
#
# Poissons Ratio (x) = 0.45900 -0.02979
# Poissons Ratio (y) = 0.59867 0.18917
# Poissons Ratio (z) = -0.07709 0.37527
#
# Static dielectric constant tensor:
#      x y z
#    x 1.808630 0.000000 0.012110 
#    y 0.000000 1.706980 0.000000 
#    z 0.012110 0.000000 1.778890 
# 
# From -- ./inp_files/18267.got.cif
#   From: 2010.05.17/outbox.cif.g08.bks.cpg/sg12_10_cif.got.tgz:18267.got - 2010.06.03 13:09:07.
