data_PCOD9208870
_publ_section_title
;
Structure prediction by ZEFSAII (Michael W. Deem and Ramdas Pophale) SiO2 
 PCOD9208870
Probable space group: C 2/M
;
_chemical_formula_sum "Si O2"
_cell_formula_units_Z 42
_cell_length_a 19.737077
_cell_length_b 10.496778
_cell_length_c 11.955091
_cell_angle_alpha 90.000000
_cell_angle_beta 69.225252
_cell_angle_gamma 90.000000
_cell_volume 2315.767884
_symmetry_space_group_name_H-M "C 2/M"
_symmetry_group_IT_number 12
_symmetry_cell_setting 'monoclinic'
loop_
_space_group_symop_operation_xyz
x,y,z
-x,y,-z
-x,-y,-z
x,-y,z
1/2+x,1/2+y,z
1/2-x,1/2+y,-z
1/2-x,1/2-y,-z
1/2+x,1/2-y,z
loop_
_atom_site_type_symbol
_atom_site_label
_atom_site_fract_x
_atom_site_fract_y
_atom_site_fract_z
Si Si1 0.000000 0.000000 0.000000
Si Si2 0.062160 0.764860 0.107566
Si Si3 0.924198 0.354712 0.281672
Si Si4 0.176233 0.349078 0.868206
Si Si5 0.839952 0.846787 0.746156
Si Si6 0.575940 0.352135 0.522440
O O1 0.025759 0.888578 0.074275
O O2 0.101716 0.793418 0.201442
O O3 0.998133 0.664829 0.168076
O O4 0.123824 0.717804 0.986748
O O5 0.920807 0.500000 0.326321
O O6 0.858389 0.333189 0.234214
O O7 0.923475 0.248081 0.377797
O O8 0.176679 0.500000 0.892059
O O9 0.258861 0.301711 0.821396
O O10 0.863185 0.819760 0.605399
O O11 0.841152 0.000000 0.756330
O O12 0.500000 0.345811 0.500000
O O13 0.584668 0.500000 0.554806
#
# Coordination Sequence:
#
# PCOD9208870 Si02
#       6
#     2   8   8   8   8   8
#     4  12  24  32  66  94 120 152 206 256 284 346
#     4  12  21  38  60  89 120 152 199 245 298 345
#     4  11  23  38  61  86 122 155 197 244 296 358
#     4  10  22  39  58  84 119 159 191 237 302 361
#     4  10  21  38  60  85 117 154 198 242 298 354
#     4  10  21  38  63  88 113 155 203 248 296 349
#
# _framework density 18.136531999999999
#
# number of rings (size 3 to 8) (size 9 to 14) (size 15 to 20)
#    0.000    1.333    4.762    1.143    1.333    2.667 
#    0.000    0.000    2.095    0.000    0.000    0.000 
#    0.000    0.000    0.000    0.000    0.000    0.000 
#
# Total GULP energy -116974.259271 kJ/mol
# GULP energy per Si atom -5570.202822 kJ/mol
# Density = 1.809525 g / cm^3
# Si number density = 18.136532 Si / 1000 Ang^3
#
#
#
# Elastic Constant Matrix: (Units=GPa)
#
#
# Indices 1 2 3 4 5 6 
#
# 1 69.5977 15.7346 9.6767 0.0000 0.9630 0.0000
# 2 15.7346 77.9520 41.5856 0.0000 12.2035 0.0000
# 3 9.6767 41.5856 66.7985 0.0000 2.8202 0.0000
# 4 0.0000 0.0000 0.0000 16.0003 0.0000 12.9438
# 5 0.9630 12.2035 2.8202 0.0000 13.1689 0.0000
# 6 0.0000 0.0000 0.0000 12.9438 0.0000 22.6210
#
#
#
# Elastic Compliance Matrix: (Units=1/GPa)
#
#
# Indices 1 2 3 4 5 6 
#
# 1 0.015104 -0.003203 -0.000275 0.000000 0.001923 0.000000
# 2 -0.003203 0.023563 -0.013415 0.000000 -0.018729 0.000000
# 3 -0.000275 -0.013415 0.023044 0.000000 0.007516 0.000000
# 4 0.000000 0.000000 0.000000 0.116362 0.000000 -0.066583
# 5 0.001923 -0.018729 0.007516 0.000000 0.091543 0.000000
# 6 0.000000 0.000000 0.000000 -0.066583 0.000000 0.082305
#
#
# Mechanical properties :
#
#
# Convention : Reuss Voigt Hill
#
# Bulk Modulus (GPa) = 35.80887 38.70466 37.25677
# Shear Modulus (GPa) = 12.65771 20.18147 16.41959
#
# Velocity S-wave (km/s) = 2.64467 3.33941 3.01214
# Velocity P-wave (km/s) = 5.39561 6.02129 5.71702
#
# Compressibility (1/GPa) = 0.02792604
#
# Stress axis : x y z
#
# Youngs Moduli (GPa) = 66.20735 42.43858 43.39465
#
# Poissons Ratio (x) = 0.13593 0.01194
# Poissons Ratio (y) = 0.21206 0.58213
# Poissons Ratio (z) = 0.01822 0.56930
#
# Static dielectric constant tensor:
#      x y z
#    x 1.618910 0.000000 -0.017840 
#    y 0.000000 1.593190 0.000000 
#    z -0.017840 0.000000 1.626390 
# 
# From -- ./inp_files/162986.got.cif
#   From: 2010.05.17/outbox.cif.g08.bks.cpg/sg12_82_cif.got.tgz:162986.got - 2010.06.03 13:09:07.
