data_PCOD9208367
_publ_section_title
;
Structure prediction by ZEFSAII (Michael W. Deem and Ramdas Pophale) SiO2 
 PCOD9208367
Probable space group: C 2/M
;
_chemical_formula_sum "Si O2"
_cell_formula_units_Z 64
_cell_length_a 13.729247
_cell_length_b 20.008148
_cell_length_c 11.067253
_cell_angle_alpha 90.000000
_cell_angle_beta 106.572436
_cell_angle_gamma 90.000000
_cell_volume 2913.851379
_symmetry_space_group_name_H-M "C 2/M"
_symmetry_group_IT_number 12
_symmetry_cell_setting 'monoclinic'
loop_
_space_group_symop_operation_xyz
x,y,z
-x,y,-z
-x,-y,-z
x,-y,z
1/2+x,1/2+y,z
1/2-x,1/2+y,-z
1/2-x,1/2-y,-z
1/2+x,1/2-y,z
loop_
_atom_site_type_symbol
_atom_site_label
_atom_site_fract_x
_atom_site_fract_y
_atom_site_fract_z
Si Si1 0.742719 0.191247 0.350661
Si Si2 0.371359 0.743433 0.174008
Si Si3 0.897743 0.424452 0.811320
Si Si4 0.375534 0.895581 0.088596
Si Si5 0.027892 0.924795 0.786332
Si Si6 0.380366 0.575691 0.430387
Si Si7 0.835524 0.863804 0.968112
Si Si8 0.601687 0.306991 0.267366
O O1 0.818247 0.227358 0.282013
O O2 0.661451 0.137562 0.268481
O O3 0.813496 0.138593 0.448069
O O4 0.673967 0.255361 0.363809
O O5 0.371973 0.818130 0.125510
O O6 0.490192 0.725592 0.222396
O O7 0.317312 0.693228 0.062252
O O8 0.860418 0.500000 0.770714
O O9 0.018111 0.422416 0.821608
O O10 0.885534 0.411609 0.950352
O O11 0.259855 0.913413 0.083808
O O12 0.116723 0.919886 0.716632
O O13 0.932096 0.881495 0.708646
O O14 0.994342 0.000000 0.781511
O O15 0.073965 0.902235 0.930614
O O16 0.500000 0.581246 0.500000
O O17 0.348693 0.500000 0.453659
O O18 0.858987 0.822340 0.854990
#
# Coordination Sequence:
#
# PCOD9208367 Si02
#       8
#     8   8   8   8   8   8   8   8
#     4  12  20  37  59  77 111 146 186 231 284 339
#     4  11  19  32  49  72 103 144 186 223 266 310
#     4  11  23  33  46  72 108 150 189 231 277 318
#     4  11  19  30  45  68 106 143 187 222 256 321
#     4  10  21  38  55  77 116 150 187 238 280 332
#     4  10  21  39  64  87 106 138 186 242 298 340
#     4  11  20  30  50  79 108 152 187 220 267 323
#     4  11  22  33  53  83 112 148 190 222 268 340
#
# _framework density 21.964058000000001
#
# number of rings (size 3 to 8) (size 9 to 14) (size 15 to 20)
#    0.000    1.125    6.250    3.750    1.750    3.000 
#    0.000    0.625    0.000    0.000    0.000    0.000 
#    0.000    0.500    0.000    0.375    0.000    0.125 
#
# Total GULP energy -178230.289577 kJ/mol
# GULP energy per Si atom -5569.696549 kJ/mol
# Density = 2.191407 g / cm^3
# Si number density = 21.964058 Si / 1000 Ang^3
#
#
#
# Elastic Constant Matrix: (Units=GPa)
#
#
# Indices 1 2 3 4 5 6 
#
# 1 115.9896 42.0352 26.7098 0.0000 25.6053 0.0000
# 2 42.0352 189.2856 28.9263 0.0000 22.9890 0.0000
# 3 26.7098 28.9263 36.2102 0.0000 22.8162 0.0000
# 4 0.0000 0.0000 0.0000 3.0441 0.0000 5.2225
# 5 25.6053 22.9890 22.8162 0.0000 27.0103 0.0000
# 6 0.0000 0.0000 0.0000 5.2225 0.0000 30.8245
#
#
#
# Elastic Compliance Matrix: (Units=1/GPa)
#
#
# Indices 1 2 3 4 5 6 
#
# 1 0.011318 -0.001197 -0.002723 0.000000 -0.007410 0.000000
# 2 -0.001197 0.006210 -0.003127 0.000000 -0.001509 0.000000
# 3 -0.002723 -0.003127 0.061615 0.000000 -0.046805 0.000000
# 4 0.000000 0.000000 0.000000 0.463115 0.000000 -0.078464
# 5 -0.007410 -0.001509 -0.046805 0.000000 0.084869 0.000000
# 6 0.000000 0.000000 0.000000 -0.078464 0.000000 0.045736
#
#
# Mechanical properties :
#
#
# Convention : Reuss Voigt Hill
#
# Bulk Modulus (GPa) = 15.37301 59.64756 37.51029
# Shear Modulus (GPa) = 7.05577 28.43005 17.74291
#
# Velocity S-wave (km/s) = 1.79427 3.60167 2.84529
# Velocity P-wave (km/s) = 3.36257 6.67172 5.28293
#
# Compressibility (1/GPa) = 0.06504905
#
# Stress axis : x y z
#
# Youngs Moduli (GPa) = 88.35252 161.02959 16.22989
#
# Poissons Ratio (x) = 0.19281 0.04419
# Poissons Ratio (y) = 0.10579 0.05075
# Poissons Ratio (z) = 0.24058 0.50348
#
# Static dielectric constant tensor:
#      x y z
#    x 1.874590 0.000000 0.009550 
#    y 0.000000 1.847200 0.000000 
#    z 0.009550 0.000000 1.870670 
# 
# From -- ./inp_files/147663.got.cif
#   From: 2010.05.17/outbox.cif.g08.bks.cpg/sg12_74_cif.got.tgz:147663.got - 2010.06.03 13:09:07.
