data_PCOD9208659
_publ_section_title
;
Structure prediction by ZEFSAII (Michael W. Deem and Ramdas Pophale) SiO2 
 PCOD9208659
Probable space group: C 2/M
;
_chemical_formula_sum "Si O2"
_cell_formula_units_Z 28
_cell_length_a 12.889765
_cell_length_b 13.045102
_cell_length_c 7.484953
_cell_angle_alpha 90.000000
_cell_angle_beta 54.494457
_cell_angle_gamma 90.000000
_cell_volume 1024.560521
_symmetry_space_group_name_H-M "C 2/M"
_symmetry_group_IT_number 12
_symmetry_cell_setting 'monoclinic'
loop_
_space_group_symop_operation_xyz
x,y,z
-x,y,-z
-x,-y,-z
x,-y,z
1/2+x,1/2+y,z
1/2-x,1/2+y,-z
1/2-x,1/2-y,-z
1/2+x,1/2-y,z
loop_
_atom_site_type_symbol
_atom_site_label
_atom_site_fract_x
_atom_site_fract_y
_atom_site_fract_z
Si Si1 0.134930 0.622089 0.150897
Si Si2 0.243095 0.123591 0.617627
Si Si3 0.147044 0.122924 0.339783
Si Si4 0.000000 0.759906 0.000000
O O1 0.105977 0.500000 0.167871
O O2 0.273718 0.640563 0.919613
O O3 0.039904 0.686465 0.124199
O O4 0.150058 0.652402 0.343128
O O5 0.237205 0.155210 0.415873
O O6 0.245249 0.000000 0.618840
O O7 0.111287 0.165066 0.826285
O O8 0.000000 0.156014 0.500000
O O9 0.140408 0.000000 0.360926
#
# Coordination Sequence:
#
# PCOD9208659 Si02
#       4
#     8   8   8   4
#     4  10  22  40  59  83 117 152 187 231 284 339
#     4  10  21  38  59  83 113 150 193 235 276 330
#     4   9  18  35  60  85 110 147 193 236 277 327
#     4  12  22  36  60  88 118 150 184 232 290 340
#
# _framework density 27.328787999999999
#
# number of rings (size 3 to 8) (size 9 to 14) (size 15 to 20)
#    0.000    2.000    0.000    3.429    0.000    5.714 
#    0.000    4.286    0.000    6.857    0.000    0.000 
#    0.000    3.429    0.000    0.000    0.000    0.000 
#
# Total GULP energy -78557.886023 kJ/mol
# GULP energy per Si atom -5611.277573 kJ/mol
# Density = 2.726659 g / cm^3
# Si number density = 27.328788 Si / 1000 Ang^3
#
#
#
# Elastic Constant Matrix: (Units=GPa)
#
#
# Indices 1 2 3 4 5 6 
#
# 1 186.9536 42.8641 66.4517 0.0000 30.5884 0.0000
# 2 42.8641 57.2290 27.8551 0.0000 17.5494 0.0000
# 3 66.4517 27.8551 87.2603 0.0000 26.3696 0.0000
# 4 0.0000 0.0000 0.0000 46.0049 0.0000 7.7439
# 5 30.5884 17.5494 26.3696 0.0000 62.0048 0.0000
# 6 0.0000 0.0000 0.0000 7.7439 0.0000 57.4345
#
#
#
# Elastic Compliance Matrix: (Units=1/GPa)
#
#
# Indices 1 2 3 4 5 6 
#
# 1 0.007945 -0.003375 -0.004679 0.000000 -0.000975 0.000000
# 2 -0.003375 0.022804 -0.003743 0.000000 -0.003197 0.000000
# 3 -0.004679 -0.003743 0.017442 0.000000 -0.004050 0.000000
# 4 0.000000 0.000000 0.000000 0.022242 0.000000 -0.002999
# 5 -0.000975 -0.003197 -0.004050 0.000000 0.019236 0.000000
# 6 0.000000 0.000000 0.000000 -0.002999 0.000000 0.017815
#
#
# Mechanical properties :
#
#
# Convention : Reuss Voigt Hill
#
# Bulk Modulus (GPa) = 40.65452 67.30941 53.98196
# Shear Modulus (GPa) = 35.89992 46.04031 40.97012
#
# Velocity S-wave (km/s) = 3.62834 4.10894 3.87609
# Velocity P-wave (km/s) = 5.69750 6.86980 6.31093
#
# Compressibility (1/GPa) = 0.02459751
#
# Stress axis : x y z
#
# Youngs Moduli (GPa) = 125.86298 43.85248 57.33361
#
# Poissons Ratio (x) = 0.14799 0.26825
# Poissons Ratio (y) = 0.42475 0.21461
# Poissons Ratio (z) = 0.58888 0.16415
#
# Static dielectric constant tensor:
#      x y z
#    x 2.099310 0.000000 0.029740 
#    y 0.000000 2.155570 0.000000 
#    z 0.029740 0.000000 2.078300 
# 
# From -- ./inp_files/44765.got.cif
#   From: 2010.05.17/outbox.cif.g08.bks.cpg/sg12_23_cif.got.tgz:44765.got - 2010.06.03 13:09:07.
