data_PCOD9208775
_publ_section_title
;
Structure prediction by ZEFSAII (Michael W. Deem and Ramdas Pophale) SiO2 
 PCOD9208775
Probable space group: C 2/M
;
_chemical_formula_sum "Si O2"
_cell_formula_units_Z 44
_cell_length_a 8.906618
_cell_length_b 28.262032
_cell_length_c 8.199928
_cell_angle_alpha 90.000000
_cell_angle_beta 118.570530
_cell_angle_gamma 90.000000
_cell_volume 1812.733911
_symmetry_space_group_name_H-M "C 2/M"
_symmetry_group_IT_number 12
_symmetry_cell_setting 'monoclinic'
loop_
_space_group_symop_operation_xyz
x,y,z
-x,y,-z
-x,-y,-z
x,-y,z
1/2+x,1/2+y,z
1/2-x,1/2+y,-z
1/2-x,1/2-y,-z
1/2+x,1/2-y,z
loop_
_atom_site_type_symbol
_atom_site_label
_atom_site_fract_x
_atom_site_fract_y
_atom_site_fract_z
Si Si1 0.000000 0.419238 0.500000
Si Si2 0.856687 0.259814 0.798729
Si Si3 0.631113 0.590654 0.701149
Si Si4 0.018354 0.813628 0.702298
Si Si5 0.323628 0.500000 0.091885
Si Si6 0.540683 0.859783 0.216520
Si Si7 0.760436 0.000000 0.685587
O O1 0.049676 0.387311 0.683481
O O2 0.838218 0.454757 0.439201
O O3 0.691507 0.281586 0.802267
O O4 0.944788 0.303831 0.750853
O O5 0.852999 0.213701 0.683997
O O6 0.000000 0.243683 0.000000
O O7 0.500000 0.571158 0.500000
O O8 0.549173 0.632066 0.772959
O O9 0.720969 0.548525 0.842698
O O10 0.771399 0.619006 0.674323
O O11 0.000000 0.816713 0.500000
O O12 0.533061 0.500000 0.213407
O O13 0.239333 0.500000 0.870887
O O14 0.500000 0.865508 0.000000
#
# Coordination Sequence:
#
# PCOD9208775 Si02
#       7
#     4   8   8   8   4   8   4
#     4  11  22  42  62  90 128 160 200 257 318 350
#     4  10  21  39  59  89 124 159 208 252 302 372
#     4  10  21  38  61  87 120 161 210 249 304 375
#     4  10  21  38  59  88 124 158 207 255 300 374
#     4  11  21  41  61  86 123 165 201 254 319 349
#     4  10  22  39  63  92 123 162 207 250 304 374
#     4  10  24  39  58  91 127 150 212 263 287 393
#
# _framework density 24.272731
#
# number of rings (size 3 to 8) (size 9 to 14) (size 15 to 20)
#    0.000    1.818    0.000    3.545    1.273    1.455 
#    6.545    3.182    0.000    0.000    0.000    0.000 
#    0.000    0.000    0.000    0.000    0.000    0.000 
#
# Total GULP energy -122682.417785 kJ/mol
# GULP energy per Si atom -5576.473536 kJ/mol
# Density = 2.421749 g / cm^3
# Si number density = 24.272731 Si / 1000 Ang^3
#
#
#
# Elastic Constant Matrix: (Units=GPa)
#
#
# Indices 1 2 3 4 5 6 
#
# 1 29.0686 13.5029 -2.3100 0.0000 -0.6300 0.0000
# 2 13.5029 139.6941 19.3871 0.0000 -33.6579 0.0000
# 3 -2.3100 19.3871 86.0986 0.0000 -1.4509 0.0000
# 4 0.0000 0.0000 0.0000 65.4742 0.0000 -31.6602
# 5 -0.6300 -33.6579 -1.4509 0.0000 26.6458 0.0000
# 6 0.0000 0.0000 0.0000 -31.6602 0.0000 51.5330
#
#
#
# Elastic Compliance Matrix: (Units=1/GPa)
#
#
# Indices 1 2 3 4 5 6 
#
# 1 0.036856 -0.005192 0.002064 0.000000 -0.005575 0.000000
# 2 -0.005192 0.011416 -0.002471 0.000000 0.014162 0.000000
# 3 0.002064 -0.002471 0.012186 0.000000 -0.002409 0.000000
# 4 0.000000 0.000000 0.000000 0.021728 0.000000 0.013349
# 5 -0.005575 0.014162 -0.002409 0.000000 0.055156 0.000000
# 6 0.000000 0.000000 0.000000 0.013349 0.000000 0.027606
#
#
# Mechanical properties :
#
#
# Convention : Reuss Voigt Hill
#
# Bulk Modulus (GPa) = 20.30072 35.11347 27.70710
# Shear Modulus (GPa) = 25.96503 43.68269 34.82386
#
# Velocity S-wave (km/s) = 3.27421 4.24684 3.79184
# Velocity P-wave (km/s) = 4.76190 6.20848 5.53267
#
# Compressibility (1/GPa) = 0.04925933
#
# Stress axis : x y z
#
# Youngs Moduli (GPa) = 27.13227 87.59914 82.06267
#
# Poissons Ratio (x) = 0.45483 -0.16938
# Poissons Ratio (y) = 0.14088 0.20279
# Poissons Ratio (z) = -0.05600 0.21647
#
# Static dielectric constant tensor:
#      x y z
#    x 2.046050 0.000000 -0.003210 
#    y 0.000000 1.988720 0.000000 
#    z -0.003210 0.000000 1.991590 
# 
# From -- ./inp_files/53455.got.cif
#   From: 2010.05.17/outbox.cif.g08.bks.cpg/sg12_27_cif.got.tgz:53455.got - 2010.06.03 13:09:07.
