data_PCOD9208290
_publ_section_title
;
Structure prediction by ZEFSAII (Michael W. Deem and Ramdas Pophale) SiO2 
 PCOD9208290
Probable space group: C 2/M
;
_chemical_formula_sum "Si O2"
_cell_formula_units_Z 56
_cell_length_a 9.588022
_cell_length_b 17.990786
_cell_length_c 17.056259
_cell_angle_alpha 90.000000
_cell_angle_beta 71.823416
_cell_angle_gamma 90.000000
_cell_volume 2795.323565
_symmetry_space_group_name_H-M "C 2/M"
_symmetry_group_IT_number 12
_symmetry_cell_setting 'monoclinic'
loop_
_space_group_symop_operation_xyz
x,y,z
-x,y,-z
-x,-y,-z
x,-y,z
1/2+x,1/2+y,z
1/2-x,1/2+y,-z
1/2-x,1/2-y,-z
1/2+x,1/2-y,z
loop_
_atom_site_type_symbol
_atom_site_label
_atom_site_fract_x
_atom_site_fract_y
_atom_site_fract_z
Si Si1 0.360915 0.656457 0.856417
Si Si2 0.175661 0.798789 0.852497
Si Si3 0.323686 0.418747 0.019279
Si Si4 0.048643 0.846318 0.325926
Si Si5 0.102652 0.324964 0.317698
Si Si6 0.179271 0.412635 0.628571
Si Si7 0.254936 0.167550 0.539373
O O1 0.238112 0.716774 0.855778
O O2 0.501186 0.697729 0.871188
O O3 0.300605 0.601147 0.932575
O O4 0.423991 0.620523 0.765393
O O5 0.252841 0.829845 0.760524
O O6 0.223102 0.852247 0.915521
O O7 0.262677 0.500000 0.050261
O O8 0.500000 0.422689 0.000000
O O9 0.040535 0.757525 0.313975
O O10 0.190900 0.868324 0.350910
O O11 0.902500 0.861010 0.401100
O O12 0.143612 0.329117 0.401801
O O13 0.979123 0.383606 0.316159
O O14 0.197415 0.500000 0.636297
O O15 0.189892 0.388720 0.536033
O O16 0.250000 0.250000 0.500000
#
# Coordination Sequence:
#
# PCOD9208290 Si02
#       7
#     8   8   8   8   8   8   8
#     4  10  21  37  64  96 122 155 209 259 305 362
#     4  10  21  37  64  96 122 155 209 259 305 362
#     4   9  19  38  61  87 122 167 204 246 309 374
#     4  11  22  40  65  93 123 167 212 259 311 382
#     4  11  22  40  65  93 123 167 212 259 311 382
#     4  12  28  42  60  95 132 164 205 269 331 363
#     4  12  22  40  66  93 122 166 218 261 307 379
#
# _framework density 20.033460000000002
#
# number of rings (size 3 to 8) (size 9 to 14) (size 15 to 20)
#    0.000    1.286    4.286    1.286    6.000    3.429 
#    0.000    0.000    0.000    0.857    0.000    0.000 
#    0.000    0.000    0.000    0.000    0.000    0.000 
#
# Total GULP energy -156333.441487 kJ/mol
# GULP energy per Si atom -5583.337196 kJ/mol
# Density = 1.998786 g / cm^3
# Si number density = 20.033460 Si / 1000 Ang^3
#
#
#
# Elastic Constant Matrix: (Units=GPa)
#
#
# Indices 1 2 3 4 5 6 
#
# 1 49.2303 -4.5049 -10.4156 0.0000 5.4712 0.0000
# 2 -4.5049 48.8367 4.0706 0.0000 -2.9099 0.0000
# 3 -10.4156 4.0706 65.6051 0.0000 21.5727 0.0000
# 4 0.0000 0.0000 0.0000 14.2707 0.0000 -5.3927
# 5 5.4712 -2.9099 21.5727 0.0000 25.4983 0.0000
# 6 0.0000 0.0000 0.0000 -5.3927 0.0000 7.7929
#
#
#
# Elastic Compliance Matrix: (Units=1/GPa)
#
#
# Indices 1 2 3 4 5 6 
#
# 1 0.023144 0.000878 0.007232 0.000000 -0.010984 0.000000
# 2 0.000878 0.021040 -0.002624 0.000000 0.004433 0.000000
# 3 0.007232 -0.002624 0.023777 0.000000 -0.021968 0.000000
# 4 0.000000 0.000000 0.000000 0.094886 0.000000 0.065661
# 5 -0.010984 0.004433 -0.021968 0.000000 0.060667 0.000000
# 6 0.000000 0.000000 0.000000 0.065661 0.000000 0.173759
#
#
# Mechanical properties :
#
#
# Convention : Reuss Voigt Hill
#
# Bulk Modulus (GPa) = 12.66903 15.77470 14.22187
# Shear Modulus (GPa) = 12.11791 21.14719 16.63255
#
# Velocity S-wave (km/s) = 2.46211 3.25251 2.88451
# Velocity P-wave (km/s) = 3.79741 4.69003 4.26712
#
# Compressibility (1/GPa) = 0.07893262
#
# Stress axis : x y z
#
# Youngs Moduli (GPa) = 43.20820 47.52815 42.05699
#
# Poissons Ratio (x) = -0.04171 -0.30415
# Poissons Ratio (y) = -0.03792 0.11035
# Poissons Ratio (z) = -0.31247 0.12470
#
# Static dielectric constant tensor:
#      x y z
#    x 1.706720 0.000000 0.000750 
#    y 0.000000 1.688450 0.000000 
#    z 0.000750 0.000000 1.747460 
# 
# From -- ./inp_files/257058.got.cif
#   From: 2010.05.17/outbox.cif.g08.bks.cpg/sg12_129_cif.got.tgz:257058.got - 2010.06.03 13:09:07.
