data_PCOD9208645
_publ_section_title
;
Structure prediction by ZEFSAII (Michael W. Deem and Ramdas Pophale) SiO2 
 PCOD9208645
Probable space group: C 2/M
;
_chemical_formula_sum "Si O2"
_cell_formula_units_Z 56
_cell_length_a 14.858277
_cell_length_b 8.523499
_cell_length_c 19.592881
_cell_angle_alpha 90.000000
_cell_angle_beta 79.159967
_cell_angle_gamma 90.000000
_cell_volume 2437.054144
_symmetry_space_group_name_H-M "C 2/M"
_symmetry_group_IT_number 12
_symmetry_cell_setting 'monoclinic'
loop_
_space_group_symop_operation_xyz
x,y,z
-x,y,-z
-x,-y,-z
x,-y,z
1/2+x,1/2+y,z
1/2-x,1/2+y,-z
1/2-x,1/2-y,-z
1/2+x,1/2-y,z
loop_
_atom_site_type_symbol
_atom_site_label
_atom_site_fract_x
_atom_site_fract_y
_atom_site_fract_z
Si Si1 0.575209 0.818489 0.629355
Si Si2 0.658494 0.814187 0.476941
Si Si3 0.854901 0.312253 0.053243
Si Si4 0.336422 0.810230 0.899125
Si Si5 0.470823 0.188873 0.160476
Si Si6 0.307568 0.318307 0.275548
Si Si7 0.617922 0.682584 0.334259
O O1 0.581997 0.797754 0.547045
O O2 0.651160 0.712383 0.654937
O O3 0.473833 0.778625 0.669862
O O4 0.597545 0.000000 0.641484
O O5 0.750000 0.750000 0.500000
O O6 0.637879 0.721407 0.411035
O O7 0.666668 0.000000 0.459737
O O8 0.851249 0.500000 0.050629
O O9 0.763499 0.252279 0.103992
O O10 0.941691 0.271734 0.086831
O O11 0.852787 0.256671 0.975527
O O12 0.424809 0.757664 0.843829
O O13 0.334122 0.000000 0.897991
O O14 0.391234 0.258483 0.217732
O O15 0.468575 0.000000 0.167967
O O16 0.290683 0.500000 0.265814
O O17 0.211058 0.230507 0.282631
O O18 0.598735 0.500000 0.327724
#
# Coordination Sequence:
#
# PCOD9208645 Si02
#       7
#     8   8   8   8   8   8   8
#     4  11  24  43  66  92 122 158 201 249 303 362
#     4  11  22  38  65  95 126 159 198 248 303 360
#     4   9  18  34  58  87 117 151 192 239 292 351
#     4   9  18  34  58  87 117 151 191 239 294 351
#     4  10  21  38  59  82 116 158 199 241 293 357
#     4  12  26  43  62  86 120 161 207 254 301 359
#     4  12  25  42  65  92 123 160 202 250 304 362
#
# _framework density 22.978560999999999
#
# number of rings (size 3 to 8) (size 9 to 14) (size 15 to 20)
#    0.000    1.429    1.429    4.286    0.000    7.429 
#    0.000    2.857    0.000    4.286    0.000    0.000 
#    0.000    0.000    0.000    0.000    0.000    0.000 
#
# Total GULP energy -156646.888092 kJ/mol
# GULP energy per Si atom -5594.531718 kJ/mol
# Density = 2.292626 g / cm^3
# Si number density = 22.978561 Si / 1000 Ang^3
#
#
#
# Elastic Constant Matrix: (Units=GPa)
#
#
# Indices 1 2 3 4 5 6 
#
# 1 80.8902 2.3335 13.7098 0.0000 -30.8064 0.0000
# 2 2.3335 12.6328 -7.8895 0.0000 -0.7031 0.0000
# 3 13.7098 -7.8895 69.6025 0.0000 -22.9560 0.0000
# 4 0.0000 0.0000 0.0000 26.3285 0.0000 -5.0142
# 5 -30.8064 -0.7031 -22.9560 0.0000 38.8385 0.0000
# 6 0.0000 0.0000 0.0000 -5.0142 0.0000 28.6532
#
#
#
# Elastic Compliance Matrix: (Units=1/GPa)
#
#
# Indices 1 2 3 4 5 6 
#
# 1 0.017862 -0.001739 0.001176 0.000000 0.014832 0.000000
# 2 -0.001739 0.087972 0.012899 0.000000 0.007837 0.000000
# 3 0.001176 0.012899 0.019853 0.000000 0.012901 0.000000
# 4 0.000000 0.000000 0.000000 0.039291 0.000000 0.006876
# 5 0.014832 0.007837 0.012901 0.000000 0.045279 0.000000
# 6 0.000000 0.000000 0.000000 0.006876 0.000000 0.036103
#
#
# Mechanical properties :
#
#
# Convention : Reuss Voigt Hill
#
# Bulk Modulus (GPa) = 6.65077 19.93701 13.29389
# Shear Modulus (GPa) = 18.39540 29.09550 23.74545
#
# Velocity S-wave (km/s) = 2.83246 3.56223 3.21810
# Velocity P-wave (km/s) = 3.68751 5.06108 4.42788
#
# Compressibility (1/GPa) = 0.15035843
#
# Stress axis : x y z
#
# Youngs Moduli (GPa) = 55.98562 11.36723 50.37142
#
# Poissons Ratio (x) = 0.01977 -0.05925
# Poissons Ratio (y) = 0.09738 -0.64974
# Poissons Ratio (z) = -0.06585 -0.14663
#
# Static dielectric constant tensor:
#      x y z
#    x 1.838680 0.000000 0.018980 
#    y 0.000000 1.776910 0.000000 
#    z 0.018980 0.000000 1.937630 
# 
# From -- ./inp_files/338535.got.cif
#   From: 2010.05.17/outbox.cif.g08.bks.cpg/sg12_170_cif.got.tgz:338535.got - 2010.06.03 13:09:07.
