data_PCOD9208174
_publ_section_title
;
Structure prediction by ZEFSAII (Michael W. Deem and Ramdas Pophale) SiO2 
 PCOD9208174
Probable space group: C 2/M
;
_chemical_formula_sum "Si O2"
_cell_formula_units_Z 56
_cell_length_a 15.530072
_cell_length_b 22.782661
_cell_length_c 9.623707
_cell_angle_alpha 90.000000
_cell_angle_beta 55.942343
_cell_angle_gamma 90.000000
_cell_volume 2820.976191
_symmetry_space_group_name_H-M "C 2/M"
_symmetry_group_IT_number 12
_symmetry_cell_setting 'monoclinic'
loop_
_space_group_symop_operation_xyz
x,y,z
-x,y,-z
-x,-y,-z
x,-y,z
1/2+x,1/2+y,z
1/2-x,1/2+y,-z
1/2-x,1/2-y,-z
1/2+x,1/2-y,z
loop_
_atom_site_type_symbol
_atom_site_label
_atom_site_fract_x
_atom_site_fract_y
_atom_site_fract_z
Si Si1 0.211559 0.565768 0.605778
Si Si2 0.584837 0.285413 0.802384
Si Si3 0.337724 0.162151 0.869255
Si Si4 0.375601 0.932554 0.628529
Si Si5 0.954364 0.659974 0.190439
Si Si6 0.594804 0.360278 0.522719
Si Si7 0.220505 0.772078 0.222340
O O1 0.190219 0.500000 0.675094
O O2 0.177440 0.568950 0.475266
O O3 0.137910 0.614731 0.739816
O O4 0.329833 0.583965 0.526369
O O5 0.574652 0.223736 0.726801
O O6 0.573586 0.335864 0.697298
O O7 0.690452 0.269788 0.791841
O O8 0.500000 0.295406 0.000000
O O9 0.309694 0.112577 0.782934
O O10 0.446752 0.135716 0.820689
O O11 0.355112 0.225093 0.780703
O O12 0.266393 0.182940 0.063661
O O13 0.500000 0.917778 0.500000
O O14 0.371779 0.000000 0.683778
O O15 0.000000 0.674647 0.000000
O O16 0.500000 0.370070 0.500000
O O17 0.664065 0.309761 0.388248
#
# Coordination Sequence:
#
# PCOD9208174 Si02
#       7
#     8   8   8   8   8   8   8
#     4  11  24  43  64  90 125 172 221 270 322 376
#     4  11  22  41  64  96 136 166 205 262 325 392
#     4  11  21  35  60  91 133 169 200 264 320 383
#     4  10  21  37  62  94 128 168 213 258 321 396
#     4  11  20  37  58  92 128 159 203 256 322 391
#     4  12  26  42  65  95 128 173 226 262 318 385
#     4  11  23  38  60  97 132 167 209 261 327 395
#
# _framework density 19.851285000000001
#
# number of rings (size 3 to 8) (size 9 to 14) (size 15 to 20)
#    0.000    1.000    5.714    2.143    4.000    1.143 
#    0.000    2.143    0.000    0.429    0.000    0.000 
#    0.000    0.000    0.000    0.000    0.000    0.000 
#
# Total GULP energy -155957.535914 kJ/mol
# GULP energy per Si atom -5569.911997 kJ/mol
# Density = 1.980610 g / cm^3
# Si number density = 19.851285 Si / 1000 Ang^3
#
#
#
# Elastic Constant Matrix: (Units=GPa)
#
#
# Indices 1 2 3 4 5 6 
#
# 1 105.6402 15.8679 16.8381 0.0000 -11.0280 0.0000
# 2 15.8679 69.9127 36.9609 0.0000 -6.0423 0.0000
# 3 16.8381 36.9609 71.7374 0.0000 6.7268 0.0000
# 4 0.0000 0.0000 0.0000 12.0126 0.0000 -3.0783
# 5 -11.0280 -6.0423 6.7268 0.0000 18.8946 0.0000
# 6 0.0000 0.0000 0.0000 -3.0783 0.0000 25.9733
#
#
#
# Elastic Compliance Matrix: (Units=1/GPa)
#
#
# Indices 1 2 3 4 5 6 
#
# 1 0.010755 -0.000147 -0.003137 0.000000 0.007347 0.000000
# 2 -0.000147 0.021779 -0.012240 0.000000 0.011236 0.000000
# 3 -0.003137 -0.012240 0.022265 0.000000 -0.013672 0.000000
# 4 0.000000 0.000000 0.000000 0.085853 0.000000 0.010175
# 5 0.007347 0.011236 -0.013672 0.000000 0.065674 0.000000
# 6 0.000000 0.000000 0.000000 0.010175 0.000000 0.039707
#
#
# Mechanical properties :
#
#
# Convention : Reuss Voigt Hill
#
# Bulk Modulus (GPa) = 42.10714 42.95825 42.53269
# Shear Modulus (GPa) = 17.54384 23.21766 20.38075
#
# Velocity S-wave (km/s) = 2.97604 3.42362 3.20765
# Velocity P-wave (km/s) = 5.75034 6.10862 5.93219
#
# Compressibility (1/GPa) = 0.02374894
#
# Stress axis : x y z
#
# Youngs Moduli (GPa) = 92.97724 45.91544 44.91431
#
# Poissons Ratio (x) = 0.00677 0.14092
# Poissons Ratio (y) = 0.01371 0.54976
# Poissons Ratio (z) = 0.29171 0.56201
#
# Static dielectric constant tensor:
#      x y z
#    x 1.841410 0.000000 0.038160 
#    y 0.000000 1.748110 0.000000 
#    z 0.038160 0.000000 1.740430 
# 
# From -- ./inp_files/65757.got.cif
#   From: 2010.05.17/outbox.cif.g08.bks.cpg/sg12_33_cif.got.tgz:65757.got - 2010.06.03 13:09:07.
