data_PCOD9208639
_publ_section_title
;
Structure prediction by ZEFSAII (Michael W. Deem and Ramdas Pophale) SiO2 
 PCOD9208639
Probable space group: C 2/M
;
_chemical_formula_sum "Si O2"
_cell_formula_units_Z 48
_cell_length_a 20.377042
_cell_length_b 8.703812
_cell_length_c 21.617614
_cell_angle_alpha 90.000000
_cell_angle_beta 44.998127
_cell_angle_gamma 90.000000
_cell_volume 2710.998048
_symmetry_space_group_name_H-M "C 2/M"
_symmetry_group_IT_number 12
_symmetry_cell_setting 'monoclinic'
loop_
_space_group_symop_operation_xyz
x,y,z
-x,y,-z
-x,-y,-z
x,-y,z
1/2+x,1/2+y,z
1/2-x,1/2+y,-z
1/2-x,1/2-y,-z
1/2+x,1/2-y,z
loop_
_atom_site_type_symbol
_atom_site_label
_atom_site_fract_x
_atom_site_fract_y
_atom_site_fract_z
Si Si1 0.353200 0.183747 0.931022
Si Si2 0.857267 0.317049 0.262490
Si Si3 0.999178 0.184384 0.928120
Si Si4 0.499385 0.815459 0.602172
Si Si5 0.847301 0.315457 0.601359
Si Si6 0.998388 0.182935 0.739184
O O1 0.411202 0.244093 0.951364
O O2 0.410873 0.244265 0.833478
O O3 0.351803 0.000000 0.931705
O O4 0.250000 0.250000 0.000000
O O5 0.867334 0.500000 0.256277
O O6 0.910900 0.248874 0.167315
O O7 0.750553 0.268063 0.333662
O O8 0.911399 0.247492 0.285337
O O9 0.996641 0.000000 0.922838
O O10 0.000000 0.221834 0.000000
O O11 0.409928 0.777938 0.619577
O O12 0.589322 0.777831 0.500475
O O13 0.498988 0.731913 0.667642
O O14 0.499367 0.000000 0.611716
O O15 0.832963 0.500000 0.610896
O O16 0.995451 0.000000 0.747733
#
# Coordination Sequence:
#
# PCOD9208639 Si02
#       6
#     8   8   8   8   8   8
#     4  11  22  38  59  82 111 144 182 226 270 321
#     4  11  22  36  56  81 111 145 182 226 271 320
#     4  10  21  38  59  82 110 144 181 223 272 325
#     4   9  19  37  59  82 109 143 182 224 273 324
#     4   9  19  37  59  81 109 144 181 224 272 325
#     4  11  22  37  57  81 111 145 182 225 272 322
#
# _framework density 17.705656000000001
#
# number of rings (size 3 to 8) (size 9 to 14) (size 15 to 20)
#    0.000    1.833    0.000    8.000    0.000    4.667 
#    0.000    3.333    0.000    0.000    0.000    0.000 
#    0.000    0.000    0.000    0.000    0.000    0.000 
#
# Total GULP energy -134079.670009 kJ/mol
# GULP energy per Si atom -5586.652917 kJ/mol
# Density = 1.766536 g / cm^3
# Si number density = 17.705656 Si / 1000 Ang^3
#
#
#
# Elastic Constant Matrix: (Units=GPa)
#
#
# Indices 1 2 3 4 5 6 
#
# 1 124.6421 81.9698 119.3742 -0.0001 1.8362 0.0001
# 2 81.9698 133.2912 81.9722 -0.0003 3.3613 0.0005
# 3 119.3742 81.9722 125.3293 0.0000 -0.1155 0.0001
# 4 -0.0001 -0.0003 0.0000 30.8648 0.0000 0.1141
# 5 1.8362 3.3613 -0.1155 0.0000 43.3258 -0.0001
# 6 0.0001 0.0005 0.0001 0.1141 -0.0001 33.0655
#
#
#
# Elastic Compliance Matrix: (Units=1/GPa)
#
#
# Indices 1 2 3 4 5 6 
#
# 1 0.093663 -0.004409 -0.086332 0.000000 -0.003857 0.000000
# 2 -0.004409 0.012801 -0.004174 0.000000 -0.000817 0.000000
# 3 -0.086332 -0.004174 0.092943 0.000000 0.004230 0.000000
# 4 0.000000 0.000000 0.000000 0.032400 0.000000 -0.000112
# 5 -0.003857 -0.000817 0.004230 0.000000 0.023319 0.000000
# 6 0.000000 0.000000 0.000000 -0.000112 0.000000 0.030243
#
#
# Mechanical properties :
#
#
# Convention : Reuss Voigt Hill
#
# Bulk Modulus (GPa) = 104.42022 105.54389 104.98205
# Shear Modulus (GPa) = 10.45168 28.11432 19.28300
#
# Velocity S-wave (km/s) = 2.43225 3.98913 3.30371
# Velocity P-wave (km/s) = 8.18483 8.99763 8.60083
#
# Compressibility (1/GPa) = 0.00957669
#
# Stress axis : x y z
#
# Youngs Moduli (GPa) = 10.67658 78.11661 10.75931
#
# Poissons Ratio (x) = 0.34444 0.92887
# Poissons Ratio (y) = 0.04708 0.04491
# Poissons Ratio (z) = 0.92173 0.32604
#
# Static dielectric constant tensor:
#      x y z
#    x 1.579740 0.000000 0.002730 
#    y 0.000000 1.592080 0.000000 
#    z 0.002730 0.000000 1.579920 
# 
# From -- ./inp_files/319562.got.cif
#   From: 2010.05.17/outbox.cif.g08.bks.cpg/sg12_160_cif.got.tgz:319562.got - 2010.06.03 13:09:07.
