data_PCOD9208875
_publ_section_title
;
Structure prediction by ZEFSAII (Michael W. Deem and Ramdas Pophale) SiO2 
 PCOD9208875
Probable space group: C 2/M
;
_chemical_formula_sum "Si O2"
_cell_formula_units_Z 64
_cell_length_a 12.271410
_cell_length_b 18.819569
_cell_length_c 15.644191
_cell_angle_alpha 90.000000
_cell_angle_beta 76.686363
_cell_angle_gamma 90.000000
_cell_volume 3515.810619
_symmetry_space_group_name_H-M "C 2/M"
_symmetry_group_IT_number 12
_symmetry_cell_setting 'monoclinic'
loop_
_space_group_symop_operation_xyz
x,y,z
-x,y,-z
-x,-y,-z
x,-y,z
1/2+x,1/2+y,z
1/2-x,1/2+y,-z
1/2-x,1/2-y,-z
1/2+x,1/2-y,z
loop_
_atom_site_type_symbol
_atom_site_label
_atom_site_fract_x
_atom_site_fract_y
_atom_site_fract_z
Si Si1 0.053883 0.914458 0.583839
Si Si2 0.229517 0.346758 0.074591
Si Si3 0.512308 0.171706 0.800503
Si Si4 0.009444 0.414553 0.632215
Si Si5 0.438424 0.417224 0.098189
Si Si6 0.538542 0.668842 0.238341
Si Si7 0.815104 0.586077 0.545032
Si Si8 0.779076 0.686437 0.116035
O O1 0.990157 0.870213 0.668247
O O2 0.185517 0.892718 0.563655
O O3 0.000000 0.902440 0.500000
O O4 0.047084 0.000000 0.601807
O O5 0.307453 0.404301 0.105687
O O6 0.281045 0.269687 0.089601
O O7 0.104137 0.344699 0.131501
O O8 0.231035 0.354332 0.972112
O O9 0.528433 0.117215 0.720960
O O10 0.504831 0.250417 0.760788
O O11 0.610838 0.168962 0.851252
O O12 0.009030 0.500000 0.634463
O O13 0.109243 0.392503 0.549849
O O14 0.889558 0.391328 0.613409
O O15 0.463669 0.500000 0.105416
O O16 0.480254 0.373991 0.171774
O O17 0.500000 0.392108 0.000000
O O18 0.670191 0.671710 0.192977
O O19 0.814276 0.500000 0.545851
#
# Coordination Sequence:
#
# PCOD9208875 Si02
#       8
#     8   8   8   8   8   8   8   8
#     4  10  22  39  60  84 114 157 202 248 305 361
#     4  10  21  38  60  85 118 160 200 238 287 361
#     4  11  23  36  61  91 119 157 203 240 298 360
#     4   9  19  37  59  84 112 151 197 244 295 352
#     4  11  22  39  63  90 120 156 204 256 299 347
#     4  11  23  39  58  89 124 155 203 246 305 361
#     4   8  17  37  61  81 108 150 200 243 295 359
#     4  10  21  38  61  83 121 161 194 239 295 362
#
# _framework density 18.203484
#
# number of rings (size 3 to 8) (size 9 to 14) (size 15 to 20)
#    0.000    2.000    2.500    1.500    3.500    0.500 
#    2.250    1.875    0.000    1.500    0.000    0.000 
#    0.000    0.000    0.000    0.000    0.000    0.000 
#
# Total GULP energy -178599.909146 kJ/mol
# GULP energy per Si atom -5581.247161 kJ/mol
# Density = 1.816205 g / cm^3
# Si number density = 18.203484 Si / 1000 Ang^3
#
#
#
# Elastic Constant Matrix: (Units=GPa)
#
#
# Indices 1 2 3 4 5 6 
#
# 1 108.9355 19.5330 40.3784 0.0000 6.2061 0.0000
# 2 19.5330 31.3476 31.1506 0.0000 -4.0200 0.0000
# 3 40.3784 31.1506 91.9952 0.0000 8.1883 0.0000
# 4 0.0000 0.0000 0.0000 23.4476 0.0000 -5.2686
# 5 6.2061 -4.0200 8.1883 0.0000 17.8416 0.0000
# 6 0.0000 0.0000 0.0000 -5.2686 0.0000 17.4728
#
#
#
# Elastic Compliance Matrix: (Units=1/GPa)
#
#
# Indices 1 2 3 4 5 6 
#
# 1 0.011340 -0.004320 -0.003208 0.000000 -0.003446 0.000000
# 2 -0.004320 0.056884 -0.019434 0.000000 0.023239 0.000000
# 3 -0.003208 -0.019434 0.019964 0.000000 -0.012426 0.000000
# 4 0.000000 0.000000 0.000000 0.045748 0.000000 0.013794
# 5 -0.003446 0.023239 -0.012426 0.000000 0.068186 0.000000
# 6 0.000000 0.000000 0.000000 0.013794 0.000000 0.061391
#
#
# Mechanical properties :
#
#
# Convention : Reuss Voigt Hill
#
# Bulk Modulus (GPa) = 29.18432 46.04470 37.61451
# Shear Modulus (GPa) = 15.20408 21.16682 18.18545
#
# Velocity S-wave (km/s) = 2.89317 3.41367 3.16414
# Velocity P-wave (km/s) = 5.21801 6.39428 5.83586
#
# Compressibility (1/GPa) = 0.03426498
#
# Stress axis : x y z
#
# Youngs Moduli (GPa) = 88.18619 17.57953 50.08896
#
# Poissons Ratio (x) = 0.07595 0.16066
# Poissons Ratio (y) = 0.38100 0.97342
# Poissons Ratio (z) = 0.28286 0.34164
#
# Static dielectric constant tensor:
#      x y z
#    x 1.620330 0.000000 -0.010230 
#    y 0.000000 1.614940 0.000000 
#    z -0.010230 0.000000 1.611300 
# 
# From -- ./inp_files/207658.got.cif
#   From: 2010.05.17/outbox.cif.g08.bks.cpg/sg12_104_cif.got.tgz:207658.got - 2010.06.03 13:09:07.
