data_PCOD9208913
_publ_section_title
;
Structure prediction by ZEFSAII (Michael W. Deem and Ramdas Pophale) SiO2 
 PCOD9208913
Probable space group: C 2/M
;
_chemical_formula_sum "Si O2"
_cell_formula_units_Z 60
_cell_length_a 25.234018
_cell_length_b 7.712431
_cell_length_c 27.743903
_cell_angle_alpha 90.000000
_cell_angle_beta 145.958506
_cell_angle_gamma 90.000000
_cell_volume 3022.545439
_symmetry_space_group_name_H-M "C 2/M"
_symmetry_group_IT_number 12
_symmetry_cell_setting 'monoclinic'
loop_
_space_group_symop_operation_xyz
x,y,z
-x,y,-z
-x,-y,-z
x,-y,z
1/2+x,1/2+y,z
1/2-x,1/2+y,-z
1/2-x,1/2-y,-z
1/2+x,1/2-y,z
loop_
_atom_site_type_symbol
_atom_site_label
_atom_site_fract_x
_atom_site_fract_y
_atom_site_fract_z
Si Si1 0.388372 0.296243 0.787217
Si Si2 0.582479 0.802540 0.807711
Si Si3 0.241135 0.804153 0.597532
Si Si4 0.898047 0.794863 0.071994
Si Si5 0.104308 0.710474 0.096323
Si Si6 0.114343 0.199809 0.378966
Si Si7 0.133397 0.500000 0.475514
Si Si8 0.757674 0.699604 0.882878
O O1 0.386034 0.500000 0.773294
O O2 0.308256 0.208884 0.694820
O O3 0.494052 0.232424 0.853920
O O4 0.376536 0.270643 0.835213
O O5 0.626472 0.736343 0.890883
O O6 0.488913 0.699241 0.723198
O O7 0.661859 0.792021 0.826500
O O8 0.552986 0.000000 0.792874
O O9 0.309157 0.757825 0.603224
O O10 0.163735 0.653841 0.537157
O O11 0.205156 0.000000 0.566641
O O12 0.894556 0.000000 0.059290
O O13 0.829069 0.707432 0.981950
O O14 0.103847 0.500000 0.095273
O O15 0.183887 0.769929 0.118527
O O16 0.000000 0.767650 0.000000
O O17 0.113265 0.344333 0.419740
O O18 0.138286 0.000000 0.410727
O O19 0.733007 0.500000 0.854593
#
# Coordination Sequence:
#
# PCOD9208913 Si02
#       8
#     8   8   8   8   8   8   4   8
#     4  11  22  37  58  87 125 162 206 252 308 365
#     4  12  24  40  58  84 122 165 209 250 302 365
#     4  12  23  37  59  88 126 165 201 247 306 374
#     4  11  22  36  56  84 119 163 206 251 303 359
#     4  10  21  38  60  86 117 157 208 261 309 355
#     4  12  23  38  59  88 124 162 200 248 305 369
#     4  12  24  40  58  92 122 164 197 252 305 388
#     4  11  23  39  59  84 117 162 212 259 300 356
#
# _framework density 19.850819000000001
#
# number of rings (size 3 to 8) (size 9 to 14) (size 15 to 20)
#    0.000    0.667    5.333    3.600    0.000    2.400 
#    0.000    0.000    0.000    0.000    0.000    1.867 
#    0.000    4.267    0.000    0.000    0.000    0.000 
#
# Total GULP energy -167235.866066 kJ/mol
# GULP energy per Si atom -5574.528869 kJ/mol
# Density = 1.980564 g / cm^3
# Si number density = 19.850819 Si / 1000 Ang^3
#
#
#
# Elastic Constant Matrix: (Units=GPa)
#
#
# Indices 1 2 3 4 5 6 
#
# 1 58.9414 0.9785 -10.0445 0.0000 1.6339 0.0000
# 2 0.9785 127.6044 14.3988 -0.0002 -4.2756 0.0001
# 3 -10.0445 14.3988 50.6005 0.0001 -15.4848 -0.0001
# 4 0.0000 -0.0002 0.0001 33.4805 -0.0001 -6.5963
# 5 1.6339 -4.2756 -15.4848 -0.0001 12.9570 0.0000
# 6 0.0000 0.0001 -0.0001 -6.5963 0.0000 17.4733
#
#
#
# Elastic Compliance Matrix: (Units=1/GPa)
#
#
# Indices 1 2 3 4 5 6 
#
# 1 0.017676 -0.000552 0.004616 0.000000 0.003106 0.000000
# 2 -0.000552 0.008114 -0.002488 0.000000 -0.000226 0.000000
# 3 0.004616 -0.002488 0.033042 0.000000 0.038085 0.000000
# 4 0.000000 0.000000 0.000000 0.032268 0.000000 0.012181
# 5 0.003106 -0.000226 0.038085 0.000000 0.122227 0.000000
# 6 0.000000 0.000000 0.000000 0.012181 0.000000 0.061829
#
#
# Mechanical properties :
#
#
# Convention : Reuss Voigt Hill
#
# Bulk Modulus (GPa) = 16.13312 27.53463 21.83387
# Shear Modulus (GPa) = 17.08443 28.23640 22.66042
#
# Velocity S-wave (km/s) = 2.93685 3.77560 3.38233
# Velocity P-wave (km/s) = 4.43226 5.73653 5.12605
#
# Compressibility (1/GPa) = 0.06198430
#
# Stress axis : x y z
#
# Youngs Moduli (GPa) = 56.57451 123.24226 30.26476
#
# Poissons Ratio (x) = 0.06808 -0.13971
# Poissons Ratio (y) = 0.03125 0.07529
# Poissons Ratio (z) = -0.26117 0.30659
#
# Static dielectric constant tensor:
#      x y z
#    x 1.693470 0.000000 0.006310 
#    y 0.000000 1.645840 0.000000 
#    z 0.006310 0.000000 1.712050 
# 
# From -- ./inp_files/348878.got.cif
#   From: 2010.05.17/outbox.cif.g08.bks.cpg/sg12_175_cif.got.tgz:348878.got - 2010.06.03 13:09:07.
