data_PCOD9208671
_publ_section_title
;
Structure prediction by ZEFSAII (Michael W. Deem and Ramdas Pophale) SiO2 
 PCOD9208671
Probable space group: C 2/M
;
_chemical_formula_sum "Si O2"
_cell_formula_units_Z 32
_cell_length_a 5.241042
_cell_length_b 13.790355
_cell_length_c 22.373406
_cell_angle_alpha 90.000000
_cell_angle_beta 66.403702
_cell_angle_gamma 90.000000
_cell_volume 1481.852119
_symmetry_space_group_name_H-M "C 2/M"
_symmetry_group_IT_number 12
_symmetry_cell_setting 'monoclinic'
loop_
_space_group_symop_operation_xyz
x,y,z
-x,y,-z
-x,-y,-z
x,-y,z
1/2+x,1/2+y,z
1/2-x,1/2+y,-z
1/2-x,1/2-y,-z
1/2+x,1/2-y,z
loop_
_atom_site_type_symbol
_atom_site_label
_atom_site_fract_x
_atom_site_fract_y
_atom_site_fract_z
Si Si1 0.117506 0.182138 0.930174
Si Si2 0.273448 0.500000 0.390051
Si Si3 0.157616 0.790201 0.573202
Si Si4 0.359376 0.182080 0.785350
Si Si5 0.415663 0.000000 0.307861
O O1 0.365851 0.250441 0.930668
O O2 0.239625 0.135649 0.858626
O O3 0.000000 0.127371 0.000000
O O4 0.269802 0.402018 0.428263
O O5 0.022433 0.500000 0.366418
O O6 0.581596 0.500000 0.331826
O O7 0.250000 0.750000 0.500000
O O8 0.331712 0.731971 0.606125
O O9 0.614428 0.253380 0.778925
O O10 0.459627 0.095676 0.734174
#
# Coordination Sequence:
#
# PCOD9208671 Si02
#       5
#     8   4   8   8   4
#     4   8  14  27  50  78 107 146 194 243 297 344
#     4  12  26  42  63  92 123 154 194 245 286 349
#     4  10  23  42  67  94 121 153 189 233 291 350
#     4  10  21  38  59  83 119 160 199 249 296 344
#     4  12  26  40  60  90 122 160 204 237 288 355
#
# _framework density 21.594598000000001
#
# number of rings (size 3 to 8) (size 9 to 14) (size 15 to 20)
#    0.000    2.000    0.000    3.000    0.000   10.000 
#    0.000    0.625    0.000    0.000    0.000   19.250 
#    0.000    0.000    0.000    0.000    0.000    0.000 
#
# Total GULP energy -89314.657373 kJ/mol
# GULP energy per Si atom -5582.166086 kJ/mol
# Density = 2.154545 g / cm^3
# Si number density = 21.594598 Si / 1000 Ang^3
#
#
#
# Elastic Constant Matrix: (Units=GPa)
#
#
# Indices 1 2 3 4 5 6 
#
# 1 147.0165 3.8356 -4.8987 0.0000 11.5606 0.0000
# 2 3.8356 102.8914 40.4891 0.0000 12.9934 0.0000
# 3 -4.8987 40.4891 79.0103 0.0000 -3.0335 0.0000
# 4 0.0000 0.0000 0.0000 21.3252 0.0000 -4.6633
# 5 11.5606 12.9934 -3.0335 0.0000 28.1194 0.0000
# 6 0.0000 0.0000 0.0000 -4.6633 0.0000 32.6527
#
#
#
# Elastic Compliance Matrix: (Units=1/GPa)
#
#
# Indices 1 2 3 4 5 6 
#
# 1 0.007038 -0.000041 0.000349 0.000000 -0.002837 0.000000
# 2 -0.000041 0.013408 -0.007140 0.000000 -0.006949 0.000000
# 3 0.000349 -0.007140 0.016527 0.000000 0.004939 0.000000
# 4 0.000000 0.000000 0.000000 0.048405 0.000000 0.006913
# 5 -0.002837 -0.006949 0.004939 0.000000 0.040473 0.000000
# 6 0.000000 0.000000 0.000000 0.006913 0.000000 0.031613
#
#
# Mechanical properties :
#
#
# Convention : Reuss Voigt Hill
#
# Bulk Modulus (GPa) = 42.90648 45.30780 44.10714
# Shear Modulus (GPa) = 27.94905 35.71893 31.83399
#
# Velocity S-wave (km/s) = 3.60149 4.07144 3.84365
# Velocity P-wave (km/s) = 6.09971 6.56725 6.33779
#
# Compressibility (1/GPa) = 0.02330650
#
# Stress axis : x y z
#
# Youngs Moduli (GPa) = 142.09165 74.58339 60.50755
#
# Poissons Ratio (x) = 0.00308 -0.02109
# Poissons Ratio (y) = 0.00587 0.43204
# Poissons Ratio (z) = -0.04953 0.53254
#
# Static dielectric constant tensor:
#      x y z
#    x 1.819280 0.000000 0.029040 
#    y 0.000000 1.736550 0.000000 
#    z 0.029040 0.000000 1.702360 
# 
# From -- ./inp_files/297286.got.cif
#   From: 2010.05.17/outbox.cif.g08.bks.cpg/sg12_149_cif.got.tgz:297286.got - 2010.06.03 13:09:07.
