data_PCOD9208733
_publ_section_title
;
Structure prediction by ZEFSAII (Michael W. Deem and Ramdas Pophale) SiO2 
 PCOD9208733
Probable space group: C 2/M
;
_chemical_formula_sum "Si O2"
_cell_formula_units_Z 64
_cell_length_a 12.134731
_cell_length_b 15.803438
_cell_length_c 31.093232
_cell_angle_alpha 90.000000
_cell_angle_beta 150.395188
_cell_angle_gamma 90.000000
_cell_volume 2945.694043
_symmetry_space_group_name_H-M "C 2/M"
_symmetry_group_IT_number 12
_symmetry_cell_setting 'monoclinic'
loop_
_space_group_symop_operation_xyz
x,y,z
-x,y,-z
-x,-y,-z
x,-y,z
1/2+x,1/2+y,z
1/2-x,1/2+y,-z
1/2-x,1/2-y,-z
1/2+x,1/2-y,z
loop_
_atom_site_type_symbol
_atom_site_label
_atom_site_fract_x
_atom_site_fract_y
_atom_site_fract_z
Si Si1 0.092466 0.348220 0.661683
Si Si2 0.179516 0.102016 0.922086
Si Si3 0.841469 0.644119 0.410892
Si Si4 0.695383 0.096682 0.296659
Si Si5 0.322499 0.897066 0.876570
Si Si6 0.782429 0.595263 0.206288
Si Si7 0.837160 0.825946 0.265395
Si Si8 0.433079 0.671483 0.522313
O O1 0.185695 0.383799 0.648109
O O2 0.129700 0.408425 0.714935
O O3 0.184588 0.260373 0.713945
O O4 0.830389 0.332360 0.564058
O O5 0.190461 0.126623 0.875568
O O6 0.962864 0.135651 0.873505
O O7 0.157281 0.000000 0.913494
O O8 0.417085 0.118558 0.024310
O O9 0.600783 0.655849 0.350422
O O10 0.000000 0.599145 0.500000
O O11 0.963104 0.734741 0.445017
O O12 0.480435 0.138995 0.246433
O O13 0.701766 0.107426 0.248179
O O14 0.931352 0.130153 0.393479
O O15 0.686957 0.000000 0.307078
O O16 0.250171 0.839313 0.812335
O O17 0.294081 0.000000 0.859480
O O18 0.750657 0.500000 0.178096
O O19 0.500000 0.628488 0.500000
#
# Coordination Sequence:
#
# PCOD9208733 Si02
#       8
#     8   8   8   8   8   8   8   8
#     4  12  22  36  61  85 112 150 196 241 286 337
#     4   8  16  36  63  86 112 150 192 232 276 343
#     4  11  21  36  56  81 109 152 194 238 274 334
#     4  11  23  37  55  83 120 154 189 239 288 334
#     4   9  18  35  61  89 116 150 190 230 284 344
#     4  10  21  38  59  86 115 147 193 240 283 337
#     4  12  22  35  56  86 117 148 191 234 287 346
#     4  11  19  37  56  79 107 151 199 233 270 332
#
# _framework density 21.726628000000002
#
# number of rings (size 3 to 8) (size 9 to 14) (size 15 to 20)
#    0.000    1.500    5.000    3.000    0.000    0.750 
#    0.000    1.875    0.000    5.625    0.000    0.000 
#    0.000    0.000    0.000    0.000    0.000    0.000 
#
# Total GULP energy -178415.090491 kJ/mol
# GULP energy per Si atom -5575.471578 kJ/mol
# Density = 2.167718 g / cm^3
# Si number density = 21.726628 Si / 1000 Ang^3
#
#
#
# Elastic Constant Matrix: (Units=GPa)
#
#
# Indices 1 2 3 4 5 6 
#
# 1 107.0035 4.9733 34.1450 -0.0003 -1.1807 -0.0001
# 2 4.9733 36.5631 13.1610 -0.0002 0.7396 0.0000
# 3 34.1450 13.1610 91.5094 -0.0011 2.6083 -0.0003
# 4 -0.0003 -0.0002 -0.0011 2.2648 -0.0002 -7.8148
# 5 -1.1807 0.7396 2.6083 -0.0002 38.6343 0.0000
# 6 -0.0001 0.0000 -0.0003 -7.8148 0.0000 8.0487
#
#
#
# Elastic Compliance Matrix: (Units=1/GPa)
#
#
# Indices 1 2 3 4 5 6 
#
# 1 0.010622 -0.000025 -0.003977 0.000000 0.000594 0.000000
# 2 -0.000025 0.028846 -0.004131 0.000000 -0.000274 0.000000
# 3 -0.003977 -0.004131 0.013032 -0.000003 -0.000922 -0.000003
# 4 0.000000 0.000000 -0.000003 -0.187869 -0.000001 -0.182409
# 5 0.000594 -0.000274 -0.000922 -0.000001 0.025969 -0.000001
# 6 0.000000 0.000000 -0.000003 -0.182409 -0.000001 -0.052864
#
#
# Mechanical properties :
#
#
# Convention : Reuss Voigt Hill
#
# Bulk Modulus (GPa) = 27.59885 37.73719 32.66802
# Shear Modulus (GPa) = -37.33642 21.97600 -7.68021
#
# Velocity S-wave (km/s) = -4.14993 3.18382 -1.88218
# Velocity P-wave (km/s) = 3.19879 5.56080 3.21638
#
# Compressibility (1/GPa) = 0.03623339
#
# Stress axis : x y z
#
# Youngs Moduli (GPa) = 94.14239 34.66671 76.73328
#
# Poissons Ratio (x) = 0.00088 0.30515
# Poissons Ratio (y) = 0.00239 0.31702
# Poissons Ratio (z) = 0.37438 0.14322
#
# Static dielectric constant tensor:
#      x y z
#    x 1.871950 0.000000 -0.015400 
#    y 0.000000 1.887080 0.000000 
#    z -0.015400 0.000000 1.814910 
# 
# From -- ./inp_files/374466.got.cif
#   From: 2010.05.17/outbox.cif.g08.bks.cpg/sg12_188_cif.got.tgz:374466.got - 2010.06.03 13:09:07.
