data_PCOD9208994
_publ_section_title
;
Structure prediction by ZEFSAII (Michael W. Deem and Ramdas Pophale) SiO2 
 PCOD9208994
Probable space group: C 2/M
;
_chemical_formula_sum "Si O2"
_cell_formula_units_Z 64
_cell_length_a 9.514834
_cell_length_b 23.494227
_cell_length_c 14.077347
_cell_angle_alpha 90.000000
_cell_angle_beta 95.721944
_cell_angle_gamma 90.000000
_cell_volume 3131.222240
_symmetry_space_group_name_H-M "C 2/M"
_symmetry_group_IT_number 12
_symmetry_cell_setting 'monoclinic'
loop_
_space_group_symop_operation_xyz
x,y,z
-x,y,-z
-x,-y,-z
x,-y,z
1/2+x,1/2+y,z
1/2-x,1/2+y,-z
1/2-x,1/2-y,-z
1/2+x,1/2-y,z
loop_
_atom_site_type_symbol
_atom_site_label
_atom_site_fract_x
_atom_site_fract_y
_atom_site_fract_z
Si Si1 0.740887 0.713939 0.594874
Si Si2 0.834005 0.741201 0.206596
Si Si3 0.566165 0.564426 0.182904
Si Si4 0.245924 0.938524 0.752418
Si Si5 0.970120 0.647034 0.721266
Si Si6 0.550598 0.311898 0.109223
Si Si7 0.848000 0.094050 0.458544
Si Si8 0.195637 0.566173 0.639193
O O1 0.750000 0.750000 0.500000
O O2 0.692945 0.749216 0.683284
O O3 0.639652 0.660069 0.570590
O O4 0.888252 0.685549 0.638378
O O5 0.935529 0.686815 0.206862
O O6 0.686502 0.725577 0.147609
O O7 0.921463 0.793789 0.169721
O O8 0.590633 0.500000 0.144838
O O9 0.403871 0.566736 0.206049
O O10 0.587769 0.621070 0.122332
O O11 0.670358 0.570304 0.280422
O O12 0.352746 0.886817 0.773218
O O13 0.211378 0.936668 0.637806
O O14 0.309114 0.000000 0.781435
O O15 0.069303 0.602386 0.674349
O O16 0.500000 0.299635 0.000000
O O17 0.743748 0.088821 0.540247
O O18 0.000000 0.071454 0.500000
O O19 0.156923 0.500000 0.628386
#
# Coordination Sequence:
#
# PCOD9208994 Si02
#       8
#     8   8   8   8   8   8   8   8
#     4  11  26  39  60  91 133 179 218 266 328 396
#     4  12  25  45  67 101 134 174 223 275 334 410
#     4  10  22  41  68  97 128 170 218 275 338 404
#     4  10  21  38  60  88 126 175 218 264 328 392
#     4  11  23  41  60  91 133 169 218 274 329 385
#     4  12  26  47  73 100 132 172 222 286 346 403
#     4  11  22  34  55  84 123 171 222 269 313 382
#     4  11  22  37  62  92 128 172 225 274 327 393
#
# _framework density 20.439302999999999
#
# number of rings (size 3 to 8) (size 9 to 14) (size 15 to 20)
#    0.000    1.000    3.750    3.375    1.750    4.750 
#    0.000    3.125    0.000    0.000    0.000    1.750 
#    0.000    0.000    0.000    0.000    0.000    0.000 
#
# Total GULP energy -178877.756676 kJ/mol
# GULP energy per Si atom -5589.929896 kJ/mol
# Density = 2.039278 g / cm^3
# Si number density = 20.439303 Si / 1000 Ang^3
#
#
#
# Elastic Constant Matrix: (Units=GPa)
#
#
# Indices 1 2 3 4 5 6 
#
# 1 83.6277 30.8763 8.1485 0.0000 8.8538 0.0000
# 2 30.8763 91.0571 8.9626 0.0000 14.1040 0.0000
# 3 8.1485 8.9626 46.3678 0.0000 13.6187 0.0000
# 4 0.0000 0.0000 0.0000 18.5229 0.0000 4.6987
# 5 8.8538 14.1040 13.6187 0.0000 17.2442 0.0000
# 6 0.0000 0.0000 0.0000 4.6987 0.0000 24.8026
#
#
#
# Elastic Compliance Matrix: (Units=1/GPa)
#
#
# Indices 1 2 3 4 5 6 
#
# 1 0.013895 -0.004149 -0.000705 0.000000 -0.003184 0.000000
# 2 -0.004149 0.013835 0.000980 0.000000 -0.009960 0.000000
# 3 -0.000705 0.000980 0.028163 0.000000 -0.022682 0.000000
# 4 0.000000 0.000000 0.000000 0.056713 0.000000 -0.010744
# 5 -0.003184 -0.009960 -0.022682 0.000000 0.085684 0.000000
# 6 0.000000 0.000000 0.000000 -0.010744 0.000000 0.042354
#
#
# Mechanical properties :
#
#
# Convention : Reuss Voigt Hill
#
# Bulk Modulus (GPa) = 20.77012 35.22529 27.99770
# Shear Modulus (GPa) = 18.90784 23.65161 21.27972
#
# Velocity S-wave (km/s) = 3.04480 3.40540 3.23014
# Velocity P-wave (km/s) = 4.74816 5.72135 5.25732
#
# Compressibility (1/GPa) = 0.04814609
#
# Stress axis : x y z
#
# Youngs Moduli (GPa) = 71.96578 72.27911 35.50774
#
# Poissons Ratio (x) = 0.29990 0.02502
# Poissons Ratio (y) = 0.29860 -0.03480
# Poissons Ratio (z) = 0.05071 -0.07084
#
# Static dielectric constant tensor:
#      x y z
#    x 1.737460 0.000000 -0.000250 
#    y 0.000000 1.788800 0.000000 
#    z -0.000250 0.000000 1.690560 
# 
# From -- ./inp_files/198877.got.cif
#   From: 2010.05.17/outbox.cif.g08.bks.cpg/sg12_100_cif.got.tgz:198877.got - 2010.06.03 13:09:07.
