data_PCOD9208433
_publ_section_title
;
Structure prediction by ZEFSAII (Michael W. Deem and Ramdas Pophale) SiO2 
 PCOD9208433
Probable space group: C 2/M
;
_chemical_formula_sum "Si O2"
_cell_formula_units_Z 64
_cell_length_a 23.641624
_cell_length_b 8.522353
_cell_length_c 30.808335
_cell_angle_alpha 90.000000
_cell_angle_beta 33.910291
_cell_angle_gamma 90.000000
_cell_volume 3463.035023
_symmetry_space_group_name_H-M "C 2/M"
_symmetry_group_IT_number 12
_symmetry_cell_setting 'monoclinic'
loop_
_space_group_symop_operation_xyz
x,y,z
-x,y,-z
-x,-y,-z
x,-y,z
1/2+x,1/2+y,z
1/2-x,1/2+y,-z
1/2-x,1/2-y,-z
1/2+x,1/2-y,z
loop_
_atom_site_type_symbol
_atom_site_label
_atom_site_fract_x
_atom_site_fract_y
_atom_site_fract_z
Si Si1 0.655873 0.188057 0.616001
Si Si2 0.400838 0.686384 0.011493
Si Si3 0.639657 0.690660 0.058456
Si Si4 0.619356 0.811918 0.540958
Si Si5 0.726730 0.185908 0.728015
Si Si6 0.459266 0.310271 0.573168
Si Si7 0.142432 0.185997 0.869619
Si Si8 0.063372 0.187705 0.763257
O O1 0.612576 0.237266 0.596175
O O2 0.771196 0.250992 0.545054
O O3 0.592674 0.245857 0.697562
O O4 0.659569 0.000000 0.614413
O O5 0.378758 0.500000 0.025083
O O6 0.342024 0.747466 0.091254
O O7 0.377635 0.751558 0.979339
O O8 0.521428 0.698697 0.940438
O O9 0.637606 0.500000 0.059424
O O10 0.546380 0.741206 0.148612
O O11 0.750000 0.750000 0.000000
O O12 0.530121 0.751419 0.566778
O O13 0.619965 0.000000 0.539349
O O14 0.842460 0.241216 0.649818
O O15 0.694096 0.223344 0.797855
O O16 0.648921 0.264459 0.743922
O O17 0.723548 0.000000 0.721845
O O18 0.500000 0.262126 0.500000
O O19 0.461579 0.500000 0.573849
O O20 0.168062 0.000000 0.850446
O O21 0.061748 0.000000 0.761611
#
# Coordination Sequence:
#
# PCOD9208433 Si02
#       8
#     8   8   8   8   8   8   8   8
#     4  10  21  38  61  88 118 151 188 234 284 331
#     4   8  15  32  57  79 103 139 183 225 274 332
#     4  10  21  38  57  81 111 146 187 233 284 338
#     4  10  21  38  61  88 116 151 195 233 273 332
#     4  11  22  35  55  85 117 147 185 237 292 339
#     4  10  22  39  57  80 116 157 188 227 286 337
#     4   9  16  32  58  80 103 141 185 229 276 334
#     4  11  22  38  61  85 111 147 194 238 279 338
#
# _framework density 18.480898
#
# number of rings (size 3 to 8) (size 9 to 14) (size 15 to 20)
#    0.000    2.125    1.250    3.000    0.000    4.750 
#    2.250    1.875    0.000    0.000    0.000    0.000 
#    0.000    0.000    0.000    0.000    0.000    0.000 
#
# Total GULP energy -178487.860851 kJ/mol
# GULP energy per Si atom -5577.745652 kJ/mol
# Density = 1.843883 g / cm^3
# Si number density = 18.480898 Si / 1000 Ang^3
#
#
#
# Elastic Constant Matrix: (Units=GPa)
#
#
# Indices 1 2 3 4 5 6 
#
# 1 116.2082 20.7613 98.0794 0.0011 6.7000 -0.0044
# 2 20.7613 22.8582 22.7203 0.0013 -0.7463 0.0043
# 3 98.0794 22.7203 137.5789 0.0006 16.2010 -0.0020
# 4 0.0011 0.0013 0.0006 28.5448 -0.0010 0.6043
# 5 6.7000 -0.7463 16.2010 -0.0010 31.5922 0.0025
# 6 -0.0044 0.0043 -0.0020 0.6043 0.0025 29.3515
#
#
#
# Elastic Compliance Matrix: (Units=1/GPa)
#
#
# Indices 1 2 3 4 5 6 
#
# 1 0.022402 -0.004795 -0.015545 0.000000 0.003107 0.000003
# 2 -0.004795 0.054469 -0.006224 -0.000002 0.005495 -0.000010
# 3 -0.015545 -0.006224 0.020229 0.000000 -0.007224 0.000001
# 4 0.000000 -0.000002 0.000000 0.035048 0.000001 -0.000722
# 5 0.003107 0.005495 -0.007224 0.000001 0.034829 -0.000004
# 6 0.000003 -0.000010 0.000001 -0.000722 -0.000004 0.034085
#
#
# Mechanical properties :
#
#
# Convention : Reuss Voigt Hill
#
# Bulk Modulus (GPa) = 22.74130 62.19636 42.46883
# Shear Modulus (GPa) = 18.59800 26.90331 22.75066
#
# Velocity S-wave (km/s) = 3.17572 3.81955 3.51242
# Velocity P-wave (km/s) = 5.07730 7.29242 6.28325
#
# Compressibility (1/GPa) = 0.04397286
#
# Stress axis : x y z
#
# Youngs Moduli (GPa) = 44.63824 18.35911 49.43461
#
# Poissons Ratio (x) = 0.08803 0.76844
# Poissons Ratio (y) = 0.21404 0.30768
# Poissons Ratio (z) = 0.69388 0.11427
#
# Static dielectric constant tensor:
#      x y z
#    x 1.648030 0.000000 0.010410 
#    y 0.000000 1.636150 0.000000 
#    z 0.010410 0.000000 1.641270 
# 
# From -- ./inp_files/382376.got.cif
#   From: 2010.05.17/outbox.cif.g08.bks.cpg/sg12_192_cif.got.tgz:382376.got - 2010.06.03 13:09:07.
