data_PCOD9208013
_publ_section_title
;
Structure prediction by ZEFSAII (Michael W. Deem and Ramdas Pophale) SiO2 
 PCOD9208013
Probable space group: C 2/M
;
_chemical_formula_sum "Si O2"
_cell_formula_units_Z 48
_cell_length_a 26.387330
_cell_length_b 17.910445
_cell_length_c 6.077303
_cell_angle_alpha 90.000000
_cell_angle_beta 59.554937
_cell_angle_gamma 90.000000
_cell_volume 2476.156681
_symmetry_space_group_name_H-M "C 2/M"
_symmetry_group_IT_number 12
_symmetry_cell_setting 'monoclinic'
loop_
_space_group_symop_operation_xyz
x,y,z
-x,y,-z
-x,-y,-z
x,-y,z
1/2+x,1/2+y,z
1/2-x,1/2+y,-z
1/2-x,1/2-y,-z
1/2+x,1/2-y,z
loop_
_atom_site_type_symbol
_atom_site_label
_atom_site_fract_x
_atom_site_fract_y
_atom_site_fract_z
Si Si1 0.022646 0.911423 0.197606
Si Si2 0.861978 0.411676 0.931969
Si Si3 0.637768 0.801666 0.680172
Si Si4 0.139530 0.171219 0.006126
Si Si5 0.262880 0.834114 0.892803
Si Si6 0.934953 0.709807 0.549732
O O1 0.000000 0.887434 0.500000
O O2 0.012823 0.000000 0.217360
O O3 0.090711 0.888291 0.049652
O O4 0.000000 0.884511 0.000000
O O5 0.865957 0.500000 0.926132
O O6 0.873246 0.371123 0.137271
O O7 0.797848 0.383416 0.992386
O O8 0.909386 0.371386 0.670376
O O9 0.655244 0.727426 0.773653
O O10 0.691194 0.824678 0.406160
O O11 0.578150 0.783335 0.678632
O O12 0.199162 0.136056 0.966162
O O13 0.107734 0.228412 0.246048
O O14 0.250000 0.750000 0.000000
O O15 0.000000 0.717921 0.500000
#
# Coordination Sequence:
#
# PCOD9208013 Si02
#       6
#     8   8   8   8   8   8
#     4  10  24  44  62  89 132 173 210 262 325 381
#     4  10  23  40  59  87 123 161 198 247 309 376
#     4  10  21  37  61  88 123 153 201 254 314 364
#     4  11  22  34  65  90 120 157 209 257 307 373
#     4  11  20  39  61  89 120 154 197 254 309 368
#     4  10  22  38  60  91 119 156 206 253 306 369
#
# _framework density 19.384882000000001
#
# number of rings (size 3 to 8) (size 9 to 14) (size 15 to 20)
#    0.000    1.667    5.000    1.000    4.667    5.667 
#    0.000    0.833    0.000    0.000    0.000    0.000 
#    0.000    0.000    0.000    0.000    0.000    0.000 
#
# Total GULP energy -133688.087647 kJ/mol
# GULP energy per Si atom -5570.336985 kJ/mol
# Density = 1.934076 g / cm^3
# Si number density = 19.384882 Si / 1000 Ang^3
#
#
#
# Elastic Constant Matrix: (Units=GPa)
#
#
# Indices 1 2 3 4 5 6 
#
# 1 170.5919 8.6802 28.8057 0.0000 7.7823 0.0000
# 2 8.6802 37.4118 9.7355 0.0000 4.5091 0.0000
# 3 28.8057 9.7355 55.9431 0.0000 14.6714 0.0000
# 4 0.0000 0.0000 0.0000 -4.6201 0.0000 -8.5038
# 5 7.7823 4.5091 14.6714 0.0000 29.2364 0.0000
# 6 0.0000 0.0000 0.0000 -8.5038 0.0000 22.2965
#
#
#
# Elastic Compliance Matrix: (Units=1/GPa)
#
#
# Indices 1 2 3 4 5 6 
#
# 1 0.006436 -0.000660 -0.003197 0.000000 -0.000007 0.000000
# 2 -0.000660 0.028184 -0.003997 0.000000 -0.002165 0.000000
# 3 -0.003197 -0.003997 0.022838 0.000000 -0.009993 0.000000
# 4 0.000000 0.000000 0.000000 -0.127171 0.000000 -0.048503
# 5 -0.000007 -0.002165 -0.009993 0.000000 0.039554 0.000000
# 6 0.000000 0.000000 0.000000 -0.048503 0.000000 0.026351
#
#
# Mechanical properties :
#
#
# Convention : Reuss Voigt Hill
#
# Bulk Modulus (GPa) = 23.95283 39.82108 31.88695
# Shear Modulus (GPa) = 193.67623 23.83094 108.75358
#
# Velocity S-wave (km/s) = 10.00639 3.51002 7.49827
# Velocity P-wave (km/s) = 12.07837 6.08391 9.56298
#
# Compressibility (1/GPa) = 0.04174872
#
# Stress axis : x y z
#
# Youngs Moduli (GPa) = 155.38291 35.48137 43.78712
#
# Poissons Ratio (x) = 0.02343 0.13999
# Poissons Ratio (y) = 0.10262 0.17501
# Poissons Ratio (z) = 0.49677 0.14181
#
# Static dielectric constant tensor:
#      x y z
#    x 1.719240 0.000000 0.049700 
#    y 0.000000 1.646490 0.000000 
#    z 0.049700 0.000000 1.747150 
# 
# From -- ./inp_files/24750.got.cif
#   From: 2010.05.17/outbox.cif.g08.bks.cpg/sg12_13_cif.got.tgz:24750.got - 2010.06.03 13:09:07.
