data_PCOD9208939
_publ_section_title
;
Structure prediction by ZEFSAII (Michael W. Deem and Ramdas Pophale) SiO2 
 PCOD9208939
Probable space group: C 2/M
;
_chemical_formula_sum "Si O2"
_cell_formula_units_Z 34
_cell_length_a 22.012305
_cell_length_b 10.586054
_cell_length_c 11.590898
_cell_angle_alpha 90.000000
_cell_angle_beta 142.507250
_cell_angle_gamma 90.000000
_cell_volume 1643.963654
_symmetry_space_group_name_H-M "C 2/M"
_symmetry_group_IT_number 12
_symmetry_cell_setting 'monoclinic'
loop_
_space_group_symop_operation_xyz
x,y,z
-x,y,-z
-x,-y,-z
x,-y,z
1/2+x,1/2+y,z
1/2-x,1/2+y,-z
1/2-x,1/2-y,-z
1/2+x,1/2-y,z
loop_
_atom_site_type_symbol
_atom_site_label
_atom_site_fract_x
_atom_site_fract_y
_atom_site_fract_z
Si Si1 0.015263 0.277801 0.715568
Si Si2 0.500000 0.000000 0.500000
Si Si3 0.401877 0.848246 0.917179
Si Si4 0.318746 0.360964 0.152794
Si Si5 0.183244 0.853960 0.572138
O O1 0.002817 0.389559 0.605365
O O2 0.908810 0.231958 0.602692
O O3 0.082607 0.319059 0.924964
O O4 0.072563 0.164439 0.736958
O O5 0.398674 0.000000 0.899723
O O6 0.500000 0.800191 0.000000
O O7 0.293908 0.803130 0.710932
O O8 0.280813 0.500000 0.061300
O O9 0.321998 0.354832 0.295567
O O10 0.250000 0.250000 0.000000
O O11 0.172859 0.000000 0.517890
#
# Coordination Sequence:
#
# PCOD9208939 Si02
#       5
#     8   2   8   8   8
#     4  12  22  38  61  91 129 157 201 265 310 370
#     4  12  24  32  60 100 126 154 202 258 316 364
#     4  10  22  40  61  86 118 165 214 253 303 369
#     4  11  22  35  60  92 125 161 200 251 317 380
#     4  10  21  38  60  87 118 161 206 247 312 375
#
# _framework density 20.681723000000002
#
# number of rings (size 3 to 8) (size 9 to 14) (size 15 to 20)
#    0.000    1.176    5.882    0.706    1.647    2.824 
#    0.000    0.000    0.000    2.824    0.000    0.000 
#    0.000    0.000    0.000    0.000    0.000    0.000 
#
# Total GULP energy -94700.136898 kJ/mol
# GULP energy per Si atom -5570.596288 kJ/mol
# Density = 2.063465 g / cm^3
# Si number density = 20.681723 Si / 1000 Ang^3
#
#
#
# Elastic Constant Matrix: (Units=GPa)
#
#
# Indices 1 2 3 4 5 6 
#
# 1 75.3424 -3.0520 10.4738 0.0000 25.5204 0.0000
# 2 -3.0520 89.0333 22.7476 0.0000 9.1842 0.0000
# 3 10.4738 22.7476 81.4381 0.0000 29.5181 0.0000
# 4 0.0000 0.0000 0.0000 8.3471 0.0000 3.4798
# 5 25.5204 9.1842 29.5181 0.0000 40.6938 0.0000
# 6 0.0000 0.0000 0.0000 3.4798 0.0000 14.8602
#
#
#
# Elastic Compliance Matrix: (Units=1/GPa)
#
#
# Indices 1 2 3 4 5 6 
#
# 1 0.017323 0.001395 0.001946 0.000000 -0.012590 0.000000
# 2 0.001395 0.012212 -0.003086 0.000000 -0.001393 0.000000
# 3 0.001946 -0.003086 0.017747 0.000000 -0.013397 0.000000
# 4 0.000000 0.000000 0.000000 0.132763 0.000000 -0.031089
# 5 -0.012590 -0.001393 -0.013397 0.000000 0.042502 0.000000
# 6 0.000000 0.000000 0.000000 -0.031089 0.000000 0.074574
#
#
# Mechanical properties :
#
#
# Convention : Reuss Voigt Hill
#
# Bulk Modulus (GPa) = 20.92347 34.01696 27.47021
# Shear Modulus (GPa) = 15.99797 27.15652 21.57725
#
# Velocity S-wave (km/s) = 2.78426 3.62756 3.23352
# Velocity P-wave (km/s) = 4.52493 5.83345 5.22035
#
# Compressibility (1/GPa) = 0.04779322
#
# Stress axis : x y z
#
# Youngs Moduli (GPa) = 57.72507 81.88919 56.34846
#
# Poissons Ratio (x) = -0.11427 -0.10964
# Poissons Ratio (y) = -0.08055 0.17387
# Poissons Ratio (z) = -0.11232 0.25267
#
# Static dielectric constant tensor:
#      x y z
#    x 1.783620 0.000000 0.070710 
#    y 0.000000 1.700150 0.000000 
#    z 0.070710 0.000000 1.778490 
# 
# From -- ./inp_files/127940.got.cif
#   From: 2010.05.17/outbox.cif.g08.bks.cpg/sg12_64_cif.got.tgz:127940.got - 2010.06.03 13:09:07.
