data_PCOD9208937
_publ_section_title
;
Structure prediction by ZEFSAII (Michael W. Deem and Ramdas Pophale) SiO2 
 PCOD9208937
Probable space group: C 2/M
;
_chemical_formula_sum "Si O2"
_cell_formula_units_Z 48
_cell_length_a 21.058174
_cell_length_b 15.386540
_cell_length_c 17.432983
_cell_angle_alpha 90.000000
_cell_angle_beta 154.253702
_cell_angle_gamma 90.000000
_cell_volume 2453.636744
_symmetry_space_group_name_H-M "C 2/M"
_symmetry_group_IT_number 12
_symmetry_cell_setting 'monoclinic'
loop_
_space_group_symop_operation_xyz
x,y,z
-x,y,-z
-x,-y,-z
x,-y,z
1/2+x,1/2+y,z
1/2-x,1/2+y,-z
1/2-x,1/2-y,-z
1/2+x,1/2-y,z
loop_
_atom_site_type_symbol
_atom_site_label
_atom_site_fract_x
_atom_site_fract_y
_atom_site_fract_z
Si Si1 0.155860 0.500000 0.207205
Si Si2 0.331310 0.396741 0.825754
Si Si3 0.298983 0.867183 0.988634
Si Si4 0.651879 0.344035 0.319956
Si Si5 0.688190 0.661468 0.032485
Si Si6 0.867661 0.364433 0.689973
Si Si7 0.863929 0.000000 0.292494
O O1 0.178704 0.416610 0.285482
O O2 0.245712 0.500000 0.229070
O O3 0.000000 0.500000 0.000000
O O4 0.334271 0.500000 0.838559
O O5 0.275382 0.373428 0.680764
O O6 0.500000 0.364542 0.000000
O O7 0.259494 0.358145 0.823989
O O8 0.266663 0.879812 0.043964
O O9 0.175481 0.917981 0.805363
O O10 0.297093 0.764602 0.966349
O O11 0.466221 0.892382 0.149923
O O12 0.482167 0.369832 0.149750
O O13 0.753812 0.379976 0.497886
O O14 0.641701 0.239240 0.308061
O O15 0.000000 0.000000 0.500000
#
# Coordination Sequence:
#
# PCOD9208937 Si02
#       7
#     4   8   8   8   8   8   4
#     4  12  24  40  62  89 118 159 197 248 315 356
#     4   9  18  33  55  87 115 148 196 239 285 335
#     4  10  21  41  58  85 121 154 195 241 306 356
#     4   9  20  36  61  88 115 154 200 244 284 355
#     4   9  20  37  62  84 117 161 191 243 295 349
#     4  10  21  38  60  87 118 154 197 241 299 356
#     4  12  28  42  60  93 120 157 203 254 305 370
#
# _framework density 19.562798000000001
#
# number of rings (size 3 to 8) (size 9 to 14) (size 15 to 20)
#    0.000    2.167    1.667    0.000    7.000    0.667 
#    0.000    0.833    0.000    1.000    0.000    0.000 
#    0.000    0.000    0.000    0.000    0.000    0.000 
#
# Total GULP energy -133639.976214 kJ/mol
# GULP energy per Si atom -5568.332342 kJ/mol
# Density = 1.951827 g / cm^3
# Si number density = 19.562798 Si / 1000 Ang^3
#
#
#
# Elastic Constant Matrix: (Units=GPa)
#
#
# Indices 1 2 3 4 5 6 
#
# 1 134.1846 17.6711 -1.6302 -0.0005 -27.8919 -0.0002
# 2 17.6711 33.8042 7.2639 -0.0003 -7.6109 -0.0002
# 3 -1.6302 7.2639 57.0525 -0.0008 -17.5770 -0.0003
# 4 -0.0005 -0.0003 -0.0008 -44.0945 -0.0004 15.3685
# 5 -27.8919 -7.6109 -17.5770 -0.0004 33.8537 -0.0001
# 6 -0.0002 -0.0002 -0.0003 15.3685 -0.0001 -5.1679
#
#
#
# Elastic Compliance Matrix: (Units=1/GPa)
#
#
# Indices 1 2 3 4 5 6 
#
# 1 0.009913 -0.003893 0.003602 0.000012 0.009162 0.000034
# 2 -0.003893 0.032912 -0.003583 0.000013 0.002331 0.000039
# 3 0.003602 -0.003583 0.022324 0.000029 0.013753 0.000084
# 4 0.000012 0.000013 0.000029 0.621372 0.000042 1.847873
# 5 0.009162 0.002331 0.013753 0.000042 0.044752 0.000123
# 6 0.000034 0.000039 0.000084 1.847873 0.000123 5.301813
#
#
# Mechanical properties :
#
#
# Convention : Reuss Voigt Hill
#
# Bulk Modulus (GPa) = 17.42179 30.18344 23.80262
# Shear Modulus (GPa) = 0.82509 10.36736 5.59622
#
# Velocity S-wave (km/s) = 0.65014 2.30457 1.69318
# Velocity P-wave (km/s) = 3.08034 4.74804 4.00202
#
# Compressibility (1/GPa) = 0.05739938
#
# Stress axis : x y z
#
# Youngs Moduli (GPa) = 100.87353 30.38392 44.79521
#
# Poissons Ratio (x) = 0.11829 -0.16134
# Poissons Ratio (y) = 0.39273 0.16052
# Poissons Ratio (z) = -0.36332 0.10888
#
# Static dielectric constant tensor:
#      x y z
#    x 1.676740 0.000000 -0.014680 
#    y 0.000000 1.632970 0.000000 
#    z -0.014680 0.000000 1.692540 
# 
# From -- ./inp_files/226958.got.cif
#   From: 2010.05.17/outbox.cif.g08.bks.cpg/sg12_114_cif.got.tgz:226958.got - 2010.06.03 13:09:07.
