data_PCOD9208054
_publ_section_title
;
Structure prediction by ZEFSAII (Michael W. Deem and Ramdas Pophale) SiO2 
 PCOD9208054
Probable space group: C 2/M
;
_chemical_formula_sum "Si O2"
_cell_formula_units_Z 56
_cell_length_a 13.731254
_cell_length_b 11.381114
_cell_length_c 17.005765
_cell_angle_alpha 90.000000
_cell_angle_beta 106.537454
_cell_angle_gamma 90.000000
_cell_volume 2547.674364
_symmetry_space_group_name_H-M "C 2/M"
_symmetry_group_IT_number 12
_symmetry_cell_setting 'monoclinic'
loop_
_space_group_symop_operation_xyz
x,y,z
-x,y,-z
-x,-y,-z
x,-y,z
1/2+x,1/2+y,z
1/2-x,1/2+y,-z
1/2-x,1/2-y,-z
1/2+x,1/2-y,z
loop_
_atom_site_type_symbol
_atom_site_label
_atom_site_fract_x
_atom_site_fract_y
_atom_site_fract_z
Si Si1 0.112138 0.371872 0.370325
Si Si2 0.484190 0.869872 0.187312
Si Si3 0.275338 0.131340 0.909215
Si Si4 0.775850 0.130228 0.616294
Si Si5 0.431532 0.223692 0.420423
Si Si6 0.695420 0.774868 0.748439
Si Si7 0.920612 0.800557 0.041891
O O1 0.162768 0.500000 0.393301
O O2 0.167623 0.247969 0.397962
O O3 0.008998 0.364753 0.396631
O O4 0.074753 0.365276 0.271049
O O5 0.381429 0.848013 0.214610
O O6 0.484292 0.769892 0.122158
O O7 0.479423 0.000000 0.151287
O O8 0.253425 0.189950 0.820116
O O9 0.167718 0.130906 0.931919
O O10 0.312326 0.000000 0.908284
O O11 0.355270 0.207176 0.976479
O O12 0.659617 0.149519 0.561937
O O13 0.764817 0.143837 0.708792
O O14 0.813505 0.000000 0.604323
O O15 0.500000 0.290161 0.500000
O O16 0.374451 0.288950 0.335188
O O17 0.000000 0.859378 0.000000
#
# Coordination Sequence:
#
# PCOD9208054 Si02
#       7
#     8   8   8   8   8   8   8
#     4  10  21  37  61  91 121 157 202 249 294 354
#     4   9  17  34  57  81 113 152 197 243 284 340
#     4  10  21  39  60  82 116 157 195 246 302 353
#     4  10  21  38  61  89 118 156 201 246 301 360
#     4   9  20  40  64  88 119 159 203 246 293 360
#     4   8  19  36  58  82 113 150 199 238 289 353
#     4  10  22  36  56  85 116 145 197 245 291 352
#
# _framework density 21.980831999999999
#
# number of rings (size 3 to 8) (size 9 to 14) (size 15 to 20)
#    0.857    1.714    0.000    1.286    2.000    3.714 
#    0.000    7.857    0.000    3.000    0.000    0.000 
#    0.000    0.000    0.000    0.000    0.000    0.000 
#
# Total GULP energy -155958.259277 kJ/mol
# GULP energy per Si atom -5569.937831 kJ/mol
# Density = 2.193080 g / cm^3
# Si number density = 21.980832 Si / 1000 Ang^3
#
#
#
# Elastic Constant Matrix: (Units=GPa)
#
#
# Indices 1 2 3 4 5 6 
#
# 1 83.4453 35.0143 -5.0797 0.0000 -13.9843 0.0000
# 2 35.0143 132.0671 34.2940 0.0000 8.6422 0.0000
# 3 -5.0797 34.2940 113.2675 0.0000 7.6661 0.0000
# 4 0.0000 0.0000 0.0000 3.4686 0.0000 3.3755
# 5 -13.9843 8.6422 7.6661 0.0000 29.8710 0.0000
# 6 0.0000 0.0000 0.0000 3.3755 0.0000 1.5720
#
#
#
# Elastic Compliance Matrix: (Units=1/GPa)
#
#
# Indices 1 2 3 4 5 6 
#
# 1 0.015645 -0.005135 0.001689 0.000000 0.008376 0.000000
# 2 -0.005135 0.009996 -0.002950 0.000000 -0.004539 0.000000
# 3 0.001689 -0.002950 0.009857 0.000000 -0.000886 0.000000
# 4 0.000000 0.000000 0.000000 -0.264575 0.000000 0.568124
# 5 0.008376 -0.004539 -0.000886 0.000000 0.038939 0.000000
# 6 0.000000 0.000000 0.000000 0.568124 0.000000 -0.583793
#
#
# Mechanical properties :
#
#
# Convention : Reuss Voigt Hill
#
# Bulk Modulus (GPa) = 44.03597 50.80411 47.42004
# Shear Modulus (GPa) = -6.63508 24.61908 8.99200
#
# Velocity S-wave (km/s) = -1.73929 3.35031 2.02478
# Velocity P-wave (km/s) = 4.00547 6.17488 5.20447
#
# Compressibility (1/GPa) = 0.02270871
#
# Stress axis : x y z
#
# Youngs Moduli (GPa) = 63.91797 100.03809 101.44652
#
# Poissons Ratio (x) = 0.51367 -0.17138
# Poissons Ratio (y) = 0.32820 0.29923
# Poissons Ratio (z) = -0.10798 0.29507
#
# Static dielectric constant tensor:
#      x y z
#    x 1.860050 0.000000 -0.017400 
#    y 0.000000 1.758580 0.000000 
#    z -0.017400 0.000000 1.843130 
# 
# From -- ./inp_files/269364.got.cif
#   From: 2010.05.17/outbox.cif.g08.bks.cpg/sg12_135_cif.got.tgz:269364.got - 2010.06.03 13:09:07.
