data_PCOD9208954
_publ_section_title
;
Structure prediction by ZEFSAII (Michael W. Deem and Ramdas Pophale) SiO2 
 PCOD9208954
Probable space group: C 2/M
;
_chemical_formula_sum "Si O2"
_cell_formula_units_Z 60
_cell_length_a 14.518550
_cell_length_b 13.206505
_cell_length_c 20.470564
_cell_angle_alpha 90.000000
_cell_angle_beta 43.026676
_cell_angle_gamma 90.000000
_cell_volume 2678.187729
_symmetry_space_group_name_H-M "C 2/M"
_symmetry_group_IT_number 12
_symmetry_cell_setting 'monoclinic'
loop_
_space_group_symop_operation_xyz
x,y,z
-x,y,-z
-x,-y,-z
x,-y,z
1/2+x,1/2+y,z
1/2-x,1/2+y,-z
1/2-x,1/2-y,-z
1/2+x,1/2-y,z
loop_
_atom_site_type_symbol
_atom_site_label
_atom_site_fract_x
_atom_site_fract_y
_atom_site_fract_z
Si Si1 0.868310 0.835078 0.202639
Si Si2 0.654649 0.879598 0.597894
Si Si3 0.778693 0.292047 0.914124
Si Si4 0.938489 0.315855 0.601273
Si Si5 0.500000 0.636733 0.000000
Si Si6 0.037977 0.884767 0.579895
Si Si7 0.062309 0.110785 0.220938
Si Si8 0.556406 0.116608 0.794840
O O1 0.710267 0.851381 0.300569
O O2 0.899783 0.712224 0.182551
O O3 0.952981 0.872974 0.220928
O O4 0.926029 0.890670 0.108616
O O5 0.543787 0.839090 0.604859
O O6 0.808594 0.847624 0.507289
O O7 0.619421 0.859477 0.691291
O O8 0.653176 0.000000 0.589289
O O9 0.636586 0.323061 0.960436
O O10 0.836472 0.203359 0.838818
O O11 0.895878 0.374517 0.863750
O O12 0.750000 0.250000 0.000000
O O13 0.000000 0.353332 0.500000
O O14 0.936597 0.193288 0.598842
O O15 0.005752 0.885870 0.673380
O O16 0.025157 0.000000 0.562663
O O17 0.126863 0.000000 0.179106
O O18 0.590239 0.000000 0.796939
#
# Coordination Sequence:
#
# PCOD9208954 Si02
#       8
#     8   8   8   8   4   8   8   8
#     4  11  23  39  59  90 125 158 202 261 312 363
#     4  10  21  38  60  87 121 161 204 252 307 368
#     4  11  22  43  63  86 125 159 201 261 309 360
#     4  12  23  36  61  91 123 160 206 253 311 375
#     4  12  22  42  62  88 126 162 196 258 318 358
#     4  10  21  38  60  87 121 161 204 252 307 368
#     4  10  21  41  65  87 119 164 207 249 309 373
#     4  10  21  41  65  87 119 164 207 249 309 373
#
# _framework density 22.403210999999999
#
# number of rings (size 3 to 8) (size 9 to 14) (size 15 to 20)
#    0.000    1.333    2.667    5.200    0.000    2.133 
#    0.000    2.667    0.000    0.000    0.000    0.000 
#    0.000    0.000    0.000    0.000    0.000    0.000 
#
# Total GULP energy -167411.879293 kJ/mol
# GULP energy per Si atom -5580.395976 kJ/mol
# Density = 2.235222 g / cm^3
# Si number density = 22.403211 Si / 1000 Ang^3
#
#
#
# Elastic Constant Matrix: (Units=GPa)
#
#
# Indices 1 2 3 4 5 6 
#
# 1 71.8098 -5.6003 41.3066 0.0000 4.1188 0.0000
# 2 -5.6003 71.8399 26.0011 0.0000 11.2505 0.0000
# 3 41.3066 26.0011 162.0771 0.0000 -11.1103 0.0000
# 4 0.0000 0.0000 0.0000 764.2092 0.0000 -232.7068
# 5 4.1188 11.2505 -11.1103 0.0000 36.4975 0.0000
# 6 0.0000 0.0000 0.0000 -232.7068 0.0000 73.8431
#
#
#
# Elastic Compliance Matrix: (Units=1/GPa)
#
#
# Indices 1 2 3 4 5 6 
#
# 1 0.017709 0.004155 -0.005520 0.000000 -0.004960 0.000000
# 2 0.004155 0.016869 -0.004242 0.000000 -0.006960 0.000000
# 3 -0.005520 -0.004242 0.008568 0.000000 0.004539 0.000000
# 4 0.000000 0.000000 0.000000 0.032399 0.000000 0.102102
# 5 -0.004960 -0.006960 0.004539 0.000000 0.031486 0.000000
# 6 0.000000 0.000000 0.000000 0.102102 0.000000 0.335303
#
#
# Mechanical properties :
#
#
# Convention : Reuss Voigt Hill
#
# Bulk Modulus (GPa) = 31.31590 47.68242 39.49916
# Shear Modulus (GPa) = 10.77136 191.17793 100.97464
#
# Velocity S-wave (km/s) = 2.19508 9.24772 6.72081
# Velocity P-wave (km/s) = 4.52031 11.63430 8.82582
#
# Compressibility (1/GPa) = 0.03193266
#
# Stress axis : x y z
#
# Youngs Moduli (GPa) = 56.46727 59.27968 116.70776
#
# Poissons Ratio (x) = -0.24631 0.64422
# Poissons Ratio (y) = -0.23463 0.49511
# Poissons Ratio (z) = 0.31170 0.25148
#
# Static dielectric constant tensor:
#      x y z
#    x 1.790140 0.000000 -0.002430 
#    y 0.000000 1.904890 0.000000 
#    z -0.002430 0.000000 1.853890 
# 
# From -- ./inp_files/311005.got.cif
#   From: 2010.05.17/outbox.cif.g08.bks.cpg/sg12_156_cif.got.tgz:311005.got - 2010.06.03 13:09:07.
