data_PCOD9208377
_publ_section_title
;
Structure prediction by ZEFSAII (Michael W. Deem and Ramdas Pophale) SiO2 
 PCOD9208377
Probable space group: C 2/M
;
_chemical_formula_sum "Si O2"
_cell_formula_units_Z 48
_cell_length_a 12.063744
_cell_length_b 13.478850
_cell_length_c 16.741861
_cell_angle_alpha 90.000000
_cell_angle_beta 112.109692
_cell_angle_gamma 90.000000
_cell_volume 2522.131295
_symmetry_space_group_name_H-M "C 2/M"
_symmetry_group_IT_number 12
_symmetry_cell_setting 'monoclinic'
loop_
_space_group_symop_operation_xyz
x,y,z
-x,y,-z
-x,-y,-z
x,-y,z
1/2+x,1/2+y,z
1/2-x,1/2+y,-z
1/2-x,1/2-y,-z
1/2+x,1/2-y,z
loop_
_atom_site_type_symbol
_atom_site_label
_atom_site_fract_x
_atom_site_fract_y
_atom_site_fract_z
Si Si1 0.966934 0.230878 0.303350
Si Si2 0.891278 0.620342 0.026379
Si Si3 0.368871 0.201148 0.432306
Si Si4 0.149918 0.886197 0.461086
Si Si5 0.720798 0.616913 0.848935
Si Si6 0.055798 0.615653 0.212689
O O1 0.879571 0.288896 0.340430
O O2 0.890741 0.174372 0.216601
O O3 0.040905 0.153877 0.377454
O O4 0.055690 0.309163 0.285952
O O5 0.890444 0.500000 0.019361
O O6 0.935673 0.638556 0.127984
O O7 0.770247 0.651996 0.948824
O O8 0.000000 0.656970 0.000000
O O9 0.500000 0.171621 0.500000
O O10 0.268442 0.129939 0.440204
O O11 0.342961 0.310232 0.462907
O O12 0.135227 0.000000 0.480665
O O13 0.693135 0.500000 0.846385
O O14 0.831138 0.627058 0.815865
O O15 0.052513 0.500000 0.236117
#
# Coordination Sequence:
#
# PCOD9208377 Si02
#       6
#     8   8   8   8   8   8
#     4  11  20  31  50  78 104 125 159 203 247 293
#     4   7  12  26  46  67  94 130 169 203 235 275
#     4   9  21  38  53  74  99 126 163 199 237 293
#     4  10  21  38  56  73  98 129 159 197 244 292
#     4   9  17  30  49  72  99 132 168 204 241 283
#     4   9  18  32  49  70 100 135 167 202 241 282
#
# _framework density 19.031523
#
# number of rings (size 3 to 8) (size 9 to 14) (size 15 to 20)
#    0.000    2.833    0.000    3.500    0.000    5.333 
#    0.000   10.000    0.000    0.000    0.000    0.000 
#    0.000   16.667    0.000    0.000    0.000    0.000 
#
# Total GULP energy -133767.766636 kJ/mol
# GULP energy per Si atom -5573.656943 kJ/mol
# Density = 1.898821 g / cm^3
# Si number density = 19.031523 Si / 1000 Ang^3
#
#
#
# Elastic Constant Matrix: (Units=GPa)
#
#
# Indices 1 2 3 4 5 6 
#
# 1 47.5816 8.2422 -7.8730 0.0000 3.3969 0.0000
# 2 8.2422 65.1928 18.6872 0.0000 -2.9738 0.0000
# 3 -7.8730 18.6872 21.0719 0.0000 6.3565 0.0000
# 4 0.0000 0.0000 0.0000 18.4406 0.0000 5.6181
# 5 3.3969 -2.9738 6.3565 0.0000 22.9649 0.0000
# 6 0.0000 0.0000 0.0000 5.6181 0.0000 14.1115
#
#
#
# Elastic Compliance Matrix: (Units=1/GPa)
#
#
# Indices 1 2 3 4 5 6 
#
# 1 0.027624 -0.010772 0.023489 0.000000 -0.011983 0.000000
# 2 -0.010772 0.026375 -0.031561 0.000000 0.013745 0.000000
# 3 0.023489 -0.031561 0.094383 0.000000 -0.033686 0.000000
# 4 0.000000 0.000000 0.000000 0.061714 0.000000 -0.024570
# 5 -0.011983 0.013745 -0.033686 0.000000 0.056421 0.000000
# 6 0.000000 0.000000 0.000000 -0.024570 0.000000 0.080646
#
#
# Mechanical properties :
#
#
# Convention : Reuss Voigt Hill
#
# Bulk Modulus (GPa) = 9.03390 19.10658 14.07024
# Shear Modulus (GPa) = 11.85541 18.75607 15.30574
#
# Velocity S-wave (km/s) = 2.49857 3.14272 2.83897
# Velocity P-wave (km/s) = 3.61676 4.81976 4.26093
#
# Compressibility (1/GPa) = 0.11069421
#
# Stress axis : x y z
#
# Youngs Moduli (GPa) = 36.19979 37.91506 10.59513
#
# Poissons Ratio (x) = 0.40842 -0.24887
# Poissons Ratio (y) = 0.38995 0.33439
# Poissons Ratio (z) = -0.85029 1.19663
#
# Static dielectric constant tensor:
#      x y z
#    x 1.676670 0.000000 0.012800 
#    y 0.000000 1.639600 0.000000 
#    z 0.012800 0.000000 1.705950 
# 
# From -- ./inp_files/204268.got.cif
#   From: 2010.05.17/outbox.cif.g08.bks.cpg/sg12_103_cif.got.tgz:204268.got - 2010.06.03 13:09:07.
