data_PCOD9208776
_publ_section_title
;
Structure prediction by ZEFSAII (Michael W. Deem and Ramdas Pophale) SiO2 
 PCOD9208776
Probable space group: C 2/M
;
_chemical_formula_sum "Si O2"
_cell_formula_units_Z 56
_cell_length_a 22.292760
_cell_length_b 8.683731
_cell_length_c 14.931935
_cell_angle_alpha 90.000000
_cell_angle_beta 111.843949
_cell_angle_gamma 90.000000
_cell_volume 2683.046391
_symmetry_space_group_name_H-M "C 2/M"
_symmetry_group_IT_number 12
_symmetry_cell_setting 'monoclinic'
loop_
_space_group_symop_operation_xyz
x,y,z
-x,y,-z
-x,-y,-z
x,-y,z
1/2+x,1/2+y,z
1/2-x,1/2+y,-z
1/2-x,1/2-y,-z
1/2+x,1/2-y,z
loop_
_atom_site_type_symbol
_atom_site_label
_atom_site_fract_x
_atom_site_fract_y
_atom_site_fract_z
Si Si1 0.419742 0.320352 0.254238
Si Si2 0.260686 0.822338 0.409957
Si Si3 0.924880 0.683013 0.961491
Si Si4 0.139851 0.818392 0.247583
Si Si5 0.090696 0.321858 0.561789
Si Si6 0.822614 0.184021 0.049043
Si Si7 0.448922 0.180638 0.657612
O O1 0.433750 0.500000 0.245024
O O2 0.413633 0.288170 0.356000
O O3 0.355758 0.278478 0.163359
O O4 0.481649 0.218977 0.261675
O O5 0.250000 0.750000 0.500000
O O6 0.212913 0.762446 0.306510
O O7 0.334939 0.815268 0.426340
O O8 0.241781 0.000000 0.408380
O O9 0.925958 0.500000 0.977819
O O10 0.894559 0.723157 0.848677
O O11 0.875754 0.756900 0.006579
O O12 0.000000 0.737643 0.000000
O O13 0.102764 0.783807 0.319613
O O14 0.137297 0.000000 0.223390
O O15 0.075699 0.500000 0.580174
O O16 0.051519 0.285581 0.449295
O O17 0.817952 0.000000 0.037899
O O18 0.750000 0.250000 0.000000
O O19 0.432886 0.000000 0.657990
#
# Coordination Sequence:
#
# PCOD9208776 Si02
#       7
#     8   8   8   8   8   8   8
#     4  11  25  42  63  92 124 161 206 260 316 372
#     4  10  21  38  59  88 124 164 205 250 306 366
#     4  11  25  45  70  99 130 170 218 269 327 390
#     4  11  23  38  63  96 128 165 206 256 315 372
#     4  10  22  39  60  89 126 167 209 250 301 370
#     4  11  26  47  69  96 130 170 218 274 331 388
#     4  11  22  39  63  92 127 169 209 253 305 368
#
# _framework density 20.871797000000001
#
# number of rings (size 3 to 8) (size 9 to 14) (size 15 to 20)
#    0.000    1.286    1.429    3.429    2.000    9.714 
#    0.000    0.000    0.000    0.000    0.000    0.000 
#    0.000    0.000    0.000    0.000    0.000    0.000 
#
# Total GULP energy -156430.289120 kJ/mol
# GULP energy per Si atom -5586.796040 kJ/mol
# Density = 2.082429 g / cm^3
# Si number density = 20.871797 Si / 1000 Ang^3
#
#
#
# Elastic Constant Matrix: (Units=GPa)
#
#
# Indices 1 2 3 4 5 6 
#
# 1 99.0224 31.8149 46.8851 0.0000 27.6140 0.0000
# 2 31.8149 36.1787 25.5315 0.0000 10.8198 0.0000
# 3 46.8851 25.5315 120.5371 0.0000 33.2601 0.0000
# 4 0.0000 0.0000 0.0000 32.7512 0.0000 -4.5506
# 5 27.6140 10.8198 33.2601 0.0000 43.2836 0.0000
# 6 0.0000 0.0000 0.0000 -4.5506 0.0000 31.4814
#
#
#
# Elastic Compliance Matrix: (Units=1/GPa)
#
#
# Indices 1 2 3 4 5 6 
#
# 1 0.016408 -0.010952 -0.002449 0.000000 -0.005849 0.000000
# 2 -0.010952 0.040255 -0.004338 0.000000 0.000257 0.000000
# 3 -0.002449 -0.004338 0.011977 0.000000 -0.006557 0.000000
# 4 0.000000 0.000000 0.000000 0.031159 0.000000 0.004504
# 5 -0.005849 0.000257 -0.006557 0.000000 0.031809 0.000000
# 6 0.000000 0.000000 0.000000 0.004504 0.000000 0.032416
#
#
# Mechanical properties :
#
#
# Convention : Reuss Voigt Hill
#
# Bulk Modulus (GPa) = 30.15334 51.57788 40.86561
# Shear Modulus (GPa) = 23.74690 31.60369 27.67530
#
# Velocity S-wave (km/s) = 3.37672 3.89547 3.64533
# Velocity P-wave (km/s) = 5.44805 6.70808 6.11063
#
# Compressibility (1/GPa) = 0.03316382
#
# Stress axis : x y z
#
# Youngs Moduli (GPa) = 60.94722 24.84133 83.49602
#
# Poissons Ratio (x) = 0.27205 0.20444
# Poissons Ratio (y) = 0.66746 0.36220
# Poissons Ratio (z) = 0.14923 0.10776
#
# Static dielectric constant tensor:
#      x y z
#    x 1.785030 0.000000 0.025050 
#    y 0.000000 1.749120 0.000000 
#    z 0.025050 0.000000 1.763340 
# 
# From -- ./inp_files/239014.got.cif
#   From: 2010.05.17/outbox.cif.g08.bks.cpg/sg12_120_cif.got.tgz:239014.got - 2010.06.03 13:09:07.
