data_PCOD9208545
_publ_section_title
;
Structure prediction by ZEFSAII (Michael W. Deem and Ramdas Pophale) SiO2 
 PCOD9208545
Probable space group: C 2/M
;
_chemical_formula_sum "Si O2"
_cell_formula_units_Z 56
_cell_length_a 19.873553
_cell_length_b 8.342227
_cell_length_c 30.064501
_cell_angle_alpha 90.000000
_cell_angle_beta 147.761174
_cell_angle_gamma 90.000000
_cell_volume 2658.917665
_symmetry_space_group_name_H-M "C 2/M"
_symmetry_group_IT_number 12
_symmetry_cell_setting 'monoclinic'
loop_
_space_group_symop_operation_xyz
x,y,z
-x,y,-z
-x,-y,-z
x,-y,z
1/2+x,1/2+y,z
1/2-x,1/2+y,-z
1/2-x,1/2-y,-z
1/2+x,1/2-y,z
loop_
_atom_site_type_symbol
_atom_site_label
_atom_site_fract_x
_atom_site_fract_y
_atom_site_fract_z
Si Si1 0.328932 0.192224 0.613613
Si Si2 0.004041 0.695749 0.209639
Si Si3 0.024293 0.808779 0.654269
Si Si4 0.048018 0.691536 0.478568
Si Si5 0.714771 0.690603 0.055869
Si Si6 0.283022 0.194747 0.844721
Si Si7 0.971444 0.308199 0.873565
O O1 0.416648 0.249510 0.703671
O O2 0.395593 0.254015 0.606142
O O3 0.188138 0.248199 0.545217
O O4 0.329745 0.000000 0.612375
O O5 0.004557 0.500000 0.210917
O O6 0.858494 0.747328 0.130065
O O7 0.058675 0.749938 0.192846
O O8 0.142535 0.756435 0.750761
O O9 0.034841 0.745159 0.610016
O O10 0.025550 0.000000 0.653029
O O11 0.049689 0.500000 0.481028
O O12 0.000000 0.751132 0.500000
O O13 0.711402 0.500000 0.047910
O O14 0.681261 0.735106 0.087748
O O15 0.614283 0.767925 0.966713
O O16 0.378991 0.251056 0.860306
O O17 0.287141 0.000000 0.850041
O O18 0.958321 0.500000 0.865566
#
# Coordination Sequence:
#
# PCOD9208545 Si02
#       7
#     8   8   8   8   8   8   8
#     4  11  22  41  68  93 123 164 206 251 302 362
#     4   9  20  37  60  87 118 156 199 250 300 352
#     4  11  23  41  66  94 123 161 209 253 300 364
#     4  11  26  45  65  94 130 161 194 247 307 364
#     4  11  21  37  58  86 120 156 201 249 303 359
#     4  10  22  38  60  87 118 157 202 250 297 355
#     4  10  21  38  58  83 118 159 203 250 301 354
#
# _framework density 21.061202000000002
#
# number of rings (size 3 to 8) (size 9 to 14) (size 15 to 20)
#    0.000    1.571    1.429    3.000    2.000    4.000 
#    0.000    2.143    0.000    0.000    0.000    0.000 
#    0.000    0.000    0.000    0.000    0.000    0.000 
#
# Total GULP energy -156541.988676 kJ/mol
# GULP energy per Si atom -5590.785310 kJ/mol
# Density = 2.101327 g / cm^3
# Si number density = 21.061202 Si / 1000 Ang^3
#
#
#
# Elastic Constant Matrix: (Units=GPa)
#
#
# Indices 1 2 3 4 5 6 
#
# 1 79.9903 4.4729 5.9829 -0.0001 -27.1009 0.0001
# 2 4.4729 22.8815 -2.8825 -0.0002 -3.8649 0.0006
# 3 5.9829 -2.8825 59.7005 0.0000 -15.6236 0.0000
# 4 -0.0001 -0.0002 0.0000 26.7633 0.0000 -0.9869
# 5 -27.1009 -3.8649 -15.6236 0.0000 40.3274 0.0000
# 6 0.0001 0.0006 0.0000 -0.9869 0.0000 21.7868
#
#
#
# Elastic Compliance Matrix: (Units=1/GPa)
#
#
# Indices 1 2 3 4 5 6 
#
# 1 0.016315 -0.001110 0.001283 0.000000 0.011354 0.000000
# 2 -0.001110 0.045215 0.003598 0.000000 0.004981 -0.000001
# 3 0.001283 0.003598 0.019042 0.000000 0.008584 0.000000
# 4 0.000000 0.000000 0.000000 0.037427 0.000000 0.001695
# 5 0.011354 0.004981 0.008584 0.000000 0.036231 0.000000
# 6 0.000000 -0.000001 0.000000 0.001695 0.000000 0.045976
#
#
# Mechanical properties :
#
#
# Convention : Reuss Voigt Hill
#
# Bulk Modulus (GPa) = 11.34895 19.74653 15.54774
# Shear Modulus (GPa) = 22.51904 28.10875 25.31390
#
# Velocity S-wave (km/s) = 3.27344 3.65721 3.47063
# Velocity P-wave (km/s) = 4.43706 5.21821 4.84341
#
# Compressibility (1/GPa) = 0.08811386
#
# Stress axis : x y z
#
# Youngs Moduli (GPa) = 61.29512 22.11650 52.51576
#
# Poissons Ratio (x) = 0.02454 -0.06737
# Poissons Ratio (y) = 0.06802 -0.18895
# Poissons Ratio (z) = -0.07863 -0.07957
#
# Static dielectric constant tensor:
#      x y z
#    x 1.763910 0.000000 0.000350 
#    y 0.000000 1.724950 0.000000 
#    z 0.000350 0.000000 1.744160 
# 
# From -- ./inp_files/363175.got.cif
#   From: 2010.05.17/outbox.cif.g08.bks.cpg/sg12_182_cif.got.tgz:363175.got - 2010.06.03 13:09:07.
