data_PCOD9208865
_publ_section_title
;
Structure prediction by ZEFSAII (Michael W. Deem and Ramdas Pophale) SiO2 
 PCOD9208865
Probable space group: C 2/M
;
_chemical_formula_sum "Si O2"
_cell_formula_units_Z 56
_cell_length_a 16.601563
_cell_length_b 7.694791
_cell_length_c 25.064476
_cell_angle_alpha 90.000000
_cell_angle_beta 136.793222
_cell_angle_gamma 90.000000
_cell_volume 2192.110682
_symmetry_space_group_name_H-M "C 2/M"
_symmetry_group_IT_number 12
_symmetry_cell_setting 'monoclinic'
loop_
_space_group_symop_operation_xyz
x,y,z
-x,y,-z
-x,-y,-z
x,-y,z
1/2+x,1/2+y,z
1/2-x,1/2+y,-z
1/2-x,1/2-y,-z
1/2+x,1/2-y,z
loop_
_atom_site_type_symbol
_atom_site_label
_atom_site_fract_x
_atom_site_fract_y
_atom_site_fract_z
Si Si1 0.837932 0.289421 0.466942
Si Si2 0.730893 0.199316 0.905965
Si Si3 0.162919 0.798739 0.764553
Si Si4 0.979280 0.300553 0.047713
Si Si5 0.970540 0.711636 0.812211
Si Si6 0.282921 0.798728 0.327618
Si Si7 0.584011 0.293045 0.383843
O O1 0.837107 0.500000 0.464886
O O2 0.851716 0.230174 0.412727
O O3 0.709044 0.224623 0.424121
O O4 0.923362 0.238219 0.556121
O O5 0.741792 0.208662 0.846929
O O6 0.599112 0.264511 0.853759
O O7 0.738296 0.000000 0.927023
O O8 0.837720 0.298856 0.984843
O O9 0.200661 0.790653 0.721232
O O10 0.030866 0.721640 0.700530
O O11 0.160978 0.000000 0.779210
O O12 0.022623 0.500000 0.065281
O O13 0.033580 0.228435 0.127945
O O14 0.000000 0.216269 0.000000
O O15 0.964955 0.500000 0.807708
O O16 0.856889 0.784841 0.727560
O O17 0.314725 0.000000 0.335567
O O18 0.584160 0.500000 0.375806
#
# Coordination Sequence:
#
# PCOD9208865 Si02
#       7
#     8   8   8   8   8   8   8
#     4   9  19  36  57  82 112 145 184 233 285 335
#     4  11  23  38  59  87 116 149 193 238 280 333
#     4  11  23  39  58  81 114 152 191 237 288 340
#     4  10  21  38  60  85 116 154 191 230 281 336
#     4  10  22  39  59  86 118 152 191 233 280 335
#     4  11  23  38  58  85 116 150 190 235 286 341
#     4   9  19  36  58  82 108 146 192 231 276 337
#
# _framework density 25.546154000000001
#
# number of rings (size 3 to 8) (size 9 to 14) (size 15 to 20)
#    0.000    1.857    0.000    3.429    0.000    7.143 
#    0.000    5.714    0.000    0.000    0.000    0.000 
#    0.000    0.000    0.000    0.000    0.000    0.000 
#
# Total GULP energy -156681.356407 kJ/mol
# GULP energy per Si atom -5595.762729 kJ/mol
# Density = 2.548801 g / cm^3
# Si number density = 25.546154 Si / 1000 Ang^3
#
#
#
# Elastic Constant Matrix: (Units=GPa)
#
#
# Indices 1 2 3 4 5 6 
#
# 1 70.5539 -4.8294 -2.9816 0.0000 -14.8328 0.0000
# 2 -4.8294 60.8317 -6.8963 0.0000 -4.0281 0.0000
# 3 -2.9816 -6.8963 124.2648 0.0000 -17.4157 0.0000
# 4 0.0000 0.0000 0.0000 19.3335 0.0000 0.4866
# 5 -14.8328 -4.0281 -17.4157 0.0000 46.4924 0.0000
# 6 0.0000 0.0000 0.0000 0.4866 0.0000 19.1885
#
#
#
# Elastic Compliance Matrix: (Units=1/GPa)
#
#
# Indices 1 2 3 4 5 6 
#
# 1 0.015516 0.001742 0.001250 0.000000 0.005569 0.000000
# 2 0.001742 0.016895 0.001332 0.000000 0.002519 0.000000
# 3 0.001250 0.001332 0.008679 0.000000 0.003765 0.000000
# 4 0.000000 0.000000 0.000000 0.051757 0.000000 -0.001313
# 5 0.005569 0.002519 0.003765 0.000000 0.024914 0.000000
# 6 0.000000 0.000000 0.000000 -0.001313 0.000000 0.052148
#
#
# Mechanical properties :
#
#
# Convention : Reuss Voigt Hill
#
# Bulk Modulus (GPa) = 20.10499 25.13732 22.62115
# Shear Modulus (GPa) = 28.11509 35.02673 31.57091
#
# Velocity S-wave (km/s) = 3.32107 3.70687 3.51926
# Velocity P-wave (km/s) = 4.75322 5.30872 5.03864
#
# Compressibility (1/GPa) = 0.04973891
#
# Stress axis : x y z
#
# Youngs Moduli (GPa) = 64.44756 59.18928 115.22139
#
# Poissons Ratio (x) = -0.10313 -0.14397
# Poissons Ratio (y) = -0.11229 -0.15352
# Poissons Ratio (z) = -0.08053 -0.07887
#
# Static dielectric constant tensor:
#      x y z
#    x 2.127480 0.000000 0.014620 
#    y 0.000000 1.914570 0.000000 
#    z 0.014620 0.000000 1.952630 
# 
# From -- ./inp_files/362892.got.cif
#   From: 2010.05.17/outbox.cif.g08.bks.cpg/sg12_182_cif.got.tgz:362892.got - 2010.06.03 13:09:07.
