data_PCOD9208416
_publ_section_title
;
Structure prediction by ZEFSAII (Michael W. Deem and Ramdas Pophale) SiO2 
 PCOD9208416
Probable space group: C 2/M
;
_chemical_formula_sum "Si O2"
_cell_formula_units_Z 64
_cell_length_a 8.377698
_cell_length_b 19.660078
_cell_length_c 24.145809
_cell_angle_alpha 90.000000
_cell_angle_beta 46.827067
_cell_angle_gamma 90.000000
_cell_volume 2900.368016
_symmetry_space_group_name_H-M "C 2/M"
_symmetry_group_IT_number 12
_symmetry_cell_setting 'monoclinic'
loop_
_space_group_symop_operation_xyz
x,y,z
-x,y,-z
-x,-y,-z
x,-y,z
1/2+x,1/2+y,z
1/2-x,1/2+y,-z
1/2-x,1/2-y,-z
1/2+x,1/2-y,z
loop_
_atom_site_type_symbol
_atom_site_label
_atom_site_fract_x
_atom_site_fract_y
_atom_site_fract_z
Si Si1 0.934321 0.183020 0.108445
Si Si2 0.144439 0.849010 0.601957
Si Si3 0.590465 0.073713 0.154962
Si Si4 0.116470 0.790031 0.182361
Si Si5 0.256966 0.321997 0.531936
Si Si6 0.387497 0.425183 0.745832
Si Si7 0.681269 0.078377 0.004570
Si Si8 0.298044 0.219606 0.343241
O O1 0.736671 0.132422 0.143571
O O2 0.844597 0.255730 0.108347
O O3 0.972378 0.199139 0.163016
O O4 0.143059 0.139747 0.038503
O O5 0.082279 0.909234 0.657641
O O6 0.907855 0.814959 0.639003
O O7 0.263799 0.869825 0.516685
O O8 0.263814 0.791017 0.610671
O O9 0.341133 0.076265 0.233182
O O10 0.586560 0.078489 0.089099
O O11 0.684849 0.000000 0.146873
O O12 0.133609 0.862645 0.207383
O O13 0.986015 0.741316 0.256060
O O14 0.500000 0.330410 0.500000
O O15 0.250000 0.250000 0.500000
O O16 0.121806 0.322965 0.621352
O O17 0.405650 0.500000 0.767462
O O18 0.768705 0.000000 0.975734
O O19 0.500000 0.088290 0.000000
#
# Coordination Sequence:
#
# PCOD9208416 Si02
#       8
#     8   8   8   8   8   8   8   8
#     4  12  23  39  59  85 118 150 190 243 291 338
#     4   9  16  28  49  78 106 138 178 225 280 340
#     4  10  21  39  62  86 114 152 194 234 285 348
#     4  11  23  36  55  83 117 151 190 242 296 347
#     4   8  14  24  43  71 103 136 174 217 269 333
#     4  10  21  38  57  78 110 152 196 243 295 351
#     4  10  22  42  67  91 118 155 195 234 280 343
#     4   9  16  29  48  73 109 141 173 224 280 338
#
# _framework density 22.066165000000002
#
# number of rings (size 3 to 8) (size 9 to 14) (size 15 to 20)
#    0.000    2.125    0.000    4.500    0.000    3.000 
#    0.000    8.750    0.000    3.375    0.000    0.000 
#    0.000  313.500    0.000    0.000    0.000    2.500 
#
# Total GULP energy -178362.644043 kJ/mol
# GULP energy per Si atom -5573.832626 kJ/mol
# Density = 2.201594 g / cm^3
# Si number density = 22.066165 Si / 1000 Ang^3
#
#
#
# Elastic Constant Matrix: (Units=GPa)
#
#
# Indices 1 2 3 4 5 6 
#
# 1 72.6810 32.1635 6.3812 0.0066 11.8128 -0.0080
# 2 32.1635 102.3102 31.4980 0.0039 1.0564 -0.0055
# 3 6.3812 31.4980 73.0270 0.0039 1.8887 -0.0048
# 4 0.0066 0.0039 0.0039 47.3085 -0.0052 -32.7117
# 5 11.8128 1.0564 1.8887 -0.0052 19.0444 0.0055
# 6 -0.0080 -0.0055 -0.0048 -32.7117 0.0055 55.6677
#
#
#
# Elastic Compliance Matrix: (Units=1/GPa)
#
#
# Indices 1 2 3 4 5 6 
#
# 1 0.018074 -0.005961 0.001277 -0.000002 -0.011007 0.000002
# 2 -0.005961 0.013237 -0.005279 0.000001 0.003487 0.000000
# 3 0.001277 -0.005279 0.015913 -0.000001 -0.002077 0.000001
# 4 -0.000002 0.000001 -0.000001 0.035605 0.000005 0.020922
# 5 -0.011007 0.003487 -0.002077 0.000005 0.059349 -0.000004
# 6 0.000002 0.000000 0.000001 0.020922 -0.000004 0.030258
#
#
# Mechanical properties :
#
#
# Convention : Reuss Voigt Hill
#
# Bulk Modulus (GPa) = 36.63455 43.12262 39.87858
# Shear Modulus (GPa) = 24.81870 36.26913 30.54391
#
# Velocity S-wave (km/s) = 3.35735 4.05860 3.72452
# Velocity P-wave (km/s) = 5.62737 6.44576 6.05042
#
# Compressibility (1/GPa) = 0.02729664
#
# Stress axis : x y z
#
# Youngs Moduli (GPa) = 55.32934 75.54349 62.84325
#
# Poissons Ratio (x) = 0.45033 -0.08022
# Poissons Ratio (y) = 0.32983 0.33174
# Poissons Ratio (z) = -0.07063 0.39878
#
# Static dielectric constant tensor:
#      x y z
#    x 1.821150 0.000000 -0.036110 
#    y 0.000000 1.380370 0.000000 
#    z -0.036110 0.000000 1.911620 
# 
# From -- ./inp_files/333718.got.cif
#   From: 2010.05.17/outbox.cif.g08.bks.cpg/sg12_167_cif.got.tgz:333718.got - 2010.06.03 13:09:07.
