data_PCOD9208832
_publ_section_title
;
Structure prediction by ZEFSAII (Michael W. Deem and Ramdas Pophale) SiO2 
 PCOD9208832
Probable space group: C 2/M
;
_chemical_formula_sum "Si O2"
_cell_formula_units_Z 34
_cell_length_a 14.273446
_cell_length_b 7.444694
_cell_length_c 16.626988
_cell_angle_alpha 90.000000
_cell_angle_beta 125.247129
_cell_angle_gamma 90.000000
_cell_volume 1442.899642
_symmetry_space_group_name_H-M "C 2/M"
_symmetry_group_IT_number 12
_symmetry_cell_setting 'monoclinic'
loop_
_space_group_symop_operation_xyz
x,y,z
-x,y,-z
-x,-y,-z
x,-y,z
1/2+x,1/2+y,z
1/2-x,1/2+y,-z
1/2-x,1/2-y,-z
1/2+x,1/2-y,z
loop_
_atom_site_type_symbol
_atom_site_label
_atom_site_fract_x
_atom_site_fract_y
_atom_site_fract_z
Si Si1 0.156996 0.714821 0.249712
Si Si2 0.076542 0.718005 0.785133
Si Si3 0.670335 0.209085 0.070162
Si Si4 0.091563 0.712903 0.608716
Si Si5 0.500000 0.500000 0.000000
O O1 0.150451 0.500000 0.242413
O O2 0.168727 0.776628 0.163334
O O3 0.276523 0.761256 0.351691
O O4 0.041939 0.780775 0.234484
O O5 0.075900 0.500000 0.785513
O O6 0.196308 0.770847 0.886155
O O7 0.079967 0.783233 0.694070
O O8 0.638431 0.000000 0.046558
O O9 0.575582 0.341996 0.990272
O O10 0.070938 0.500000 0.604686
O O11 0.000000 0.786335 0.500000
#
# Coordination Sequence:
#
# PCOD9208832 Si02
#       5
#     8   8   8   8   2
#     4   9  19  34  56  79 107 149 190 228 274 333
#     4   9  17  35  57  77 111 154 185 228 281 328
#     4  10  21  38  60  84 110 145 189 226 279 343
#     4   9  18  31  50  80 113 149 192 231 273 322
#     4  12  22  40  64  82 114 146 170 244 288 326
#
# _framework density 23.563663999999999
#
# number of rings (size 3 to 8) (size 9 to 14) (size 15 to 20)
#    0.000    2.588    1.176    0.353    1.647    2.353 
#    0.000    1.176    0.000    0.000    0.000    0.000 
#    0.000    0.000    0.000    0.000    0.000    0.000 
#
# Total GULP energy -94757.968728 kJ/mol
# GULP energy per Si atom -5573.998160 kJ/mol
# Density = 2.351003 g / cm^3
# Si number density = 23.563664 Si / 1000 Ang^3
#
#
#
# Elastic Constant Matrix: (Units=GPa)
#
#
# Indices 1 2 3 4 5 6 
#
# 1 172.6729 15.7605 61.3229 0.0000 35.5751 0.0000
# 2 15.7605 114.2178 -1.0970 0.0000 5.0853 0.0000
# 3 61.3229 -1.0970 117.3050 0.0000 31.8455 0.0000
# 4 0.0000 0.0000 0.0000 81.8988 0.0000 -16.3478
# 5 35.5751 5.0853 31.8455 0.0000 32.4690 0.0000
# 6 0.0000 0.0000 0.0000 -16.3478 0.0000 34.2943
#
#
#
# Elastic Compliance Matrix: (Units=1/GPa)
#
#
# Indices 1 2 3 4 5 6 
#
# 1 0.008046 -0.000859 -0.002531 0.000000 -0.006198 0.000000
# 2 -0.000859 0.008942 0.000896 0.000000 -0.001338 0.000000
# 3 -0.002531 0.000896 0.012459 0.000000 -0.009586 0.000000
# 4 0.000000 0.000000 0.000000 0.013494 0.000000 0.006433
# 5 -0.006198 -0.001338 -0.009586 0.000000 0.047202 0.000000
# 6 0.000000 0.000000 0.000000 0.006433 0.000000 0.032226
#
#
# Mechanical properties :
#
#
# Convention : Reuss Voigt Hill
#
# Bulk Modulus (GPa) = 40.88611 61.79651 51.34131
# Shear Modulus (GPa) = 36.89793 51.61304 44.25548
#
# Velocity S-wave (km/s) = 3.96142 4.68521 4.33843
# Velocity P-wave (km/s) = 6.18973 7.45322 6.85067
#
# Compressibility (1/GPa) = 0.02445818
#
# Stress axis : x y z
#
# Youngs Moduli (GPa) = 124.29143 111.83352 80.26341
#
# Poissons Ratio (x) = 0.09601 0.20318
# Poissons Ratio (y) = 0.10671 -0.07190
# Poissons Ratio (z) = 0.31463 -0.10018
#
# Static dielectric constant tensor:
#      x y z
#    x 1.925500 0.000000 -0.007270 
#    y 0.000000 1.885530 0.000000 
#    z -0.007270 0.000000 1.998470 
# 
# From -- ./inp_files/210619.got.cif
#   From: 2010.05.17/outbox.cif.g08.bks.cpg/sg12_106_cif.got.tgz:210619.got - 2010.06.03 13:09:07.
