data_PCOD9208121
_publ_section_title
;
Structure prediction by ZEFSAII (Michael W. Deem and Ramdas Pophale) SiO2 
 PCOD9208121
Probable space group: C 2/M
;
_chemical_formula_sum "Si O2"
_cell_formula_units_Z 58
_cell_length_a 16.942826
_cell_length_b 7.410776
_cell_length_c 22.276221
_cell_angle_alpha 90.000000
_cell_angle_beta 126.659758
_cell_angle_gamma 90.000000
_cell_volume 2243.732659
_symmetry_space_group_name_H-M "C 2/M"
_symmetry_group_IT_number 12
_symmetry_cell_setting 'monoclinic'
loop_
_space_group_symop_operation_xyz
x,y,z
-x,y,-z
-x,-y,-z
x,-y,z
1/2+x,1/2+y,z
1/2-x,1/2+y,-z
1/2-x,1/2-y,-z
1/2+x,1/2-y,z
loop_
_atom_site_type_symbol
_atom_site_label
_atom_site_fract_x
_atom_site_fract_y
_atom_site_fract_z
Si Si1 0.037258 0.281179 0.606203
Si Si2 0.182535 0.714290 0.526198
Si Si3 0.434173 0.210044 0.245721
Si Si4 0.147120 0.291970 0.175112
Si Si5 0.053461 0.782083 0.962366
Si Si6 0.155146 0.207270 0.311736
Si Si7 0.500000 0.500000 0.500000
Si Si8 0.750130 0.795623 0.901790
O O1 0.048800 0.500000 0.604731
O O2 0.922495 0.222796 0.548069
O O3 0.073503 0.224839 0.688700
O O4 0.069301 0.160576 0.564534
O O5 0.166718 0.500000 0.531290
O O6 0.250000 0.750000 0.500000
O O7 0.256048 0.787670 0.610500
O O8 0.546883 0.216848 0.275987
O O9 0.355057 0.289669 0.162671
O O10 0.406834 0.000000 0.237462
O O11 0.173649 0.500000 0.182282
O O12 0.181813 0.216725 0.253909
O O13 0.193085 0.200163 0.137205
O O14 0.027805 0.276065 0.122108
O O15 0.056906 0.000000 0.963103
O O16 0.165798 0.715407 0.016195
O O17 0.000000 0.724210 0.000000
O O18 0.145776 0.000000 0.325726
O O19 0.733587 0.000000 0.915446
#
# Coordination Sequence:
#
# PCOD9208121 Si02
#       8
#     8   8   8   8   8   8   2   8
#     4  10  23  43  63  90 124 162 202 258 308 358
#     4  10  21  37  62  86 112 151 203 250 297 356
#     4  10  21  39  62  87 120 157 194 244 306 361
#     4  11  22  36  56  87 120 150 194 249 295 342
#     4   8  15  32  58  83 112 152 194 234 289 358
#     4  11  23  38  60  86 117 155 203 249 296 356
#     4  12  26  40  64  90 124 160 208 250 310 374
#     4   9  19  37  61  86 117 157 194 234 298 366
#
# _framework density 25.849781
#
# number of rings (size 3 to 8) (size 9 to 14) (size 15 to 20)
#    0.000    2.069    1.379    2.690    1.931    4.690 
#    2.483    4.828    0.000    0.000    0.000    0.000 
#    0.000    0.000    0.000    0.000    0.000    0.000 
#
# Total GULP energy -161618.191089 kJ/mol
# GULP energy per Si atom -5573.041072 kJ/mol
# Density = 2.579095 g / cm^3
# Si number density = 25.849781 Si / 1000 Ang^3
#
#
#
# Elastic Constant Matrix: (Units=GPa)
#
#
# Indices 1 2 3 4 5 6 
#
# 1 64.0021 -12.1062 23.2396 0.0000 31.9512 0.0000
# 2 -12.1062 106.4683 5.0207 0.0000 5.5968 0.0000
# 3 23.2396 5.0207 104.7245 0.0000 31.5666 0.0000
# 4 0.0000 0.0000 0.0000 143.5721 0.0000 7.5505
# 5 31.9512 5.5968 31.5666 0.0000 50.8573 0.0000
# 6 0.0000 0.0000 0.0000 7.5505 0.0000 2.4830
#
#
#
# Elastic Compliance Matrix: (Units=1/GPa)
#
#
# Indices 1 2 3 4 5 6 
#
# 1 0.024115 0.003574 -0.001030 0.000000 -0.014904 0.000000
# 2 0.003574 0.009979 -0.000324 0.000000 -0.003142 0.000000
# 3 -0.001030 -0.000324 0.011794 0.000000 -0.006637 0.000000
# 4 0.000000 0.000000 0.000000 0.008291 0.000000 -0.025212
# 5 -0.014904 -0.003142 -0.006637 0.000000 0.033492 0.000000
# 6 0.000000 0.000000 0.000000 -0.025212 0.000000 0.479403
#
#
# Mechanical properties :
#
#
# Convention : Reuss Voigt Hill
#
# Bulk Modulus (GPa) = 19.87004 34.16700 27.01852
# Shear Modulus (GPa) = 8.62946 56.65189 32.64067
#
# Velocity S-wave (km/s) = 1.82909 4.68651 3.55731
# Velocity P-wave (km/s) = 3.48772 6.52156 5.22948
#
# Compressibility (1/GPa) = 0.05032702
#
# Stress axis : x y z
#
# Youngs Moduli (GPa) = 41.46777 100.20690 84.79128
#
# Poissons Ratio (x) = -0.35815 0.08736
# Poissons Ratio (y) = -0.14821 0.02751
# Poissons Ratio (z) = 0.04272 0.03251
#
# Static dielectric constant tensor:
#      x y z
#    x 2.482150 0.000000 -0.014710 
#    y 0.000000 2.013740 0.000000 
#    z -0.014710 0.000000 2.071030 
# 
# From -- ./inp_files/346544.got.cif
#   From: 2010.05.17/outbox.cif.g08.bks.cpg/sg12_174_cif.got.tgz:346544.got - 2010.06.03 13:09:07.
