data_PCOD9208575
_publ_section_title
;
Structure prediction by ZEFSAII (Michael W. Deem and Ramdas Pophale) SiO2 
 PCOD9208575
Probable space group: C 2/M
;
_chemical_formula_sum "Si O2"
_cell_formula_units_Z 56
_cell_length_a 26.993204
_cell_length_b 14.780344
_cell_length_c 12.297108
_cell_angle_alpha 90.000000
_cell_angle_beta 39.367656
_cell_angle_gamma 90.000000
_cell_volume 3111.950671
_symmetry_space_group_name_H-M "C 2/M"
_symmetry_group_IT_number 12
_symmetry_cell_setting 'monoclinic'
loop_
_space_group_symop_operation_xyz
x,y,z
-x,y,-z
-x,-y,-z
x,-y,z
1/2+x,1/2+y,z
1/2-x,1/2+y,-z
1/2-x,1/2-y,-z
1/2+x,1/2-y,z
loop_
_atom_site_type_symbol
_atom_site_label
_atom_site_fract_x
_atom_site_fract_y
_atom_site_fract_z
Si Si1 0.826218 0.304365 0.681865
Si Si2 0.924766 0.779762 0.695222
Si Si3 0.991195 0.397004 0.356994
Si Si4 0.843860 0.890937 0.023207
Si Si5 0.593295 0.395675 0.843051
Si Si6 0.672629 0.253449 0.561310
Si Si7 0.950188 0.604274 0.184065
O O1 0.853628 0.240058 0.733581
O O2 0.901019 0.371097 0.537344
O O3 0.745542 0.357045 0.837699
O O4 0.816957 0.247996 0.585732
O O5 0.000000 0.816626 0.500000
O O6 0.954877 0.681487 0.686157
O O7 0.896807 0.841510 0.842416
O O8 0.008573 0.500000 0.361430
O O9 0.997636 0.392582 0.215694
O O10 0.873438 0.866564 0.095214
O O11 0.848320 0.000000 0.005035
O O12 0.617110 0.500000 0.788528
O O13 0.624305 0.336628 0.691140
O O14 0.500000 0.390594 0.000000
O O15 0.750000 0.250000 0.500000
O O16 0.625689 0.162738 0.668828
O O17 0.930562 0.500000 0.194392
O O18 0.000000 0.641484 0.000000
#
# Coordination Sequence:
#
# PCOD9208575 Si02
#       7
#     8   8   8   8   8   8   8
#     4  10  21  38  58  86 117 148 189 236 284 350
#     4  10  23  38  59  88 115 148 196 240 282 341
#     4   9  19  35  58  86 115 148 185 233 286 337
#     4  11  23  40  61  83 115 156 193 237 286 338
#     4  10  23  39  59  86 114 152 202 238 275 339
#     4  11  21  35  60  84 115 151 182 234 293 331
#     4   9  19  33  53  83 115 148 184 224 279 344
#
# _framework density 17.995144
#
# number of rings (size 3 to 8) (size 9 to 14) (size 15 to 20)
#    0.000    2.000    1.429    1.286    8.000    4.571 
#    0.000    0.714    0.000    0.857    0.000    0.000 
#    0.000    0.000    0.000    0.000    0.000    0.000 
#
# Total GULP energy -156194.052943 kJ/mol
# GULP energy per Si atom -5578.359034 kJ/mol
# Density = 1.795419 g / cm^3
# Si number density = 17.995144 Si / 1000 Ang^3
#
#
#
# Elastic Constant Matrix: (Units=GPa)
#
#
# Indices 1 2 3 4 5 6 
#
# 1 102.0220 37.5106 33.5032 0.0000 2.0909 0.0000
# 2 37.5106 75.1427 44.0224 0.0000 9.6723 0.0000
# 3 33.5032 44.0224 82.3390 0.0000 14.7378 0.0000
# 4 0.0000 0.0000 0.0000 33.5246 0.0000 7.6191
# 5 2.0909 9.6723 14.7378 0.0000 25.7088 0.0000
# 6 0.0000 0.0000 0.0000 7.6191 0.0000 23.6735
#
#
#
# Elastic Compliance Matrix: (Units=1/GPa)
#
#
# Indices 1 2 3 4 5 6 
#
# 1 0.012495 -0.004832 -0.002947 0.000000 0.002491 0.000000
# 2 -0.004832 0.021298 -0.008979 0.000000 -0.002473 0.000000
# 3 -0.002947 -0.008979 0.019497 0.000000 -0.007559 0.000000
# 4 0.000000 0.000000 0.000000 0.032183 0.000000 -0.010358
# 5 0.002491 -0.002473 -0.007559 0.000000 0.043958 0.000000
# 6 0.000000 0.000000 0.000000 -0.010358 0.000000 0.045575
#
#
# Mechanical properties :
#
#
# Convention : Reuss Voigt Hill
#
# Bulk Modulus (GPa) = 50.56421 54.39734 52.48078
# Shear Modulus (GPa) = 23.24363 26.21254 24.72809
#
# Velocity S-wave (km/s) = 3.59787 3.82074 3.71098
# Velocity P-wave (km/s) = 6.73939 7.05398 6.89848
#
# Compressibility (1/GPa) = 0.01977683
#
# Stress axis : x y z
#
# Youngs Moduli (GPa) = 80.03270 46.95201 51.28915
#
# Poissons Ratio (x) = 0.22686 0.15113
# Poissons Ratio (y) = 0.38669 0.46050
# Poissons Ratio (z) = 0.23583 0.42156
#
# Static dielectric constant tensor:
#      x y z
#    x 1.625030 0.000000 0.010330 
#    y 0.000000 1.609380 0.000000 
#    z 0.010330 0.000000 1.637370 
# 
# From -- ./inp_files/183466.got.cif
#   From: 2010.05.17/outbox.cif.g08.bks.cpg/sg12_92_cif.got.tgz:183466.got - 2010.06.03 13:09:07.
