data_PCOD9208128
_publ_section_title
;
Structure prediction by ZEFSAII (Michael W. Deem and Ramdas Pophale) SiO2 
 PCOD9208128
Probable space group: C 2/M
;
_chemical_formula_sum "Si O2"
_cell_formula_units_Z 56
_cell_length_a 22.337032
_cell_length_b 29.392909
_cell_length_c 9.156177
_cell_angle_alpha 90.000000
_cell_angle_beta 153.639515
_cell_angle_gamma 90.000000
_cell_volume 2669.206278
_symmetry_space_group_name_H-M "C 2/M"
_symmetry_group_IT_number 12
_symmetry_cell_setting 'monoclinic'
loop_
_space_group_symop_operation_xyz
x,y,z
-x,y,-z
-x,-y,-z
x,-y,z
1/2+x,1/2+y,z
1/2-x,1/2+y,-z
1/2-x,1/2-y,-z
1/2+x,1/2-y,z
loop_
_atom_site_type_symbol
_atom_site_label
_atom_site_fract_x
_atom_site_fract_y
_atom_site_fract_z
Si Si1 0.136744 0.845333 0.718762
Si Si2 0.589112 0.549635 0.048364
Si Si3 0.882369 0.392391 0.135481
Si Si4 0.377392 0.053084 0.827985
Si Si5 0.747060 0.287826 0.223476
Si Si6 0.962543 0.711220 0.250871
Si Si7 0.540266 0.349065 0.919649
O O1 0.000000 0.859580 0.500000
O O2 0.077774 0.827222 0.436945
O O3 0.245051 0.884245 0.924586
O O4 0.206918 0.808008 0.975148
O O5 0.425724 0.500000 0.059401
O O6 0.742314 0.555049 0.437286
O O7 0.500000 0.547063 0.000000
O O8 0.548328 0.597701 0.890491
O O9 0.925585 0.341838 0.178485
O O10 0.000000 0.409683 0.500000
O O11 0.860661 0.422012 0.944852
O O12 0.406112 0.000000 0.921018
O O13 0.500000 0.072207 0.000000
O O14 0.907146 0.283121 0.567140
O O15 0.663431 0.242107 0.067939
O O16 0.680901 0.324585 0.189176
O O17 0.000000 0.724714 0.500000
O O18 0.500000 0.346717 0.000000
#
# Coordination Sequence:
#
# PCOD9208128 Si02
#       7
#     8   8   8   8   8   8   8
#     4  10  21  38  60  89 117 160 200 250 296 361
#     4   9  18  36  61  86 113 155 206 243 287 358
#     4  11  22  38  61  93 125 154 206 255 306 349
#     4  10  23  41  64  91 124 166 204 243 301 374
#     4  11  23  39  62  86 121 160 209 247 297 368
#     4  11  22  37  61  91 115 161 204 249 294 361
#     4  10  21  37  62  88 122 159 200 255 311 349
#
# _framework density 20.98002
#
# number of rings (size 3 to 8) (size 9 to 14) (size 15 to 20)
#    0.000    1.714    2.857    3.429    6.000    0.286 
#    0.000    1.429    0.000    7.714    0.000    0.000 
#    0.000    0.000    0.000    0.000    0.000    0.000 
#
# Total GULP energy -156352.403176 kJ/mol
# GULP energy per Si atom -5584.014399 kJ/mol
# Density = 2.093227 g / cm^3
# Si number density = 20.980020 Si / 1000 Ang^3
#
#
#
# Elastic Constant Matrix: (Units=GPa)
#
#
# Indices 1 2 3 4 5 6 
#
# 1 72.5951 17.6290 38.3768 0.0000 15.2031 0.0000
# 2 17.6290 78.0028 -1.7296 0.0000 -0.3998 0.0000
# 3 38.3768 -1.7296 58.4909 0.0000 31.2167 0.0000
# 4 0.0000 0.0000 0.0000 -2.9376 0.0000 18.6348
# 5 15.2031 -0.3998 31.2167 0.0000 43.4521 0.0000
# 6 0.0000 0.0000 0.0000 18.6348 0.0000 16.1101
#
#
#
# Elastic Compliance Matrix: (Units=1/GPa)
#
#
# Indices 1 2 3 4 5 6 
#
# 1 0.023919 -0.005790 -0.018440 0.000000 0.004826 0.000000
# 2 -0.005790 0.014232 0.004977 0.000000 -0.001419 0.000000
# 3 -0.018440 0.004977 0.041965 0.000000 -0.023651 0.000000
# 4 0.000000 0.000000 0.000000 -0.040828 0.000000 0.047227
# 5 0.004826 -0.001419 -0.023651 0.000000 0.038304 0.000000
# 6 0.000000 0.000000 0.000000 0.047227 0.000000 0.007445
#
#
# Mechanical properties :
#
#
# Convention : Reuss Voigt Hill
#
# Bulk Modulus (GPa) = 24.03311 35.29347 29.66329
# Shear Modulus (GPa) = 36.38703 21.64576 29.01640
#
# Velocity S-wave (km/s) = 4.16909 3.21554 3.72297
# Velocity P-wave (km/s) = 5.88687 5.53581 5.71404
#
# Compressibility (1/GPa) = 0.04160927
#
# Stress axis : x y z
#
# Youngs Moduli (GPa) = 41.80843 70.26579 23.82928
#
# Poissons Ratio (x) = 0.40683 0.43941
# Poissons Ratio (y) = 0.24207 -0.11859
# Poissons Ratio (z) = 0.77095 -0.34970
#
# Static dielectric constant tensor:
#      x y z
#    x 1.760320 0.000000 0.012770 
#    y 0.000000 1.789480 0.000000 
#    z 0.012770 0.000000 1.759780 
# 
# From -- ./inp_files/91659.got.cif
#   From: 2010.05.17/outbox.cif.g08.bks.cpg/sg12_46_cif.got.tgz:91659.got - 2010.06.03 13:09:07.
