data_PCOD9208947
_publ_section_title
;
Structure prediction by ZEFSAII (Michael W. Deem and Ramdas Pophale) SiO2 
 PCOD9208947
Probable space group: C 2/M
;
_chemical_formula_sum "Si O2"
_cell_formula_units_Z 56
_cell_length_a 18.281666
_cell_length_b 8.633355
_cell_length_c 29.384513
_cell_angle_alpha 90.000000
_cell_angle_beta 38.997813
_cell_angle_gamma 90.000000
_cell_volume 2918.536969
_symmetry_space_group_name_H-M "C 2/M"
_symmetry_group_IT_number 12
_symmetry_cell_setting 'monoclinic'
loop_
_space_group_symop_operation_xyz
x,y,z
-x,y,-z
-x,-y,-z
x,-y,z
1/2+x,1/2+y,z
1/2-x,1/2+y,-z
1/2-x,1/2-y,-z
1/2+x,1/2-y,z
loop_
_atom_site_type_symbol
_atom_site_label
_atom_site_fract_x
_atom_site_fract_y
_atom_site_fract_z
Si Si1 0.299630 0.314178 0.928813
Si Si2 0.990236 0.312651 0.643977
Si Si3 0.866679 0.313086 0.074784
Si Si4 0.056636 0.684445 0.787472
Si Si5 0.220539 0.185366 0.787183
Si Si6 0.849587 0.186067 0.353041
Si Si7 0.915467 0.688710 0.500284
O O1 0.302580 0.500000 0.929486
O O2 0.215182 0.269300 0.927958
O O3 0.428331 0.251467 0.857767
O O4 0.250000 0.250000 0.000000
O O5 0.998077 0.500000 0.642798
O O6 0.855232 0.270116 0.715044
O O7 0.067448 0.241481 0.646536
O O8 0.037749 0.262928 0.571655
O O9 0.861997 0.500000 0.082149
O O10 0.822096 0.237236 0.142628
O O11 0.000000 0.270388 0.000000
O O12 0.050472 0.500000 0.789429
O O13 0.140401 0.738590 0.787585
O O14 0.106193 0.746512 0.715904
O O15 0.212212 0.000000 0.786900
O O16 0.717133 0.236609 0.427035
O O17 0.851483 0.000000 0.349448
O O18 0.917103 0.500000 0.499825
O O19 0.000000 0.740995 0.500000
#
# Coordination Sequence:
#
# PCOD9208947 Si02
#       7
#     8   8   8   8   8   8   8
#     4  11  23  40  64  93 125 159 198 243 292 350
#     4  10  21  38  60  87 120 156 194 240 299 362
#     4  10  22  40  61  87 120 156 192 235 290 348
#     4  12  25  41  61  85 119 159 199 247 299 350
#     4  11  23  39  62  89 116 151 197 246 297 356
#     4  11  22  37  60  88 118 155 200 246 294 352
#     4   9  18  35  59  85 116 155 197 243 295 353
#
# _framework density 19.187695999999999
#
# number of rings (size 3 to 8) (size 9 to 14) (size 15 to 20)
#    0.000    1.429    0.000    5.571    0.000    8.286 
#    0.000    0.714    0.000    3.000    0.000    0.000 
#    0.000    0.000    0.000    0.000    0.000    0.000 
#
# Total GULP energy -156625.586354 kJ/mol
# GULP energy per Si atom -5593.770941 kJ/mol
# Density = 1.914402 g / cm^3
# Si number density = 19.187696 Si / 1000 Ang^3
#
#
#
# Elastic Constant Matrix: (Units=GPa)
#
#
# Indices 1 2 3 4 5 6 
#
# 1 221.7341 65.7541 132.1919 0.0000 -0.7874 0.0003
# 2 65.7541 53.7870 60.3710 -0.0001 -0.8269 -0.0008
# 3 132.1919 60.3710 225.8463 0.0000 0.0151 0.0001
# 4 0.0000 -0.0001 0.0000 23.9801 0.0000 1.4101
# 5 -0.7874 -0.8269 0.0151 0.0000 45.0355 0.0000
# 6 0.0003 -0.0008 0.0001 1.4101 0.0000 23.4929
#
#
#
# Elastic Compliance Matrix: (Units=1/GPa)
#
#
# Indices 1 2 3 4 5 6 
#
# 1 0.008348 -0.006744 -0.003084 0.000000 0.000023 0.000000
# 2 -0.006744 0.032020 -0.004612 0.000000 0.000472 0.000001
# 3 -0.003084 -0.004612 0.007465 0.000000 -0.000141 0.000000
# 4 0.000000 0.000000 0.000000 0.041849 0.000000 -0.002512
# 5 0.000023 0.000472 -0.000141 0.000000 0.022214 0.000000
# 6 0.000000 0.000001 0.000000 -0.002512 0.000000 0.042717
#
#
# Mechanical properties :
#
#
# Convention : Reuss Voigt Hill
#
# Bulk Modulus (GPa) = 52.75752 113.11127 82.93440
# Shear Modulus (GPa) = 26.34190 34.70504 30.52347
#
# Velocity S-wave (km/s) = 3.70922 4.25751 3.99279
# Velocity P-wave (km/s) = 6.77493 9.12395 8.03573
#
# Compressibility (1/GPa) = 0.01895464
#
# Stress axis : x y z
#
# Youngs Moduli (GPa) = 119.78394 31.23011 133.94995
#
# Poissons Ratio (x) = 0.21063 0.41305
# Poissons Ratio (y) = 0.80787 0.61775
# Poissons Ratio (z) = 0.36937 0.14403
#
# Static dielectric constant tensor:
#      x y z
#    x 1.630340 0.000000 -0.008920 
#    y 0.000000 1.653760 0.000000 
#    z -0.008920 0.000000 1.633430 
# 
# From -- ./inp_files/362880.got.cif
#   From: 2010.05.17/outbox.cif.g08.bks.cpg/sg12_182_cif.got.tgz:362880.got - 2010.06.03 13:09:07.
