data_PCOD9208365
_publ_section_title
;
Structure prediction by ZEFSAII (Michael W. Deem and Ramdas Pophale) SiO2 
 PCOD9208365
Probable space group: C 2/M
;
_chemical_formula_sum "Si O2"
_cell_formula_units_Z 56
_cell_length_a 24.387947
_cell_length_b 8.447998
_cell_length_c 15.251037
_cell_angle_alpha 90.000000
_cell_angle_beta 110.067797
_cell_angle_gamma 90.000000
_cell_volume 2951.391690
_symmetry_space_group_name_H-M "C 2/M"
_symmetry_group_IT_number 12
_symmetry_cell_setting 'monoclinic'
loop_
_space_group_symop_operation_xyz
x,y,z
-x,y,-z
-x,-y,-z
x,-y,z
1/2+x,1/2+y,z
1/2-x,1/2+y,-z
1/2-x,1/2-y,-z
1/2+x,1/2-y,z
loop_
_atom_site_type_symbol
_atom_site_label
_atom_site_fract_x
_atom_site_fract_y
_atom_site_fract_z
Si Si1 0.311218 0.808487 0.929934
Si Si2 0.238125 0.810271 0.591498
Si Si3 0.609415 0.810893 0.538423
Si Si4 0.177389 0.190561 0.871409
Si Si5 0.931106 0.189450 0.304059
Si Si6 0.945234 0.691649 0.677427
Si Si7 0.149573 0.693152 0.235045
O O1 0.243177 0.758146 0.882827
O O2 0.346805 0.756335 0.863888
O O3 0.312006 0.000000 0.933840
O O4 0.333116 0.744274 0.034678
O O5 0.250000 0.750000 0.500000
O O6 0.174971 0.751832 0.586851
O O7 0.291007 0.757625 0.682967
O O8 0.238073 0.000000 0.591030
O O9 0.570561 0.753910 0.598014
O O10 0.585321 0.757346 0.430643
O O11 0.610602 0.000000 0.537997
O O12 0.126816 0.247154 0.778716
O O13 0.177224 0.000000 0.868321
O O14 0.989332 0.245199 0.287542
O O15 0.929725 0.000000 0.306571
O O16 0.946615 0.500000 0.678296
O O17 0.905462 0.744515 0.737167
O O18 0.149272 0.500000 0.235192
#
# Coordination Sequence:
#
# PCOD9208365 Si02
#       7
#     8   8   8   8   8   8   8
#     4   9  17  33  60  84 102 135 178 218 267 330
#     4  11  20  34  55  81 114 148 181 222 270 323
#     4  11  22  37  56  81 110 146 186 230 278 322
#     4   9  19  36  55  80 112 137 168 223 282 325
#     4  11  23  38  56  79 107 145 186 227 276 328
#     4  10  21  38  55  75 109 149 185 226 271 322
#     4   9  18  35  56  79 111 147 180 219 274 324
#
# _framework density 18.9741
#
# number of rings (size 3 to 8) (size 9 to 14) (size 15 to 20)
#    0.000    2.000    1.429    2.571    0.000    6.286 
#    0.000    5.714    0.000    4.286    0.000    0.000 
#    0.000    0.000    0.000    0.000    0.000    0.000 
#
# Total GULP energy -156367.584735 kJ/mol
# GULP energy per Si atom -5584.556598 kJ/mol
# Density = 1.893091 g / cm^3
# Si number density = 18.974100 Si / 1000 Ang^3
#
#
#
# Elastic Constant Matrix: (Units=GPa)
#
#
# Indices 1 2 3 4 5 6 
#
# 1 90.2270 12.9385 41.7737 0.0000 -20.1699 0.0000
# 2 12.9385 13.6293 11.9363 0.0000 -0.4864 0.0000
# 3 41.7737 11.9363 82.6980 0.0000 -28.2133 0.0000
# 4 0.0000 0.0000 0.0000 24.0753 0.0000 -0.6671
# 5 -20.1699 -0.4864 -28.2133 0.0000 30.3015 0.0000
# 6 0.0000 0.0000 0.0000 -0.6671 0.0000 31.0870
#
#
#
# Elastic Compliance Matrix: (Units=1/GPa)
#
#
# Indices 1 2 3 4 5 6 
#
# 1 0.016168 -0.011369 -0.004274 0.000000 0.006600 0.000000
# 2 -0.011369 0.096611 -0.015028 0.000000 -0.020009 0.000000
# 3 -0.004274 -0.015028 0.022521 0.000000 0.017883 0.000000
# 4 0.000000 0.000000 0.000000 0.041561 0.000000 0.000892
# 5 0.006600 -0.020009 0.017883 0.000000 0.053724 0.000000
# 6 0.000000 0.000000 0.000000 0.000892 0.000000 0.032187
#
#
# Mechanical properties :
#
#
# Convention : Reuss Voigt Hill
#
# Bulk Modulus (GPa) = 13.52134 35.53904 24.53019
# Shear Modulus (GPa) = 14.33621 25.08648 19.71135
#
# Velocity S-wave (km/s) = 2.75174 3.64007 3.22662
# Velocity P-wave (km/s) = 4.15184 6.03637 5.18052
#
# Compressibility (1/GPa) = 0.07395718
#
# Stress axis : x y z
#
# Youngs Moduli (GPa) = 61.85118 10.35079 44.40253
#
# Poissons Ratio (x) = 0.11768 0.18979
# Poissons Ratio (y) = 0.70321 0.66726
# Poissons Ratio (z) = 0.26438 0.15555
#
# Static dielectric constant tensor:
#      x y z
#    x 1.651910 0.000000 -0.003720 
#    y 0.000000 1.656730 0.000000 
#    z -0.003720 0.000000 1.650080 
# 
# From -- ./inp_files/237884.got.cif
#   From: 2010.05.17/outbox.cif.g08.bks.cpg/sg12_119_cif.got.tgz:237884.got - 2010.06.03 13:09:07.
