data_PCOD9208922
_publ_section_title
;
Structure prediction by ZEFSAII (Michael W. Deem and Ramdas Pophale) SiO2 
 PCOD9208922
Probable space group: C 2/M
;
_chemical_formula_sum "Si O2"
_cell_formula_units_Z 56
_cell_length_a 12.128590
_cell_length_b 14.799408
_cell_length_c 12.399986
_cell_angle_alpha 90.000000
_cell_angle_beta 86.377027
_cell_angle_gamma 90.000000
_cell_volume 2221.299072
_symmetry_space_group_name_H-M "C 2/M"
_symmetry_group_IT_number 12
_symmetry_cell_setting 'monoclinic'
loop_
_space_group_symop_operation_xyz
x,y,z
-x,y,-z
-x,-y,-z
x,-y,z
1/2+x,1/2+y,z
1/2-x,1/2+y,-z
1/2-x,1/2-y,-z
1/2+x,1/2-y,z
loop_
_atom_site_type_symbol
_atom_site_label
_atom_site_fract_x
_atom_site_fract_y
_atom_site_fract_z
Si Si1 0.678323 0.399421 0.837360
Si Si2 0.165421 0.108868 0.079401
Si Si3 0.788287 0.134429 0.570933
Si Si4 0.307365 0.155548 0.633174
Si Si5 0.544949 0.838968 0.662627
Si Si6 0.924899 0.607537 0.100370
Si Si7 0.974031 0.856228 0.711309
O O1 0.723805 0.500000 0.855816
O O2 0.766897 0.348457 0.758380
O O3 0.573672 0.404596 0.765587
O O4 0.642946 0.363309 0.956704
O O5 0.296002 0.120910 0.086639
O O6 0.105158 0.161182 0.179490
O O7 0.139316 0.000000 0.091671
O O8 0.775516 0.109445 0.446672
O O9 0.807356 0.241244 0.592772
O O10 0.662692 0.120822 0.621140
O O11 0.891396 0.096858 0.631466
O O12 0.433065 0.120731 0.619281
O O13 0.541283 0.849508 0.790317
O O14 0.530436 0.730768 0.650014
O O15 0.943220 0.500000 0.108996
O O16 0.000000 0.642844 0.000000
#
# Coordination Sequence:
#
# PCOD9208922 Si02
#       7
#     8   8   8   8   8   8   8
#     4  11  23  41  62  90 127 162 203 248 303 364
#     4  10  21  39  62  86 124 166 200 246 301 365
#     4  10  21  41  62  88 120 156 205 251 303 356
#     4  10  22  39  63  88 119 161 202 248 302 362
#     4  11  21  39  63  91 119 157 199 260 302 356
#     4  10  21  38  60  86 120 162 201 243 303 364
#     4  11  22  38  63  93 122 160 205 248 305 364
#
# _framework density 25.210473
#
# number of rings (size 3 to 8) (size 9 to 14) (size 15 to 20)
#    0.000    1.571    2.857    2.143    0.000    4.571 
#    0.000    5.714    0.000    1.714    0.000    0.000 
#    0.000    0.000    0.000    0.000    0.000    0.000 
#
# Total GULP energy -156471.782038 kJ/mol
# GULP energy per Si atom -5588.277930 kJ/mol
# Density = 2.515309 g / cm^3
# Si number density = 25.210473 Si / 1000 Ang^3
#
#
#
# Elastic Constant Matrix: (Units=GPa)
#
#
# Indices 1 2 3 4 5 6 
#
# 1 121.0987 5.9965 29.3103 0.0000 15.1488 0.0000
# 2 5.9965 52.5278 -1.1674 0.0000 2.6382 0.0000
# 3 29.3103 -1.1674 106.1084 0.0000 11.7714 0.0000
# 4 0.0000 0.0000 0.0000 21.2766 0.0000 -10.3184
# 5 15.1488 2.6382 11.7714 0.0000 58.5074 0.0000
# 6 0.0000 0.0000 0.0000 -10.3184 0.0000 -0.7633
#
#
#
# Elastic Compliance Matrix: (Units=1/GPa)
#
#
# Indices 1 2 3 4 5 6 
#
# 1 0.009099 -0.000998 -0.002320 0.000000 -0.001844 0.000000
# 2 -0.000998 0.019200 0.000567 0.000000 -0.000722 0.000000
# 3 -0.002320 0.000567 0.010236 0.000000 -0.001484 0.000000
# 4 0.000000 0.000000 0.000000 0.006220 0.000000 -0.084088
# 5 -0.001844 -0.000722 -0.001484 0.000000 0.017901 0.000000
# 6 0.000000 0.000000 0.000000 -0.084088 0.000000 -0.173389
#
#
# Mechanical properties :
#
#
# Convention : Reuss Voigt Hill
#
# Bulk Modulus (GPa) = 30.27162 38.66819 34.46990
# Shear Modulus (GPa) = -53.06734 32.17716 -10.44509
#
# Velocity S-wave (km/s) = -4.59297 3.57647 -2.03768
# Velocity P-wave (km/s) = 4.01168 5.69441 2.85768
#
# Compressibility (1/GPa) = 0.03303425
#
# Stress axis : x y z
#
# Youngs Moduli (GPa) = 109.89819 52.08258 97.69394
#
# Poissons Ratio (x) = 0.05196 0.22664
# Poissons Ratio (y) = 0.10964 -0.05538
# Poissons Ratio (z) = 0.25495 -0.02952
#
# Static dielectric constant tensor:
#      x y z
#    x 2.012310 0.000000 -0.005090 
#    y 0.000000 2.078100 0.000000 
#    z -0.005090 0.000000 1.991520 
# 
# From -- ./inp_files/133228.got.cif
#   From: 2010.05.17/outbox.cif.g08.bks.cpg/sg12_67_cif.got.tgz:133228.got - 2010.06.03 13:09:07.
