data_PCOD9208201
_publ_section_title
;
Structure prediction by ZEFSAII (Michael W. Deem and Ramdas Pophale) SiO2 
 PCOD9208201
Probable space group: C 2/M
;
_chemical_formula_sum "Si O2"
_cell_formula_units_Z 38
_cell_length_a 10.678851
_cell_length_b 12.991779
_cell_length_c 12.219276
_cell_angle_alpha 90.000000
_cell_angle_beta 56.845198
_cell_angle_gamma 90.000000
_cell_volume 1419.272443
_symmetry_space_group_name_H-M "C 2/M"
_symmetry_group_IT_number 12
_symmetry_cell_setting 'monoclinic'
loop_
_space_group_symop_operation_xyz
x,y,z
-x,y,-z
-x,-y,-z
x,-y,z
1/2+x,1/2+y,z
1/2-x,1/2+y,-z
1/2-x,1/2-y,-z
1/2+x,1/2-y,z
loop_
_atom_site_type_symbol
_atom_site_label
_atom_site_fract_x
_atom_site_fract_y
_atom_site_fract_z
Si Si1 0.631700 0.674530 0.285432
Si Si2 0.500000 0.500000 0.500000
Si Si3 0.655497 0.000000 0.543774
Si Si4 0.438039 0.324294 0.918219
Si Si5 0.326387 0.500000 0.242575
Si Si6 0.303577 0.000000 0.914259
Si Si7 0.848727 0.500000 0.209483
Si Si8 0.000000 0.324937 0.500000
O O1 0.518165 0.591596 0.393915
O O2 0.589936 0.724281 0.187986
O O3 0.778446 0.604360 0.196916
O O4 0.631762 0.760210 0.379622
O O5 0.565142 0.896260 0.564219
O O6 0.766823 0.000000 0.390814
O O7 0.723609 0.000000 0.631453
O O8 0.571013 0.403318 0.830590
O O9 0.294595 0.399171 0.007468
O O10 0.500000 0.271135 0.000000
O O11 0.194811 0.500000 0.217471
O O12 0.473150 0.000000 0.874705
#
# Coordination Sequence:
#
# PCOD9208201 Si02
#       8
#     8   2   4   8   4   4   4   4
#     4  10  21  37  63 103 138 173 223 279 337 405
#     4   8  16  30  54  88 142 164 198 268 332 394
#     4  11  24  42  67  97 135 184 222 279 354 411
#     4   9  19  36  65 102 130 184 230 271 327 403
#     4   9  18  34  64  94 126 175 233 268 320 409
#     4   9  17  34  58  98 138 182 228 264 327 408
#     4  11  23  36  66 104 147 178 214 278 350 401
#     4  10  24  44  64 100 142 178 224 280 344 416
#
# _framework density 26.774281999999999
#
# number of rings (size 3 to 8) (size 9 to 14) (size 15 to 20)
#    0.000    2.316    0.000    5.053    8.842    2.526 
#    0.000    0.000    0.000   11.368   32.842    0.737 
#    0.000    0.000    0.000    0.000    0.000    0.000 
#
# Total GULP energy -106035.253001 kJ/mol
# GULP energy per Si atom -5580.802790 kJ/mol
# Density = 2.671334 g / cm^3
# Si number density = 26.774282 Si / 1000 Ang^3
#
#
#
# Elastic Constant Matrix: (Units=GPa)
#
#
# Indices 1 2 3 4 5 6 
#
# 1 119.5292 28.2717 68.7721 0.0000 6.4865 0.0000
# 2 28.2717 85.8205 41.1075 0.0000 -2.1364 0.0000
# 3 68.7721 41.1075 166.2949 0.0000 14.3648 0.0000
# 4 0.0000 0.0000 0.0000 39.8486 0.0000 -10.2062
# 5 6.4865 -2.1364 14.3648 0.0000 57.5870 0.0000
# 6 0.0000 0.0000 0.0000 -10.2062 0.0000 -2.4937
#
#
#
# Elastic Compliance Matrix: (Units=1/GPa)
#
#
# Indices 1 2 3 4 5 6 
#
# 1 0.011189 -0.001688 -0.004186 0.000000 -0.000279 0.000000
# 2 -0.001688 0.013573 -0.002777 0.000000 0.001386 0.000000
# 3 -0.004186 -0.002777 0.008584 0.000000 -0.001773 0.000000
# 4 0.000000 0.000000 0.000000 0.012252 0.000000 -0.050145
# 5 -0.000279 0.001386 -0.001773 0.000000 0.017890 0.000000
# 6 0.000000 0.000000 0.000000 -0.050145 0.000000 -0.195783
#
#
# Mechanical properties :
#
#
# Convention : Reuss Voigt Hill
#
# Bulk Modulus (GPa) = 62.32647 71.99413 67.16030
# Shear Modulus (GPa) = -45.60148 34.55461 -5.52344
#
# Velocity S-wave (km/s) = -4.13144 3.59637 -1.43786
# Velocity P-wave (km/s) = 0.75540 6.64777 4.73094
#
# Compressibility (1/GPa) = 0.01604455
#
# Stress axis : x y z
#
# Youngs Moduli (GPa) = 89.37429 73.67627 116.49447
#
# Poissons Ratio (x) = 0.12435 0.48764
# Poissons Ratio (y) = 0.15085 0.32349
# Poissons Ratio (z) = 0.37411 0.20459
#
# Static dielectric constant tensor:
#      x y z
#    x 2.029640 0.000000 0.075310 
#    y 0.000000 2.065450 0.000000 
#    z 0.075310 0.000000 1.987080 
# 
# From -- ./inp_files/129209.got.cif
#   From: 2010.05.17/outbox.cif.g08.bks.cpg/sg12_65_cif.got.tgz:129209.got - 2010.06.03 13:09:07.
