data_PCOD9208073
_publ_section_title
;
Structure prediction by ZEFSAII (Michael W. Deem and Ramdas Pophale) SiO2 
 PCOD9208073
Probable space group: C 2/M
;
_chemical_formula_sum "Si O2"
_cell_formula_units_Z 56
_cell_length_a 23.062505
_cell_length_b 10.599954
_cell_length_c 28.793642
_cell_angle_alpha 90.000000
_cell_angle_beta 21.957875
_cell_angle_gamma 90.000000
_cell_volume 2632.033050
_symmetry_space_group_name_H-M "C 2/M"
_symmetry_group_IT_number 12
_symmetry_cell_setting 'monoclinic'
loop_
_space_group_symop_operation_xyz
x,y,z
-x,y,-z
-x,-y,-z
x,-y,z
1/2+x,1/2+y,z
1/2-x,1/2+y,-z
1/2-x,1/2-y,-z
1/2+x,1/2-y,z
loop_
_atom_site_type_symbol
_atom_site_label
_atom_site_fract_x
_atom_site_fract_y
_atom_site_fract_z
Si Si1 0.030765 0.645806 0.540975
Si Si2 0.487996 0.292752 0.060393
Si Si3 0.699620 0.637806 0.258227
Si Si4 0.661732 0.277250 0.184063
Si Si5 0.171865 0.143397 0.726995
Si Si6 0.362375 0.139646 0.433311
Si Si7 0.376711 0.647396 0.890129
O O1 0.976439 0.500000 0.572308
O O2 0.156669 0.694202 0.410122
O O3 0.120233 0.642468 0.523980
O O4 0.896148 0.746712 0.649184
O O5 0.381645 0.169158 0.129903
O O6 0.395030 0.355938 0.171475
O O7 0.500000 0.353538 0.000000
O O8 0.661662 0.271577 0.949220
O O9 0.662037 0.500000 0.304983
O O10 0.660608 0.643344 0.232424
O O11 0.534430 0.168075 0.285864
O O12 0.619559 0.348369 0.168359
O O13 0.037404 0.194424 0.793531
O O14 0.191849 0.000000 0.696769
O O15 0.250000 0.250000 0.500000
O O16 0.308912 0.000000 0.458934
O O17 0.348598 0.500000 0.925557
O O18 0.250000 0.750000 0.000000
#
# Coordination Sequence:
#
# PCOD9208073 Si02
#       7
#     8   8   8   8   8   8   8
#     4   9  20  40  62  86 120 164 210 254 309 372
#     4  10  22  39  60  90 123 162 206 259 313 366
#     4  10  22  40  64  94 125 160 209 262 312 370
#     4  10  21  39  63  92 126 165 205 251 311 374
#     4  10  21  39  62  88 123 163 207 254 306 372
#     4  10  21  37  61  92 126 165 209 258 310 372
#     4  11  22  38  61  90 124 162 202 249 310 374
#
# _framework density 21.276329
#
# number of rings (size 3 to 8) (size 9 to 14) (size 15 to 20)
#    0.000    2.000    1.429    1.286    0.000    9.714 
#    0.000    6.429    0.000    0.000    0.000    0.000 
#    0.000    0.000    0.000    0.000    0.000    0.000 
#
# Total GULP energy -156186.314637 kJ/mol
# GULP energy per Si atom -5578.082666 kJ/mol
# Density = 2.122790 g / cm^3
# Si number density = 21.276329 Si / 1000 Ang^3
#
#
#
# Elastic Constant Matrix: (Units=GPa)
#
#
# Indices 1 2 3 4 5 6 
#
# 1 106.9573 28.7654 44.7892 0.0008 1.3121 -0.0007
# 2 28.7654 129.2737 58.5866 -0.0027 -5.5211 0.0006
# 3 44.7892 58.5866 155.7141 -0.0031 0.9256 0.0019
# 4 0.0008 -0.0027 -0.0031 19.9420 0.0019 -0.9762
# 5 1.3121 -5.5211 0.9256 0.0019 37.5509 -0.0002
# 6 -0.0007 0.0006 0.0019 -0.9762 -0.0002 12.0493
#
#
#
# Elastic Compliance Matrix: (Units=1/GPa)
#
#
# Indices 1 2 3 4 5 6 
#
# 1 0.010791 -0.001226 -0.002640 -0.000001 -0.000492 0.000001
# 2 -0.001226 0.009545 -0.003248 0.000001 0.001526 0.000000
# 3 -0.002640 -0.003248 0.008407 0.000001 -0.000593 -0.000001
# 4 -0.000001 0.000001 0.000001 0.050345 -0.000002 0.004079
# 5 -0.000492 0.001526 -0.000593 -0.000002 0.026887 0.000000
# 6 0.000001 0.000000 -0.000001 0.004079 0.000000 0.083323
#
#
# Mechanical properties :
#
#
# Convention : Reuss Voigt Hill
#
# Bulk Modulus (GPa) = 68.88892 72.91416 70.90154
# Shear Modulus (GPa) = 23.99655 31.22870 27.61262
#
# Velocity S-wave (km/s) = 3.36199 3.83530 3.60642
# Velocity P-wave (km/s) = 6.89341 7.34556 7.12307
#
# Compressibility (1/GPa) = 0.01451612
#
# Stress axis : x y z
#
# Youngs Moduli (GPa) = 92.67314 104.76231 118.95122
#
# Poissons Ratio (x) = 0.12842 0.31399
# Poissons Ratio (y) = 0.11360 0.38634
# Poissons Ratio (z) = 0.24462 0.34026
#
# Static dielectric constant tensor:
#      x y z
#    x 1.795520 0.000000 0.003880 
#    y 0.000000 1.752580 0.000000 
#    z 0.003880 0.000000 1.809810 
# 
# From -- ./inp_files/382842.got.cif
#   From: 2010.05.17/outbox.cif.g08.bks.cpg/sg12_192_cif.got.tgz:382842.got - 2010.06.03 13:09:07.
