data_PCOD9208084
_publ_section_title
;
Structure prediction by ZEFSAII (Michael W. Deem and Ramdas Pophale) SiO2 
 PCOD9208084
Probable space group: C 2/M
;
_chemical_formula_sum "Si O2"
_cell_formula_units_Z 26
_cell_length_a 20.090097
_cell_length_b 7.769284
_cell_length_c 7.028444
_cell_angle_alpha 90.000000
_cell_angle_beta 99.517869
_cell_angle_gamma 90.000000
_cell_volume 1081.937628
_symmetry_space_group_name_H-M "C 2/M"
_symmetry_group_IT_number 12
_symmetry_cell_setting 'monoclinic'
loop_
_space_group_symop_operation_xyz
x,y,z
-x,y,-z
-x,-y,-z
x,-y,z
1/2+x,1/2+y,z
1/2-x,1/2+y,-z
1/2-x,1/2-y,-z
1/2+x,1/2-y,z
loop_
_atom_site_type_symbol
_atom_site_label
_atom_site_fract_x
_atom_site_fract_y
_atom_site_fract_z
Si Si1 0.500082 0.810481 0.775190
Si Si2 0.500000 0.500000 0.500000
Si Si3 0.135772 0.195662 0.437093
Si Si4 0.746296 0.295034 0.778515
O O1 0.527424 0.655327 0.662898
O O2 0.422233 0.813624 0.671036
O O3 0.530637 0.000000 0.757998
O O4 0.500000 0.773963 0.000000
O O5 0.196017 0.197669 0.311563
O O6 0.174350 0.245044 0.647423
O O7 0.104179 0.000000 0.432299
O O8 0.756037 0.500000 0.755601
O O9 0.750000 0.250000 0.000000
#
# Coordination Sequence:
#
# PCOD9208084 Si02
#       4
#     8   2   8   8
#     4  11  25  45  69  98 133 178 225 277 337 395
#     4  12  24  44  68  96 132 176 228 276 326 396
#     4  10  21  40  63  89 128 171 209 266 327 384
#     4  10  21  37  61  93 125 165 213 261 322 390
#
# _framework density 24.030961000000001
#
# number of rings (size 3 to 8) (size 9 to 14) (size 15 to 20)
#    0.000    1.538    1.538    2.769    0.000    6.154 
#    0.000    0.000    0.000    0.000    0.000    0.000 
#    0.000    0.000    0.000    0.000    0.000    0.000 
#
# Total GULP energy -72563.917620 kJ/mol
# GULP energy per Si atom -5581.839817 kJ/mol
# Density = 2.397627 g / cm^3
# Si number density = 24.030961 Si / 1000 Ang^3
#
#
#
# Elastic Constant Matrix: (Units=GPa)
#
#
# Indices 1 2 3 4 5 6 
#
# 1 57.6209 29.6580 30.8560 0.0000 5.2120 0.0000
# 2 29.6580 184.1824 68.8427 0.0000 -18.1751 0.0000
# 3 30.8560 68.8427 226.5452 0.0000 -8.0787 0.0000
# 4 0.0000 0.0000 0.0000 15.5083 0.0000 14.1274
# 5 5.2120 -18.1751 -8.0787 0.0000 26.1427 0.0000
# 6 0.0000 0.0000 0.0000 14.1274 0.0000 1.6938
#
#
#
# Elastic Compliance Matrix: (Units=1/GPa)
#
#
# Indices 1 2 3 4 5 6 
#
# 1 0.020793 -0.003263 -0.002092 0.000000 -0.007061 0.000000
# 2 -0.003263 0.007018 -0.001508 0.000000 0.005064 0.000000
# 3 -0.002092 -0.001508 0.005192 0.000000 0.000973 0.000000
# 4 0.000000 0.000000 0.000000 -0.009773 0.000000 0.081512
# 5 -0.007061 0.005064 0.000973 0.000000 0.043480 0.000000
# 6 0.000000 0.000000 0.000000 0.081512 0.000000 -0.089479
#
#
# Mechanical properties :
#
#
# Convention : Reuss Voigt Hill
#
# Bulk Modulus (GPa) = 51.87391 80.78468 66.32929
# Shear Modulus (GPa) = -1910.99545 31.26841 -939.86352
#
# Velocity S-wave (km/s) = -28.23028 3.61109 -19.79784
# Velocity P-wave (km/s) = 32.26399 7.14678 22.24734
#
# Compressibility (1/GPa) = 0.01927751
#
# Stress axis : x y z
#
# Youngs Moduli (GPa) = 48.09226 142.49024 192.60509
#
# Poissons Ratio (x) = 0.46494 0.40300
# Poissons Ratio (y) = 0.15692 0.29038
# Poissons Ratio (z) = 0.10063 0.21483
#
# Static dielectric constant tensor:
#      x y z
#    x 1.740540 0.000000 -0.023380 
#    y 0.000000 1.915080 0.000000 
#    z -0.023380 0.000000 1.846970 
# 
# From -- ./inp_files/26904.got.cif
#   From: 2010.05.17/outbox.cif.g08.bks.cpg/sg12_14_cif.got.tgz:26904.got - 2010.06.03 13:09:07.
