data_PCOD9208623
_publ_section_title
;
Structure prediction by ZEFSAII (Michael W. Deem and Ramdas Pophale) SiO2 
 PCOD9208623
Probable space group: C 2/M
;
_chemical_formula_sum "Si O2"
_cell_formula_units_Z 32
_cell_length_a 28.855392
_cell_length_b 8.968437
_cell_length_c 7.134669
_cell_angle_alpha 90.000000
_cell_angle_beta 88.927336
_cell_angle_gamma 90.000000
_cell_volume 1846.041485
_symmetry_space_group_name_H-M "C 2/M"
_symmetry_group_IT_number 12
_symmetry_cell_setting 'monoclinic'
loop_
_space_group_symop_operation_xyz
x,y,z
-x,y,-z
-x,-y,-z
x,-y,z
1/2+x,1/2+y,z
1/2-x,1/2+y,-z
1/2-x,1/2-y,-z
1/2+x,1/2-y,z
loop_
_atom_site_type_symbol
_atom_site_label
_atom_site_fract_x
_atom_site_fract_y
_atom_site_fract_z
Si Si1 0.375360 0.676418 0.690407
Si Si2 0.054075 0.821403 0.988337
Si Si3 0.300168 0.322290 0.015983
Si Si4 0.872647 0.677292 0.288139
O O1 0.376554 0.500000 0.644485
O O2 0.419712 0.710499 0.818111
O O3 0.331015 0.703675 0.827122
O O4 0.373958 0.769680 0.501907
O O5 0.058730 0.000000 0.955727
O O6 0.082045 0.737047 0.824582
O O7 0.000000 0.784092 0.000000
O O8 0.296813 0.500000 0.043216
O O9 0.250000 0.250000 0.000000
O O10 0.329148 0.250926 0.183802
O O11 0.869833 0.500000 0.274731
#
# Coordination Sequence:
#
# PCOD9208623 Si02
#       4
#     8   8   8   8
#     4   9  19  36  56  78 106 141 180 220 264 318
#     4   9  19  37  59  80 105 141 183 225 268 316
#     4  10  21  38  59  81 107 140 179 223 268 316
#     4  11  22  35  54  80 111 144 177 219 268 318
#
# _framework density 17.334388000000001
#
# number of rings (size 3 to 8) (size 9 to 14) (size 15 to 20)
#    0.000    2.250    0.000    4.500    0.000    7.500 
#    0.000    5.000    0.000    0.000    0.000    0.000 
#    0.000    0.000    0.000    0.000    0.000    0.000 
#
# Total GULP energy -89330.814011 kJ/mol
# GULP energy per Si atom -5583.175876 kJ/mol
# Density = 1.729493 g / cm^3
# Si number density = 17.334388 Si / 1000 Ang^3
#
#
#
# Elastic Constant Matrix: (Units=GPa)
#
#
# Indices 1 2 3 4 5 6 
#
# 1 181.1221 89.5093 82.2045 0.0000 10.4506 0.0000
# 2 89.5093 109.5841 94.4173 0.0000 2.9709 0.0000
# 3 82.2045 94.4173 135.9896 0.0000 7.8304 0.0000
# 4 0.0000 0.0000 0.0000 6.7462 0.0000 -0.9318
# 5 10.4506 2.9709 7.8304 0.0000 4.0170 0.0000
# 6 0.0000 0.0000 0.0000 -0.9318 0.0000 30.5158
#
#
#
# Elastic Compliance Matrix: (Units=1/GPa)
#
#
# Indices 1 2 3 4 5 6 
#
# 1 0.010991 -0.009449 0.001307 0.000000 -0.024154 0.000000
# 2 -0.009449 0.031750 -0.018468 0.000000 0.037102 0.000000
# 3 0.001307 -0.018468 0.021172 0.000000 -0.031012 0.000000
# 4 0.000000 0.000000 0.000000 0.148860 0.000000 0.004545
# 5 -0.024154 0.037102 -0.031012 0.000000 0.344793 0.000000
# 6 0.000000 0.000000 0.000000 0.004545 0.000000 0.032909
#
#
# Mechanical properties :
#
#
# Convention : Reuss Voigt Hill
#
# Bulk Modulus (GPa) = 93.52621 106.55088 100.03855
# Shear Modulus (GPa) = 7.72488 18.96013 13.34250
#
# Velocity S-wave (km/s) = 2.11331 3.31083 2.77738
# Velocity P-wave (km/s) = 7.74765 8.73023 8.25357
#
# Compressibility (1/GPa) = 0.01069219
#
# Stress axis : x y z
#
# Youngs Moduli (GPa) = 90.98145 31.49583 47.23326
#
# Poissons Ratio (x) = 0.29762 -0.06175
# Poissons Ratio (y) = 0.85972 0.87233
# Poissons Ratio (z) = -0.11895 0.58168
#
# Static dielectric constant tensor:
#      x y z
#    x 1.570760 0.000000 0.002330 
#    y 0.000000 1.577610 0.000000 
#    z 0.002330 0.000000 1.559320 
# 
# From -- ./inp_files/30056.got.cif
#   From: 2010.05.17/outbox.cif.g08.bks.cpg/sg12_16_cif.got.tgz:30056.got - 2010.06.03 13:09:07.
