data_PCOD9208577
_publ_section_title
;
Structure prediction by ZEFSAII (Michael W. Deem and Ramdas Pophale) SiO2 
 PCOD9208577
Probable space group: C 2/M
;
_chemical_formula_sum "Si O2"
_cell_formula_units_Z 56
_cell_length_a 27.108414
_cell_length_b 9.103532
_cell_length_c 12.028737
_cell_angle_alpha 90.000000
_cell_angle_beta 76.842978
_cell_angle_gamma 90.000000
_cell_volume 2890.556720
_symmetry_space_group_name_H-M "C 2/M"
_symmetry_group_IT_number 12
_symmetry_cell_setting 'monoclinic'
loop_
_space_group_symop_operation_xyz
x,y,z
-x,y,-z
-x,-y,-z
x,-y,z
1/2+x,1/2+y,z
1/2-x,1/2+y,-z
1/2-x,1/2-y,-z
1/2+x,1/2-y,z
loop_
_atom_site_type_symbol
_atom_site_label
_atom_site_fract_x
_atom_site_fract_y
_atom_site_fract_z
Si Si1 0.893207 0.825148 0.294031
Si Si2 0.416205 0.177019 0.807463
Si Si3 0.112465 0.324804 0.929858
Si Si4 0.005688 0.823803 0.624831
Si Si5 0.732066 0.825663 0.895584
Si Si6 0.804601 0.673470 0.469942
Si Si7 0.183197 0.673395 0.281280
O O1 0.907177 0.763065 0.165910
O O2 0.938809 0.791563 0.355371
O O3 0.842417 0.747353 0.363495
O O4 0.885761 0.000000 0.293613
O O5 0.463487 0.248780 0.722436
O O6 0.364532 0.219162 0.769292
O O7 0.419697 0.000000 0.799449
O O8 0.411567 0.217142 0.939491
O O9 0.105236 0.500000 0.917428
O O10 0.172787 0.297108 0.907575
O O11 0.000000 0.775764 0.500000
O O12 0.998617 0.000000 0.632291
O O13 0.767257 0.761754 0.780679
O O14 0.738820 0.000000 0.900899
O O15 0.750000 0.750000 0.000000
O O16 0.799408 0.500000 0.449498
O O17 0.750000 0.750000 0.500000
O O18 0.826975 0.691664 0.582989
O O19 0.192415 0.500000 0.255782
#
# Coordination Sequence:
#
# PCOD9208577 Si02
#       7
#     8   8   8   8   8   8   8
#     4  11  24  41  62  88 122 159 199 248 298 356
#     4  10  21  39  62  88 117 151 198 250 296 352
#     4  10  22  40  60  86 123 160 199 246 297 358
#     4  10  23  43  64  88 119 154 196 247 302 358
#     4  11  21  35  57  85 121 161 198 241 291 349
#     4  11  23  39  62  89 121 158 199 246 296 355
#     4  10  21  38  58  86 120 154 199 249 296 352
#
# _framework density 19.373429999999999
#
# number of rings (size 3 to 8) (size 9 to 14) (size 15 to 20)
#    0.000    1.571    1.429    3.000    0.000    7.714 
#    0.000    2.857    0.000    0.000    0.000    0.000 
#    0.000    0.000    0.000    0.000    0.000    0.000 
#
# Total GULP energy -156556.550672 kJ/mol
# GULP energy per Si atom -5591.305381 kJ/mol
# Density = 1.932934 g / cm^3
# Si number density = 19.373430 Si / 1000 Ang^3
#
#
#
# Elastic Constant Matrix: (Units=GPa)
#
#
# Indices 1 2 3 4 5 6 
#
# 1 82.4135 48.4613 66.8953 0.0000 -1.4727 0.0000
# 2 48.4613 43.3190 52.6622 0.0000 3.4763 0.0000
# 3 66.8953 52.6622 141.0820 0.0000 -2.8396 0.0000
# 4 0.0000 0.0000 0.0000 35.1689 0.0000 -4.5967
# 5 -1.4727 3.4763 -2.8396 0.0000 39.5863 0.0000
# 6 0.0000 0.0000 0.0000 -4.5967 0.0000 30.2781
#
#
#
# Elastic Compliance Matrix: (Units=1/GPa)
#
#
# Indices 1 2 3 4 5 6 
#
# 1 0.037288 -0.037875 -0.003453 0.000000 0.004466 0.000000
# 2 -0.037875 0.081685 -0.012723 0.000000 -0.009495 0.000000
# 3 -0.003453 -0.012723 0.013514 0.000000 0.001958 0.000000
# 4 0.000000 0.000000 0.000000 0.029010 0.000000 0.004404
# 5 0.004466 -0.009495 0.001958 0.000000 0.026402 0.000000
# 6 0.000000 0.000000 0.000000 0.004404 0.000000 0.033696
#
#
# Mechanical properties :
#
#
# Convention : Reuss Voigt Hill
#
# Bulk Modulus (GPa) = 41.00925 66.98354 53.99640
# Shear Modulus (GPa) = 14.80059 27.59306 21.19682
#
# Velocity S-wave (km/s) = 2.76699 3.77805 3.31133
# Velocity P-wave (km/s) = 5.60554 7.32677 6.52317
#
# Compressibility (1/GPa) = 0.02438474
#
# Stress axis : x y z
#
# Youngs Moduli (GPa) = 26.81836 12.24214 73.99834
#
# Poissons Ratio (x) = 0.46367 0.25549
# Poissons Ratio (y) = 1.01575 0.94149
# Poissons Ratio (z) = 0.09260 0.15576
#
# Static dielectric constant tensor:
#      x y z
#    x 1.658590 0.000000 0.026630 
#    y 0.000000 1.647170 0.000000 
#    z 0.026630 0.000000 1.675400 
# 
# From -- ./inp_files/180834.got.cif
#   From: 2010.05.17/outbox.cif.g08.bks.cpg/sg12_91_cif.got.tgz:180834.got - 2010.06.03 13:09:07.
