data_PCOD9208524
_publ_section_title
;
Structure prediction by ZEFSAII (Michael W. Deem and Ramdas Pophale) SiO2 
 PCOD9208524
Probable space group: C 2/M
;
_chemical_formula_sum "Si O2"
_cell_formula_units_Z 64
_cell_length_a 19.634137
_cell_length_b 7.972448
_cell_length_c 30.063592
_cell_angle_alpha 90.000000
_cell_angle_beta 34.233061
_cell_angle_gamma 90.000000
_cell_volume 2647.363877
_symmetry_space_group_name_H-M "C 2/M"
_symmetry_group_IT_number 12
_symmetry_cell_setting 'monoclinic'
loop_
_space_group_symop_operation_xyz
x,y,z
-x,y,-z
-x,-y,-z
x,-y,z
1/2+x,1/2+y,z
1/2-x,1/2+y,-z
1/2-x,1/2-y,-z
1/2+x,1/2-y,z
loop_
_atom_site_type_symbol
_atom_site_label
_atom_site_fract_x
_atom_site_fract_y
_atom_site_fract_z
Si Si1 0.270264 0.296613 0.701733
Si Si2 0.051119 0.299726 0.543755
Si Si3 0.129173 0.304722 0.865909
Si Si4 0.612568 0.696471 0.034003
Si Si5 0.379573 0.308174 0.872800
Si Si6 0.265793 0.802887 0.374599
Si Si7 0.847253 0.306537 0.796511
Si Si8 0.415425 0.205601 0.377457
O O1 0.268599 0.500000 0.703049
O O2 0.409872 0.241657 0.623771
O O3 0.202358 0.238870 0.782926
O O4 0.210698 0.235631 0.687480
O O5 0.063720 0.500000 0.533207
O O6 0.125073 0.219512 0.463556
O O7 0.111056 0.239374 0.558151
O O8 0.103494 0.500000 0.873284
O O9 0.220530 0.284474 0.857576
O O10 0.999997 0.216810 0.937724
O O11 0.646293 0.500000 0.018817
O O12 0.572225 0.752599 0.105563
O O13 0.733548 0.794803 0.956757
O O14 0.415809 0.500000 0.846544
O O15 0.404807 0.209321 0.814269
O O16 0.336672 0.730009 0.378711
O O17 0.294423 0.000000 0.357811
O O18 0.823030 0.500000 0.800620
O O19 0.947285 0.242962 0.708161
O O20 0.411655 0.000000 0.379617
#
# Coordination Sequence:
#
# PCOD9208524 Si02
#       8
#     8   8   8   8   8   8   8   8
#     4  10  22  38  58  83 114 153 195 240 292 352
#     4  11  21  37  58  83 115 150 191 242 298 349
#     4  11  23  39  61  89 121 158 202 250 297 350
#     4  10  22  41  65  93 125 160 196 238 293 352
#     4  10  22  41  64  94 127 157 195 244 290 345
#     4  10  21  38  58  82 111 150 198 241 291 354
#     4  11  22  39  63  88 120 162 201 244 299 357
#     4   9  20  37  58  83 114 151 193 242 292 349
#
# _framework density 24.174990999999999
#
# number of rings (size 3 to 8) (size 9 to 14) (size 15 to 20)
#    0.000    1.750    1.250    2.625    1.750    4.500 
#    0.000    4.375    0.000    0.000    0.000    0.000 
#    0.000    0.000    0.000    0.000    0.000    0.000 
#
# Total GULP energy -178951.107905 kJ/mol
# GULP energy per Si atom -5592.222122 kJ/mol
# Density = 2.411997 g / cm^3
# Si number density = 24.174991 Si / 1000 Ang^3
#
#
#
# Elastic Constant Matrix: (Units=GPa)
#
#
# Indices 1 2 3 4 5 6 
#
# 1 89.5037 0.7295 -3.6803 -0.0003 3.0880 -0.0066
# 2 0.7295 37.2001 -6.0956 -0.0001 3.7786 0.0021
# 3 -3.6803 -6.0956 37.8957 0.0003 4.1421 -0.0006
# 4 -0.0003 -0.0001 0.0003 16.9920 -0.0001 -1.2161
# 5 3.0880 3.7786 4.1421 -0.0001 42.4336 -0.0008
# 6 -0.0066 0.0021 -0.0006 -1.2161 -0.0008 24.1700
#
#
#
# Elastic Compliance Matrix: (Units=1/GPa)
#
#
# Indices 1 2 3 4 5 6 
#
# 1 0.011254 0.000073 0.001208 0.000000 -0.000943 0.000003
# 2 0.000073 0.027973 0.004831 0.000000 -0.002968 -0.000002
# 3 0.001208 0.004831 0.027634 0.000000 -0.003216 0.000001
# 4 0.000000 0.000000 0.000000 0.059064 0.000000 0.002972
# 5 -0.000943 -0.002968 -0.003216 0.000000 0.024213 0.000001
# 6 0.000003 -0.000002 0.000001 0.002972 0.000001 0.041523
#
#
# Mechanical properties :
#
#
# Convention : Reuss Voigt Hill
#
# Bulk Modulus (GPa) = 12.64454 16.27854 14.46154
# Shear Modulus (GPa) = 24.29547 28.29552 26.29550
#
# Velocity S-wave (km/s) = 3.17359 3.42489 3.30163
# Velocity P-wave (km/s) = 4.32095 4.73160 4.53093
#
# Compressibility (1/GPa) = 0.07908552
#
# Stress axis : x y z
#
# Youngs Moduli (GPa) = 88.85466 35.74842 36.18722
#
# Poissons Ratio (x) = -0.00261 -0.04371
# Poissons Ratio (y) = -0.00649 -0.17482
# Poissons Ratio (z) = -0.10732 -0.17270
#
# Static dielectric constant tensor:
#      x y z
#    x 1.964240 0.000000 0.005540 
#    y 0.000000 1.836460 0.000000 
#    z 0.005540 0.000000 1.924130 
# 
# From -- ./inp_files/378177.got.cif
#   From: 2010.05.17/outbox.cif.g08.bks.cpg/sg12_190_cif.got.tgz:378177.got - 2010.06.03 13:09:07.
