data_PCOD9208578
_publ_section_title
;
Structure prediction by ZEFSAII (Michael W. Deem and Ramdas Pophale) SiO2 
 PCOD9208578
Probable space group: C 2/M
;
_chemical_formula_sum "Si O2"
_cell_formula_units_Z 58
_cell_length_a 19.408453
_cell_length_b 8.064152
_cell_length_c 18.994705
_cell_angle_alpha 90.000000
_cell_angle_beta 110.718562
_cell_angle_gamma 90.000000
_cell_volume 2780.652994
_symmetry_space_group_name_H-M "C 2/M"
_symmetry_group_IT_number 12
_symmetry_cell_setting 'monoclinic'
loop_
_space_group_symop_operation_xyz
x,y,z
-x,y,-z
-x,-y,-z
x,-y,z
1/2+x,1/2+y,z
1/2-x,1/2+y,-z
1/2-x,1/2-y,-z
1/2+x,1/2-y,z
loop_
_atom_site_type_symbol
_atom_site_label
_atom_site_fract_x
_atom_site_fract_y
_atom_site_fract_z
Si Si1 0.386044 0.684048 0.151920
Si Si2 0.173346 0.313365 0.003190
Si Si3 0.020703 0.302084 0.292958
Si Si4 0.358592 0.807079 0.763580
Si Si5 0.934399 0.808445 0.926641
Si Si6 0.297382 0.189237 0.242906
Si Si7 0.500000 0.500000 0.500000
Si Si8 0.067504 0.696871 0.601608
O O1 0.385800 0.500000 0.121626
O O2 0.379650 0.804641 0.083873
O O3 0.458169 0.715221 0.224025
O O4 0.318943 0.703930 0.182701
O O5 0.179897 0.500000 0.031860
O O6 0.250000 0.250000 0.000000
O O7 0.138851 0.204574 0.052344
O O8 0.014467 0.500000 0.278631
O O9 0.099889 0.249114 0.292141
O O10 0.999272 0.275502 0.366168
O O11 0.416974 0.783849 0.848134
O O12 0.284136 0.715337 0.757788
O O13 0.339960 0.000000 0.749794
O O14 0.951148 0.000000 0.916170
O O15 0.000000 0.742206 0.000000
O O16 0.357808 0.217802 0.325784
O O17 0.307574 0.000000 0.223004
O O18 0.558045 0.348207 0.544552
O O19 0.065470 0.500000 0.578210
#
# Coordination Sequence:
#
# PCOD9208578 Si02
#       8
#     8   8   8   8   8   8   2   8
#     4  11  21  34  56  80 109 144 193 248 297 352
#     4  12  24  38  54  73 104 147 191 246 304 361
#     4   9  20  38  58  86 119 152 191 242 290 335
#     4  11  22  36  59  86 114 157 200 247 303 357
#     4  11  24  40  55  78 113 152 202 252 305 363
#     4  10  21  38  58  86 121 155 196 250 296 347
#     4  12  22  36  72 102 124 164 194 238 288 362
#     4   9  21  40  63  97 130 160 199 244 292 348
#
# _framework density 20.858411
#
# number of rings (size 3 to 8) (size 9 to 14) (size 15 to 20)
#    0.000    1.517    0.000    6.414    4.828    4.414 
#    0.000    0.000    0.000    0.828    0.000    0.000 
#    0.000    0.000    0.000    0.000    0.000    0.000 
#
# Total GULP energy -161759.972646 kJ/mol
# GULP energy per Si atom -5577.930091 kJ/mol
# Density = 2.081094 g / cm^3
# Si number density = 20.858411 Si / 1000 Ang^3
#
#
#
# Elastic Constant Matrix: (Units=GPa)
#
#
# Indices 1 2 3 4 5 6 
#
# 1 94.4953 1.5365 4.5120 0.0000 -5.3504 0.0000
# 2 1.5365 76.1092 20.1772 0.0000 4.3714 0.0000
# 3 4.5120 20.1772 42.6716 0.0000 10.5363 0.0000
# 4 0.0000 0.0000 0.0000 21.0455 0.0000 8.9266
# 5 -5.3504 4.3714 10.5363 0.0000 12.3609 0.0000
# 6 0.0000 0.0000 0.0000 8.9266 0.0000 17.9439
#
#
#
# Elastic Compliance Matrix: (Units=1/GPa)
#
#
# Indices 1 2 3 4 5 6 
#
# 1 0.011146 0.000168 -0.003083 0.000000 0.007393 0.000000
# 2 0.000168 0.015033 -0.007386 0.000000 0.001052 0.000000
# 3 -0.003083 -0.007386 0.034119 0.000000 -0.027805 0.000000
# 4 0.000000 0.000000 0.000000 0.060224 0.000000 -0.029959
# 5 0.007393 0.001052 -0.027805 0.000000 0.107430 0.000000
# 6 0.000000 0.000000 0.000000 -0.029959 0.000000 0.070633
#
#
# Mechanical properties :
#
#
# Convention : Reuss Voigt Hill
#
# Bulk Modulus (GPa) = 25.19226 29.52527 27.35876
# Shear Modulus (GPa) = 15.04127 22.74009 18.89068
#
# Velocity S-wave (km/s) = 2.68827 3.30542 3.01269
# Velocity P-wave (km/s) = 4.66258 5.36223 5.02460
#
# Compressibility (1/GPa) = 0.03969473
#
# Stress axis : x y z
#
# Youngs Moduli (GPa) = 89.72118 66.51896 29.30928
#
# Poissons Ratio (x) = -0.01116 0.09037
# Poissons Ratio (y) = -0.01505 0.21648
# Poissons Ratio (z) = 0.27664 0.49131
#
# Static dielectric constant tensor:
#      x y z
#    x 1.784060 0.000000 0.009600 
#    y 0.000000 1.761420 0.000000 
#    z 0.009600 0.000000 1.757090 
# 
# From -- ./inp_files/313839.got.cif
#   From: 2010.05.17/outbox.cif.g08.bks.cpg/sg12_157_cif.got.tgz:313839.got - 2010.06.03 13:09:07.
