data_PCOD9208183
_publ_section_title
;
Structure prediction by ZEFSAII (Michael W. Deem and Ramdas Pophale) SiO2 
 PCOD9208183
Probable space group: C 2/M
;
_chemical_formula_sum "Si O2"
_cell_formula_units_Z 44
_cell_length_a 16.913683
_cell_length_b 11.183178
_cell_length_c 27.647421
_cell_angle_alpha 90.000000
_cell_angle_beta 21.599116
_cell_angle_gamma 90.000000
_cell_volume 1925.022944
_symmetry_space_group_name_H-M "C 2/M"
_symmetry_group_IT_number 12
_symmetry_cell_setting 'monoclinic'
loop_
_space_group_symop_operation_xyz
x,y,z
-x,y,-z
-x,-y,-z
x,-y,z
1/2+x,1/2+y,z
1/2-x,1/2+y,-z
1/2-x,1/2-y,-z
1/2+x,1/2-y,z
loop_
_atom_site_type_symbol
_atom_site_label
_atom_site_fract_x
_atom_site_fract_y
_atom_site_fract_z
Si Si1 0.795044 0.633135 0.427690
Si Si2 0.740086 0.632942 0.940603
Si Si3 0.214752 0.630609 0.409425
Si Si4 0.872816 0.209517 0.714914
Si Si5 0.073448 0.217648 0.798946
Si Si6 0.500000 0.205057 0.000000
O O1 0.806232 0.500000 0.399760
O O2 0.751516 0.748963 0.418718
O O3 0.589084 0.634975 0.580942
O O4 0.021998 0.668216 0.323459
O O5 0.732650 0.500000 0.926092
O O6 0.968711 0.668128 0.832412
O O7 0.586177 0.652190 0.073930
O O8 0.648651 0.720417 0.952043
O O9 0.211436 0.500000 0.436238
O O10 0.386731 0.632107 0.268748
O O11 0.000000 0.642316 0.500000
O O12 0.764975 0.240465 0.724809
O O13 0.688252 0.155490 0.855783
#
# Coordination Sequence:
#
# PCOD9208183 Si02
#       6
#     8   8   8   8   8   4
#     4  11  25  44  69 102 138 176 224 286 345 399
#     4  10  21  37  62  95 132 170 219 279 336 396
#     4  11  23  41  65  94 128 175 223 267 325 401
#     4  10  23  43  63  96 133 181 225 280 338 408
#     4  10  21  40  62  93 131 175 224 269 332 405
#     4  10  21  40  67  92 130 178 230 274 332 408
#
# _framework density 22.856869
#
# number of rings (size 3 to 8) (size 9 to 14) (size 15 to 20)
#    0.000    1.636    1.818    1.909    0.000   10.545 
#    0.000    0.455    0.000    1.091    0.000    0.000 
#    0.000    0.000    0.000    0.000    0.000    0.000 
#
# Total GULP energy -122568.789967 kJ/mol
# GULP energy per Si atom -5571.308635 kJ/mol
# Density = 2.280485 g / cm^3
# Si number density = 22.856869 Si / 1000 Ang^3
#
#
#
# Elastic Constant Matrix: (Units=GPa)
#
#
# Indices 1 2 3 4 5 6 
#
# 1 110.4461 55.1869 32.7984 -0.0058 -15.0272 -0.0019
# 2 55.1869 104.7734 -3.0423 -0.0004 2.0173 0.0045
# 3 32.7984 -3.0423 95.6385 -0.0208 13.0093 -0.0004
# 4 -0.0058 -0.0004 -0.0208 10.8774 -0.0101 1.0665
# 5 -15.0272 2.0173 13.0093 -0.0101 49.9597 -0.0034
# 6 -0.0019 0.0045 -0.0004 1.0665 -0.0034 14.2062
#
#
#
# Elastic Compliance Matrix: (Units=1/GPa)
#
#
# Indices 1 2 3 4 5 6 
#
# 1 0.016664 -0.009119 -0.006984 0.000001 0.007199 0.000007
# 2 -0.009119 0.014554 0.004192 0.000000 -0.004422 -0.000007
# 3 -0.006984 0.004192 0.013781 0.000018 -0.005859 -0.000005
# 4 0.000001 0.000000 0.000018 0.092616 0.000014 -0.006953
# 5 0.007199 -0.004422 -0.005859 0.000014 0.023886 0.000007
# 6 0.000007 -0.000007 -0.000005 -0.006953 0.000007 0.070914
#
#
# Mechanical properties :
#
#
# Convention : Reuss Voigt Hill
#
# Bulk Modulus (GPa) = 47.22014 53.41601 50.31807
# Shear Modulus (GPa) = 18.98994 30.06964 24.52979
#
# Velocity S-wave (km/s) = 2.88552 3.63100 3.27951
# Velocity P-wave (km/s) = 5.63964 6.40308 6.03345
#
# Compressibility (1/GPa) = 0.02117740
#
# Stress axis : x y z
#
# Youngs Moduli (GPa) = 60.00875 68.70758 72.56108
#
# Poissons Ratio (x) = 0.62654 0.50678
# Poissons Ratio (y) = 0.54721 -0.30416
# Poissons Ratio (z) = 0.41911 -0.28800
#
# Static dielectric constant tensor:
#      x y z
#    x 1.848140 0.000000 0.059240 
#    y 0.000000 1.861330 0.000010 
#    z 0.059240 0.000010 2.047900 
# 
# From -- ./inp_files/379031.got.cif
#   From: 2010.05.17/outbox.cif.g08.bks.cpg/sg12_190_cif.got.tgz:379031.got - 2010.06.03 13:09:07.
