data_PCOD9208940
_publ_section_title
;
Structure prediction by ZEFSAII (Michael W. Deem and Ramdas Pophale) SiO2 
 PCOD9208940
Probable space group: C 2/M
;
_chemical_formula_sum "Si O2"
_cell_formula_units_Z 48
_cell_length_a 17.701506
_cell_length_b 19.741949
_cell_length_c 7.222330
_cell_angle_alpha 90.000000
_cell_angle_beta 89.999926
_cell_angle_gamma 90.000000
_cell_volume 2523.931538
_symmetry_space_group_name_H-M "C 2/M"
_symmetry_group_IT_number 12
_symmetry_cell_setting 'monoclinic'
loop_
_space_group_symop_operation_xyz
x,y,z
-x,y,-z
-x,-y,-z
x,-y,z
1/2+x,1/2+y,z
1/2-x,1/2+y,-z
1/2-x,1/2-y,-z
1/2+x,1/2-y,z
loop_
_atom_site_type_symbol
_atom_site_label
_atom_site_fract_x
_atom_site_fract_y
_atom_site_fract_z
Si Si1 0.089071 0.640450 0.778211
Si Si2 0.665610 0.000000 0.223123
Si Si3 0.343349 0.500000 0.222038
Si Si4 0.590312 0.606757 0.499999
Si Si5 0.334390 0.000000 0.223122
Si Si6 0.089071 0.640450 0.221789
Si Si7 0.160032 0.255811 0.500000
Si Si8 0.843350 0.000000 0.777965
O O1 0.124698 0.568778 0.717140
O O2 0.130985 0.701090 0.675166
O O3 0.000000 0.641747 0.735867
O O4 0.097697 0.646116 0.000000
O O5 0.624697 0.931222 0.282860
O O6 0.754105 0.000000 0.268472
O O7 0.660564 0.000000 0.000000
O O8 0.380520 0.564779 0.321624
O O9 0.352480 0.500000 0.000002
O O10 0.500000 0.608151 0.500000
O O11 0.623800 0.681668 0.499999
O O12 0.619479 0.564779 0.321620
O O13 0.245893 0.000000 0.268471
O O14 0.130985 0.701090 0.324835
O O15 0.250000 0.250000 0.500000
#
# Coordination Sequence:
#
# PCOD9208940 Si02
#       8
#     8   4   4   8   4   8   8   4
#     4  10  21  38  60  87 119 153 190 234 286 343
#     4   9  18  35  60  89 118 149 189 234 279 334
#     4  10  21  39  62  85 111 147 190 235 287 341
#     4  11  24  40  57  83 115 144 189 243 283 334
#     4   9  18  35  60  89 118 149 189 234 279 334
#     4  10  21  38  60  87 119 153 190 234 286 343
#     4  12  25  40  59  84 118 156 194 238 289 346
#     4  10  21  39  62  85 111 147 190 235 287 341
#
# _framework density 19.017949000000002
#
# number of rings (size 3 to 8) (size 9 to 14) (size 15 to 20)
#    0.000    1.667    0.000    5.000    0.000    7.333 
#    0.000    1.667    0.000    0.000    0.000    0.000 
#    0.000    0.000    0.000    0.000    0.000    0.000 
#
# Total GULP energy -134176.274247 kJ/mol
# GULP energy per Si atom -5590.678094 kJ/mol
# Density = 1.897466 g / cm^3
# Si number density = 19.017949 Si / 1000 Ang^3
#
#
#
# Elastic Constant Matrix: (Units=GPa)
#
#
# Indices 1 2 3 4 5 6 
#
# 1 217.4729 118.2301 74.5727 0.0000 0.0006 0.0000
# 2 118.2301 213.8100 71.5805 0.0000 0.0006 0.0000
# 3 74.5727 71.5805 130.2963 0.0000 0.0011 0.0000
# 4 0.0000 0.0000 0.0000 23.4598 0.0000 -0.0003
# 5 0.0006 0.0006 0.0011 0.0000 27.2890 0.0000
# 6 0.0000 0.0000 0.0000 -0.0003 0.0000 41.1445
#
#
#
# Elastic Compliance Matrix: (Units=1/GPa)
#
#
# Indices 1 2 3 4 5 6 
#
# 1 0.007113 -0.003150 -0.002341 0.000000 0.000000 0.000000
# 2 -0.003150 0.007126 -0.002112 0.000000 0.000000 0.000000
# 3 -0.002341 -0.002112 0.010175 0.000000 0.000000 0.000000
# 4 0.000000 0.000000 0.000000 0.042626 0.000000 0.000000
# 5 0.000000 0.000000 0.000000 0.000000 0.036645 0.000000
# 6 0.000000 0.000000 0.000000 0.000000 0.000000 0.024305
#
#
# Mechanical properties :
#
#
# Convention : Reuss Voigt Hill
#
# Bulk Modulus (GPa) = 108.59142 121.14953 114.87047
# Shear Modulus (GPa) = 34.18473 38.19172 36.18822
#
# Velocity S-wave (km/s) = 4.24429 4.48615 4.36689
# Velocity P-wave (km/s) = 9.01344 9.52235 9.27138
#
# Compressibility (1/GPa) = 0.00920883
#
# Stress axis : x y z
#
# Youngs Moduli (GPa) = 140.58086 140.33435 98.28213
#
# Poissons Ratio (x) = 0.44202 0.23006
# Poissons Ratio (y) = 0.44280 0.20757
# Poissons Ratio (z) = 0.32907 0.29638
#
# Static dielectric constant tensor:
#      x y z
#    x 1.628520 0.000000 0.000000 
#    y 0.000000 1.619670 0.000000 
#    z 0.000000 0.000000 1.686440 
# 
# From -- ./inp_files/61802.got.cif
#   From: 2010.05.17/outbox.cif.g08.bks.cpg/sg12_31_cif.got.tgz:61802.got - 2010.06.03 13:09:07.
