data_PCOD9208974
_publ_section_title
;
Structure prediction by ZEFSAII (Michael W. Deem and Ramdas Pophale) SiO2 
 PCOD9208974
Probable space group: C 2/M
;
_chemical_formula_sum "Si O2"
_cell_formula_units_Z 64
_cell_length_a 14.807343
_cell_length_b 8.943515
_cell_length_c 28.548967
_cell_angle_alpha 90.000000
_cell_angle_beta 54.423464
_cell_angle_gamma 90.000000
_cell_volume 3075.016273
_symmetry_space_group_name_H-M "C 2/M"
_symmetry_group_IT_number 12
_symmetry_cell_setting 'monoclinic'
loop_
_space_group_symop_operation_xyz
x,y,z
-x,y,-z
-x,-y,-z
x,-y,z
1/2+x,1/2+y,z
1/2-x,1/2+y,-z
1/2-x,1/2-y,-z
1/2+x,1/2-y,z
loop_
_atom_site_type_symbol
_atom_site_label
_atom_site_fract_x
_atom_site_fract_y
_atom_site_fract_z
Si Si1 0.119855 0.679025 0.597232
Si Si2 0.173699 0.826064 0.754344
Si Si3 0.316038 0.320910 0.844108
Si Si4 0.737654 0.178755 0.370107
Si Si5 0.418818 0.173339 0.726281
Si Si6 0.080167 0.678064 0.871404
Si Si7 0.993987 0.825112 0.557698
Si Si8 0.851226 0.179486 0.941106
O O1 0.123096 0.500000 0.591505
O O2 0.224280 0.739384 0.594386
O O3 0.015501 0.723933 0.662170
O O4 0.097195 0.756325 0.554544
O O5 0.182254 0.780521 0.697632
O O6 0.300296 0.818413 0.735463
O O7 0.102236 0.727155 0.811014
O O8 0.137503 0.000000 0.768337
O O9 0.320028 0.500000 0.840856
O O10 0.401636 0.259937 0.779848
O O11 0.191571 0.275477 0.865713
O O12 0.339314 0.275125 0.890089
O O13 0.614596 0.232567 0.394857
O O14 0.740144 0.000000 0.374476
O O15 0.440671 0.000000 0.730404
O O16 0.068060 0.500000 0.878379
O O17 0.969677 0.758732 0.922267
O O18 0.000000 0.811335 0.500000
O O19 0.982194 0.000000 0.572999
O O20 0.848127 0.000000 0.944920
O O21 0.750000 0.250000 0.000000
#
# Coordination Sequence:
#
# PCOD9208974 Si02
#       8
#     8   8   8   8   8   8   8   8
#     4  11  23  40  62  94 128 164 207 255 310 370
#     4   9  18  36  59  87 123 159 197 244 300 362
#     4   9  21  39  59  85 118 157 197 241 298 359
#     4  11  23  40  63  93 127 166 207 254 312 369
#     4   9  18  35  59  88 122 156 197 246 299 359
#     4  10  21  38  60  88 118 155 198 244 299 357
#     4  11  25  45  67  91 122 164 213 262 312 371
#     4  11  24  42  61  85 118 158 203 249 298 359
#
# _framework density 20.812897
#
# number of rings (size 3 to 8) (size 9 to 14) (size 15 to 20)
#    0.000    1.875    1.250    1.875    1.750    5.500 
#    0.000    2.500    0.000    0.000    0.000    0.000 
#    0.000    0.000    0.000    0.000    0.000    0.000 
#
# Total GULP energy -178900.170941 kJ/mol
# GULP energy per Si atom -5590.630342 kJ/mol
# Density = 2.076553 g / cm^3
# Si number density = 20.812897 Si / 1000 Ang^3
#
#
#
# Elastic Constant Matrix: (Units=GPa)
#
#
# Indices 1 2 3 4 5 6 
#
# 1 68.2539 8.2102 0.8320 0.0000 11.7077 0.0000
# 2 8.2102 34.3920 15.6006 0.0000 5.7995 0.0000
# 3 0.8320 15.6006 46.3210 0.0000 -0.1792 0.0000
# 4 0.0000 0.0000 0.0000 32.2439 0.0000 1.8817
# 5 11.7077 5.7995 -0.1792 0.0000 32.4348 0.0000
# 6 0.0000 0.0000 0.0000 1.8817 0.0000 28.0111
#
#
#
# Elastic Compliance Matrix: (Units=1/GPa)
#
#
# Indices 1 2 3 4 5 6 
#
# 1 0.015922 -0.003297 0.000804 0.000000 -0.005153 0.000000
# 2 -0.003297 0.036296 -0.012186 0.000000 -0.005367 0.000000
# 3 0.000804 -0.012186 0.025686 0.000000 0.002030 0.000000
# 4 0.000000 0.000000 0.000000 0.031136 0.000000 -0.002092
# 5 -0.005153 -0.005367 0.002030 0.000000 0.033662 0.000000
# 6 0.000000 0.000000 0.000000 -0.002092 0.000000 0.035841
#
#
# Mechanical properties :
#
#
# Convention : Reuss Voigt Hill
#
# Bulk Modulus (GPa) = 20.59835 22.02806 21.31321
# Shear Modulus (GPa) = 22.31327 26.82622 24.56974
#
# Velocity S-wave (km/s) = 3.27783 3.59405 3.43958
# Velocity P-wave (km/s) = 4.92381 5.27539 5.10263
#
# Compressibility (1/GPa) = 0.04854757
#
# Stress axis : x y z
#
# Youngs Moduli (GPa) = 62.80664 27.55099 38.93168
#
# Poissons Ratio (x) = 0.09083 -0.03132
# Poissons Ratio (y) = 0.20707 0.47442
# Poissons Ratio (z) = -0.05052 0.33573
#
# Static dielectric constant tensor:
#      x y z
#    x 1.769380 0.000000 -0.003310 
#    y 0.000000 1.691780 0.000000 
#    z -0.003310 0.000000 1.742120 
# 
# From -- ./inp_files/375501.got.cif
#   From: 2010.05.17/outbox.cif.g08.bks.cpg/sg12_188_cif.got.tgz:375501.got - 2010.06.03 13:09:07.
