data_PCOD9208266
_publ_section_title
;
Structure prediction by ZEFSAII (Michael W. Deem and Ramdas Pophale) SiO2 
 PCOD9208266
Probable space group: C 2/M
;
_chemical_formula_sum "Si O2"
_cell_formula_units_Z 64
_cell_length_a 18.654578
_cell_length_b 14.207583
_cell_length_c 17.012436
_cell_angle_alpha 90.000000
_cell_angle_beta 43.046618
_cell_angle_gamma 90.000000
_cell_volume 3077.755295
_symmetry_space_group_name_H-M "C 2/M"
_symmetry_group_IT_number 12
_symmetry_cell_setting 'monoclinic'
loop_
_space_group_symop_operation_xyz
x,y,z
-x,y,-z
-x,-y,-z
x,-y,z
1/2+x,1/2+y,z
1/2-x,1/2+y,-z
1/2-x,1/2-y,-z
1/2+x,1/2-y,z
loop_
_atom_site_type_symbol
_atom_site_label
_atom_site_fract_x
_atom_site_fract_y
_atom_site_fract_z
Si Si1 0.569513 0.718735 0.518016
Si Si2 0.276572 0.299055 0.162556
Si Si3 0.133328 0.889104 0.060890
Si Si4 0.515004 0.107391 0.814547
Si Si5 0.950496 0.610148 0.684011
Si Si6 0.293394 0.890993 0.073981
Si Si7 0.577352 0.611125 0.672263
Si Si8 0.809165 0.763793 0.304844
O O1 0.500000 0.687979 0.500000
O O2 0.530533 0.823081 0.573768
O O3 0.553819 0.652598 0.605787
O O4 0.691852 0.724037 0.400238
O O5 0.165464 0.350674 0.240960
O O6 0.264715 0.186542 0.161160
O O7 0.322117 0.317820 0.211924
O O8 0.348539 0.332336 0.032862
O O9 0.224168 0.868898 0.051916
O O10 0.023318 0.870377 0.191423
O O11 0.140334 0.000000 0.037015
O O12 0.473291 0.119903 0.758819
O O13 0.605615 0.181338 0.758320
O O14 0.553784 0.000000 0.790622
O O15 0.415106 0.117359 0.951881
O O16 0.958395 0.500000 0.657517
O O17 0.272221 0.000000 0.112540
O O18 0.595928 0.500000 0.654037
O O19 0.672010 0.667376 0.636763
#
# Coordination Sequence:
#
# PCOD9208266 Si02
#       8
#     8   8   8   8   8   8   8   8
#     4  12  26  49  71  97 132 175 239 290 336 403
#     4  12  23  39  68 103 138 178 223 281 339 410
#     4  10  21  39  66  99 132 175 227 279 337 406
#     4  10  22  42  69 100 133 177 229 278 336 399
#     4  11  23  43  72 100 128 171 228 286 337 401
#     4  10  21  37  64 100 137 180 228 277 328 395
#     4  11  26  46  69  98 139 183 225 277 346 413
#     4  12  27  44  65  99 142 178 221 283 350 411
#
# _framework density 20.794376
#
# number of rings (size 3 to 8) (size 9 to 14) (size 15 to 20)
#    0.000    1.000    3.750    2.625    0.000    5.000 
#    0.000    2.500    0.000    0.000    0.000    0.000 
#    0.000    0.000    0.000    0.000    0.000    0.000 
#
# Total GULP energy -179102.708285 kJ/mol
# GULP energy per Si atom -5596.959634 kJ/mol
# Density = 2.074705 g / cm^3
# Si number density = 20.794376 Si / 1000 Ang^3
#
#
#
# Elastic Constant Matrix: (Units=GPa)
#
#
# Indices 1 2 3 4 5 6 
#
# 1 119.2704 48.2239 30.3822 0.0000 -8.5179 0.0000
# 2 48.2239 75.0978 19.2709 0.0000 -8.4301 0.0000
# 3 30.3822 19.2709 18.4300 0.0000 -4.3377 0.0000
# 4 0.0000 0.0000 0.0000 15.6687 0.0000 0.2330
# 5 -8.5179 -8.4301 -4.3377 0.0000 24.3782 0.0000
# 6 0.0000 0.0000 0.0000 0.2330 0.0000 -0.0703
#
#
#
# Elastic Compliance Matrix: (Units=1/GPa)
#
#
# Indices 1 2 3 4 5 6 
#
# 1 0.015563 -0.004651 -0.020761 0.000000 0.000135 0.000000
# 2 -0.004651 0.019807 -0.012330 0.000000 0.003030 0.000000
# 3 -0.020761 -0.012330 0.102977 0.000000 0.006806 0.000000
# 4 0.000000 0.000000 0.000000 0.060825 0.000000 0.201489
# 5 0.000135 0.003030 0.006806 0.000000 0.043326 0.000000
# 6 0.000000 0.000000 0.000000 0.201489 0.000000-13.548479
#
#
# Mechanical properties :
#
#
# Convention : Reuss Voigt Hill
#
# Bulk Modulus (GPa) = 15.90731 45.39468 30.65099
# Shear Modulus (GPa) = -0.37851 15.65674 7.63911
#
# Velocity S-wave (km/s) = -0.42711 2.74694 1.91875
# Velocity P-wave (km/s) = 2.72455 5.65142 4.43631
#
# Compressibility (1/GPa) = 0.06286419
#
# Stress axis : x y z
#
# Youngs Moduli (GPa) = 64.25519 50.48772 9.71088
#
# Poissons Ratio (x) = 0.23483 0.20160
# Poissons Ratio (y) = 0.29886 0.11973
# Poissons Ratio (z) = 1.33397 0.62250
#
# Static dielectric constant tensor:
#      x y z
#    x 1.734590 0.000000 0.005770 
#    y 0.000000 1.746410 0.000000 
#    z 0.005770 0.000000 1.738430 
# 
# From -- ./inp_files/278138.got.cif
#   From: 2010.05.17/outbox.cif.g08.bks.cpg/sg12_140_cif.got.tgz:278138.got - 2010.06.03 13:09:07.
