data_PCOD9208156
_publ_section_title
;
Structure prediction by ZEFSAII (Michael W. Deem and Ramdas Pophale) SiO2 
 PCOD9208156
Probable space group: C 2/M
;
_chemical_formula_sum "Si O2"
_cell_formula_units_Z 64
_cell_length_a 30.222744
_cell_length_b 19.349623
_cell_length_c 9.319618
_cell_angle_alpha 90.000000
_cell_angle_beta 145.650378
_cell_angle_gamma 90.000000
_cell_volume 3075.171767
_symmetry_space_group_name_H-M "C 2/M"
_symmetry_group_IT_number 12
_symmetry_cell_setting 'monoclinic'
loop_
_space_group_symop_operation_xyz
x,y,z
-x,y,-z
-x,-y,-z
x,-y,z
1/2+x,1/2+y,z
1/2-x,1/2+y,-z
1/2-x,1/2-y,-z
1/2+x,1/2-y,z
loop_
_atom_site_type_symbol
_atom_site_label
_atom_site_fract_x
_atom_site_fract_y
_atom_site_fract_z
Si Si1 0.265564 0.398019 0.279390
Si Si2 0.329571 0.382321 0.899531
Si Si3 0.958351 0.783362 0.534216
Si Si4 0.697800 0.242217 0.001675
Si Si5 0.372860 0.574474 0.326339
Si Si6 0.585648 0.358158 0.160427
Si Si7 0.563401 0.793220 0.052505
Si Si8 0.174702 0.424884 0.309424
O O1 0.233385 0.321065 0.180556
O O2 0.288722 0.422483 0.182609
O O3 0.349814 0.400983 0.581810
O O4 0.204719 0.430274 0.226097
O O5 0.307349 0.307595 0.906628
O O6 0.397697 0.376246 0.961675
O O7 0.252193 0.411694 0.614558
O O8 0.358201 0.422310 0.116739
O O9 0.918177 0.853891 0.486357
O O10 0.000000 0.805980 0.500000
O O11 0.015173 0.741017 0.790899
O O12 0.889014 0.733341 0.294979
O O13 0.750000 0.250000 0.000000
O O14 0.410275 0.500000 0.462826
O O15 0.500000 0.368450 0.000000
O O16 0.604945 0.275958 0.226115
O O17 0.500000 0.815822 0.000000
O O18 0.619334 0.857581 0.171562
O O19 0.139987 0.500000 0.256918
#
# Coordination Sequence:
#
# PCOD9208156 Si02
#       8
#     8   8   8   8   8   8   8   8
#     4  11  21  38  61  91 124 166 212 258 313 371
#     4  10  21  38  63  95 127 165 207 257 316 373
#     4  11  23  40  60  89 126 160 207 260 315 366
#     4  11  21  36  65  96 123 156 212 275 315 361
#     4  11  22  37  60  90 128 169 209 251 311 380
#     4  10  21  37  62  92 125 158 208 261 309 369
#     4  11  23  38  64  89 117 160 209 262 318 368
#     4  11  24  41  62  90 130 169 211 260 316 383
#
# _framework density 20.811845999999999
#
# number of rings (size 3 to 8) (size 9 to 14) (size 15 to 20)
#    0.000    1.250    2.500    6.000    1.750    2.500 
#    0.000    0.000    0.000   26.250    0.000    0.000 
#    0.000    0.000    0.000    0.000    0.000    0.000 
#
# Total GULP energy -178531.948038 kJ/mol
# GULP energy per Si atom -5579.123376 kJ/mol
# Density = 2.076448 g / cm^3
# Si number density = 20.811846 Si / 1000 Ang^3
#
#
#
# Elastic Constant Matrix: (Units=GPa)
#
#
# Indices 1 2 3 4 5 6 
#
# 1 132.3162 27.1591 16.1838 0.0000 -9.4969 0.0000
# 2 27.1591 95.9974 28.2324 0.0000 5.0887 0.0000
# 3 16.1838 28.2324 68.6059 0.0000 -1.4058 0.0000
# 4 0.0000 0.0000 0.0000 7.1204 0.0000 -1.6915
# 5 -9.4969 5.0887 -1.4058 0.0000 27.2653 0.0000
# 6 0.0000 0.0000 0.0000 -1.6915 0.0000 5.5018
#
#
#
# Elastic Compliance Matrix: (Units=1/GPa)
#
#
# Indices 1 2 3 4 5 6 
#
# 1 0.008377 -0.002256 -0.000980 0.000000 0.003288 0.000000
# 2 -0.002256 0.012627 -0.004733 0.000000 -0.003386 0.000000
# 3 -0.000980 -0.004733 0.016784 0.000000 0.001407 0.000000
# 4 0.000000 0.000000 0.000000 0.151506 0.000000 0.046580
# 5 0.003288 -0.003386 0.001407 0.000000 0.038526 0.000000
# 6 0.000000 0.000000 0.000000 0.046580 0.000000 0.196081
#
#
# Mechanical properties :
#
#
# Convention : Reuss Voigt Hill
#
# Bulk Modulus (GPa) = 45.77025 48.89668 47.33346
# Shear Modulus (GPa) = 11.18263 23.00045 17.09154
#
# Velocity S-wave (km/s) = 2.32053 3.32800 2.86884
# Velocity P-wave (km/s) = 5.40555 6.18976 5.81090
#
# Compressibility (1/GPa) = 0.02184825
#
# Stress axis : x y z
#
# Youngs Moduli (GPa) = 119.38018 79.19703 59.58077
#
# Poissons Ratio (x) = 0.17866 0.05841
# Poissons Ratio (y) = 0.26931 0.28202
# Poissons Ratio (z) = 0.11703 0.37487
#
# Static dielectric constant tensor:
#      x y z
#    x 1.805330 0.000000 -0.017690 
#    y 0.000000 1.816980 0.000000 
#    z -0.017690 0.000000 1.791400 
# 
# From -- ./inp_files/112914.got.cif
#   From: 2010.05.17/outbox.cif.g08.bks.cpg/sg12_57_cif.got.tgz:112914.got - 2010.06.03 13:09:07.
