data_PCOD9208517
_publ_section_title
;
Structure prediction by ZEFSAII (Michael W. Deem and Ramdas Pophale) SiO2 
 PCOD9208517
Probable space group: C 2/M
;
_chemical_formula_sum "Si O2"
_cell_formula_units_Z 56
_cell_length_a 12.929787
_cell_length_b 14.111961
_cell_length_c 16.248046
_cell_angle_alpha 90.000000
_cell_angle_beta 119.798122
_cell_angle_gamma 90.000000
_cell_volume 2572.707346
_symmetry_space_group_name_H-M "C 2/M"
_symmetry_group_IT_number 12
_symmetry_cell_setting 'monoclinic'
loop_
_space_group_symop_operation_xyz
x,y,z
-x,y,-z
-x,-y,-z
x,-y,z
1/2+x,1/2+y,z
1/2-x,1/2+y,-z
1/2-x,1/2-y,-z
1/2+x,1/2-y,z
loop_
_atom_site_type_symbol
_atom_site_label
_atom_site_fract_x
_atom_site_fract_y
_atom_site_fract_z
Si Si1 0.277156 0.886295 0.892076
Si Si2 0.907081 0.892532 0.887964
Si Si3 0.215310 0.109611 0.432841
Si Si4 0.071206 0.703608 0.188164
Si Si5 0.296408 0.298134 0.394116
Si Si6 0.440205 0.611699 0.311249
Si Si7 0.678998 0.113919 0.903636
O O1 0.383240 0.843335 0.879427
O O2 0.152723 0.863257 0.797701
O O3 0.289123 0.000000 0.895425
O O4 0.282156 0.856056 0.988901
O O5 0.941936 0.813945 0.837128
O O6 0.780059 0.864686 0.876892
O O7 0.903054 0.000000 0.853318
O O8 0.000000 0.892412 0.000000
O O9 0.296501 0.188044 0.420685
O O10 0.209837 0.138172 0.526800
O O11 0.079220 0.123024 0.348407
O O12 0.249467 0.000000 0.435055
O O13 0.175732 0.685795 0.294358
O O14 0.947429 0.658859 0.165755
O O15 0.402807 0.328090 0.376194
O O16 0.421062 0.500000 0.322538
O O17 0.668571 0.000000 0.901042
#
# Coordination Sequence:
#
# PCOD9208517 Si02
#       7
#     8   8   8   8   8   8   8
#     4   9  18  33  56  87 115 143 189 239 276 321
#     4  10  23  40  56  79 114 155 195 232 271 320
#     4  10  21  39  62  84 108 143 185 230 284 338
#     4  11  22  35  57  84 115 150 187 228 278 333
#     4  10  22  36  57  87 115 140 182 236 280 330
#     4   9  18  35  60  85 110 145 187 232 281 329
#     4  10  21  38  58  81 115 155 189 226 275 329
#
# _framework density 21.766953000000001
#
# number of rings (size 3 to 8) (size 9 to 14) (size 15 to 20)
#    0.000    2.143    0.000    2.571    0.000   10.286 
#    0.000    2.857    0.000    8.571    0.000    0.000 
#    0.000    0.000    0.000    0.000    0.000    0.000 
#
# Total GULP energy -156740.959021 kJ/mol
# GULP energy per Si atom -5597.891394 kJ/mol
# Density = 2.171741 g / cm^3
# Si number density = 21.766953 Si / 1000 Ang^3
#
#
#
# Elastic Constant Matrix: (Units=GPa)
#
#
# Indices 1 2 3 4 5 6 
#
# 1 60.9430 48.8676 -8.4255 0.0000 1.8197 0.0000
# 2 48.8676 83.5712 12.0383 0.0000 -5.3822 0.0000
# 3 -8.4255 12.0383 51.5888 0.0000 -0.0306 0.0000
# 4 0.0000 0.0000 0.0000 17.3137 0.0000 4.0920
# 5 1.8197 -5.3822 -0.0306 0.0000 20.9383 0.0000
# 6 0.0000 0.0000 0.0000 4.0920 0.0000 28.7960
#
#
#
# Elastic Compliance Matrix: (Units=1/GPa)
#
#
# Indices 1 2 3 4 5 6 
#
# 1 0.038083 -0.024611 0.011957 0.000000 -0.009618 0.000000
# 2 -0.024611 0.028502 -0.010665 0.000000 0.009450 0.000000
# 3 0.011957 -0.010665 0.023823 0.000000 -0.003746 0.000000
# 4 0.000000 0.000000 0.000000 0.059765 0.000000 -0.008493
# 5 -0.009618 0.009450 -0.003746 0.000000 0.051019 0.000000
# 6 0.000000 0.000000 0.000000 -0.008493 0.000000 0.035934
#
#
# Mechanical properties :
#
#
# Convention : Reuss Voigt Hill
#
# Bulk Modulus (GPa) = 22.84600 33.45153 28.14876
# Shear Modulus (GPa) = 16.75864 22.98442 19.87153
#
# Velocity S-wave (km/s) = 2.77774 3.25304 3.02474
# Velocity P-wave (km/s) = 4.56139 5.43241 5.01584
#
# Compressibility (1/GPa) = 0.04377135
#
# Stress axis : x y z
#
# Youngs Moduli (GPa) = 26.25814 35.08571 41.97572
#
# Poissons Ratio (x) = 0.86349 -0.50191
# Poissons Ratio (y) = 0.64623 0.44766
# Poissons Ratio (z) = -0.31397 0.37418
#
# Static dielectric constant tensor:
#      x y z
#    x 1.763440 0.000000 -0.010930 
#    y 0.000000 1.797150 0.000000 
#    z -0.010930 0.000000 1.785740 
# 
# From -- ./inp_files/263447.got.cif
#   From: 2010.05.17/outbox.cif.g08.bks.cpg/sg12_132_cif.got.tgz:263447.got - 2010.06.03 13:09:07.
