data_PCOD9208281
_publ_section_title
;
Structure prediction by ZEFSAII (Michael W. Deem and Ramdas Pophale) SiO2 
 PCOD9208281
Probable space group: C 2/M
;
_chemical_formula_sum "Si O2"
_cell_formula_units_Z 60
_cell_length_a 18.805154
_cell_length_b 9.300954
_cell_length_c 21.975195
_cell_angle_alpha 90.000000
_cell_angle_beta 125.120750
_cell_angle_gamma 90.000000
_cell_volume 3143.832004
_symmetry_space_group_name_H-M "C 2/M"
_symmetry_group_IT_number 12
_symmetry_cell_setting 'monoclinic'
loop_
_space_group_symop_operation_xyz
x,y,z
-x,y,-z
-x,-y,-z
x,-y,z
1/2+x,1/2+y,z
1/2-x,1/2+y,-z
1/2-x,1/2-y,-z
1/2+x,1/2-y,z
loop_
_atom_site_type_symbol
_atom_site_label
_atom_site_fract_x
_atom_site_fract_y
_atom_site_fract_z
Si Si1 0.519074 0.167942 0.796449
Si Si2 0.136804 0.168178 0.231252
Si Si3 0.754235 0.265903 0.404174
Si Si4 0.778480 0.500000 0.524020
Si Si5 0.224350 0.668870 0.925991
Si Si6 0.240446 0.665625 0.177665
Si Si7 0.421476 0.164675 0.414469
Si Si8 0.053296 0.835404 0.693467
O O1 0.455659 0.252901 0.809845
O O2 0.619876 0.177325 0.865541
O O3 0.511595 0.246366 0.727671
O O4 0.495431 0.000000 0.780436
O O5 0.182943 0.184005 0.319829
O O6 0.193774 0.249022 0.208648
O O7 0.128632 0.000000 0.213086
O O8 0.775537 0.378027 0.467875
O O9 0.724735 0.124389 0.424404
O O10 0.841883 0.252972 0.406816
O O11 0.247742 0.500000 0.939187
O O12 0.267182 0.749113 0.889466
O O13 0.250000 0.750000 0.000000
O O14 0.210172 0.500000 0.158266
O O15 0.343351 0.660854 0.243001
O O16 0.500000 0.155006 0.500000
O O17 0.456441 0.248866 0.373414
O O18 0.393714 0.000000 0.384980
O O19 0.020934 0.000000 0.674527
#
# Coordination Sequence:
#
# PCOD9208281 Si02
#       8
#     8   8   8   4   8   8   8   8
#     4  10  23  41  62  93 125 162 203 250 300 367
#     4  12  23  38  63  90 124 164 212 264 312 363
#     4  11  23  43  60  82 116 162 208 263 319 384
#     4  10  24  40  60  82 118 158 208 260 328 382
#     4  10  21  41  69  99 132 167 199 244 299 363
#     4  10  21  37  64  93 123 165 206 247 302 369
#     4  11  23  39  57  79 110 154 203 257 312 371
#     4  10  21  38  60  85 117 153 204 254 309 363
#
# _framework density 19.084990000000001
#
# number of rings (size 3 to 8) (size 9 to 14) (size 15 to 20)
#    0.000    1.467    2.667    2.000    2.800    5.067 
#    2.400    0.667    0.000    4.000    0.000    0.000 
#    0.000    0.000    0.000    0.000    0.000    0.000 
#
# Total GULP energy -167056.480549 kJ/mol
# GULP energy per Si atom -5568.549352 kJ/mol
# Density = 1.904155 g / cm^3
# Si number density = 19.084990 Si / 1000 Ang^3
#
#
#
# Elastic Constant Matrix: (Units=GPa)
#
#
# Indices 1 2 3 4 5 6 
#
# 1 76.4369 46.0346 15.1553 0.0000 -13.6790 0.0000
# 2 46.0346 134.0333 39.6159 0.0000 -22.1743 0.0000
# 3 15.1553 39.6159 71.0507 0.0000 -26.3720 0.0000
# 4 0.0000 0.0000 0.0000 12.4514 0.0000 -19.2991
# 5 -13.6790 -22.1743 -26.3720 0.0000 21.7028 0.0000
# 6 0.0000 0.0000 0.0000 -19.2991 0.0000 14.5301
#
#
#
# Elastic Compliance Matrix: (Units=1/GPa)
#
#
# Indices 1 2 3 4 5 6 
#
# 1 0.017274 -0.005240 0.002352 0.000000 0.008392 0.000000
# 2 -0.005240 0.010912 -0.003742 0.000000 0.003300 0.000000
# 3 0.002352 -0.003742 0.026942 0.000000 0.030397 0.000000
# 4 0.000000 0.000000 0.000000 -0.075862 0.000000 -0.100761
# 5 0.008392 0.003300 0.030397 0.000000 0.091675 0.000000
# 6 0.000000 0.000000 0.000000 -0.100761 0.000000 -0.065009
#
#
# Mechanical properties :
#
#
# Convention : Reuss Voigt Hill
#
# Bulk Modulus (GPa) = 23.88456 53.68138 38.78297
# Shear Modulus (GPa) = 150.84145 21.78454 86.31300
#
# Velocity S-wave (km/s) = 8.89990 3.38220 6.73229
# Velocity P-wave (km/s) = 10.86982 6.59098 8.98872
#
# Compressibility (1/GPa) = 0.04186805
#
# Stress axis : x y z
#
# Youngs Moduli (GPa) = 57.89146 91.63948 37.11705
#
# Poissons Ratio (x) = 0.48015 -0.08728
# Poissons Ratio (y) = 0.30332 0.13889
# Poissons Ratio (z) = -0.13614 0.34291
#
# Static dielectric constant tensor:
#      x y z
#    x 1.672830 0.000000 0.022110 
#    y 0.000000 1.654710 0.000000 
#    z 0.022110 0.000000 1.646270 
# 
# From -- ./inp_files/314837.got.cif
#   From: 2010.05.17/outbox.cif.g08.bks.cpg/sg12_158_cif.got.tgz:314837.got - 2010.06.03 13:09:07.
