data_PCOD9208378
_publ_section_title
;
Structure prediction by ZEFSAII (Michael W. Deem and Ramdas Pophale) SiO2 
 PCOD9208378
Probable space group: C 2/M
;
_chemical_formula_sum "Si O2"
_cell_formula_units_Z 56
_cell_length_a 8.762596
_cell_length_b 14.345671
_cell_length_c 20.875581
_cell_angle_alpha 90.000000
_cell_angle_beta 102.582164
_cell_angle_gamma 90.000000
_cell_volume 2561.151103
_symmetry_space_group_name_H-M "C 2/M"
_symmetry_group_IT_number 12
_symmetry_cell_setting 'monoclinic'
loop_
_space_group_symop_operation_xyz
x,y,z
-x,y,-z
-x,-y,-z
x,-y,z
1/2+x,1/2+y,z
1/2-x,1/2+y,-z
1/2-x,1/2-y,-z
1/2+x,1/2-y,z
loop_
_atom_site_type_symbol
_atom_site_label
_atom_site_fract_x
_atom_site_fract_y
_atom_site_fract_z
Si Si1 0.338496 0.095005 0.711666
Si Si2 0.311561 0.243766 0.143427
Si Si3 0.032045 0.613096 0.078713
Si Si4 0.387838 0.302306 0.763808
Si Si5 0.759421 0.602640 0.481389
Si Si6 0.513371 0.152611 0.400648
Si Si7 0.499041 0.356006 0.641150
O O1 0.367644 0.191835 0.748708
O O2 0.443765 0.097079 0.658064
O O3 0.159429 0.095159 0.672084
O O4 0.369064 0.000000 0.751790
O O5 0.181372 0.317458 0.106095
O O6 0.392333 0.170842 0.101884
O O7 0.444645 0.308849 0.187351
O O8 0.241901 0.179991 0.194859
O O9 0.045915 0.500000 0.095942
O O10 0.000000 0.615365 0.000000
O O11 0.392623 0.353794 0.695815
O O12 0.765828 0.500000 0.511508
O O13 0.826185 0.668200 0.543548
O O14 0.596055 0.613489 0.430228
O O15 0.887701 0.609791 0.436684
O O16 0.453185 0.250561 0.369961
#
# Coordination Sequence:
#
# PCOD9208378 Si02
#       7
#     8   8   8   8   8   8   8
#     4  11  22  37  58  82 111 151 201 262 321 380
#     4  10  21  41  68  96 139 181 217 270 321 379
#     4  10  22  43  73 108 141 180 227 270 322 380
#     4  10  21  39  58  86 125 165 212 249 316 384
#     4  11  22  37  54  78 108 141 192 256 319 385
#     4  10  21  38  56  75 105 146 195 248 321 398
#     4  11  22  37  56  80 111 151 195 253 314 379
#
# _framework density 21.865167
#
# number of rings (size 3 to 8) (size 9 to 14) (size 15 to 20)
#    0.000    1.571    1.429    4.714    2.000    4.000 
#    0.000    5.714    0.000    7.714    0.000    0.000 
#    0.000    0.000    0.000    0.000    0.000    0.000 
#
# Total GULP energy -156225.088598 kJ/mol
# GULP energy per Si atom -5579.467450 kJ/mol
# Density = 2.181540 g / cm^3
# Si number density = 21.865167 Si / 1000 Ang^3
#
#
#
# Elastic Constant Matrix: (Units=GPa)
#
#
# Indices 1 2 3 4 5 6 
#
# 1 68.5922 21.4338 15.9882 0.0000 -3.0673 0.0000
# 2 21.4338 120.0343 25.0574 0.0000 0.2875 0.0000
# 3 15.9882 25.0574 93.2864 0.0000 -3.4719 0.0000
# 4 0.0000 0.0000 0.0000 -36.7345 0.0000 -25.3370
# 5 -3.0673 0.2875 -3.4719 0.0000 34.9912 0.0000
# 6 0.0000 0.0000 0.0000 -25.3370 0.0000 20.6763
#
#
#
# Elastic Compliance Matrix: (Units=1/GPa)
#
#
# Indices 1 2 3 4 5 6 
#
# 1 0.015859 -0.002412 -0.002025 0.000000 0.001209 0.000000
# 2 -0.002412 0.009196 -0.002075 0.000000 -0.000493 0.000000
# 3 -0.002025 -0.002075 0.011661 0.000000 0.000997 0.000000
# 4 0.000000 0.000000 0.000000 -0.014753 0.000000 -0.018078
# 5 0.001209 -0.000493 0.000997 0.000000 0.028788 0.000000
# 6 0.000000 0.000000 0.000000 -0.018078 0.000000 0.026211
#
#
# Mechanical properties :
#
#
# Convention : Reuss Voigt Hill
#
# Bulk Modulus (GPa) = 42.20901 45.20799 43.70850
# Shear Modulus (GPa) = 51.08145 18.41549 34.74847
#
# Velocity S-wave (km/s) = 4.83867 2.90527 3.99082
# Velocity P-wave (km/s) = 7.11077 5.65463 6.42409
#
# Compressibility (1/GPa) = 0.02369162
#
# Stress axis : x y z
#
# Youngs Moduli (GPa) = 63.05680 108.74301 85.75425
#
# Poissons Ratio (x) = 0.26228 0.17366
# Poissons Ratio (y) = 0.15209 0.17795
# Poissons Ratio (z) = 0.12770 0.22565
#
# Static dielectric constant tensor:
#      x y z
#    x 1.859730 0.000000 0.004400 
#    y 0.000000 1.538930 0.000000 
#    z 0.004400 0.000000 1.793790 
# 
# From -- ./inp_files/300134.got.cif
#   From: 2010.05.17/outbox.cif.g08.bks.cpg/sg12_151_cif.got.tgz:300134.got - 2010.06.03 13:09:07.
