data_PCOD9208655
_publ_section_title
;
Structure prediction by ZEFSAII (Michael W. Deem and Ramdas Pophale) SiO2 
 PCOD9208655
Probable space group: C 2/M
;
_chemical_formula_sum "Si O2"
_cell_formula_units_Z 56
_cell_length_a 5.249159
_cell_length_b 24.365210
_cell_length_c 23.067634
_cell_angle_alpha 90.000000
_cell_angle_beta 92.117638
_cell_angle_gamma 90.000000
_cell_volume 2948.263142
_symmetry_space_group_name_H-M "C 2/M"
_symmetry_group_IT_number 12
_symmetry_cell_setting 'monoclinic'
loop_
_space_group_symop_operation_xyz
x,y,z
-x,y,-z
-x,-y,-z
x,-y,z
1/2+x,1/2+y,z
1/2-x,1/2+y,-z
1/2-x,1/2-y,-z
1/2+x,1/2-y,z
loop_
_atom_site_type_symbol
_atom_site_label
_atom_site_fract_x
_atom_site_fract_y
_atom_site_fract_z
Si Si1 0.990547 0.628939 0.333083
Si Si2 0.979773 0.934359 0.293431
Si Si3 0.478562 0.786770 0.771639
Si Si4 0.299214 0.227472 0.064937
Si Si5 0.970560 0.373438 0.123319
Si Si6 0.469950 0.564918 0.155127
Si Si7 0.486884 0.785725 0.430804
O O1 0.235162 0.590948 0.323235
O O2 0.735370 0.594654 0.318105
O O3 0.005680 0.678743 0.287328
O O4 0.988502 0.657948 0.395327
O O5 0.953674 0.923228 0.224052
O O6 0.993275 0.000000 0.300774
O O7 0.207665 0.756852 0.774196
O O8 0.515946 0.830494 0.823377
O O9 0.526423 0.264533 0.092832
O O10 0.393981 0.165553 0.069260
O O11 0.250000 0.250000 0.000000
O O12 0.743320 0.415220 0.134898
O O13 0.240469 0.403207 0.122020
O O14 0.440651 0.500000 0.147188
O O15 0.500000 0.795244 0.500000
O O16 0.730785 0.748735 0.416118
#
# Coordination Sequence:
#
# PCOD9208655 Si02
#       7
#     8   8   8   8   8   8   8
#     4  12  21  37  57  82 113 153 194 232 301 336
#     4  11  22  38  57  81 114 153 199 236 284 351
#     4  12  22  32  49  80 118 147 176 223 280 343
#     4  10  21  38  59  86 115 151 194 223 273 340
#     4  12  21  37  57  85 119 154 185 236 281 338
#     4  11  22  38  57  84 117 155 197 236 283 343
#     4  10  21  38  59  83 112 150 196 240 284 347
#
# _framework density 18.994233000000001
#
# number of rings (size 3 to 8) (size 9 to 14) (size 15 to 20)
#    0.000    0.857    2.857    6.000    0.000    2.286 
#    0.000    0.000    0.000    2.571    0.000   40.000 
#    0.000    0.000    0.000    0.000    0.000    0.000 
#
# Total GULP energy -156569.965089 kJ/mol
# GULP energy per Si atom -5591.784467 kJ/mol
# Density = 1.895100 g / cm^3
# Si number density = 18.994233 Si / 1000 Ang^3
#
#
#
# Elastic Constant Matrix: (Units=GPa)
#
#
# Indices 1 2 3 4 5 6 
#
# 1 129.8333 32.0680 9.9806 0.0000 9.5413 0.0000
# 2 32.0680 82.1165 28.5574 0.0000 5.8726 0.0000
# 3 9.9806 28.5574 49.1074 0.0000 -1.0735 0.0000
# 4 0.0000 0.0000 0.0000 26.3973 0.0000 -2.4164
# 5 9.5413 5.8726 -1.0735 0.0000 9.5023 0.0000
# 6 0.0000 0.0000 0.0000 -2.4164 0.0000 42.9640
#
#
#
# Elastic Compliance Matrix: (Units=1/GPa)
#
#
# Indices 1 2 3 4 5 6 
#
# 1 0.008970 -0.002876 -0.000310 0.000000 -0.007265 0.000000
# 2 -0.002876 0.017300 -0.009671 0.000000 -0.008897 0.000000
# 3 -0.000310 -0.009671 0.026252 0.000000 0.009253 0.000000
# 4 0.000000 0.000000 0.000000 0.038079 0.000000 0.002142
# 5 -0.007265 -0.008897 0.009253 0.000000 0.119075 0.000000
# 6 0.000000 0.000000 0.000000 0.002142 0.000000 0.023396
#
#
# Mechanical properties :
#
#
# Convention : Reuss Voigt Hill
#
# Bulk Modulus (GPa) = 37.29818 44.69658 40.99738
# Shear Modulus (GPa) = 18.67613 28.46948 23.57280
#
# Velocity S-wave (km/s) = 3.13909 3.87570 3.52668
# Velocity P-wave (km/s) = 5.72867 6.60385 6.18177
#
# Compressibility (1/GPa) = 0.02681096
#
# Stress axis : x y z
#
# Youngs Moduli (GPa) = 111.48063 57.80263 38.09165
#
# Poissons Ratio (x) = 0.16623 0.01179
# Poissons Ratio (y) = 0.32060 0.36837
# Poissons Ratio (z) = 0.03450 0.55899
#
# Static dielectric constant tensor:
#      x y z
#    x 1.702850 0.000000 -0.031490 
#    y 0.000000 1.636800 0.000000 
#    z -0.031490 0.000000 1.722100 
# 
# From -- ./inp_files/331183.got.cif
#   From: 2010.05.17/outbox.cif.g08.bks.cpg/sg12_166_cif.got.tgz:331183.got - 2010.06.03 13:09:07.
