data_PCOD9208203
_publ_section_title
;
Structure prediction by ZEFSAII (Michael W. Deem and Ramdas Pophale) SiO2 
 PCOD9208203
Probable space group: C 2/M
;
_chemical_formula_sum "Si O2"
_cell_formula_units_Z 48
_cell_length_a 17.770806
_cell_length_b 30.395928
_cell_length_c 9.504783
_cell_angle_alpha 90.000000
_cell_angle_beta 149.515245
_cell_angle_gamma 90.000000
_cell_volume 2604.578074
_symmetry_space_group_name_H-M "C 2/M"
_symmetry_group_IT_number 12
_symmetry_cell_setting 'monoclinic'
loop_
_space_group_symop_operation_xyz
x,y,z
-x,y,-z
-x,-y,-z
x,-y,z
1/2+x,1/2+y,z
1/2-x,1/2+y,-z
1/2-x,1/2-y,-z
1/2+x,1/2-y,z
loop_
_atom_site_type_symbol
_atom_site_label
_atom_site_fract_x
_atom_site_fract_y
_atom_site_fract_z
Si Si1 0.172673 0.809642 0.249320
Si Si2 0.320592 0.550113 0.037715
Si Si3 0.602992 0.877800 0.031156
Si Si4 0.388962 0.122599 0.439187
Si Si5 0.338453 0.449922 0.406859
Si Si6 0.663557 0.786749 0.199166
O O1 0.273029 0.845003 0.329770
O O2 0.235109 0.800599 0.506254
O O3 0.195595 0.762988 0.204311
O O4 0.000000 0.821060 0.000000
O O5 0.281942 0.500000 0.935576
O O6 0.492436 0.558329 0.273859
O O7 0.326263 0.551878 0.216897
O O8 0.207206 0.584463 0.789243
O O9 0.501307 0.894514 0.740406
O O10 0.500000 0.872248 0.000000
O O11 0.729873 0.911641 0.278797
O O12 0.662680 0.828473 0.093771
O O13 0.500000 0.142501 0.500000
O O14 0.298560 0.500000 0.384691
O O15 0.500000 0.781666 0.000000
#
# Coordination Sequence:
#
# PCOD9208203 Si02
#       6
#     8   8   8   8   8   8
#     4  10  21  37  63  86 113 160 202 234 285 358
#     4   9  20  38  60  83 113 156 196 233 291 360
#     4  11  21  37  59  85 120 157 192 240 293 353
#     4  12  23  37  59  94 123 147 194 255 293 337
#     4   9  19  38  60  83 115 154 195 237 290 355
#     4   9  18  38  61  81 112 158 205 225 281 361
#
# _framework density 18.429088
#
# number of rings (size 3 to 8) (size 9 to 14) (size 15 to 20)
#    0.000    2.000    5.000    1.000    2.333    1.333 
#    0.000    0.833    3.667    2.500    0.000    0.000 
#    0.000    0.000    0.000    0.000    0.000    0.000 
#
# Total GULP energy -133635.185940 kJ/mol
# GULP energy per Si atom -5568.132748 kJ/mol
# Density = 1.838714 g / cm^3
# Si number density = 18.429088 Si / 1000 Ang^3
#
#
#
# Elastic Constant Matrix: (Units=GPa)
#
#
# Indices 1 2 3 4 5 6 
#
# 1 52.2395 24.3396 10.9680 0.0000 16.0785 0.0000
# 2 24.3396 105.0366 27.8968 0.0000 24.1349 0.0000
# 3 10.9680 27.8968 85.6921 0.0000 11.1289 0.0000
# 4 0.0000 0.0000 0.0000 28.9048 0.0000 0.2812
# 5 16.0785 24.1349 11.1289 0.0000 26.1648 0.0000
# 6 0.0000 0.0000 0.0000 0.2812 0.0000 18.9035
#
#
#
# Elastic Compliance Matrix: (Units=1/GPa)
#
#
# Indices 1 2 3 4 5 6 
#
# 1 0.024266 -0.002647 -0.000661 0.000000 -0.012189 0.000000
# 2 -0.002647 0.012957 -0.002687 0.000000 -0.009183 0.000000
# 3 -0.000661 -0.002687 0.012971 0.000000 -0.002632 0.000000
# 4 0.000000 0.000000 0.000000 0.034601 0.000000 -0.000515
# 5 -0.012189 -0.009183 -0.002632 0.000000 0.055300 0.000000
# 6 0.000000 0.000000 0.000000 -0.000515 0.000000 0.052908
#
#
# Mechanical properties :
#
#
# Convention : Reuss Voigt Hill
#
# Bulk Modulus (GPa) = 26.17470 41.04187 33.60829
# Shear Modulus (GPa) = 22.96442 26.77888 24.87165
#
# Velocity S-wave (km/s) = 3.53384 3.81606 3.67766
# Velocity P-wave (km/s) = 5.55738 6.46026 6.02575
#
# Compressibility (1/GPa) = 0.03820483
#
# Stress axis : x y z
#
# Youngs Moduli (GPa) = 41.20950 77.17585 77.09573
#
# Poissons Ratio (x) = 0.20426 0.05098
# Poissons Ratio (y) = 0.10907 0.20715
# Poissons Ratio (z) = 0.02725 0.20736
#
# Static dielectric constant tensor:
#      x y z
#    x 1.630290 0.000000 -0.015330 
#    y 0.000000 1.691050 0.000000 
#    z -0.015330 0.000000 1.617500 
# 
# From -- ./inp_files/80867.got.cif
#   From: 2010.05.17/outbox.cif.g08.bks.cpg/sg12_41_cif.got.tgz:80867.got - 2010.06.03 13:09:07.
