data_PCOD9208055
_publ_section_title
;
Structure prediction by ZEFSAII (Michael W. Deem and Ramdas Pophale) SiO2 
 PCOD9208055
Probable space group: C 2/M
;
_chemical_formula_sum "Si O2"
_cell_formula_units_Z 56
_cell_length_a 24.021730
_cell_length_b 8.829841
_cell_length_c 15.738865
_cell_angle_alpha 90.000000
_cell_angle_beta 60.075214
_cell_angle_gamma 90.000000
_cell_volume 2893.275985
_symmetry_space_group_name_H-M "C 2/M"
_symmetry_group_IT_number 12
_symmetry_cell_setting 'monoclinic'
loop_
_space_group_symop_operation_xyz
x,y,z
-x,y,-z
-x,-y,-z
x,-y,z
1/2+x,1/2+y,z
1/2-x,1/2+y,-z
1/2-x,1/2-y,-z
1/2+x,1/2-y,z
loop_
_atom_site_type_symbol
_atom_site_label
_atom_site_fract_x
_atom_site_fract_y
_atom_site_fract_z
Si Si1 0.448695 0.318817 0.466120
Si Si2 0.666236 0.679005 0.001492
Si Si3 0.566855 0.180453 0.703516
Si Si4 0.323235 0.178557 0.642907
Si Si5 0.017380 0.181215 0.082582
Si Si6 0.291375 0.680829 0.391878
Si Si7 0.790269 0.178149 0.840534
O O1 0.500000 0.273884 0.500000
O O2 0.451273 0.500000 0.455438
O O3 0.459701 0.245088 0.365707
O O4 0.378225 0.267888 0.550771
O O5 0.679650 0.500000 0.977448
O O6 0.592749 0.708911 0.037283
O O7 0.678797 0.710946 0.091260
O O8 0.716184 0.774063 0.908188
O O9 0.523358 0.234912 0.814805
O O10 0.638703 0.245188 0.662355
O O11 0.569431 0.000000 0.696805
O O12 0.252799 0.209156 0.657130
O O13 0.322460 0.228963 0.740816
O O14 0.335715 0.000000 0.624007
O O15 0.005809 0.000000 0.100263
O O16 0.000000 0.225663 0.000000
O O17 0.298160 0.500000 0.397421
O O18 0.250000 0.750000 0.500000
O O19 0.796408 0.000000 0.818312
#
# Coordination Sequence:
#
# PCOD9208055 Si02
#       7
#     8   8   8   8   8   8   8
#     4  11  25  44  67  94 128 169 214 260 311 376
#     4   9  20  40  62  87 120 160 209 258 311 371
#     4  12  26  43  65  95 130 168 209 261 320 379
#     4  11  24  40  63  94 126 161 207 257 311 374
#     4  10  23  43  66  90 122 167 216 262 312 374
#     4  11  23  41  65  91 123 163 207 256 309 365
#     4  10  21  37  61  91 123 160 203 255 313 373
#
# _framework density 19.355221
#
# number of rings (size 3 to 8) (size 9 to 14) (size 15 to 20)
#    0.000    1.429    1.429    3.000    4.000    4.286 
#    0.000    0.000    0.000    0.000    0.000    0.000 
#    0.000    0.000    0.000    0.000    0.000    0.000 
#
# Total GULP energy -156552.867881 kJ/mol
# GULP energy per Si atom -5591.173853 kJ/mol
# Density = 1.931117 g / cm^3
# Si number density = 19.355221 Si / 1000 Ang^3
#
#
#
# Elastic Constant Matrix: (Units=GPa)
#
#
# Indices 1 2 3 4 5 6 
#
# 1 102.2898 50.9617 44.8519 0.0000 13.3364 0.0000
# 2 50.9617 70.1150 42.3121 0.0000 9.3388 0.0000
# 3 44.8519 42.3121 99.6083 0.0000 13.1578 0.0000
# 4 0.0000 0.0000 0.0000 26.8926 0.0000 -13.4041
# 5 13.3364 9.3388 13.1578 0.0000 11.3185 0.0000
# 6 0.0000 0.0000 0.0000 -13.4041 0.0000 17.4317
#
#
#
# Elastic Compliance Matrix: (Units=1/GPa)
#
#
# Indices 1 2 3 4 5 6 
#
# 1 0.016735 -0.009580 -0.002251 0.000000 -0.009198 0.000000
# 2 -0.009580 0.025218 -0.006074 0.000000 -0.002458 0.000000
# 3 -0.002251 -0.006074 0.014910 0.000000 -0.009669 0.000000
# 4 0.000000 0.000000 0.000000 0.060294 0.000000 0.046363
# 5 -0.009198 -0.002458 -0.009669 0.000000 0.112458 0.000000
# 6 0.000000 0.000000 0.000000 0.046363 0.000000 0.093018
#
#
# Mechanical properties :
#
#
# Convention : Reuss Voigt Hill
#
# Bulk Modulus (GPa) = 47.49789 60.91827 54.20808
# Shear Modulus (GPa) = 13.68135 20.05438 16.86786
#
# Velocity S-wave (km/s) = 2.66156 3.22238 2.95530
# Velocity P-wave (km/s) = 5.83426 6.73699 6.30181
#
# Compressibility (1/GPa) = 0.02105357
#
# Stress axis : x y z
#
# Youngs Moduli (GPa) = 59.75381 39.65386 67.06759
#
# Poissons Ratio (x) = 0.37989 0.15098
# Poissons Ratio (y) = 0.57245 0.40736
# Poissons Ratio (z) = 0.13451 0.24085
#
# Static dielectric constant tensor:
#      x y z
#    x 1.678160 0.000000 0.019430 
#    y 0.000000 1.653550 0.000000 
#    z 0.019430 0.000000 1.637880 
# 
# From -- ./inp_files/238372.got.cif
#   From: 2010.05.17/outbox.cif.g08.bks.cpg/sg12_120_cif.got.tgz:238372.got - 2010.06.03 13:09:07.
