data_PCOD9208687
_publ_section_title
;
Structure prediction by ZEFSAII (Michael W. Deem and Ramdas Pophale) SiO2 
 PCOD9208687
Probable space group: C 2/M
;
_chemical_formula_sum "Si O2"
_cell_formula_units_Z 48
_cell_length_a 19.524281
_cell_length_b 7.689745
_cell_length_c 12.704382
_cell_angle_alpha 90.000000
_cell_angle_beta 79.634889
_cell_angle_gamma 90.000000
_cell_volume 1876.268157
_symmetry_space_group_name_H-M "C 2/M"
_symmetry_group_IT_number 12
_symmetry_cell_setting 'monoclinic'
loop_
_space_group_symop_operation_xyz
x,y,z
-x,y,-z
-x,-y,-z
x,-y,z
1/2+x,1/2+y,z
1/2-x,1/2+y,-z
1/2-x,1/2-y,-z
1/2+x,1/2-y,z
loop_
_atom_site_type_symbol
_atom_site_label
_atom_site_fract_x
_atom_site_fract_y
_atom_site_fract_z
Si Si1 0.749327 0.698775 0.673264
Si Si2 0.990973 0.290492 0.336922
Si Si3 0.429510 0.197263 0.972270
Si Si4 0.798064 0.799778 0.886457
Si Si5 0.888225 0.287105 0.551561
Si Si6 0.387839 0.295529 0.200488
O O1 0.740348 0.500000 0.640577
O O2 0.778717 0.698935 0.785323
O O3 0.809857 0.778658 0.585069
O O4 0.672395 0.775577 0.705695
O O5 0.990823 0.500000 0.334978
O O6 0.933835 0.232534 0.439358
O O7 0.962463 0.225871 0.234493
O O8 0.065584 0.234875 0.359917
O O9 0.384279 0.197849 0.091887
O O10 0.446653 0.000000 0.934966
O O11 0.500000 0.282530 0.000000
O O12 0.378257 0.274664 0.900061
O O13 0.785952 0.000000 0.865578
O O14 0.750000 0.750000 0.000000
O O15 0.886376 0.500000 0.551235
O O16 0.375102 0.500000 0.184557
#
# Coordination Sequence:
#
# PCOD9208687 Si02
#       6
#     8   8   8   8   8   8
#     4  10  21  38  59  84 116 157 199 239 287 348
#     4   9  18  36  61  85 112 150 196 245 288 343
#     4  11  25  43  63  86 115 156 201 243 293 351
#     4  12  24  40  62  88 120 157 196 242 291 348
#     4   8  17  36  61  85 110 149 199 241 288 346
#     4  11  23  37  56  85 121 155 189 241 298 346
#
# _framework density 25.582697
#
# number of rings (size 3 to 8) (size 9 to 14) (size 15 to 20)
#    0.000    1.833    1.667    3.500    2.333    2.667 
#    0.000    2.500    0.000    0.000    0.000    0.000 
#    0.000    0.000    0.000    0.000    0.000    0.000 
#
# Total GULP energy -134243.211745 kJ/mol
# GULP energy per Si atom -5593.467156 kJ/mol
# Density = 2.552447 g / cm^3
# Si number density = 25.582697 Si / 1000 Ang^3
#
#
#
# Elastic Constant Matrix: (Units=GPa)
#
#
# Indices 1 2 3 4 5 6 
#
# 1 118.1769 -1.7509 0.6064 0.0000 8.6104 0.0000
# 2 -1.7509 75.2926 -6.9040 0.0000 0.0850 0.0000
# 3 0.6064 -6.9040 63.0524 0.0000 9.8041 0.0000
# 4 0.0000 0.0000 0.0000 13.7193 0.0000 2.1713
# 5 8.6104 0.0850 9.8041 0.0000 51.5055 0.0000
# 6 0.0000 0.0000 0.0000 2.1713 0.0000 19.4587
#
#
#
# Elastic Compliance Matrix: (Units=1/GPa)
#
#
# Indices 1 2 3 4 5 6 
#
# 1 0.008571 0.000216 0.000169 0.000000 -0.001465 0.000000
# 2 0.000216 0.013427 0.001522 0.000000 -0.000348 0.000000
# 3 0.000169 0.001522 0.016519 0.000000 -0.003175 0.000000
# 4 0.000000 0.000000 0.000000 0.074200 0.000000 -0.008280
# 5 -0.001465 -0.000348 -0.003175 0.000000 0.020265 0.000000
# 6 0.000000 0.000000 0.000000 -0.008280 0.000000 0.052315
#
#
# Mechanical properties :
#
#
# Convention : Reuss Voigt Hill
#
# Bulk Modulus (GPa) = 23.62295 26.71388 25.16841
# Shear Modulus (GPa) = 25.56352 34.57474 30.06913
#
# Velocity S-wave (km/s) = 3.16452 3.68025 3.43209
# Velocity P-wave (km/s) = 4.75460 5.34077 5.05619
#
# Compressibility (1/GPa) = 0.04233172
#
# Stress axis : x y z
#
# Youngs Moduli (GPa) = 116.67248 74.47940 60.53790
#
# Poissons Ratio (x) = -0.01612 -0.01024
# Poissons Ratio (y) = -0.02526 -0.09215
# Poissons Ratio (z) = -0.01973 -0.11337
#
# Static dielectric constant tensor:
#      x y z
#    x 2.057300 0.000000 -0.068840 
#    y 0.000000 1.928820 0.000000 
#    z -0.068840 0.000000 2.030180 
# 
# From -- ./inp_files/221523.got.cif
#   From: 2010.05.17/outbox.cif.g08.bks.cpg/sg12_111_cif.got.tgz:221523.got - 2010.06.03 13:09:07.
