data_PCOD9208462
_publ_section_title
;
Structure prediction by ZEFSAII (Michael W. Deem and Ramdas Pophale) SiO2 
 PCOD9208462
Probable space group: C 2/M
;
_chemical_formula_sum "Si O2"
_cell_formula_units_Z 56
_cell_length_a 25.938272
_cell_length_b 14.401798
_cell_length_c 9.140340
_cell_angle_alpha 90.000000
_cell_angle_beta 114.827214
_cell_angle_gamma 90.000000
_cell_volume 3098.875558
_symmetry_space_group_name_H-M "C 2/M"
_symmetry_group_IT_number 12
_symmetry_cell_setting 'monoclinic'
loop_
_space_group_symop_operation_xyz
x,y,z
-x,y,-z
-x,-y,-z
x,-y,z
1/2+x,1/2+y,z
1/2-x,1/2+y,-z
1/2-x,1/2-y,-z
1/2+x,1/2-y,z
loop_
_atom_site_type_symbol
_atom_site_label
_atom_site_fract_x
_atom_site_fract_y
_atom_site_fract_z
Si Si1 0.528921 0.393291 0.878324
Si Si2 0.271888 0.801292 0.671537
Si Si3 0.553851 0.606292 0.457459
Si Si4 0.341011 0.270150 0.313913
Si Si5 0.134460 0.755081 0.995696
Si Si6 0.145842 0.606053 0.437304
Si Si7 0.435166 0.110740 0.913081
O O1 0.539981 0.500000 0.840882
O O2 0.477565 0.352193 0.720764
O O3 0.587401 0.336695 0.946724
O O4 0.500000 0.397786 0.000000
O O5 0.250000 0.750000 0.500000
O O6 0.217033 0.820988 0.705071
O O7 0.307242 0.883500 0.636873
O O8 0.314883 0.740711 0.823713
O O9 0.500000 0.602579 0.500000
O O10 0.573209 0.500000 0.452064
O O11 0.604907 0.666869 0.579833
O O12 0.342692 0.250530 0.142724
O O13 0.344284 0.177192 0.418227
O O14 0.100713 0.663480 0.006830
O O15 0.143745 0.500000 0.485454
O O16 0.089492 0.630990 0.277842
O O17 0.431710 0.000000 0.929416
O O18 0.500000 0.141095 0.000000
#
# Coordination Sequence:
#
# PCOD9208462 Si02
#       7
#     8   8   8   8   8   8   8
#     4  10  22  37  57  87 119 150 191 234 283 344
#     4   9  21  39  57  80 108 148 195 233 278 340
#     4  10  21  38  57  85 122 152 184 231 289 351
#     4  11  22  35  59  86 114 151 190 232 291 340
#     4  11  21  35  59  82 117 149 185 239 289 333
#     4   9  20  38  57  79 111 146 189 236 276 332
#     4   9  19  35  55  79 107 147 190 229 276 332
#
# _framework density 18.071071
#
# number of rings (size 3 to 8) (size 9 to 14) (size 15 to 20)
#    0.000    2.143    1.429    0.857    8.000    1.143 
#    0.000    2.857    0.000    8.143    0.000    0.000 
#    0.000    0.000    0.000    0.000    0.000    0.000 
#
# Total GULP energy -155908.933035 kJ/mol
# GULP energy per Si atom -5568.176180 kJ/mol
# Density = 1.802994 g / cm^3
# Si number density = 18.071071 Si / 1000 Ang^3
#
#
#
# Elastic Constant Matrix: (Units=GPa)
#
#
# Indices 1 2 3 4 5 6 
#
# 1 96.3628 23.1570 49.4151 0.0000 -0.1673 0.0000
# 2 23.1570 58.9095 30.0854 0.0000 1.7194 0.0000
# 3 49.4151 30.0854 130.8806 0.0000 1.1417 0.0000
# 4 0.0000 0.0000 0.0000 22.7163 0.0000 -5.7404
# 5 -0.1673 1.7194 1.1417 0.0000 34.0853 0.0000
# 6 0.0000 0.0000 0.0000 -5.7404 0.0000 15.6115
#
#
#
# Elastic Compliance Matrix: (Units=1/GPa)
#
#
# Indices 1 2 3 4 5 6 
#
# 1 0.013333 -0.003036 -0.004339 0.000000 0.000364 0.000000
# 2 -0.003036 0.019947 -0.003431 0.000000 -0.000906 0.000000
# 3 -0.004339 -0.003431 0.010069 0.000000 -0.000185 0.000000
# 4 0.000000 0.000000 0.000000 0.048531 0.000000 0.017845
# 5 0.000364 -0.000906 -0.000185 0.000000 0.029392 0.000000
# 6 0.000000 0.000000 0.000000 0.017845 0.000000 0.070617
#
#
# Mechanical properties :
#
#
# Convention : Reuss Voigt Hill
#
# Bulk Modulus (GPa) = 46.00439 54.60757 50.30598
# Shear Modulus (GPa) = 22.65039 26.71565 24.68302
#
# Velocity S-wave (km/s) = 3.54419 3.84912 3.69980
# Velocity P-wave (km/s) = 6.50085 7.07377 6.79335
#
# Compressibility (1/GPa) = 0.02173706
#
# Stress axis : x y z
#
# Youngs Moduli (GPa) = 75.00323 50.13214 99.31227
#
# Poissons Ratio (x) = 0.15218 0.43094
# Poissons Ratio (y) = 0.22768 0.34077
# Poissons Ratio (z) = 0.32546 0.17202
#
# Static dielectric constant tensor:
#      x y z
#    x 1.555010 0.000000 0.182450 
#    y 0.000000 1.623000 0.000000 
#    z 0.182450 0.000000 1.275380 
# 
# From -- ./inp_files/96475.got.cif
#   From: 2010.05.17/outbox.cif.g08.bks.cpg/sg12_49_cif.got.tgz:96475.got - 2010.06.03 13:09:07.
