data_PCOD9208048
_publ_section_title
;
Structure prediction by ZEFSAII (Michael W. Deem and Ramdas Pophale) SiO2 
 PCOD9208048
Probable space group: C 2/M
;
_chemical_formula_sum "Si O2"
_cell_formula_units_Z 56
_cell_length_a 25.268122
_cell_length_b 18.117007
_cell_length_c 5.181804
_cell_angle_alpha 90.000000
_cell_angle_beta 103.341759
_cell_angle_gamma 90.000000
_cell_volume 2308.118625
_symmetry_space_group_name_H-M "C 2/M"
_symmetry_group_IT_number 12
_symmetry_cell_setting 'monoclinic'
loop_
_space_group_symop_operation_xyz
x,y,z
-x,y,-z
-x,-y,-z
x,-y,z
1/2+x,1/2+y,z
1/2-x,1/2+y,-z
1/2-x,1/2-y,-z
1/2+x,1/2-y,z
loop_
_atom_site_type_symbol
_atom_site_label
_atom_site_fract_x
_atom_site_fract_y
_atom_site_fract_z
Si Si1 0.276151 0.422910 0.998217
Si Si2 0.964321 0.185834 0.215874
Si Si3 0.612748 0.582320 0.188481
Si Si4 0.064023 0.654195 0.610117
Si Si5 0.179588 0.190658 0.559401
Si Si6 0.288852 0.154665 0.436499
Si Si7 0.878408 0.412032 0.830213
O O1 0.273855 0.500000 0.148735
O O2 0.328101 0.429082 0.869095
O O3 0.221477 0.410307 0.776387
O O4 0.291877 0.353842 0.184524
O O5 0.935737 0.260165 0.290426
O O6 0.000000 0.159296 0.500000
O O7 0.925779 0.121182 0.064010
O O8 0.000000 0.206322 0.000000
O O9 0.593883 0.500000 0.251562
O O10 0.626282 0.645416 0.416012
O O11 0.089670 0.629092 0.366938
O O12 0.000000 0.637746 0.500000
O O13 0.093430 0.609035 0.870270
O O14 0.227366 0.185811 0.397784
O O15 0.175569 0.276374 0.617285
O O16 0.317875 0.121545 0.719743
O O17 0.878020 0.500000 0.794930
#
# Coordination Sequence:
#
# PCOD9208048 Si02
#       7
#     8   8   8   8   8   8   8
#     4  10  21  37  61  90 130 174 212 265 325 393
#     4  11  25  45  72 100 131 174 220 279 335 390
#     4  10  23  40  62  97 131 170 219 267 329 397
#     4  11  25  46  70  95 129 174 223 273 332 406
#     4  10  21  39  65  88 126 179 220 267 324 395
#     4  10  23  39  59  95 129 167 226 273 325 390
#     4  12  26  42  68 101 134 173 217 280 340 390
#
# _framework density 24.262184999999999
#
# number of rings (size 3 to 8) (size 9 to 14) (size 15 to 20)
#    0.000    1.429    0.000    4.714    6.000    4.000 
#    0.000    0.000    0.000    0.000    0.000    0.000 
#    0.000    0.000    0.000    0.000    0.000    0.000 
#
# Total GULP energy -156386.702140 kJ/mol
# GULP energy per Si atom -5585.239362 kJ/mol
# Density = 2.420696 g / cm^3
# Si number density = 24.262185 Si / 1000 Ang^3
#
#
#
# Elastic Constant Matrix: (Units=GPa)
#
#
# Indices 1 2 3 4 5 6 
#
# 1 75.9104 20.0517 27.0136 0.0000 9.4672 0.0000
# 2 20.0517 121.2333 17.1289 0.0000 26.6546 0.0000
# 3 27.0136 17.1289 132.8005 0.0000 23.7811 0.0000
# 4 0.0000 0.0000 0.0000 49.5004 0.0000 -9.7617
# 5 9.4672 26.6546 23.7811 0.0000 41.6204 0.0000
# 6 0.0000 0.0000 0.0000 -9.7617 0.0000 -8.1607
#
#
#
# Elastic Compliance Matrix: (Units=1/GPa)
#
#
# Indices 1 2 3 4 5 6 
#
# 1 0.014694 -0.001925 -0.002632 0.000000 -0.000605 0.000000
# 2 -0.001925 0.009855 0.000192 0.000000 -0.005983 0.000000
# 3 -0.002632 0.000192 0.008862 0.000000 -0.004588 0.000000
# 4 0.000000 0.000000 0.000000 0.016346 0.000000 -0.019553
# 5 -0.000605 -0.005983 -0.004588 0.000000 0.030618 0.000000
# 6 0.000000 0.000000 0.000000 -0.019553 0.000000 -0.099150
#
#
# Mechanical properties :
#
#
# Convention : Reuss Voigt Hill
#
# Bulk Modulus (GPa) = 40.51779 50.92586 45.72183
# Shear Modulus (GPa) = -2753.34792 34.30867 -1359.51963
#
# Velocity S-wave (km/s) = -33.72380 3.76450 -23.69729
# Velocity P-wave (km/s) = 38.72540 6.31907 27.01598
#
# Compressibility (1/GPa) = 0.02468052
#
# Stress axis : x y z
#
# Youngs Moduli (GPa) = 68.05385 101.46717 112.83672
#
# Poissons Ratio (x) = 0.19536 0.29702
# Poissons Ratio (y) = 0.13103 -0.02166
# Poissons Ratio (z) = 0.17914 -0.01948
#
# Static dielectric constant tensor:
#      x y z
#    x 2.058230 0.000000 -0.047380 
#    y 0.000000 2.044610 0.000000 
#    z -0.047380 0.000000 1.896260 
# 
# From -- ./inp_files/32100.got.cif
#   From: 2010.05.17/outbox.cif.g08.bks.cpg/sg12_17_cif.got.tgz:32100.got - 2010.06.03 13:09:07.
