data_PCOD9208874
_publ_section_title
;
Structure prediction by ZEFSAII (Michael W. Deem and Ramdas Pophale) SiO2 
 PCOD9208874
Probable space group: C 2/M
;
_chemical_formula_sum "Si O2"
_cell_formula_units_Z 40
_cell_length_a 12.888968
_cell_length_b 10.391278
_cell_length_c 29.395717
_cell_angle_alpha 90.000000
_cell_angle_beta 26.357046
_cell_angle_gamma 90.000000
_cell_volume 1747.907644
_symmetry_space_group_name_H-M "C 2/M"
_symmetry_group_IT_number 12
_symmetry_cell_setting 'monoclinic'
loop_
_space_group_symop_operation_xyz
x,y,z
-x,y,-z
-x,-y,-z
x,-y,z
1/2+x,1/2+y,z
1/2-x,1/2+y,-z
1/2-x,1/2-y,-z
1/2+x,1/2-y,z
loop_
_atom_site_type_symbol
_atom_site_label
_atom_site_fract_x
_atom_site_fract_y
_atom_site_fract_z
Si Si1 0.241856 0.856266 0.617074
Si Si2 0.462815 0.228304 0.881950
Si Si3 0.908343 0.866863 0.424246
Si Si4 0.439004 0.859563 0.249060
Si Si5 0.126083 0.500000 0.879066
Si Si6 0.389759 0.500000 0.871796
O O1 0.500000 0.806320 0.500000
O O2 0.109824 0.872661 0.622160
O O3 0.088364 0.758323 0.706269
O O4 0.282975 0.000000 0.621361
O O5 0.400390 0.160643 0.858283
O O6 0.522834 0.372069 0.838592
O O7 0.622971 0.127519 0.847810
O O8 0.250000 0.250000 0.000000
O O9 0.750000 0.750000 0.500000
O O10 0.175572 0.858575 0.332829
O O11 0.811919 0.000000 0.482303
O O12 0.486426 0.000000 0.251148
O O13 0.314341 0.500000 0.847152
O O14 0.868298 0.500000 0.003630
#
# Coordination Sequence:
#
# PCOD9208874 Si02
#       6
#     8   8   8   8   4   4
#     4  10  21  38  60  87 119 156 201 251 301 371
#     4  10  21  40  63  91 128 166 214 269 318 382
#     4  10  21  38  60  85 118 158 198 248 309 366
#     4  11  23  38  60  90 121 158 203 252 312 371
#     4   9  18  40  65  89 129 161 215 268 318 380
#     4   9  20  36  67  95 115 176 213 257 329 375
#
# _framework density 22.884505999999998
#
# number of rings (size 3 to 8) (size 9 to 14) (size 15 to 20)
#    0.000    2.000    3.000    0.000    1.400    2.800 
#    0.000    1.000    4.400    6.000    0.000    0.000 
#    0.000    0.000    0.000    0.000    0.000    0.000 
#
# Total GULP energy -111395.777869 kJ/mol
# GULP energy per Si atom -5569.788893 kJ/mol
# Density = 2.283242 g / cm^3
# Si number density = 22.884506 Si / 1000 Ang^3
#
#
#
# Elastic Constant Matrix: (Units=GPa)
#
#
# Indices 1 2 3 4 5 6 
#
# 1 84.7507 58.2556 3.8152 -0.0031 17.2977 0.0007
# 2 58.2556 194.6377 41.3945 -0.0001 27.0872 0.0003
# 3 3.8152 41.3945 95.8439 -0.0173 14.9711 0.0073
# 4 -0.0031 -0.0001 -0.0173 22.6405 0.0085 15.3654
# 5 17.2977 27.0872 14.9711 0.0085 34.3334 -0.0011
# 6 0.0007 0.0003 0.0073 15.3654 -0.0011 29.2621
#
#
#
# Elastic Compliance Matrix: (Units=1/GPa)
#
#
# Indices 1 2 3 4 5 6 
#
# 1 0.015867 -0.004450 0.002136 0.000010 -0.005415 -0.000006
# 2 -0.004450 0.007365 -0.002625 -0.000003 -0.002424 0.000002
# 3 0.002136 -0.002625 0.012155 0.000021 -0.004305 -0.000014
# 4 0.000010 -0.000003 0.000021 0.068624 -0.000030 -0.036034
# 5 -0.005415 -0.002424 -0.004305 -0.000030 0.035644 0.000018
# 6 -0.000006 0.000002 -0.000014 -0.036034 0.000018 0.053095
#
#
# Mechanical properties :
#
#
# Convention : Reuss Voigt Hill
#
# Bulk Modulus (GPa) = 39.20140 64.68476 51.94308
# Shear Modulus (GPa) = 23.68197 35.36499 29.52348
#
# Velocity S-wave (km/s) = 3.22039 3.93538 3.59570
# Velocity P-wave (km/s) = 5.56733 6.99834 6.32345
#
# Compressibility (1/GPa) = 0.02550929
#
# Stress axis : x y z
#
# Youngs Moduli (GPa) = 63.02391 135.77244 82.27124
#
# Poissons Ratio (x) = 0.60415 -0.17573
# Poissons Ratio (y) = 0.28044 0.21598
# Poissons Ratio (z) = -0.13462 0.35643
#
# Static dielectric constant tensor:
#      x y z
#    x 1.849890 0.000000 0.016650 
#    y 0.000000 2.026550 0.000000 
#    z 0.016650 0.000000 1.867070 
# 
# From -- ./inp_files/211393.got.cif
#   From: 2010.05.17/outbox.cif.g08.bks.cpg/sg12_106_cif.got.tgz:211393.got - 2010.06.03 13:09:07.
