data_PCOD9208179
_publ_section_title
;
Structure prediction by ZEFSAII (Michael W. Deem and Ramdas Pophale) SiO2 
 PCOD9208179
Probable space group: C 2/M
;
_chemical_formula_sum "Si O2"
_cell_formula_units_Z 24
_cell_length_a 5.359327
_cell_length_b 18.629910
_cell_length_c 13.133815
_cell_angle_alpha 90.000000
_cell_angle_beta 133.690113
_cell_angle_gamma 90.000000
_cell_volume 948.204635
_symmetry_space_group_name_H-M "C 2/M"
_symmetry_group_IT_number 12
_symmetry_cell_setting 'monoclinic'
loop_
_space_group_symop_operation_xyz
x,y,z
-x,y,-z
-x,-y,-z
x,-y,z
1/2+x,1/2+y,z
1/2-x,1/2+y,-z
1/2-x,1/2-y,-z
1/2+x,1/2-y,z
loop_
_atom_site_type_symbol
_atom_site_label
_atom_site_fract_x
_atom_site_fract_y
_atom_site_fract_z
Si Si1 0.759189 0.285826 0.668243
Si Si2 0.381849 0.582459 0.642071
Si Si3 0.640233 0.584982 0.935186
O O1 0.500000 0.273295 0.500000
O O2 0.624394 0.238089 0.725329
O O3 0.675068 0.366851 0.678219
O O4 0.436305 0.500000 0.626204
O O5 0.399326 0.586172 0.768825
O O6 0.000000 0.605351 0.500000
O O7 0.710668 0.500000 0.977054
O O8 0.500000 0.616727 0.000000
O O9 0.000000 0.617879 0.000000
#
# Coordination Sequence:
#
# PCOD9208179 Si02
#       3
#     8   8   8
#     4  10  21  38  58  83 120 162 195 231 295 368
#     4  10  21  37  62  95 122 148 198 261 298 330
#     4   9  19  36  56  80 116 159 193 228 291 364
#
# _framework density 25.310988999999999
#
# number of rings (size 3 to 8) (size 9 to 14) (size 15 to 20)
#    0.000    2.333    0.000    3.000    0.000    6.000 
#    0.000   11.667    0.000    7.000    0.000    0.000 
#    0.000    0.000    0.000    0.000    0.000    0.000 
#
# Total GULP energy -67161.416360 kJ/mol
# GULP energy per Si atom -5596.784697 kJ/mol
# Density = 2.525338 g / cm^3
# Si number density = 25.310989 Si / 1000 Ang^3
#
#
#
# Elastic Constant Matrix: (Units=GPa)
#
#
# Indices 1 2 3 4 5 6 
#
# 1 196.0517 34.3817 46.3156 -0.0001 -45.3327 0.0000
# 2 34.3817 135.0742 -21.9326 0.0001 -13.0884 0.0000
# 3 46.3156 -21.9326 84.3487 -0.0008 -12.1649 -0.0001
# 4 -0.0001 0.0001 -0.0008 8.0101 -0.0006 -11.1630
# 5 -45.3327 -13.0884 -12.1649 -0.0006 30.7442 -0.0001
# 6 0.0000 0.0000 -0.0001 -11.1630 -0.0001 24.8916
#
#
#
# Elastic Compliance Matrix: (Units=1/GPa)
#
#
# Indices 1 2 3 4 5 6 
#
# 1 0.008773 -0.001806 -0.003746 0.000001 0.010685 0.000001
# 2 -0.001806 0.008687 0.003606 0.000001 0.002462 0.000001
# 3 -0.003746 0.003606 0.015139 0.000005 0.002002 0.000002
# 4 0.000001 0.000001 0.000005 0.332911 0.000011 0.149299
# 5 0.010685 0.002462 0.002002 0.000011 0.050122 0.000005
# 6 0.000001 0.000001 0.000002 0.149299 0.000005 0.107130
#
#
# Mechanical properties :
#
#
# Convention : Reuss Voigt Hill
#
# Bulk Modulus (GPa) = 34.83576 59.22267 47.02921
# Shear Modulus (GPa) = 9.32450 36.50983 22.91716
#
# Velocity S-wave (km/s) = 1.92145 3.80208 3.01229
# Velocity P-wave (km/s) = 4.32615 6.53630 5.54251
#
# Compressibility (1/GPa) = 0.02870613
#
# Stress axis : x y z
#
# Youngs Moduli (GPa) = 113.98652 115.11414 66.05639
#
# Poissons Ratio (x) = 0.20789 0.24743
# Poissons Ratio (y) = 0.20585 -0.23817
# Poissons Ratio (z) = 0.42697 -0.41505
#
# Static dielectric constant tensor:
#      x y z
#    x 2.027590 0.000000 0.011330 
#    y 0.000000 2.052740 0.000000 
#    z 0.011330 0.000000 2.019690 
# 
# From -- ./inp_files/33530.got.cif
#   From: 2010.05.17/outbox.cif.g08.bks.cpg/sg12_17_cif.got.tgz:33530.got - 2010.06.03 13:09:07.
