data_PCOD9208477
_publ_section_title
;
Structure prediction by ZEFSAII (Michael W. Deem and Ramdas Pophale) SiO2 
 PCOD9208477
Probable space group: C 2/M
;
_chemical_formula_sum "Si O2"
_cell_formula_units_Z 56
_cell_length_a 31.091188
_cell_length_b 18.062820
_cell_length_c 6.065328
_cell_angle_alpha 90.000000
_cell_angle_beta 125.721634
_cell_angle_gamma 90.000000
_cell_volume 2765.412890
_symmetry_space_group_name_H-M "C 2/M"
_symmetry_group_IT_number 12
_symmetry_cell_setting 'monoclinic'
loop_
_space_group_symop_operation_xyz
x,y,z
-x,y,-z
-x,-y,-z
x,-y,z
1/2+x,1/2+y,z
1/2-x,1/2+y,-z
1/2-x,1/2-y,-z
1/2+x,1/2-y,z
loop_
_atom_site_type_symbol
_atom_site_label
_atom_site_fract_x
_atom_site_fract_y
_atom_site_fract_z
Si Si1 0.443441 0.298582 0.942247
Si Si2 0.384560 0.583970 0.037575
Si Si3 0.620799 0.194401 0.005670
Si Si4 0.679973 0.916433 0.940172
Si Si5 0.228709 0.084304 0.421174
Si Si6 0.291838 0.198675 0.351996
Si Si7 0.352910 0.689245 0.302071
O O1 0.429647 0.362629 0.077914
O O2 0.432576 0.221123 0.036484
O O3 0.399149 0.305488 0.620224
O O4 0.500000 0.304367 0.000000
O O5 0.402625 0.500000 0.108415
O O6 0.333781 0.587888 0.720882
O O7 0.359505 0.611826 0.194542
O O8 0.630289 0.113919 0.932716
O O9 0.666907 0.203826 0.323969
O O10 0.633248 0.251960 0.848409
O O11 0.731627 0.912895 0.253585
O O12 0.672623 0.000000 0.845566
O O13 0.688120 0.862068 0.761332
O O14 0.241919 0.157105 0.313080
O O15 0.237018 0.000000 0.347683
O O16 0.298643 0.278666 0.251435
#
# Coordination Sequence:
#
# PCOD9208477 Si02
#       7
#     8   8   8   8   8   8   8
#     4  10  21  38  58  75  93 126 174 221 266 313
#     4  10  22  37  51  74 106 134 168 216 262 304
#     4   8  17  33  51  77 106 131 167 214 254 294
#     4   9  16  28  50  78 109 145 175 199 237 291
#     4   9  18  31  47  73 110 145 175 207 242 288
#     4   9  16  30  51  76 105 138 175 203 238 297
#     4   9  19  36  55  76 100 130 169 212 260 307
#
# _framework density 20.250142
#
# number of rings (size 3 to 8) (size 9 to 14) (size 15 to 20)
#    0.000    2.857    0.000    0.429    0.000    5.429 
#    0.000   27.857    0.000    0.429    0.000    9.000 
#    0.000    0.000    0.000    0.000    0.000    0.000 
#
# Total GULP energy -156023.716860 kJ/mol
# GULP energy per Si atom -5572.275602 kJ/mol
# Density = 2.020405 g / cm^3
# Si number density = 20.250142 Si / 1000 Ang^3
#
#
#
# Elastic Constant Matrix: (Units=GPa)
#
#
# Indices 1 2 3 4 5 6 
#
# 1 95.6463 40.9144 1.1319 0.0000 6.1794 0.0000
# 2 40.9144 100.0781 15.3162 0.0000 -4.5493 0.0000
# 3 1.1319 15.3162 39.6747 0.0000 -13.3414 0.0000
# 4 0.0000 0.0000 0.0000 22.4259 0.0000 -6.4630
# 5 6.1794 -4.5493 -13.3414 0.0000 21.6716 0.0000
# 6 0.0000 0.0000 0.0000 -6.4630 0.0000 25.8816
#
#
#
# Elastic Compliance Matrix: (Units=1/GPa)
#
#
# Indices 1 2 3 4 5 6 
#
# 1 0.013175 -0.005632 0.000174 0.000000 -0.004832 0.000000
# 2 -0.005632 0.013030 -0.004300 0.000000 0.001694 0.000000
# 3 0.000174 -0.004300 0.033468 0.000000 0.019652 0.000000
# 4 0.000000 0.000000 0.000000 0.048049 0.000000 0.011999
# 5 -0.004832 0.001694 0.019652 0.000000 0.059975 0.000000
# 6 0.000000 0.000000 0.000000 0.011999 0.000000 0.041634
#
#
# Mechanical properties :
#
#
# Convention : Reuss Voigt Hill
#
# Bulk Modulus (GPa) = 24.90304 38.90268 31.90286
# Shear Modulus (GPa) = 20.64133 25.86493 23.25313
#
# Velocity S-wave (km/s) = 3.19614 3.57777 3.39233
# Velocity P-wave (km/s) = 5.09361 6.02661 5.57964
#
# Compressibility (1/GPa) = 0.04015574
#
# Stress axis : x y z
#
# Youngs Moduli (GPa) = 75.90327 76.74665 29.87918
#
# Poissons Ratio (x) = 0.43226 -0.00519
# Poissons Ratio (y) = 0.42751 0.12847
# Poissons Ratio (z) = -0.01317 0.32999
#
# Static dielectric constant tensor:
#      x y z
#    x 1.743140 0.000000 -0.041520 
#    y 0.000000 1.755430 0.000000 
#    z -0.041520 0.000000 1.744010 
# 
# From -- ./inp_files/28841.got.cif
#   From: 2010.05.17/outbox.cif.g08.bks.cpg/sg12_15_cif.got.tgz:28841.got - 2010.06.03 13:09:07.
