data_PCOD9208532
_publ_section_title
;
Structure prediction by ZEFSAII (Michael W. Deem and Ramdas Pophale) SiO2 
 PCOD9208532
Probable space group: C 2/M
;
_chemical_formula_sum "Si O2"
_cell_formula_units_Z 40
_cell_length_a 21.090271
_cell_length_b 7.809314
_cell_length_c 16.309666
_cell_angle_alpha 90.000000
_cell_angle_beta 133.790083
_cell_angle_gamma 90.000000
_cell_volume 1939.121996
_symmetry_space_group_name_H-M "C 2/M"
_symmetry_group_IT_number 12
_symmetry_cell_setting 'monoclinic'
loop_
_space_group_symop_operation_xyz
x,y,z
-x,y,-z
-x,-y,-z
x,-y,z
1/2+x,1/2+y,z
1/2-x,1/2+y,-z
1/2-x,1/2-y,-z
1/2+x,1/2-y,z
loop_
_atom_site_type_symbol
_atom_site_label
_atom_site_fract_x
_atom_site_fract_y
_atom_site_fract_z
Si Si1 0.315378 0.301743 0.134611
Si Si2 0.582627 0.305140 0.016186
Si Si3 0.505775 0.803806 0.779574
Si Si4 0.692752 0.206774 0.369814
Si Si5 0.253679 0.305154 0.250569
O O1 0.293731 0.500000 0.125524
O O2 0.418361 0.281937 0.206824
O O3 0.300249 0.222524 0.212137
O O4 0.250000 0.250000 0.000000
O O5 0.613291 0.500000 0.022493
O O6 0.654560 0.199822 0.128893
O O7 0.500000 0.322785 0.000000
O O8 0.551501 0.207579 0.908629
O O9 0.407473 0.730117 0.704076
O O10 0.496668 0.000000 0.744059
O O11 0.750000 0.250000 0.500000
O O12 0.741532 0.272765 0.330786
O O13 0.685998 0.000000 0.353650
O O14 0.287235 0.500000 0.291640
#
# Coordination Sequence:
#
# PCOD9208532 Si02
#       5
#     8   8   8   8   8
#     4  11  22  35  56  88 124 158 190 230 287 353
#     4  11  21  31  52  88 120 148 187 237 292 346
#     4  11  22  37  58  84 119 157 190 235 293 351
#     4  10  23  42  63  84 108 150 202 248 295 340
#     4  10  21  38  58  82 117 156 190 232 290 349
#
# _framework density 20.627893
#
# number of rings (size 3 to 8) (size 9 to 14) (size 15 to 20)
#    0.000    1.400    4.000    1.800    0.000    4.000 
#    0.000    1.000    0.000    6.000    0.000    0.000 
#    0.000    0.000    0.000    0.000    0.000    0.000 
#
# Total GULP energy -111366.322736 kJ/mol
# GULP energy per Si atom -5568.316137 kJ/mol
# Density = 2.058094 g / cm^3
# Si number density = 20.627893 Si / 1000 Ang^3
#
#
#
# Elastic Constant Matrix: (Units=GPa)
#
#
# Indices 1 2 3 4 5 6 
#
# 1 155.1001 4.4658 51.3543 0.0000 -37.8134 0.0000
# 2 4.4658 41.0805 -9.4774 0.0000 3.5514 0.0000
# 3 51.3543 -9.4774 104.5426 0.0000 -31.1270 0.0000
# 4 0.0000 0.0000 0.0000 29.2692 0.0000 0.0608
# 5 -37.8134 3.5514 -31.1270 0.0000 19.6418 0.0000
# 6 0.0000 0.0000 0.0000 0.0608 0.0000 21.1809
#
#
#
# Elastic Compliance Matrix: (Units=1/GPa)
#
#
# Indices 1 2 3 4 5 6 
#
# 1 0.012801 -0.003411 0.001749 0.000000 0.028032 0.000000
# 2 -0.003411 0.025803 0.001269 0.000000 -0.009221 0.000000
# 3 0.001749 0.001269 0.018471 0.000000 0.032409 0.000000
# 4 0.000000 0.000000 0.000000 0.034166 0.000000 -0.000098
# 5 0.028032 -0.009221 0.032409 0.000000 0.157905 0.000000
# 6 0.000000 0.000000 0.000000 -0.000098 0.000000 0.047213
#
#
# Mechanical properties :
#
#
# Convention : Reuss Voigt Hill
#
# Bulk Modulus (GPa) = 17.76541 43.71207 30.73874
# Shear Modulus (GPa) = 15.82740 30.97708 23.40224
#
# Velocity S-wave (km/s) = 2.77299 3.87939 3.37188
# Velocity P-wave (km/s) = 4.34553 6.42674 5.48574
#
# Compressibility (1/GPa) = 0.05628915
#
# Stress axis : x y z
#
# Youngs Moduli (GPa) = 78.12057 38.75468 54.13848
#
# Poissons Ratio (x) = 0.13221 -0.09469
# Poissons Ratio (y) = 0.26650 -0.06872
# Poissons Ratio (z) = -0.13663 -0.04919
#
# Static dielectric constant tensor:
#      x y z
#    x 1.852630 0.000000 -0.047130 
#    y 0.000000 1.843850 0.000000 
#    z -0.047130 0.000000 1.687350 
# 
# From -- ./inp_files/229640.got.cif
#   From: 2010.05.17/outbox.cif.g08.bks.cpg/sg12_115_cif.got.tgz:229640.got - 2010.06.03 13:09:07.
