data_PCOD9208574
_publ_section_title
;
Structure prediction by ZEFSAII (Michael W. Deem and Ramdas Pophale) SiO2 
 PCOD9208574
Probable space group: C 2/M
;
_chemical_formula_sum "Si O2"
_cell_formula_units_Z 30
_cell_length_a 10.069894
_cell_length_b 28.356817
_cell_length_c 5.024354
_cell_angle_alpha 90.000000
_cell_angle_beta 80.366177
_cell_angle_gamma 90.000000
_cell_volume 1414.471950
_symmetry_space_group_name_H-M "C 2/M"
_symmetry_group_IT_number 12
_symmetry_cell_setting 'monoclinic'
loop_
_space_group_symop_operation_xyz
x,y,z
-x,y,-z
-x,-y,-z
x,-y,z
1/2+x,1/2+y,z
1/2-x,1/2+y,-z
1/2-x,1/2-y,-z
1/2+x,1/2-y,z
loop_
_atom_site_type_symbol
_atom_site_label
_atom_site_fract_x
_atom_site_fract_y
_atom_site_fract_z
Si Si1 0.360689 0.683050 0.384073
Si Si2 0.196187 0.500000 0.445259
Si Si3 0.500000 0.000000 0.000000
Si Si4 0.907419 0.918993 0.270540
Si Si5 0.406542 0.213201 0.268532
O O1 0.500000 0.683569 0.500000
O O2 0.357977 0.634400 0.224825
O O3 0.362229 0.732496 0.224385
O O4 0.230164 0.685694 0.618254
O O5 0.136290 0.500000 0.761763
O O6 0.286629 0.453681 0.372996
O O7 0.089616 0.500000 0.242611
O O8 0.000000 0.916486 0.500000
O O9 0.000000 0.936326 0.000000
O O10 0.500000 0.213104 0.500000
O O11 0.500000 0.195119 0.000000
#
# Coordination Sequence:
#
# PCOD9208574 Si02
#       5
#     8   4   2   8   8
#     4   9  21  38  60  88 121 160 204 255 305 354
#     4  11  22  43  64  91 122 163 200 246 302 375
#     4  10  24  44  64  84 124 174 192 240 308 366
#     4  11  22  38  64  94 120 154 202 260 307 355
#     4  10  21  38  58  85 121 162 205 250 304 362
#
# _framework density 21.209330000000001
#
# number of rings (size 3 to 8) (size 9 to 14) (size 15 to 20)
#    0.000    1.867    0.000    3.200    0.000   13.867 
#    7.200    0.000    0.000    0.000    0.000    0.000 
#    0.000    0.000    0.000    0.000    0.000    0.000 
#
# Total GULP energy -83560.706659 kJ/mol
# GULP energy per Si atom -5570.713777 kJ/mol
# Density = 2.116106 g / cm^3
# Si number density = 21.209330 Si / 1000 Ang^3
#
#
#
# Elastic Constant Matrix: (Units=GPa)
#
#
# Indices 1 2 3 4 5 6 
#
# 1 101.1668 27.0959 44.2776 0.0000 -25.7845 0.0000
# 2 27.0959 63.6070 4.4753 0.0000 -11.4130 0.0000
# 3 44.2776 4.4753 174.6150 0.0000 -31.7117 0.0000
# 4 0.0000 0.0000 0.0000 -10.2348 0.0000 23.6137
# 5 -25.7845 -11.4130 -31.7117 0.0000 55.0848 0.0000
# 6 0.0000 0.0000 0.0000 23.6137 0.0000 -34.3523
#
#
#
# Elastic Compliance Matrix: (Units=1/GPa)
#
#
# Indices 1 2 3 4 5 6 
#
# 1 0.013237 -0.004789 -0.002556 0.000000 0.003732 0.000000
# 2 -0.004789 0.018069 0.001144 0.000000 0.002160 0.000000
# 3 -0.002556 0.001144 0.006892 0.000000 0.003008 0.000000
# 4 0.000000 0.000000 0.000000 0.166742 0.000000 0.114618
# 5 0.003732 0.002160 0.003008 0.000000 0.022080 0.000000
# 6 0.000000 0.000000 0.000000 0.114618 0.000000 0.049678
#
#
# Mechanical properties :
#
#
# Convention : Reuss Voigt Hill
#
# Bulk Modulus (GPa) = 38.76752 54.56515 46.66634
# Shear Modulus (GPa) = 16.79541 19.66890 18.23215
#
# Velocity S-wave (km/s) = 2.81710 3.04858 2.93512
# Velocity P-wave (km/s) = 5.37584 6.17856 5.79112
#
# Compressibility (1/GPa) = 0.02579479
#
# Stress axis : x y z
#
# Youngs Moduli (GPa) = 75.54326 55.34364 145.09520
#
# Poissons Ratio (x) = 0.26507 0.37087
# Poissons Ratio (y) = 0.36181 -0.16594
# Poissons Ratio (z) = 0.19309 -0.06330
#
# Static dielectric constant tensor:
#      x y z
#    x 1.750570 0.000000 -0.009240 
#    y 0.000000 1.786020 0.000000 
#    z -0.009240 0.000000 1.748040 
# 
# From -- ./inp_files/3768.got.cif
#   From: 2010.05.17/outbox.cif.g08.bks.cpg/sg12_2_cif.got.tgz:3768.got - 2010.06.03 13:09:07.
