data_PCOD9208024
_publ_section_title
;
Structure prediction by ZEFSAII (Michael W. Deem and Ramdas Pophale) SiO2 
 PCOD9208024
Probable space group: C 2/M
;
_chemical_formula_sum "Si O2"
_cell_formula_units_Z 58
_cell_length_a 18.762864
_cell_length_b 9.646736
_cell_length_c 22.672583
_cell_angle_alpha 90.000000
_cell_angle_beta 47.117402
_cell_angle_gamma 90.000000
_cell_volume 3007.018663
_symmetry_space_group_name_H-M "C 2/M"
_symmetry_group_IT_number 12
_symmetry_cell_setting 'monoclinic'
loop_
_space_group_symop_operation_xyz
x,y,z
-x,y,-z
-x,-y,-z
x,-y,z
1/2+x,1/2+y,z
1/2-x,1/2+y,-z
1/2-x,1/2-y,-z
1/2+x,1/2-y,z
loop_
_atom_site_type_symbol
_atom_site_label
_atom_site_fract_x
_atom_site_fract_y
_atom_site_fract_z
Si Si1 0.301058 0.340869 0.521459
Si Si2 0.428559 0.831244 0.197716
Si Si3 0.573331 0.160614 0.013088
Si Si4 0.545035 0.165727 0.242812
Si Si5 0.984016 0.746448 0.605635
Si Si6 0.219803 0.834715 0.334030
Si Si7 0.500000 0.000000 0.500000
Si Si8 0.252219 0.167425 0.936584
O O1 0.266566 0.500000 0.536137
O O2 0.250000 0.250000 0.500000
O O3 0.418244 0.337415 0.451818
O O4 0.278329 0.283171 0.599582
O O5 0.510371 0.791139 0.104810
O O6 0.462507 0.785500 0.243465
O O7 0.318595 0.784263 0.246963
O O8 0.429161 0.000000 0.195549
O O9 0.606793 0.000000 0.004106
O O10 0.500000 0.158241 0.000000
O O11 0.661334 0.265429 0.953777
O O12 0.531615 0.213745 0.316786
O O13 0.648872 0.198835 0.154628
O O14 0.538640 0.000000 0.247712
O O15 0.881536 0.804493 0.639987
O O16 0.003619 0.619490 0.550298
O O17 0.226725 0.000000 0.334370
O O18 0.245463 0.000000 0.948032
O O19 0.250000 0.250000 0.000000
#
# Coordination Sequence:
#
# PCOD9208024 Si02
#       8
#     8   8   8   8   8   8   2   8
#     4  11  24  40  63  90 123 161 205 256 311 374
#     4   9  18  36  59  85 116 156 202 251 299 366
#     4  10  21  38  62  91 124 162 209 257 312 373
#     4  10  21  37  61  89 121 161 211 255 310 378
#     4  12  23  40  62  91 125 161 209 259 313 367
#     4  10  21  38  61  87 116 158 201 251 312 370
#     4  12  24  40  66  92 124 166 206 264 304 380
#     4  11  22  40  65  91 124 166 209 259 314 372
#
# _framework density 19.288208000000001
#
# number of rings (size 3 to 8) (size 9 to 14) (size 15 to 20)
#    0.000    1.517    3.448    1.655    2.897    2.483 
#    0.000    2.069    1.517    0.000    0.000    0.000 
#    0.000    0.000    0.000    0.000    0.000    0.000 
#
# Total GULP energy -161475.626941 kJ/mol
# GULP energy per Si atom -5568.125067 kJ/mol
# Density = 1.924431 g / cm^3
# Si number density = 19.288208 Si / 1000 Ang^3
#
#
#
# Elastic Constant Matrix: (Units=GPa)
#
#
# Indices 1 2 3 4 5 6 
#
# 1 87.3240 10.6934 17.6798 0.0000 -7.3343 0.0000
# 2 10.6934 41.9343 15.8544 0.0000 -5.0844 0.0000
# 3 17.6798 15.8544 74.7637 0.0000 -0.8363 0.0000
# 4 0.0000 0.0000 0.0000 19.2257 0.0000 6.8172
# 5 -7.3343 -5.0844 -0.8363 0.0000 44.8977 0.0000
# 6 0.0000 0.0000 0.0000 6.8172 0.0000 9.9819
#
#
#
# Elastic Compliance Matrix: (Units=1/GPa)
#
#
# Indices 1 2 3 4 5 6 
#
# 1 0.012344 -0.002000 -0.002475 0.000000 0.001744 0.000000
# 2 -0.002000 0.026615 -0.005142 0.000000 0.002591 0.000000
# 3 -0.002475 -0.005142 0.015043 0.000000 -0.000706 0.000000
# 4 0.000000 0.000000 0.000000 0.068635 0.000000 -0.046874
# 5 0.001744 0.002591 -0.000706 0.000000 0.022838 0.000000
# 6 0.000000 0.000000 0.000000 -0.046874 0.000000 0.132194
#
#
# Mechanical properties :
#
#
# Convention : Reuss Voigt Hill
#
# Bulk Modulus (GPa) = 28.76281 32.49744 30.63012
# Shear Modulus (GPa) = 16.20777 25.47404 20.84091
#
# Velocity S-wave (km/s) = 2.90193 3.63809 3.29066
# Velocity P-wave (km/s) = 5.11593 5.87644 5.50932
#
# Compressibility (1/GPa) = 0.03476712
#
# Stress axis : x y z
#
# Youngs Moduli (GPa) = 81.00959 37.57249 66.47455
#
# Poissons Ratio (x) = 0.07516 0.16455
# Poissons Ratio (y) = 0.16206 0.34181
# Poissons Ratio (z) = 0.20053 0.19320
#
# Static dielectric constant tensor:
#      x y z
#    x 1.707470 0.000000 -0.007460 
#    y 0.000000 1.656030 0.000000 
#    z -0.007460 0.000000 1.701080 
# 
# From -- ./inp_files/346445.got.cif
#   From: 2010.05.17/outbox.cif.g08.bks.cpg/sg12_174_cif.got.tgz:346445.got - 2010.06.03 13:09:07.
