data_PCOD9208065
_publ_section_title
;
Structure prediction by ZEFSAII (Michael W. Deem and Ramdas Pophale) SiO2 
 PCOD9208065
Probable space group: C 2/M
;
_chemical_formula_sum "Si O2"
_cell_formula_units_Z 56
_cell_length_a 8.873665
_cell_length_b 21.437414
_cell_length_c 18.237168
_cell_angle_alpha 90.000000
_cell_angle_beta 55.198640
_cell_angle_gamma 90.000000
_cell_volume 2848.706701
_symmetry_space_group_name_H-M "C 2/M"
_symmetry_group_IT_number 12
_symmetry_cell_setting 'monoclinic'
loop_
_space_group_symop_operation_xyz
x,y,z
-x,y,-z
-x,-y,-z
x,-y,z
1/2+x,1/2+y,z
1/2-x,1/2+y,-z
1/2-x,1/2-y,-z
1/2+x,1/2-y,z
loop_
_atom_site_type_symbol
_atom_site_label
_atom_site_fract_x
_atom_site_fract_y
_atom_site_fract_z
Si Si1 0.111711 0.931305 0.044717
Si Si2 0.719543 0.073162 0.425610
Si Si3 0.197425 0.196033 0.070910
Si Si4 0.261287 0.429748 0.243295
Si Si5 0.676762 0.761788 0.808299
Si Si6 0.306559 0.318795 0.512838
Si Si7 0.007438 0.673530 0.718414
O O1 0.960875 0.930847 0.151462
O O2 0.233529 0.871061 0.025811
O O3 0.199870 0.000000 0.018093
O O4 0.000000 0.923275 0.000000
O O5 0.500000 0.076747 0.500000
O O6 0.762980 0.087931 0.328530
O O7 0.808668 0.126847 0.450982
O O8 0.773076 0.000000 0.424992
O O9 0.299111 0.206862 0.119227
O O10 0.979550 0.208302 0.143708
O O11 0.250000 0.250000 0.000000
O O12 0.187074 0.500000 0.260984
O O13 0.126863 0.384779 0.236742
O O14 0.609460 0.808326 0.764560
O O15 0.871323 0.730540 0.735555
O O16 0.500000 0.314260 0.500000
O O17 0.250000 0.250000 0.500000
O O18 0.151896 0.337747 0.614535
#
# Coordination Sequence:
#
# PCOD9208065 Si02
#       7
#     8   8   8   8   8   8   8
#     4  10  21  37  61  92 122 159 205 253 304 367
#     4  10  21  40  65  90 121 167 215 259 312 385
#     4  11  21  38  60  90 124 159 205 259 308 369
#     4  10  21  39  65  89 119 164 210 254 310 372
#     4  10  23  36  59  87 119 162 205 251 313 371
#     4  12  26  39  59  91 129 165 207 265 324 376
#     4  11  22  40  58  87 120 161 205 257 309 371
#
# _framework density 19.658042999999999
#
# number of rings (size 3 to 8) (size 9 to 14) (size 15 to 20)
#    0.000    1.429    2.857    2.571    4.000    1.429 
#    0.000    0.714    0.000    1.714    0.000    0.000 
#    0.000    0.000    0.000    0.000    0.000    0.000 
#
# Total GULP energy -156410.916531 kJ/mol
# GULP energy per Si atom -5586.104162 kJ/mol
# Density = 1.961330 g / cm^3
# Si number density = 19.658043 Si / 1000 Ang^3
#
#
#
# Elastic Constant Matrix: (Units=GPa)
#
#
# Indices 1 2 3 4 5 6 
#
# 1 105.0993 58.5205 16.1571 0.0000 23.9298 0.0000
# 2 58.5205 138.5950 12.7241 0.0000 34.2126 0.0000
# 3 16.1571 12.7241 72.2425 0.0000 16.3197 0.0000
# 4 0.0000 0.0000 0.0000 28.4416 0.0000 6.1307
# 5 23.9298 34.2126 16.3197 0.0000 33.0127 0.0000
# 6 0.0000 0.0000 0.0000 6.1307 0.0000 11.4594
#
#
#
# Elastic Compliance Matrix: (Units=1/GPa)
#
#
# Indices 1 2 3 4 5 6 
#
# 1 0.013120 -0.004337 -0.001168 0.000000 -0.004438 0.000000
# 2 -0.004337 0.011155 0.001021 0.000000 -0.008921 0.000000
# 3 -0.001168 0.001021 0.015728 0.000000 -0.007986 0.000000
# 4 0.000000 0.000000 0.000000 0.039743 0.000000 -0.021262
# 5 -0.004438 -0.008921 -0.007986 0.000000 0.046702 0.000000
# 6 0.000000 0.000000 0.000000 -0.021262 0.000000 0.098640
#
#
# Mechanical properties :
#
#
# Convention : Reuss Voigt Hill
#
# Bulk Modulus (GPa) = 32.22241 54.52669 43.37455
# Shear Modulus (GPa) = 20.45823 29.81841 25.13832
#
# Velocity S-wave (km/s) = 3.22950 3.89891 3.57988
# Velocity P-wave (km/s) = 5.50756 6.93300 6.26098
#
# Compressibility (1/GPa) = 0.03103430
#
# Stress axis : x y z
#
# Youngs Moduli (GPa) = 76.22138 89.64568 63.58184
#
# Poissons Ratio (x) = 0.38878 0.07425
# Poissons Ratio (y) = 0.33056 -0.06489
# Poissons Ratio (z) = 0.08901 -0.09149
#
# Static dielectric constant tensor:
#      x y z
#    x 1.664770 0.000000 -0.026340 
#    y 0.000000 1.720140 0.000000 
#    z -0.026340 0.000000 1.721310 
# 
# From -- ./inp_files/257980.got.cif
#   From: 2010.05.17/outbox.cif.g08.bks.cpg/sg12_129_cif.got.tgz:257980.got - 2010.06.03 13:09:07.
