data_PCOD9208264
_publ_section_title
;
Structure prediction by ZEFSAII (Michael W. Deem and Ramdas Pophale) SiO2 
 PCOD9208264
Probable space group: C 2/M
;
_chemical_formula_sum "Si O2"
_cell_formula_units_Z 64
_cell_length_a 11.339149
_cell_length_b 21.709685
_cell_length_c 11.798321
_cell_angle_alpha 90.000000
_cell_angle_beta 102.741775
_cell_angle_gamma 90.000000
_cell_volume 2832.861638
_symmetry_space_group_name_H-M "C 2/M"
_symmetry_group_IT_number 12
_symmetry_cell_setting 'monoclinic'
loop_
_space_group_symop_operation_xyz
x,y,z
-x,y,-z
-x,-y,-z
x,-y,z
1/2+x,1/2+y,z
1/2-x,1/2+y,-z
1/2-x,1/2-y,-z
1/2+x,1/2-y,z
loop_
_atom_site_type_symbol
_atom_site_label
_atom_site_fract_x
_atom_site_fract_y
_atom_site_fract_z
Si Si1 0.824226 0.928584 0.703199
Si Si2 0.045199 0.673293 0.195443
Si Si3 0.851499 0.657592 0.481422
Si Si4 0.111964 0.431736 0.813064
Si Si5 0.448458 0.598464 0.107090
Si Si6 0.674463 0.067494 0.086678
Si Si7 0.745496 0.723441 0.666352
Si Si8 0.640074 0.732778 0.896457
O O1 0.735798 0.891397 0.600089
O O2 0.748776 0.922865 0.803711
O O3 0.957829 0.907762 0.768365
O O4 0.829653 0.000000 0.669841
O O5 0.133076 0.627424 0.146809
O O6 0.115768 0.731558 0.263800
O O7 0.970013 0.623042 0.252029
O O8 0.943060 0.707962 0.106436
O O9 0.783747 0.666262 0.591026
O O10 0.821341 0.723708 0.417264
O O11 0.000000 0.648477 0.500000
O O12 0.076282 0.500000 0.765416
O O13 0.114559 0.429682 0.949453
O O14 0.318587 0.569680 0.106834
O O15 0.420604 0.669872 0.080442
O O16 0.500000 0.572295 0.000000
O O17 0.641362 0.000000 0.128877
O O18 0.675642 0.722080 0.771406
O O19 0.750000 0.750000 0.000000
#
# Coordination Sequence:
#
# PCOD9208264 Si02
#       8
#     8   8   8   8   8   8   8   8
#     4  11  24  43  71 107 141 186 248 307 362 434
#     4  12  24  42  65 101 144 181 243 298 366 434
#     4  11  25  49  75 102 135 189 252 305 365 439
#     4  10  21  37  63  99 143 192 238 287 355 429
#     4  12  25  42  68 104 152 199 234 297 367 452
#     4  11  23  41  65  98 144 198 242 285 356 440
#     4  11  25  46  70 100 139 189 232 304 371 438
#     4  12  28  41  66 108 150 189 238 300 374 446
#
# _framework density 22.591996999999999
#
# number of rings (size 3 to 8) (size 9 to 14) (size 15 to 20)
#    0.000    0.750    2.500    4.875    5.250    2.750 
#    0.000    1.250    0.000    0.750    0.000    0.000 
#    0.000    0.000    0.000    0.000    0.000    0.000 
#
# Total GULP energy -178333.383790 kJ/mol
# GULP energy per Si atom -5572.918243 kJ/mol
# Density = 2.254058 g / cm^3
# Si number density = 22.591997 Si / 1000 Ang^3
#
#
#
# Elastic Constant Matrix: (Units=GPa)
#
#
# Indices 1 2 3 4 5 6 
#
# 1 133.4981 46.4389 51.3217 0.0000 20.6277 0.0000
# 2 46.4389 108.4362 23.7055 0.0000 15.5216 0.0000
# 3 51.3217 23.7055 101.8743 0.0000 1.0535 0.0000
# 4 0.0000 0.0000 0.0000 49.2634 0.0000 25.0117
# 5 20.6277 15.5216 1.0535 0.0000 41.8500 0.0000
# 6 0.0000 0.0000 0.0000 25.0117 0.0000 41.1954
#
#
#
# Elastic Compliance Matrix: (Units=1/GPa)
#
#
# Indices 1 2 3 4 5 6 
#
# 1 0.011060 -0.003086 -0.004811 0.000000 -0.004186 0.000000
# 2 -0.003086 0.011134 -0.001010 0.000000 -0.002583 0.000000
# 3 -0.004811 -0.001010 0.012449 0.000000 0.002432 0.000000
# 4 0.000000 0.000000 0.000000 0.029345 0.000000 -0.017817
# 5 -0.004186 -0.002583 0.002432 0.000000 0.026855 0.000000
# 6 0.000000 0.000000 0.000000 -0.017817 0.000000 0.035092
#
#
# Mechanical properties :
#
#
# Convention : Reuss Voigt Hill
#
# Bulk Modulus (GPa) = 59.41188 65.19341 62.30265
# Shear Modulus (GPa) = 33.47666 41.28457 37.38062
#
# Velocity S-wave (km/s) = 3.85358 4.27945 4.07208
# Velocity P-wave (km/s) = 6.79375 7.30327 7.05311
#
# Compressibility (1/GPa) = 0.01683165
#
# Stress axis : x y z
#
# Youngs Moduli (GPa) = 90.41288 89.81497 80.32633
#
# Poissons Ratio (x) = 0.27716 0.38642
# Poissons Ratio (y) = 0.27900 0.08109
# Poissons Ratio (z) = 0.43494 0.09067
#
# Static dielectric constant tensor:
#      x y z
#    x 1.912100 0.000000 -0.039940 
#    y 0.000000 1.779330 0.000000 
#    z -0.039940 0.000000 1.986550 
# 
# From -- ./inp_files/135984.got.cif
#   From: 2010.05.17/outbox.cif.g08.bks.cpg/sg12_68_cif.got.tgz:135984.got - 2010.06.03 13:09:07.
