data_PCOD9208325
_publ_section_title
;
Structure prediction by ZEFSAII (Michael W. Deem and Ramdas Pophale) SiO2 
 PCOD9208325
Probable space group: C 2/M
;
_chemical_formula_sum "Si O2"
_cell_formula_units_Z 56
_cell_length_a 11.505675
_cell_length_b 16.493372
_cell_length_c 23.338399
_cell_angle_alpha 90.000000
_cell_angle_beta 148.290154
_cell_angle_gamma 90.000000
_cell_volume 2327.891441
_symmetry_space_group_name_H-M "C 2/M"
_symmetry_group_IT_number 12
_symmetry_cell_setting 'monoclinic'
loop_
_space_group_symop_operation_xyz
x,y,z
-x,y,-z
-x,-y,-z
x,-y,z
1/2+x,1/2+y,z
1/2-x,1/2+y,-z
1/2-x,1/2-y,-z
1/2+x,1/2-y,z
loop_
_atom_site_type_symbol
_atom_site_label
_atom_site_fract_x
_atom_site_fract_y
_atom_site_fract_z
Si Si1 0.458156 0.091839 0.177563
Si Si2 0.239080 0.911122 0.889721
Si Si3 0.660466 0.643151 0.739222
Si Si4 0.383077 0.333962 0.043790
Si Si5 0.245922 0.330806 0.398565
Si Si6 0.739222 0.136701 0.611634
Si Si7 0.331670 0.823577 0.290465
O O1 0.630820 0.094731 0.196444
O O2 0.595507 0.138436 0.283261
O O3 0.418695 0.000000 0.179124
O O4 0.231655 0.131575 0.060846
O O5 0.191099 0.844100 0.820757
O O6 0.174965 0.890547 0.926908
O O7 0.149284 0.000000 0.835053
O O8 0.500000 0.916209 0.000000
O O9 0.421939 0.602012 0.644825
O O10 0.648890 0.725646 0.698020
O O11 0.648396 0.330406 0.162714
O O12 0.250000 0.250000 0.000000
O O13 0.500000 0.361271 0.500000
O O14 0.260503 0.233141 0.403467
O O15 0.080631 0.352954 0.381653
O O16 0.500000 0.101922 0.500000
O O17 0.762408 0.137291 0.690753
#
# Coordination Sequence:
#
# PCOD9208325 Si02
#       7
#     8   8   8   8   8   8   8
#     4  12  25  43  65  96 132 175 220 260 322 399
#     4  11  21  36  58  91 127 166 206 256 321 387
#     4  11  21  37  64  92 128 165 214 262 322 377
#     4  12  22  39  63  95 134 166 216 270 327 386
#     4  10  24  42  66  93 129 172 221 269 328 384
#     4  10  21  37  66 101 129 162 214 278 330 371
#     4  11  22  40  64 100 130 164 216 275 330 378
#
# _framework density 24.056104999999999
#
# number of rings (size 3 to 8) (size 9 to 14) (size 15 to 20)
#    0.000    1.000    5.714    0.857    4.000    2.571 
#    0.000    2.143    0.000    1.714    0.000    0.000 
#    0.000    0.000    0.000    0.000    0.000    0.000 
#
# Total GULP energy -156162.068114 kJ/mol
# GULP energy per Si atom -5577.216718 kJ/mol
# Density = 2.400135 g / cm^3
# Si number density = 24.056105 Si / 1000 Ang^3
#
#
#
# Elastic Constant Matrix: (Units=GPa)
#
#
# Indices 1 2 3 4 5 6 
#
# 1 85.6362 0.4934 16.8655 0.0001 19.0952 0.0001
# 2 0.4934 49.6959 5.3770 0.0001 4.7161 0.0000
# 3 16.8655 5.3770 112.0552 0.0007 25.3389 0.0004
# 4 0.0001 0.0001 0.0007 6.6879 0.0002 -6.5384
# 5 19.0952 4.7161 25.3389 0.0002 47.8931 0.0001
# 6 0.0001 0.0000 0.0004 -6.5384 0.0001 7.4222
#
#
#
# Elastic Compliance Matrix: (Units=1/GPa)
#
#
# Indices 1 2 3 4 5 6 
#
# 1 0.012902 0.000416 -0.000897 0.000000 -0.004711 0.000000
# 2 0.000416 0.020360 -0.000623 -0.000001 -0.001841 -0.000001
# 3 -0.000897 -0.000623 0.010217 -0.000011 -0.004986 -0.000010
# 4 0.000000 -0.000001 -0.000011 1.077521 0.000000 0.949212
# 5 -0.004711 -0.001841 -0.004986 0.000000 0.025577 0.000000
# 6 0.000000 -0.000001 -0.000010 0.949212 0.000000 0.970912
#
#
# Mechanical properties :
#
#
# Convention : Reuss Voigt Hill
#
# Bulk Modulus (GPa) = 24.23016 32.53991 28.38503
# Shear Modulus (GPa) = 2.34362 27.37741 14.86052
#
# Velocity S-wave (km/s) = 0.98810 3.37718 2.48814
# Velocity P-wave (km/s) = 3.37580 5.36313 4.48103
#
# Compressibility (1/GPa) = 0.04127088
#
# Stress axis : x y z
#
# Youngs Moduli (GPa) = 77.50818 49.11496 97.87981
#
# Poissons Ratio (x) = -0.02043 0.08776
# Poissons Ratio (y) = -0.03224 0.06101
# Poissons Ratio (z) = 0.06950 0.03061
#
# Static dielectric constant tensor:
#      x y z
#    x 1.991590 0.000000 0.000950 
#    y 0.000000 1.991890 0.000000 
#    z 0.000950 0.000000 2.086970 
# 
# From -- ./inp_files/133963.got.cif
#   From: 2010.05.17/outbox.cif.g08.bks.cpg/sg12_67_cif.got.tgz:133963.got - 2010.06.03 13:09:07.
