data_PCOD9208500
_publ_section_title
;
Structure prediction by ZEFSAII (Michael W. Deem and Ramdas Pophale) SiO2 
 PCOD9208500
Probable space group: C 2/M
;
_chemical_formula_sum "Si O2"
_cell_formula_units_Z 56
_cell_length_a 26.053697
_cell_length_b 8.672955
_cell_length_c 19.643210
_cell_angle_alpha 90.000000
_cell_angle_beta 131.755369
_cell_angle_gamma 90.000000
_cell_volume 3311.195417
_symmetry_space_group_name_H-M "C 2/M"
_symmetry_group_IT_number 12
_symmetry_cell_setting 'monoclinic'
loop_
_space_group_symop_operation_xyz
x,y,z
-x,y,-z
-x,-y,-z
x,-y,z
1/2+x,1/2+y,z
1/2-x,1/2+y,-z
1/2-x,1/2-y,-z
1/2+x,1/2-y,z
loop_
_atom_site_type_symbol
_atom_site_label
_atom_site_fract_x
_atom_site_fract_y
_atom_site_fract_z
Si Si1 0.606086 0.815930 0.595863
Si Si2 0.763878 0.815475 0.219032
Si Si3 0.395484 0.815077 0.902040
Si Si4 0.995589 0.184340 0.103499
Si Si5 0.200083 0.684979 0.897777
Si Si6 0.539545 0.184882 0.781095
Si Si7 0.507583 0.684253 0.401257
O O1 0.682046 0.761204 0.681997
O O2 0.575355 0.744780 0.499685
O O3 0.555934 0.754097 0.611455
O O4 0.601576 0.000000 0.589800
O O5 0.685100 0.778937 0.167645
O O6 0.780248 0.755214 0.157751
O O7 0.772645 0.000000 0.228059
O O8 0.436076 0.745437 0.873844
O O9 0.403974 0.000000 0.909932
O O10 0.432931 0.747247 0.001773
O O11 0.987470 0.248861 0.171886
O O12 0.994766 0.000000 0.102386
O O13 0.206303 0.500000 0.900200
O O14 0.120696 0.722685 0.844608
O O15 0.250000 0.750000 0.000000
O O16 0.500259 0.256823 0.682180
O O17 0.532974 0.000000 0.774207
O O18 0.504465 0.500000 0.401850
#
# Coordination Sequence:
#
# PCOD9208500 Si02
#       7
#     8   8   8   8   8   8   8
#     4  11  21  35  55  80 112 147 182 223 275 330
#     4  11  22  36  56  81 110 144 185 228 274 327
#     4  10  21  38  58  80 109 147 187 231 278 325
#     4  11  22  36  57  83 109 144 189 234 274 323
#     4  11  23  35  51  76 111 148 181 220 272 331
#     4  11  22  37  55  79 111 148 184 224 277 331
#     4  11  21  35  56  81 110 144 185 229 270 323
#
# _framework density 16.912320000000001
#
# number of rings (size 3 to 8) (size 9 to 14) (size 15 to 20)
#    0.000    1.143    1.429    8.143    0.000    7.429 
#    0.000    0.000    0.000    0.857    0.000    0.000 
#    0.000    0.000    0.000    0.000    0.000    0.000 
#
# Total GULP energy -156548.431876 kJ/mol
# GULP energy per Si atom -5591.015424 kJ/mol
# Density = 1.687383 g / cm^3
# Si number density = 16.912320 Si / 1000 Ang^3
#
#
#
# Elastic Constant Matrix: (Units=GPa)
#
#
# Indices 1 2 3 4 5 6 
#
# 1 102.2421 61.9185 91.6734 0.0000 -9.1347 0.0000
# 2 61.9185 119.7130 71.3716 0.0000 -4.5567 0.0000
# 3 91.6734 71.3716 157.9338 0.0000 -10.7446 0.0000
# 4 0.0000 0.0000 0.0000 39.5517 0.0000 4.6784
# 5 -9.1347 -4.5567 -10.7446 0.0000 19.5273 0.0000
# 6 0.0000 0.0000 0.0000 4.6784 0.0000 34.4721
#
#
#
# Elastic Compliance Matrix: (Units=1/GPa)
#
#
# Indices 1 2 3 4 5 6 
#
# 1 0.022852 -0.005366 -0.010594 0.000000 0.003608 0.000000
# 2 -0.005366 0.012695 -0.002692 0.000000 -0.001029 0.000000
# 3 -0.010594 -0.002692 0.013836 0.000000 0.002029 0.000000
# 4 0.000000 0.000000 0.000000 0.025696 0.000000 -0.003487
# 5 0.003608 -0.001029 0.002029 0.000000 0.053775 0.000000
# 6 0.000000 0.000000 0.000000 -0.003487 0.000000 0.029482
#
#
# Mechanical properties :
#
#
# Convention : Reuss Voigt Hill
#
# Bulk Modulus (GPa) = 82.79631 92.20175 87.49903
# Shear Modulus (GPa) = 25.04202 29.03858 27.04030
#
# Velocity S-wave (km/s) = 3.85216 4.14817 4.00290
# Velocity P-wave (km/s) = 8.29747 8.80789 8.55649
#
# Compressibility (1/GPa) = 0.01207783
#
# Stress axis : x y z
#
# Youngs Moduli (GPa) = 43.76053 78.77368 72.27740
#
# Poissons Ratio (x) = 0.42271 0.76570
# Poissons Ratio (y) = 0.23483 0.19457
# Poissons Ratio (z) = 0.46359 0.21206
#
# Static dielectric constant tensor:
#      x y z
#    x 1.549360 0.000000 0.009670 
#    y 0.000000 1.563600 0.000000 
#    z 0.009670 0.000000 1.559260 
# 
# From -- ./inp_files/291967.got.cif
#   From: 2010.05.17/outbox.cif.g08.bks.cpg/sg12_146_cif.got.tgz:291967.got - 2010.06.03 13:09:07.
