data_PCOD9208207
_publ_section_title
;
Structure prediction by ZEFSAII (Michael W. Deem and Ramdas Pophale) SiO2 
 PCOD9208207
Probable space group: C 2/M
;
_chemical_formula_sum "Si O2"
_cell_formula_units_Z 64
_cell_length_a 17.160174
_cell_length_b 15.955697
_cell_length_c 22.871854
_cell_angle_alpha 90.000000
_cell_angle_beta 33.457593
_cell_angle_gamma 90.000000
_cell_volume 3452.568485
_symmetry_space_group_name_H-M "C 2/M"
_symmetry_group_IT_number 12
_symmetry_cell_setting 'monoclinic'
loop_
_space_group_symop_operation_xyz
x,y,z
-x,y,-z
-x,-y,-z
x,-y,z
1/2+x,1/2+y,z
1/2-x,1/2+y,-z
1/2-x,1/2-y,-z
1/2+x,1/2-y,z
loop_
_atom_site_type_symbol
_atom_site_label
_atom_site_fract_x
_atom_site_fract_y
_atom_site_fract_z
Si Si1 0.477922 0.213069 0.296243
Si Si2 0.535097 0.900015 0.364001
Si Si3 0.179883 0.266938 0.446505
Si Si4 0.204505 0.794494 0.755652
Si Si5 0.536550 0.411287 0.545348
Si Si6 0.105807 0.407253 0.988265
Si Si7 0.582141 0.768571 0.100743
Si Si8 0.680646 0.657145 0.233117
O O1 0.491263 0.128099 0.325561
O O2 0.328084 0.260426 0.387245
O O3 0.529810 0.202662 0.197375
O O4 0.576682 0.276492 0.269092
O O5 0.424750 0.842676 0.470718
O O6 0.695336 0.867730 0.279611
O O7 0.522939 0.000000 0.380724
O O8 0.217835 0.272403 0.354106
O O9 0.113202 0.177125 0.503296
O O10 0.217780 0.716057 0.791533
O O11 0.036157 0.801191 0.845781
O O12 0.500000 0.414626 0.500000
O O13 0.610474 0.500000 0.513876
O O14 0.399569 0.402810 0.671861
O O15 0.098693 0.500000 0.017786
O O16 0.075346 0.340805 0.056853
O O17 0.251747 0.390385 0.863560
O O18 0.000000 0.401206 0.000000
O O19 0.750000 0.750000 0.000000
#
# Coordination Sequence:
#
# PCOD9208207 Si02
#       8
#     8   8   8   8   8   8   8   8
#     4  10  23  37  62  88 123 159 207 251 304 366
#     4  11  23  40  64  90 125 172 212 250 303 365
#     4  11  20  39  58  89 126 162 203 255 300 356
#     4  10  21  37  63  88 118 156 207 254 293 361
#     4  11  21  33  56  87 120 159 197 244 305 361
#     4  11  23  38  61  92 117 146 200 254 304 371
#     4  11  22  41  66  88 114 161 198 248 326 368
#     4  11  19  38  57  86 119 159 194 247 295 364
#
# _framework density 18.536923999999999
#
# number of rings (size 3 to 8) (size 9 to 14) (size 15 to 20)
#    0.000    1.250    6.250    1.125    0.000    2.000 
#    0.000    3.125    0.000    0.750    0.000    0.000 
#    0.000    0.000    0.000    0.000    0.000    0.000 
#
# Total GULP energy -178181.741556 kJ/mol
# GULP energy per Si atom -5568.179424 kJ/mol
# Density = 1.849473 g / cm^3
# Si number density = 18.536924 Si / 1000 Ang^3
#
#
#
# Elastic Constant Matrix: (Units=GPa)
#
#
# Indices 1 2 3 4 5 6 
#
# 1 90.3404 37.9093 39.1287 -0.0001 -7.6605 0.0000
# 2 37.9093 126.0067 41.8088 0.0015 -10.2228 0.0000
# 3 39.1287 41.8088 92.9209 0.0019 -0.5267 0.0000
# 4 -0.0001 0.0015 0.0019 86.5867 0.0001 16.0225
# 5 -7.6605 -10.2228 -0.5267 0.0001 41.7237 0.0000
# 6 0.0000 0.0000 0.0000 16.0225 0.0000 18.6897
#
#
#
# Elastic Compliance Matrix: (Units=1/GPa)
#
#
# Indices 1 2 3 4 5 6 
#
# 1 0.014438 -0.002552 -0.004920 0.000000 0.001963 0.000000
# 2 -0.002552 0.009992 -0.003411 0.000000 0.001937 0.000000
# 3 -0.004920 -0.003411 0.014359 0.000000 -0.001558 0.000000
# 4 0.000000 0.000000 0.000000 0.013727 0.000000 -0.011768
# 5 0.001963 0.001937 -0.001558 0.000000 0.024783 0.000000
# 6 0.000000 0.000000 0.000000 -0.011768 0.000000 0.063594
#
#
# Mechanical properties :
#
#
# Convention : Reuss Voigt Hill
#
# Bulk Modulus (GPa) = 58.73928 60.77350 59.75639
# Shear Modulus (GPa) = 29.70308 42.09479 35.89893
#
# Velocity S-wave (km/s) = 4.00731 4.77053 4.40548
# Velocity P-wave (km/s) = 7.29163 7.94985 7.62785
#
# Compressibility (1/GPa) = 0.01702438
#
# Stress axis : x y z
#
# Youngs Moduli (GPa) = 69.26331 100.07507 69.64032
#
# Poissons Ratio (x) = 0.25536 0.34266
# Poissons Ratio (y) = 0.17674 0.23751
# Poissons Ratio (z) = 0.34080 0.34131
#
# Static dielectric constant tensor:
#      x y z
#    x 1.679060 0.000000 -0.037640 
#    y 0.000000 1.648730 0.000000 
#    z -0.037640 0.000000 1.776840 
# 
# From -- ./inp_files/343992.got.cif
#   From: 2010.05.17/outbox.cif.g08.bks.cpg/sg12_172_cif.got.tgz:343992.got - 2010.06.03 13:09:07.
