data_PCOD9208763
_publ_section_title
;
Structure prediction by ZEFSAII (Michael W. Deem and Ramdas Pophale) SiO2 
 PCOD9208763
Probable space group: C 2/M
;
_chemical_formula_sum "Si O2"
_cell_formula_units_Z 64
_cell_length_a 15.304198
_cell_length_b 19.550118
_cell_length_c 11.440556
_cell_angle_alpha 90.000000
_cell_angle_beta 108.032023
_cell_angle_gamma 90.000000
_cell_volume 3254.876186
_symmetry_space_group_name_H-M "C 2/M"
_symmetry_group_IT_number 12
_symmetry_cell_setting 'monoclinic'
loop_
_space_group_symop_operation_xyz
x,y,z
-x,y,-z
-x,-y,-z
x,-y,z
1/2+x,1/2+y,z
1/2-x,1/2+y,-z
1/2-x,1/2-y,-z
1/2+x,1/2-y,z
loop_
_atom_site_type_symbol
_atom_site_label
_atom_site_fract_x
_atom_site_fract_y
_atom_site_fract_z
Si Si1 0.261979 0.074390 0.143048
Si Si2 0.669083 0.077964 0.296743
Si Si3 0.135174 0.802796 0.143371
Si Si4 0.243556 0.282428 0.370419
Si Si5 0.935600 0.195859 0.142075
Si Si6 0.434543 0.222650 0.368574
Si Si7 0.036855 0.577890 0.705638
Si Si8 0.693600 0.574959 0.851266
O O1 0.211949 0.137950 0.182735
O O2 0.371530 0.080920 0.177861
O O3 0.243599 0.000000 0.192202
O O4 0.220665 0.073065 0.997257
O O5 0.723786 0.137810 0.383924
O O6 0.560030 0.088732 0.268608
O O7 0.714079 0.084321 0.186515
O O8 0.687355 0.000000 0.343712
O O9 0.166802 0.744291 0.246642
O O10 0.035434 0.829520 0.141752
O O11 0.119952 0.782592 0.999580
O O12 0.250000 0.250000 0.500000
O O13 0.337231 0.257206 0.351257
O O14 0.955358 0.254973 0.244228
O O15 0.878650 0.136466 0.184124
O O16 0.500000 0.248116 0.500000
O O17 0.442099 0.140341 0.372747
O O18 0.033662 0.500000 0.655446
O O19 0.655172 0.500000 0.802153
#
# Coordination Sequence:
#
# PCOD9208763 Si02
#       8
#     8   8   8   8   8   8   8   8
#     4   9  18  34  57  90 128 163 207 255 307 370
#     4  10  21  39  61  87 124 168 209 250 307 375
#     4  10  21  38  61  90 125 164 208 258 313 368
#     4  12  24  42  65  92 126 163 209 265 318 374
#     4  10  21  38  61  91 124 162 209 259 310 373
#     4  12  24  41  64  92 124 163 208 262 319 371
#     4  10  21  38  59  87 125 164 207 254 305 370
#     4   9  18  34  59  89 124 169 208 249 308 371
#
# _framework density 19.662806
#
# number of rings (size 3 to 8) (size 9 to 14) (size 15 to 20)
#    0.000    1.750    2.500    2.250    0.000    2.750 
#    0.000    6.250    0.000    3.000    0.000    0.000 
#    0.000    0.000    0.000    0.000    0.000    0.000 
#
# Total GULP energy -178154.864053 kJ/mol
# GULP energy per Si atom -5567.339502 kJ/mol
# Density = 1.961805 g / cm^3
# Si number density = 19.662806 Si / 1000 Ang^3
#
#
#
# Elastic Constant Matrix: (Units=GPa)
#
#
# Indices 1 2 3 4 5 6 
#
# 1 110.9838 50.3113 17.5680 0.0000 10.3081 0.0000
# 2 50.3113 126.9658 39.2523 0.0000 6.2206 0.0000
# 3 17.5680 39.2523 68.4105 0.0000 3.2368 0.0000
# 4 0.0000 0.0000 0.0000 15.7036 0.0000 2.1384
# 5 10.3081 6.2206 3.2368 0.0000 21.8147 0.0000
# 6 0.0000 0.0000 0.0000 2.1384 0.0000 23.0034
#
#
#
# Elastic Compliance Matrix: (Units=1/GPa)
#
#
# Indices 1 2 3 4 5 6 
#
# 1 0.011345 -0.004198 -0.000310 0.000000 -0.004118 0.000000
# 2 -0.004198 0.011209 -0.005334 0.000000 -0.000421 0.000000
# 3 -0.000310 -0.005334 0.017804 0.000000 -0.000974 0.000000
# 4 0.000000 0.000000 0.000000 0.064496 0.000000 -0.005996
# 5 -0.004118 -0.000421 -0.000974 0.000000 0.048051 0.000000
# 6 0.000000 0.000000 0.000000 -0.005996 0.000000 0.044029
#
#
# Mechanical properties :
#
#
# Convention : Reuss Voigt Hill
#
# Bulk Modulus (GPa) = 48.36805 57.84705 53.10755
# Shear Modulus (GPa) = 22.37051 25.38623 23.87837
#
# Velocity S-wave (km/s) = 3.37665 3.59706 3.48859
# Velocity P-wave (km/s) = 6.31304 6.83631 6.57988
#
# Compressibility (1/GPa) = 0.02067481
#
# Stress axis : x y z
#
# Youngs Moduli (GPa) = 88.14578 89.21272 56.16839
#
# Poissons Ratio (x) = 0.37451 0.01741
# Poissons Ratio (y) = 0.37003 0.29958
# Poissons Ratio (z) = 0.02731 0.47582
#
# Static dielectric constant tensor:
#      x y z
#    x 1.715850 0.000000 -0.046190 
#    y 0.000000 1.760060 0.000000 
#    z -0.046190 0.000000 1.744670 
# 
# From -- ./inp_files/147672.got.cif
#   From: 2010.05.17/outbox.cif.g08.bks.cpg/sg12_74_cif.got.tgz:147672.got - 2010.06.03 13:09:07.
