data_PCOD9208627
_publ_section_title
;
Structure prediction by ZEFSAII (Michael W. Deem and Ramdas Pophale) SiO2 
 PCOD9208627
Probable space group: C 2/M
;
_chemical_formula_sum "Si O2"
_cell_formula_units_Z 48
_cell_length_a 29.465195
_cell_length_b 9.224380
_cell_length_c 8.181516
_cell_angle_alpha 90.000000
_cell_angle_beta 100.314269
_cell_angle_gamma 90.000000
_cell_volume 2187.786691
_symmetry_space_group_name_H-M "C 2/M"
_symmetry_group_IT_number 12
_symmetry_cell_setting 'monoclinic'
loop_
_space_group_symop_operation_xyz
x,y,z
-x,y,-z
-x,-y,-z
x,-y,z
1/2+x,1/2+y,z
1/2-x,1/2+y,-z
1/2-x,1/2-y,-z
1/2+x,1/2-y,z
loop_
_atom_site_type_symbol
_atom_site_label
_atom_site_fract_x
_atom_site_fract_y
_atom_site_fract_z
Si Si1 0.559490 0.666859 0.672054
Si Si2 0.147454 0.165576 0.918983
Si Si3 0.106876 0.328366 0.407304
Si Si4 0.188141 0.829388 0.309140
Si Si5 0.273565 0.826482 0.171808
Si Si6 0.971025 0.828494 0.820001
O O1 0.562562 0.500000 0.614292
O O2 0.593197 0.676754 0.851450
O O3 0.581603 0.770132 0.552651
O O4 0.507651 0.693393 0.696259
O O5 0.174668 0.270255 0.813149
O O6 0.161107 0.000000 0.887144
O O7 0.163160 0.189066 0.115123
O O8 0.109246 0.500000 0.406173
O O9 0.157641 0.261897 0.413653
O O10 0.073639 0.266336 0.243156
O O11 0.241127 0.787065 0.304434
O O12 0.186372 0.000000 0.350219
O O13 0.271677 0.000000 0.155380
O O14 0.250000 0.750000 0.000000
O O15 0.958880 0.000000 0.819113
O O16 0.000000 0.792694 0.000000
#
# Coordination Sequence:
#
# PCOD9208627 Si02
#       6
#     8   8   8   8   8   8
#     4  10  21  38  59  81 109 147 183 217 266 328
#     4   9  18  34  58  85 109 138 182 232 275 319
#     4  12  25  37  53  81 115 147 180 223 273 320
#     4   9  18  35  57  80 108 144 187 227 266 322
#     4   9  17  30  52  81 111 143 180 225 274 322
#     4  10  21  40  65  86 105 137 182 224 265 323
#
# _framework density 21.939982000000001
#
# number of rings (size 3 to 8) (size 9 to 14) (size 15 to 20)
#    0.000    2.167    0.000    4.500    0.000    9.667 
#    0.000    2.500    0.000    0.000    0.000    0.000 
#    0.000    0.000    0.000    0.000    0.000    0.000 
#
# Total GULP energy -134117.608697 kJ/mol
# GULP energy per Si atom -5588.233696 kJ/mol
# Density = 2.189005 g / cm^3
# Si number density = 21.939982 Si / 1000 Ang^3
#
#
#
# Elastic Constant Matrix: (Units=GPa)
#
#
# Indices 1 2 3 4 5 6 
#
# 1 99.0751 42.1962 -6.9470 0.0000 -19.5077 0.0000
# 2 42.1962 76.0947 18.7598 0.0000 -32.7510 0.0000
# 3 -6.9470 18.7598 54.5446 0.0000 -13.0621 0.0000
# 4 0.0000 0.0000 0.0000 5.1937 0.0000 2.6882
# 5 -19.5077 -32.7510 -13.0621 0.0000 34.0237 0.0000
# 6 0.0000 0.0000 0.0000 2.6882 0.0000 26.5968
#
#
#
# Elastic Compliance Matrix: (Units=1/GPa)
#
#
# Indices 1 2 3 4 5 6 
#
# 1 0.014460 -0.008327 0.005255 0.000000 0.002292 0.000000
# 2 -0.008327 0.027628 -0.005878 0.000000 0.019564 0.000000
# 3 0.005255 -0.005878 0.022455 0.000000 0.005976 0.000000
# 4 0.000000 0.000000 0.000000 0.203171 0.000000 -0.020535
# 5 0.002292 0.019564 0.005976 0.000000 0.051832 0.000000
# 6 0.000000 0.000000 0.000000 -0.020535 0.000000 0.039674
#
#
# Mechanical properties :
#
#
# Convention : Reuss Voigt Hill
#
# Bulk Modulus (GPa) = 21.43948 37.52581 29.48265
# Shear Modulus (GPa) = 12.73337 24.87652 18.80494
#
# Velocity S-wave (km/s) = 2.41171 3.37091 2.93082
# Velocity P-wave (km/s) = 4.18906 5.68258 4.99199
#
# Compressibility (1/GPa) = 0.04664293
#
# Stress axis : x y z
#
# Youngs Moduli (GPa) = 69.15816 36.19463 44.53253
#
# Poissons Ratio (x) = 0.30139 -0.23400
# Poissons Ratio (y) = 0.57588 0.26176
# Poissons Ratio (z) = -0.36339 0.21275
#
# Static dielectric constant tensor:
#      x y z
#    x 1.824500 0.000000 0.014370 
#    y 0.000000 1.724580 0.000000 
#    z 0.014370 0.000000 1.860420 
# 
# From -- ./inp_files/108743.got.cif
#   From: 2010.05.17/outbox.cif.g08.bks.cpg/sg12_55_cif.got.tgz:108743.got - 2010.06.03 13:09:07.
