data_PCOD9208932
_publ_section_title
;
Structure prediction by ZEFSAII (Michael W. Deem and Ramdas Pophale) SiO2 
 PCOD9208932
Probable space group: C 2/M
;
_chemical_formula_sum "Si O2"
_cell_formula_units_Z 40
_cell_length_a 10.163081
_cell_length_b 15.882957
_cell_length_c 14.110423
_cell_angle_alpha 90.000000
_cell_angle_beta 80.686316
_cell_angle_gamma 90.000000
_cell_volume 2247.674629
_symmetry_space_group_name_H-M "C 2/M"
_symmetry_group_IT_number 12
_symmetry_cell_setting 'monoclinic'
loop_
_space_group_symop_operation_xyz
x,y,z
-x,y,-z
-x,-y,-z
x,-y,z
1/2+x,1/2+y,z
1/2-x,1/2+y,-z
1/2-x,1/2-y,-z
1/2+x,1/2-y,z
loop_
_atom_site_type_symbol
_atom_site_label
_atom_site_fract_x
_atom_site_fract_y
_atom_site_fract_z
Si Si1 0.577149 0.094922 0.313835
Si Si2 0.625885 0.171873 0.110163
Si Si3 0.360610 0.744822 0.567820
Si Si4 0.735586 0.906453 0.694048
Si Si5 0.819677 0.668847 0.104673
O O1 0.628947 0.112183 0.201039
O O2 0.630926 0.168092 0.374946
O O3 0.415934 0.101951 0.327467
O O4 0.610751 0.000000 0.340350
O O5 0.719114 0.252508 0.116684
O O6 0.470389 0.197010 0.114396
O O7 0.671389 0.134370 0.003597
O O8 0.500000 0.730164 0.500000
O O9 0.250000 0.750000 0.500000
O O10 0.322970 0.668282 0.641413
O O11 0.724347 0.894743 0.808551
O O12 0.784222 0.000000 0.664757
#
# Coordination Sequence:
#
# PCOD9208932 Si02
#       5
#     8   8   8   8   8
#     4  10  21  38  61  87 115 149 190 231 282 344
#     4   9  17  31  56  86 114 147 184 225 272 335
#     4  12  24  40  62  83 111 148 194 244 287 332
#     4  10  21  38  60  87 117 148 188 234 284 337
#     4   9  17  31  56  85 115 148 183 223 276 333
#
# _framework density 17.79617
#
# number of rings (size 3 to 8) (size 9 to 14) (size 15 to 20)
#    0.000    2.000    4.000    0.000    0.000    2.400 
#    0.000    4.000    0.000    0.000    0.000    5.600 
#    0.000    0.000    0.000    0.000    0.000    0.000 
#
# Total GULP energy -111527.542481 kJ/mol
# GULP energy per Si atom -5576.377124 kJ/mol
# Density = 1.775566 g / cm^3
# Si number density = 17.796170 Si / 1000 Ang^3
#
#
#
# Elastic Constant Matrix: (Units=GPa)
#
#
# Indices 1 2 3 4 5 6 
#
# 1 64.1878 44.6034 46.6491 0.0000 -6.0189 0.0000
# 2 44.6034 147.9083 73.2300 0.0000 -5.4125 0.0000
# 3 46.6491 73.2300 107.4186 0.0000 -4.3858 0.0000
# 4 0.0000 0.0000 0.0000 1.7913 0.0000 4.6940
# 5 -6.0189 -5.4125 -4.3858 0.0000 28.7872 0.0000
# 6 0.0000 0.0000 0.0000 4.6940 0.0000 22.2384
#
#
#
# Elastic Compliance Matrix: (Units=1/GPa)
#
#
# Indices 1 2 3 4 5 6 
#
# 1 0.023951 -0.003050 -0.008192 0.000000 0.003186 0.000000
# 2 -0.003050 0.010615 -0.005893 0.000000 0.000460 0.000000
# 3 -0.008192 -0.005893 0.016874 0.000000 -0.000250 0.000000
# 4 0.000000 0.000000 0.000000 1.249166 0.000000 -0.263669
# 5 0.003186 0.000460 -0.000250 0.000000 0.035452 0.000000
# 6 0.000000 0.000000 0.000000 -0.263669 0.000000 0.100622
#
#
# Mechanical properties :
#
#
# Convention : Reuss Voigt Hill
#
# Bulk Modulus (GPa) = 58.24129 72.05329 65.14729
# Shear Modulus (GPa) = 3.38598 20.89887 12.14243
#
# Velocity S-wave (km/s) = 1.38086 3.43059 2.61493
# Velocity P-wave (km/s) = 5.94477 7.50120 6.76787
#
# Compressibility (1/GPa) = 0.01716995
#
# Stress axis : x y z
#
# Youngs Moduli (GPa) = 41.75168 94.20202 59.26182
#
# Poissons Ratio (x) = 0.28735 0.48546
# Poissons Ratio (y) = 0.12736 0.34925
# Poissons Ratio (z) = 0.34202 0.55517
#
# Static dielectric constant tensor:
#      x y z
#    x 1.583900 0.000000 -0.000720 
#    y 0.000000 1.586000 0.000000 
#    z -0.000720 0.000000 1.635940 
# 
# From -- ./inp_files/129300.got.cif
#   From: 2010.05.17/outbox.cif.g08.bks.cpg/sg12_65_cif.got.tgz:129300.got - 2010.06.03 13:09:07.
