data_PCOD9208555
_publ_section_title
;
Structure prediction by ZEFSAII (Michael W. Deem and Ramdas Pophale) SiO2 
 PCOD9208555
Probable space group: C 2/M
;
_chemical_formula_sum "Si O2"
_cell_formula_units_Z 50
_cell_length_a 18.392395
_cell_length_b 7.467574
_cell_length_c 18.225692
_cell_angle_alpha 90.000000
_cell_angle_beta 56.745147
_cell_angle_gamma 90.000000
_cell_volume 2093.305598
_symmetry_space_group_name_H-M "C 2/M"
_symmetry_group_IT_number 12
_symmetry_cell_setting 'monoclinic'
loop_
_space_group_symop_operation_xyz
x,y,z
-x,y,-z
-x,-y,-z
x,-y,z
1/2+x,1/2+y,z
1/2-x,1/2+y,-z
1/2-x,1/2-y,-z
1/2+x,1/2-y,z
loop_
_atom_site_type_symbol
_atom_site_label
_atom_site_fract_x
_atom_site_fract_y
_atom_site_fract_z
Si Si1 0.500000 0.500000 0.500000
Si Si2 0.094853 0.216570 0.705062
Si Si3 0.090664 0.782643 0.132316
Si Si4 0.717437 0.211737 0.354681
Si Si5 0.904389 0.707416 0.037969
Si Si6 0.928261 0.291734 0.452002
Si Si7 0.779282 0.215302 0.811689
O O1 0.503054 0.657865 0.434906
O O2 0.184871 0.282959 0.689681
O O3 0.092445 0.271931 0.621650
O O4 0.007124 0.276479 0.793631
O O5 0.094313 0.000000 0.708213
O O6 0.113758 0.716625 0.038730
O O7 0.156978 0.722038 0.158952
O O8 0.092101 0.000000 0.129705
O O9 0.651883 0.280421 0.453270
O O10 0.689411 0.240643 0.286957
O O11 0.720797 0.000000 0.366484
O O12 0.909812 0.500000 0.058724
O O13 0.819300 0.786068 0.123997
O O14 0.000000 0.787794 0.000000
O O15 0.945819 0.500000 0.457832
O O16 0.775885 0.000000 0.820166
#
# Coordination Sequence:
#
# PCOD9208555 Si02
#       7
#     2   8   8   8   8   8   8
#     4  12  26  44  68  94 136 172 204 288 324 366
#     4  10  21  41  63  90 128 169 209 268 329 378
#     4  10  22  37  60  88 118 159 207 255 321 387
#     4  10  23  40  62  93 125 163 215 264 315 391
#     4  10  21  38  58  84 119 159 204 258 314 379
#     4  11  25  42  67  98 129 173 222 260 324 391
#     4  10  22  37  58  87 121 161 207 257 324 387
#
# _framework density 23.885667999999999
#
# number of rings (size 3 to 8) (size 9 to 14) (size 15 to 20)
#    0.000    1.760    0.800    2.160    3.360    2.880 
#    0.000    0.000    0.000    0.000    0.000    0.000 
#    0.000    0.000    0.000    0.000    0.000    0.000 
#
# Total GULP energy -139636.992878 kJ/mol
# GULP energy per Si atom -5585.479715 kJ/mol
# Density = 2.383130 g / cm^3
# Si number density = 23.885668 Si / 1000 Ang^3
#
#
#
# Elastic Constant Matrix: (Units=GPa)
#
#
# Indices 1 2 3 4 5 6 
#
# 1 46.0253 1.4503 0.6829 0.0001 -3.8269 0.0006
# 2 1.4503 97.4142 -9.8498 0.0000 -11.1514 0.0016
# 3 0.6829 -9.8498 118.1472 0.0002 -12.9027 0.0000
# 4 0.0001 0.0000 0.0002 17.8907 -0.0001 22.4656
# 5 -3.8269 -11.1514 -12.9027 -0.0001 50.2272 0.0000
# 6 0.0006 0.0016 0.0000 22.4656 0.0000 -15.0943
#
#
#
# Elastic Compliance Matrix: (Units=1/GPa)
#
#
# Indices 1 2 3 4 5 6 
#
# 1 0.021868 -0.000133 0.000042 0.000000 0.001648 0.000000
# 2 -0.000133 0.010692 0.001184 0.000000 0.002668 0.000000
# 3 0.000042 0.001184 0.008839 0.000000 0.002537 0.000000
# 4 0.000000 0.000000 0.000000 0.019483 0.000000 0.028997
# 5 0.001648 0.002668 0.002537 0.000000 0.021279 0.000000
# 6 0.000000 0.000000 0.000000 0.028997 0.000000 -0.023092
#
#
# Mechanical properties :
#
#
# Convention : Reuss Voigt Hill
#
# Bulk Modulus (GPa) = 22.94292 27.35038 25.14665
# Shear Modulus (GPa) = 70.01673 28.55825 49.28749
#
# Velocity S-wave (km/s) = 5.42005 3.46153 4.54748
# Velocity P-wave (km/s) = 6.98537 5.23943 6.17442
#
# Compressibility (1/GPa) = 0.04358644
#
# Stress axis : x y z
#
# Youngs Moduli (GPa) = 45.72945 93.52353 113.12886
#
# Poissons Ratio (x) = 0.01241 -0.00481
# Poissons Ratio (y) = 0.00607 -0.13389
# Poissons Ratio (z) = -0.00194 -0.11069
#
# Static dielectric constant tensor:
#      x y z
#    x 1.981100 0.000000 -0.075450 
#    y 0.000000 1.905830 0.000000 
#    z -0.075450 0.000000 1.878610 
# 
# From -- ./inp_files/274940.got.cif
#   From: 2010.05.17/outbox.cif.g08.bks.cpg/sg12_138_cif.got.tgz:274940.got - 2010.06.03 13:09:07.
