data_PCOD9208208
_publ_section_title
;
Structure prediction by ZEFSAII (Michael W. Deem and Ramdas Pophale) SiO2 
 PCOD9208208
Probable space group: C 2/M
;
_chemical_formula_sum "Si O2"
_cell_formula_units_Z 56
_cell_length_a 9.749562
_cell_length_b 25.469928
_cell_length_c 14.357507
_cell_angle_alpha 90.000000
_cell_angle_beta 60.837607
_cell_angle_gamma 90.000000
_cell_volume 3113.339822
_symmetry_space_group_name_H-M "C 2/M"
_symmetry_group_IT_number 12
_symmetry_cell_setting 'monoclinic'
loop_
_space_group_symop_operation_xyz
x,y,z
-x,y,-z
-x,-y,-z
x,-y,z
1/2+x,1/2+y,z
1/2-x,1/2+y,-z
1/2-x,1/2-y,-z
1/2+x,1/2-y,z
loop_
_atom_site_type_symbol
_atom_site_label
_atom_site_fract_x
_atom_site_fract_y
_atom_site_fract_z
Si Si1 0.955105 0.561358 0.752511
Si Si2 0.135046 0.799906 0.530984
Si Si3 0.836560 0.060410 0.282523
Si Si4 0.067920 0.756993 0.077844
Si Si5 0.936526 0.154959 0.768487
Si Si6 0.143645 0.395975 0.517416
Si Si7 0.936623 0.643671 0.127481
O O1 0.962607 0.500000 0.776983
O O2 0.784862 0.571830 0.761654
O O3 0.073057 0.571917 0.626857
O O4 0.997116 0.600172 0.823234
O O5 0.250000 0.750000 0.500000
O O6 0.249434 0.849647 0.476933
O O7 0.000000 0.790981 0.500000
O O8 0.035743 0.816881 0.654372
O O9 0.743805 0.070006 0.410665
O O10 0.980092 0.100250 0.235823
O O11 0.884071 0.000000 0.260585
O O12 0.045855 0.805051 0.152933
O O13 0.995461 0.701962 0.136483
O O14 0.250000 0.750000 0.000000
O O15 0.000000 0.768962 0.000000
O O16 0.752906 0.145605 0.808209
O O17 0.000000 0.374761 0.500000
O O18 0.000000 0.635580 0.000000
#
# Coordination Sequence:
#
# PCOD9208208 Si02
#       7
#     8   8   8   8   8   8   8
#     4  10  21  37  63  89 117 159 198 242 295 347
#     4  11  24  37  53  86 125 157 192 234 292 356
#     4   9  20  38  61  91 120 151 197 241 289 352
#     4  11  23  42  64  88 114 152 203 251 296 350
#     4  11  24  39  63  88 117 160 195 244 299 349
#     4   9  18  37  59  85 117 155 195 238 284 349
#     4  11  24  42  60  87 117 153 201 250 297 348
#
# _framework density 17.987113999999998
#
# number of rings (size 3 to 8) (size 9 to 14) (size 15 to 20)
#    0.000    1.714    2.857    1.714    6.000    2.571 
#    0.000    0.000    0.000    6.857    0.000    0.000 
#    0.000    0.000    0.000    0.000    0.000    0.000 
#
# Total GULP energy -156213.352691 kJ/mol
# GULP energy per Si atom -5579.048310 kJ/mol
# Density = 1.794617 g / cm^3
# Si number density = 17.987114 Si / 1000 Ang^3
#
#
#
# Elastic Constant Matrix: (Units=GPa)
#
#
# Indices 1 2 3 4 5 6 
#
# 1 152.1565 96.4940 47.4472 0.0000 -6.5723 0.0000
# 2 96.4940 145.4299 54.3433 0.0000 3.8625 0.0000
# 3 47.4472 54.3433 54.9373 0.0000 -2.3838 0.0000
# 4 0.0000 0.0000 0.0000 27.0338 0.0000 7.5256
# 5 -6.5723 3.8625 -2.3838 0.0000 33.6508 0.0000
# 6 0.0000 0.0000 0.0000 7.5256 0.0000 31.1606
#
#
#
# Elastic Compliance Matrix: (Units=1/GPa)
#
#
# Indices 1 2 3 4 5 6 
#
# 1 0.012119 -0.006747 -0.003668 0.000000 0.002882 0.000000
# 2 -0.006747 0.014804 -0.008975 0.000000 -0.003653 0.000000
# 3 -0.003668 -0.008975 0.030355 0.000000 0.002464 0.000000
# 4 0.000000 0.000000 0.000000 0.039657 0.000000 -0.009578
# 5 0.002882 -0.003653 0.002464 0.000000 0.030874 0.000000
# 6 0.000000 0.000000 0.000000 -0.009578 0.000000 0.034405
#
#
# Mechanical properties :
#
#
# Convention : Reuss Voigt Hill
#
# Bulk Modulus (GPa) = 54.05850 83.23254 68.64552
# Shear Modulus (GPa) = 24.13610 28.65166 26.39388
#
# Velocity S-wave (km/s) = 3.66711 3.99544 3.83479
# Velocity P-wave (km/s) = 6.93177 8.22549 7.60619
#
# Compressibility (1/GPa) = 0.01849848
#
# Stress axis : x y z
#
# Youngs Moduli (GPa) = 82.51298 67.55059 32.94377
#
# Poissons Ratio (x) = 0.45579 0.12082
# Poissons Ratio (y) = 0.55674 0.29566
# Poissons Ratio (z) = 0.30262 0.60625
#
# Static dielectric constant tensor:
#      x y z
#    x 1.598460 0.000000 0.007430 
#    y 0.000000 1.590810 0.000000 
#    z 0.007430 0.000000 1.581680 
# 
# From -- ./inp_files/124275.got.cif
#   From: 2010.05.17/outbox.cif.g08.bks.cpg/sg12_63_cif.got.tgz:124275.got - 2010.06.03 13:09:07.
