data_PCOD9208758
_publ_section_title
;
Structure prediction by ZEFSAII (Michael W. Deem and Ramdas Pophale) SiO2 
 PCOD9208758
Probable space group: C 2/M
;
_chemical_formula_sum "Si O2"
_cell_formula_units_Z 56
_cell_length_a 24.414523
_cell_length_b 14.979338
_cell_length_c 7.677668
_cell_angle_alpha 90.000000
_cell_angle_beta 112.922521
_cell_angle_gamma 90.000000
_cell_volume 2586.098680
_symmetry_space_group_name_H-M "C 2/M"
_symmetry_group_IT_number 12
_symmetry_cell_setting 'monoclinic'
loop_
_space_group_symop_operation_xyz
x,y,z
-x,y,-z
-x,-y,-z
x,-y,z
1/2+x,1/2+y,z
1/2-x,1/2+y,-z
1/2-x,1/2-y,-z
1/2+x,1/2-y,z
loop_
_atom_site_type_symbol
_atom_site_label
_atom_site_fract_x
_atom_site_fract_y
_atom_site_fract_z
Si Si1 0.601512 0.102351 0.832199
Si Si2 0.008742 0.706693 0.222780
Si Si3 0.699123 0.766630 0.796485
Si Si4 0.852765 0.901170 0.458222
Si Si5 0.885116 0.401235 0.735198
Si Si6 0.243456 0.402153 0.585422
Si Si7 0.014490 0.902840 0.225358
O O1 0.535252 0.140503 0.733914
O O2 0.650222 0.162762 0.800451
O O3 0.606235 0.000000 0.782358
O O4 0.611941 0.108719 0.053556
O O5 0.076695 0.673165 0.318987
O O6 0.991723 0.806772 0.259988
O O7 0.000000 0.702490 0.000000
O O8 0.664017 0.678159 0.693111
O O9 0.736103 0.815321 0.691413
O O10 0.750000 0.750000 0.000000
O O11 0.801424 0.897630 0.539529
O O12 0.915959 0.896262 0.636149
O O13 0.850377 0.000000 0.370944
O O14 0.910658 0.500000 0.725307
O O15 0.816592 0.401006 0.601237
O O16 0.244641 0.500000 0.679225
O O17 0.992752 0.000000 0.265806
O O18 0.000000 0.903792 0.000000
#
# Coordination Sequence:
#
# PCOD9208758 Si02
#       7
#     8   8   8   8   8   8   8
#     4  10  21  38  59  87 122 156 194 247 309 366
#     4   9  17  31  56  86 115 150 193 240 292 353
#     4  12  25  38  58  88 126 165 198 241 305 371
#     4  10  22  41  63  87 118 159 208 258 305 361
#     4   9  17  33  59  87 115 153 203 253 299 355
#     4  10  21  38  61  86 114 154 204 254 299 354
#     4   9  18  34  59  88 114 144 193 257 310 352
#
# _framework density 21.654240000000001
#
# number of rings (size 3 to 8) (size 9 to 14) (size 15 to 20)
#    0.000    2.143    0.000    3.000    0.000    7.429 
#    0.000    3.571    0.000    7.714    0.000    0.000 
#    0.000    0.000    0.000    0.000    0.000    0.000 
#
# Total GULP energy -156267.327309 kJ/mol
# GULP energy per Si atom -5580.975975 kJ/mol
# Density = 2.160495 g / cm^3
# Si number density = 21.654240 Si / 1000 Ang^3
#
#
#
# Elastic Constant Matrix: (Units=GPa)
#
#
# Indices 1 2 3 4 5 6 
#
# 1 62.2255 35.2900 9.8163 0.0000 8.5477 0.0000
# 2 35.2900 174.7152 46.0060 0.0000 -4.8787 0.0000
# 3 9.8163 46.0060 80.7484 0.0000 19.1139 0.0000
# 4 0.0000 0.0000 0.0000 -3.8704 0.0000 -8.4064
# 5 8.5477 -4.8787 19.1139 0.0000 16.3159 0.0000
# 6 0.0000 0.0000 0.0000 -8.4064 0.0000 32.8911
#
#
#
# Elastic Compliance Matrix: (Units=1/GPa)
#
#
# Indices 1 2 3 4 5 6 
#
# 1 0.021551 -0.006431 0.005772 0.000000 -0.019975 0.000000
# 2 -0.006431 0.009767 -0.008678 0.000000 0.016456 0.000000
# 3 0.005772 -0.008678 0.024847 0.000000 -0.034727 0.000000
# 4 0.000000 0.000000 0.000000 -0.166141 0.000000 -0.042463
# 5 -0.019975 0.016456 -0.034727 0.000000 0.117358 0.000000
# 6 0.000000 0.000000 0.000000 -0.042463 0.000000 0.019550
#
#
# Mechanical properties :
#
#
# Convention : Reuss Voigt Hill
#
# Bulk Modulus (GPa) = 26.67243 55.54595 41.10919
# Shear Modulus (GPa) = 86.05347 24.17245 55.11296
#
# Velocity S-wave (km/s) = 6.31079 3.34472 5.05041
# Velocity P-wave (km/s) = 8.08984 6.37363 7.28247
#
# Compressibility (1/GPa) = 0.03749189
#
# Stress axis : x y z
#
# Youngs Moduli (GPa) = 46.40153 102.38293 40.24595
#
# Poissons Ratio (x) = 0.65840 -0.23232
# Poissons Ratio (y) = 0.29840 0.34927
# Poissons Ratio (z) = -0.26785 0.88852
#
# Static dielectric constant tensor:
#      x y z
#    x 1.757580 0.000000 -0.022120 
#    y 0.000000 1.860500 0.000000 
#    z -0.022120 0.000000 1.982510 
# 
# From -- ./inp_files/104734.got.cif
#   From: 2010.05.17/outbox.cif.g08.bks.cpg/sg12_53_cif.got.tgz:104734.got - 2010.06.03 13:09:07.
