data_PCOD9208742
_publ_section_title
;
Structure prediction by ZEFSAII (Michael W. Deem and Ramdas Pophale) SiO2 
 PCOD9208742
Probable space group: C 2/M
;
_chemical_formula_sum "Si O2"
_cell_formula_units_Z 56
_cell_length_a 28.364304
_cell_length_b 13.222647
_cell_length_c 14.815470
_cell_angle_alpha 90.000000
_cell_angle_beta 153.339912
_cell_angle_gamma 90.000000
_cell_volume 2493.209191
_symmetry_space_group_name_H-M "C 2/M"
_symmetry_group_IT_number 12
_symmetry_cell_setting 'monoclinic'
loop_
_space_group_symop_operation_xyz
x,y,z
-x,y,-z
-x,-y,-z
x,-y,z
1/2+x,1/2+y,z
1/2-x,1/2+y,-z
1/2-x,1/2-y,-z
1/2+x,1/2-y,z
loop_
_atom_site_type_symbol
_atom_site_label
_atom_site_fract_x
_atom_site_fract_y
_atom_site_fract_z
Si Si1 0.992260 0.222209 0.081922
Si Si2 0.235521 0.120485 0.324438
Si Si3 0.097818 0.611558 0.733535
Si Si4 0.250105 0.308055 0.842544
Si Si5 0.195963 0.879683 0.653243
Si Si6 0.783901 0.120864 0.513859
Si Si7 0.024960 0.226518 0.753429
O O1 0.990192 0.277341 0.174025
O O2 0.093452 0.149341 0.263770
O O3 0.884558 0.158710 0.890587
O O4 0.000000 0.280193 0.000000
O O5 0.291304 0.152097 0.326032
O O6 0.271726 0.156388 0.487506
O O7 0.237722 0.000000 0.330309
O O8 0.127690 0.500000 0.819528
O O9 0.187303 0.657830 0.822110
O O10 0.055171 0.689902 0.733223
O O11 0.000000 0.599429 0.500000
O O12 0.246406 0.187164 0.818713
O O13 0.370236 0.341254 0.059116
O O14 0.245960 0.849796 0.640263
O O15 0.075159 0.841706 0.441502
O O16 0.202847 0.000000 0.676305
O O17 0.774465 0.000000 0.496964
#
# Coordination Sequence:
#
# PCOD9208742 Si02
#       7
#     8   8   8   8   8   8   8
#     4   8  14  26  50  82 114 148 185 230 284 339
#     4   9  16  27  48  81 116 150 191 236 279 331
#     4  11  23  41  62  81 110 151 194 242 293 342
#     4  11  22  37  59  87 118 149 194 242 287 347
#     4  10  21  38  59  86 121 156 190 237 294 348
#     4   8  14  26  47  77 114 152 187 227 281 339
#     4  10  21  39  61  86 116 152 195 237 285 349
#
# _framework density 22.461012
#
# number of rings (size 3 to 8) (size 9 to 14) (size 15 to 20)
#    0.000    2.429    1.429    1.286    0.000    6.857 
#    0.000    1.429    0.000    0.429    0.000    0.000 
#    0.000    0.000    0.000    0.000    0.000    0.000 
#
# Total GULP energy -156165.270664 kJ/mol
# GULP energy per Si atom -5577.331095 kJ/mol
# Density = 2.240989 g / cm^3
# Si number density = 22.461012 Si / 1000 Ang^3
#
#
#
# Elastic Constant Matrix: (Units=GPa)
#
#
# Indices 1 2 3 4 5 6 
#
# 1 137.0843 36.1313 -20.0056 0.0000 -0.0547 0.0000
# 2 36.1313 79.5865 -3.6897 0.0000 -2.7478 0.0000
# 3 -20.0056 -3.6897 39.4800 0.0000 8.3814 0.0000
# 4 0.0000 0.0000 0.0000 6.4208 0.0000 -2.5930
# 5 -0.0547 -2.7478 8.3814 0.0000 29.3767 0.0000
# 6 0.0000 0.0000 0.0000 -2.5930 0.0000 90.4988
#
#
#
# Elastic Compliance Matrix: (Units=1/GPa)
#
#
# Indices 1 2 3 4 5 6 
#
# 1 0.008992 -0.003929 0.004539 0.000000 -0.001646 0.000000
# 2 -0.003929 0.014358 -0.000993 0.000000 0.001619 0.000000
# 3 0.004539 -0.000993 0.029331 0.000000 -0.008453 0.000000
# 4 0.000000 0.000000 0.000000 0.157566 0.000000 0.004515
# 5 -0.001646 0.001619 -0.008453 0.000000 0.036601 0.000000
# 6 0.000000 0.000000 0.000000 0.004515 0.000000 0.011179
#
#
# Mechanical properties :
#
#
# Convention : Reuss Voigt Hill
#
# Bulk Modulus (GPa) = 19.26184 31.22476 25.24330
# Shear Modulus (GPa) = 18.10954 41.50692 29.80823
#
# Velocity S-wave (km/s) = 2.84256 4.30345 3.64690
# Velocity P-wave (km/s) = 4.40089 6.21489 5.38482
#
# Compressibility (1/GPa) = 0.05191612
#
# Stress axis : x y z
#
# Youngs Moduli (GPa) = 111.21060 69.64576 34.09385
#
# Poissons Ratio (x) = 0.27361 -0.15474
# Poissons Ratio (y) = 0.43691 0.03384
# Poissons Ratio (z) = -0.50475 0.06913
#
# Static dielectric constant tensor:
#      x y z
#    x 1.918190 0.000000 -0.027170 
#    y 0.000000 1.846520 0.000000 
#    z -0.027170 0.000000 1.845680 
# 
# From -- ./inp_files/246628.got.cif
#   From: 2010.05.17/outbox.cif.g08.bks.cpg/sg12_124_cif.got.tgz:246628.got - 2010.06.03 13:09:07.
