data_PCOD9208296
_publ_section_title
;
Structure prediction by ZEFSAII (Michael W. Deem and Ramdas Pophale) SiO2 
 PCOD9208296
Probable space group: C 2/M
;
_chemical_formula_sum "Si O2"
_cell_formula_units_Z 52
_cell_length_a 28.322203
_cell_length_b 18.347927
_cell_length_c 9.731369
_cell_angle_alpha 90.000000
_cell_angle_beta 151.197276
_cell_angle_gamma 90.000000
_cell_volume 2436.411085
_symmetry_space_group_name_H-M "C 2/M"
_symmetry_group_IT_number 12
_symmetry_cell_setting 'monoclinic'
loop_
_space_group_symop_operation_xyz
x,y,z
-x,y,-z
-x,-y,-z
x,-y,z
1/2+x,1/2+y,z
1/2-x,1/2+y,-z
1/2-x,1/2-y,-z
1/2+x,1/2-y,z
loop_
_atom_site_type_symbol
_atom_site_label
_atom_site_fract_x
_atom_site_fract_y
_atom_site_fract_z
Si Si1 0.365042 0.310743 0.193889
Si Si2 0.165842 0.340040 0.839339
Si Si3 0.867577 0.500000 0.908056
Si Si4 0.842190 0.131364 0.843527
Si Si5 0.090213 0.500000 0.569020
Si Si6 0.803046 0.500000 0.452026
Si Si7 0.273778 0.365083 0.383251
Si Si8 0.056137 0.916701 0.380919
O O1 0.400313 0.231988 0.340934
O O2 0.422175 0.371721 0.425727
O O3 0.252380 0.328202 0.950185
O O4 0.369259 0.319218 0.041812
O O5 0.123056 0.422018 0.720180
O O6 0.216585 0.325017 0.116199
O O7 0.879119 0.500000 0.772708
O O8 0.799000 0.431952 0.770228
O O9 0.972820 0.500000 0.249527
O O10 0.766058 0.070479 0.703393
O O11 0.799627 0.168023 0.597098
O O12 0.942594 0.091742 0.055675
O O13 0.143659 0.500000 0.557453
O O14 0.373327 0.389477 0.560767
O O15 0.081826 0.000000 0.473355
#
# Coordination Sequence:
#
# PCOD9208296 Si02
#       8
#     8   8   4   8   4   4   8   8
#     4  10  23  41  61  94 133 164 207 262 321 380
#     4  10  23  42  66  91 125 168 211 267 319 369
#     4  10  22  39  61  99 121 164 215 273 311 365
#     4  11  21  37  64  96 127 166 202 256 322 386
#     4  12  22  42  72  89 119 173 220 269 313 372
#     4  10  21  37  64  97 131 153 212 263 320 377
#     4  10  22  39  61  92 130 161 211 260 313 378
#     4  11  22  37  65  96 128 166 205 254 317 388
#
# _framework density 21.342866999999998
#
# number of rings (size 3 to 8) (size 9 to 14) (size 15 to 20)
#    0.000    1.538    3.077    1.615    4.308    3.077 
#    5.538    0.000    0.000    1.846    0.000    0.000 
#    0.000    0.000    0.000    0.000    0.000    0.000 
#
# Total GULP energy -145057.378615 kJ/mol
# GULP energy per Si atom -5579.129947 kJ/mol
# Density = 2.129429 g / cm^3
# Si number density = 21.342867 Si / 1000 Ang^3
#
#
#
# Elastic Constant Matrix: (Units=GPa)
#
#
# Indices 1 2 3 4 5 6 
#
# 1 110.6822 10.7915 38.9292 0.0000 -15.4814 0.0000
# 2 10.7915 73.6700 2.4429 0.0000 -13.8423 0.0000
# 3 38.9292 2.4429 70.2537 0.0000 -17.9546 0.0000
# 4 0.0000 0.0000 0.0000 6.2841 0.0000 -4.5386
# 5 -15.4814 -13.8423 -17.9546 0.0000 43.3453 0.0000
# 6 0.0000 0.0000 0.0000 -4.5386 0.0000 14.9969
#
#
#
# Elastic Compliance Matrix: (Units=1/GPa)
#
#
# Indices 1 2 3 4 5 6 
#
# 1 0.011429 -0.001249 -0.005982 0.000000 0.001205 0.000000
# 2 -0.001249 0.014613 0.001412 0.000000 0.004805 0.000000
# 3 -0.005982 0.001412 0.019090 0.000000 0.006222 0.000000
# 4 0.000000 0.000000 0.000000 0.203643 0.000000 0.061630
# 5 0.001205 0.004805 0.006222 0.000000 0.027613 0.000000
# 6 0.000000 0.000000 0.000000 0.061630 0.000000 0.085332
#
#
# Mechanical properties :
#
#
# Convention : Reuss Voigt Hill
#
# Bulk Modulus (GPa) = 29.85556 39.88147 34.86852
# Shear Modulus (GPa) = 13.00316 26.42140 19.71228
#
# Velocity S-wave (km/s) = 2.47098 3.52227 3.04238
# Velocity P-wave (km/s) = 4.70743 5.93873 5.35856
#
# Compressibility (1/GPa) = 0.03349459
#
# Stress axis : x y z
#
# Youngs Moduli (GPa) = 87.49543 68.43141 52.38412
#
# Poissons Ratio (x) = 0.08550 0.31335
# Poissons Ratio (y) = 0.10931 -0.07398
# Poissons Ratio (z) = 0.52337 -0.09665
#
# Static dielectric constant tensor:
#      x y z
#    x 1.783680 0.000000 0.001360 
#    y 0.000000 1.797340 0.000000 
#    z 0.001360 0.000000 1.798760 
# 
# From -- ./inp_files/113327.got.cif
#   From: 2010.05.17/outbox.cif.g08.bks.cpg/sg12_57_cif.got.tgz:113327.got - 2010.06.03 13:09:07.
