data_PCOD9208274
_publ_section_title
;
Structure prediction by ZEFSAII (Michael W. Deem and Ramdas Pophale) SiO2 
 PCOD9208274
Probable space group: C 2/M
;
_chemical_formula_sum "Si O2"
_cell_formula_units_Z 32
_cell_length_a 8.271432
_cell_length_b 18.205578
_cell_length_c 11.012866
_cell_angle_alpha 90.000000
_cell_angle_beta 121.087526
_cell_angle_gamma 90.000000
_cell_volume 1420.207504
_symmetry_space_group_name_H-M "C 2/M"
_symmetry_group_IT_number 12
_symmetry_cell_setting 'monoclinic'
loop_
_space_group_symop_operation_xyz
x,y,z
-x,y,-z
-x,-y,-z
x,-y,z
1/2+x,1/2+y,z
1/2-x,1/2+y,-z
1/2-x,1/2-y,-z
1/2+x,1/2-y,z
loop_
_atom_site_type_symbol
_atom_site_label
_atom_site_fract_x
_atom_site_fract_y
_atom_site_fract_z
Si Si1 0.214558 0.150769 0.598479
Si Si2 0.916488 0.414854 0.186019
Si Si3 0.229903 0.820868 0.330813
Si Si4 0.643217 0.672989 0.942789
O O1 0.362046 0.103332 0.731707
O O2 0.285368 0.153302 0.486084
O O3 0.224017 0.234169 0.652881
O O4 0.000000 0.125265 0.500000
O O5 0.883718 0.500000 0.196810
O O6 0.831845 0.365635 0.263704
O O7 0.801233 0.388632 0.022859
O O8 0.002848 0.829312 0.224723
O O9 0.500000 0.666430 0.000000
O O10 0.750000 0.750000 0.000000
#
# Coordination Sequence:
#
# PCOD9208274 Si02
#       4
#     8   8   8   8
#     4  11  22  37  63  92 127 166 215 251 302 368
#     4  11  24  42  63  94 129 163 205 260 317 371
#     4  10  21  38  63  93 123 165 211 258 300 372
#     4  10  21  37  64  92 121 160 207 255 310 369
#
# _framework density 22.531918000000001
#
# number of rings (size 3 to 8) (size 9 to 14) (size 15 to 20)
#    0.000    1.500    2.500    3.750    3.500    7.000 
#    0.000    0.000    0.000    5.250    0.000    0.000 
#    0.000    0.000    0.000    0.000    0.000    0.000 
#
# Total GULP energy -89448.387847 kJ/mol
# GULP energy per Si atom -5590.524240 kJ/mol
# Density = 2.248063 g / cm^3
# Si number density = 22.531918 Si / 1000 Ang^3
#
#
#
# Elastic Constant Matrix: (Units=GPa)
#
#
# Indices 1 2 3 4 5 6 
#
# 1 68.7194 13.0595 43.3183 0.0000 28.5022 0.0000
# 2 13.0595 60.0375 44.8741 0.0000 11.7438 0.0000
# 3 43.3183 44.8741 159.3554 0.0000 48.0372 0.0000
# 4 0.0000 0.0000 0.0000 -18.7114 0.0000 -13.0164
# 5 28.5022 11.7438 48.0372 0.0000 55.3561 0.0000
# 6 0.0000 0.0000 0.0000 -13.0164 0.0000 15.0281
#
#
#
# Elastic Compliance Matrix: (Units=1/GPa)
#
#
# Indices 1 2 3 4 5 6 
#
# 1 0.019585 -0.000635 -0.002906 0.000000 -0.007428 0.000000
# 2 -0.000635 0.021152 -0.006134 0.000000 0.001163 0.000000
# 3 -0.002906 -0.006134 0.010765 0.000000 -0.006544 0.000000
# 4 0.000000 0.000000 0.000000 -0.033350 0.000000 -0.028885
# 5 -0.007428 0.001163 -0.006544 0.000000 0.027322 0.000000
# 6 0.000000 0.000000 0.000000 -0.028885 0.000000 0.041523
#
#
# Mechanical properties :
#
#
# Convention : Reuss Voigt Hill
#
# Bulk Modulus (GPa) = 31.10269 54.51291 42.80780
# Shear Modulus (GPa) = 42.71091 22.79191 32.75141
#
# Velocity S-wave (km/s) = 4.35854 3.18392 3.81669
# Velocity P-wave (km/s) = 6.25803 6.14513 6.20184
#
# Compressibility (1/GPa) = 0.03215156
#
# Stress axis : x y z
#
# Youngs Moduli (GPa) = 51.05895 47.27721 92.89023
#
# Poissons Ratio (x) = 0.03003 0.26994
# Poissons Ratio (y) = 0.03244 0.56980
# Poissons Ratio (z) = 0.14838 0.29001
#
# Static dielectric constant tensor:
#      x y z
#    x 1.894880 0.000000 0.004880 
#    y 0.000000 1.735750 0.000000 
#    z 0.004880 0.000000 1.887290 
# 
# From -- ./inp_files/45322.got.cif
#   From: 2010.05.17/outbox.cif.g08.bks.cpg/sg12_23_cif.got.tgz:45322.got - 2010.06.03 13:09:07.
