data_PCOD9208772
_publ_section_title
;
Structure prediction by ZEFSAII (Michael W. Deem and Ramdas Pophale) SiO2 
 PCOD9208772
Probable space group: C 2/M
;
_chemical_formula_sum "Si O2"
_cell_formula_units_Z 36
_cell_length_a 18.759132
_cell_length_b 22.911826
_cell_length_c 10.305499
_cell_angle_alpha 90.000000
_cell_angle_beta 156.206577
_cell_angle_gamma 90.000000
_cell_volume 1786.984181
_symmetry_space_group_name_H-M "C 2/M"
_symmetry_group_IT_number 12
_symmetry_cell_setting 'monoclinic'
loop_
_space_group_symop_operation_xyz
x,y,z
-x,y,-z
-x,-y,-z
x,-y,z
1/2+x,1/2+y,z
1/2-x,1/2+y,-z
1/2-x,1/2-y,-z
1/2+x,1/2-y,z
loop_
_atom_site_type_symbol
_atom_site_label
_atom_site_fract_x
_atom_site_fract_y
_atom_site_fract_z
Si Si1 0.603132 0.332917 0.435037
Si Si2 0.589862 0.000000 0.424444
Si Si3 0.674232 0.715313 0.198792
Si Si4 0.159755 0.614421 0.368158
Si Si5 0.000000 0.098824 0.500000
Si Si6 0.738559 0.500000 0.007131
O O1 0.733763 0.277694 0.650631
O O2 0.666557 0.380390 0.433973
O O3 0.609281 0.361580 0.584670
O O4 0.409204 0.309505 0.072642
O O5 0.632421 0.056530 0.407419
O O6 0.695723 0.000000 0.736097
O O7 0.390140 0.000000 0.148283
O O8 0.811976 0.669307 0.489123
O O9 0.500000 0.719120 0.000000
O O10 0.000000 0.620121 0.000000
O O11 0.877526 0.057039 0.210951
#
# Coordination Sequence:
#
# PCOD9208772 Si02
#       6
#     8   4   8   8   4   4
#     4  11  22  38  60  87 120 156 195 237 289 346
#     4  11  23  41  65  87 113 154 198 239 289 352
#     4  10  21  38  59  88 122 151 188 245 295 335
#     4  11  21  37  62  90 116 151 198 242 287 342
#     4  11  24  42  60  84 120 159 194 238 292 347
#     4  10  24  43  59  84 123 153 185 245 301 334
#
# _framework density 20.145674
#
# number of rings (size 3 to 8) (size 9 to 14) (size 15 to 20)
#    0.000    1.333    0.000    7.667    0.000    2.667 
#    0.000    8.333    0.000    0.000    0.000    0.000 
#    0.000    0.000    0.000    0.000    0.000    0.000 
#
# Total GULP energy -100546.077150 kJ/mol
# GULP energy per Si atom -5585.893175 kJ/mol
# Density = 2.009982 g / cm^3
# Si number density = 20.145674 Si / 1000 Ang^3
#
#
#
# Elastic Constant Matrix: (Units=GPa)
#
#
# Indices 1 2 3 4 5 6 
#
# 1 64.3806 61.0261 18.3092 0.0000 4.5237 0.0000
# 2 61.0261 156.3176 53.7152 0.0000 7.1239 0.0000
# 3 18.3092 53.7152 92.9375 0.0000 -13.3907 0.0000
# 4 0.0000 0.0000 0.0000 57.4517 0.0000 -11.3502
# 5 4.5237 7.1239 -13.3907 0.0000 19.9111 0.0000
# 6 0.0000 0.0000 0.0000 -11.3502 0.0000 12.6755
#
#
#
# Elastic Compliance Matrix: (Units=1/GPa)
#
#
# Indices 1 2 3 4 5 6 
#
# 1 0.024767 -0.009760 0.000503 0.000000 -0.001797 0.000000
# 2 -0.009760 0.012697 -0.006368 0.000000 -0.006608 0.000000
# 3 0.000503 -0.006368 0.016225 0.000000 0.013076 0.000000
# 4 0.000000 0.000000 0.000000 0.021147 0.000000 0.018936
# 5 -0.001797 -0.006608 0.013076 0.000000 0.061790 0.000000
# 6 0.000000 0.000000 0.000000 0.018936 0.000000 0.095848
#
#
# Mechanical properties :
#
#
# Convention : Reuss Voigt Hill
#
# Bulk Modulus (GPa) = 44.56403 64.41519 54.48961
# Shear Modulus (GPa) = 18.43633 30.04666 24.24149
#
# Velocity S-wave (km/s) = 3.02843 3.86614 3.47264
# Velocity P-wave (km/s) = 5.86493 7.20927 6.57157
#
# Compressibility (1/GPa) = 0.02243962
#
# Stress axis : x y z
#
# Youngs Moduli (GPa) = 40.37569 78.76021 61.63256
#
# Poissons Ratio (x) = 0.76870 -0.03099
# Poissons Ratio (y) = 0.39407 0.39245
# Poissons Ratio (z) = -0.02030 0.50152
#
# Static dielectric constant tensor:
#      x y z
#    x 1.716640 0.000000 -0.010850 
#    y 0.000000 1.679290 0.000000 
#    z -0.010850 0.000000 1.756460 
# 
# From -- ./inp_files/169819.got.cif
#   From: 2010.05.17/outbox.cif.g08.bks.cpg/sg12_85_cif.got.tgz:169819.got - 2010.06.03 13:09:07.
