data_PCOD9208805
_publ_section_title
;
Structure prediction by ZEFSAII (Michael W. Deem and Ramdas Pophale) SiO2 
 PCOD9208805
Probable space group: C 2/M
;
_chemical_formula_sum "Si O2"
_cell_formula_units_Z 60
_cell_length_a 22.652390
_cell_length_b 22.494159
_cell_length_c 9.329622
_cell_angle_alpha 90.000000
_cell_angle_beta 143.037320
_cell_angle_gamma 90.000000
_cell_volume 2858.480369
_symmetry_space_group_name_H-M "C 2/M"
_symmetry_group_IT_number 12
_symmetry_cell_setting 'monoclinic'
loop_
_space_group_symop_operation_xyz
x,y,z
-x,y,-z
-x,-y,-z
x,-y,z
1/2+x,1/2+y,z
1/2-x,1/2+y,-z
1/2-x,1/2-y,-z
1/2+x,1/2-y,z
loop_
_atom_site_type_symbol
_atom_site_label
_atom_site_fract_x
_atom_site_fract_y
_atom_site_fract_z
Si Si1 0.023009 0.783679 0.245259
Si Si2 0.131455 0.065679 0.897050
Si Si3 0.703860 0.315407 0.164228
Si Si4 0.000000 0.731026 0.500000
Si Si5 0.173174 0.685909 0.034802
Si Si6 0.949980 0.086144 0.754258
Si Si7 0.787806 0.063457 0.243385
Si Si8 0.661893 0.201627 0.341348
O O1 0.072166 0.843655 0.288451
O O2 0.071278 0.730729 0.249874
O O3 0.038232 0.771785 0.443412
O O4 0.907039 0.797844 0.998611
O O5 0.130403 0.064325 0.723658
O O6 0.031613 0.072961 0.792161
O O7 0.172194 0.000000 0.018451
O O8 0.189328 0.126715 0.040184
O O9 0.730322 0.250664 0.145038
O O10 0.781350 0.338115 0.432452
O O11 0.915292 0.694562 0.251302
O O12 0.229695 0.624914 0.116046
O O13 0.141537 0.679144 0.142079
O O14 0.846317 0.061170 0.505627
O O15 0.000000 0.068908 0.000000
O O16 0.733010 0.000000 0.119532
O O17 0.750000 0.250000 0.500000
#
# Coordination Sequence:
#
# PCOD9208805 Si02
#       8
#     8   8   8   4   8   8   8   8
#     4  10  23  37  61  92 136 164 210 266 319 376
#     4  10  23  40  60  89 132 176 209 252 313 380
#     4   9  21  38  63  94 123 167 215 257 319 378
#     4  10  24  40  61  98 121 170 212 270 322 386
#     4  10  23  40  63  93 120 161 216 262 322 373
#     4  11  24  37  62  91 130 178 217 251 303 386
#     4  11  25  43  62  89 129 170 214 270 320 376
#     4  10  21  38  59  91 127 170 204 264 325 374
#
# _framework density 20.990175000000001
#
# number of rings (size 3 to 8) (size 9 to 14) (size 15 to 20)
#    0.000    1.867    0.000    2.400   20.533    2.667 
#    0.000    0.333    0.000    0.000    0.000    4.667 
#    0.000    0.000    0.000    0.000    0.000    0.000 
#
# Total GULP energy -167002.094146 kJ/mol
# GULP energy per Si atom -5566.736472 kJ/mol
# Density = 2.094240 g / cm^3
# Si number density = 20.990175 Si / 1000 Ang^3
#
#
#
# Elastic Constant Matrix: (Units=GPa)
#
#
# Indices 1 2 3 4 5 6 
#
# 1 92.3789 29.3567 41.0990 0.0000 -19.5214 0.0000
# 2 29.3567 144.5191 51.9494 0.0000 -9.0406 0.0000
# 3 41.0990 51.9494 157.2021 0.0000 -25.3099 0.0000
# 4 0.0000 0.0000 0.0000 6.1015 0.0000 1.7084
# 5 -19.5214 -9.0406 -25.3099 0.0000 29.1706 0.0000
# 6 0.0000 0.0000 0.0000 1.7084 0.0000 26.5196
#
#
#
# Elastic Compliance Matrix: (Units=1/GPa)
#
#
# Indices 1 2 3 4 5 6 
#
# 1 0.013674 -0.001657 -0.001903 0.000000 0.006987 0.000000
# 2 -0.001657 0.008054 -0.002331 0.000000 -0.000635 0.000000
# 3 -0.001903 -0.002331 0.008494 0.000000 0.005374 0.000000
# 4 0.000000 0.000000 0.000000 0.166906 0.000000 -0.010752
# 5 0.006987 -0.000635 0.005374 0.000000 0.043423 0.000000
# 6 0.000000 0.000000 0.000000 -0.010752 0.000000 0.038401
#
#
# Mechanical properties :
#
#
# Convention : Reuss Voigt Hill
#
# Bulk Modulus (GPa) = 54.22234 70.99002 62.60618
# Shear Modulus (GPa) = 16.84183 30.47134 23.65659
#
# Velocity S-wave (km/s) = 2.83568 3.81425 3.36077
# Velocity P-wave (km/s) = 6.05060 7.30014 6.70454
#
# Compressibility (1/GPa) = 0.01844258
#
# Stress axis : x y z
#
# Youngs Moduli (GPa) = 73.12935 124.16025 117.72819
#
# Poissons Ratio (x) = 0.20570 0.22400
# Poissons Ratio (y) = 0.12115 0.27438
# Poissons Ratio (z) = 0.13914 0.28937
#
# Static dielectric constant tensor:
#      x y z
#    x 1.823190 0.000000 -0.036480 
#    y 0.000000 1.832480 0.000000 
#    z -0.036480 0.000000 1.876530 
# 
# From -- ./inp_files/99814.got.cif
#   From: 2010.05.17/outbox.cif.g08.bks.cpg/sg12_50_cif.got.tgz:99814.got - 2010.06.03 13:09:07.
