data_PCOD9208258
_publ_section_title
;
Structure prediction by ZEFSAII (Michael W. Deem and Ramdas Pophale) SiO2 
 PCOD9208258
Probable space group: C 2/M
;
_chemical_formula_sum "Si O2"
_cell_formula_units_Z 64
_cell_length_a 19.155134
_cell_length_b 14.838450
_cell_length_c 24.689442
_cell_angle_alpha 90.000000
_cell_angle_beta 26.839496
_cell_angle_gamma 90.000000
_cell_volume 3168.369055
_symmetry_space_group_name_H-M "C 2/M"
_symmetry_group_IT_number 12
_symmetry_cell_setting 'monoclinic'
loop_
_space_group_symop_operation_xyz
x,y,z
-x,y,-z
-x,-y,-z
x,-y,z
1/2+x,1/2+y,z
1/2-x,1/2+y,-z
1/2-x,1/2-y,-z
1/2+x,1/2-y,z
loop_
_atom_site_type_symbol
_atom_site_label
_atom_site_fract_x
_atom_site_fract_y
_atom_site_fract_z
Si Si1 0.306151 0.896401 0.997007
Si Si2 0.040730 0.253732 0.035121
Si Si3 0.701732 0.108250 0.116850
Si Si4 0.944771 0.896635 0.261916
Si Si5 0.407642 0.104001 0.395614
Si Si6 0.066334 0.895444 0.607598
Si Si7 0.754086 0.219717 0.310948
Si Si8 0.963779 0.744809 0.447457
O O1 0.121065 0.893808 0.120588
O O2 0.354604 0.000000 0.971156
O O3 0.360576 0.835873 0.008724
O O4 0.358178 0.863433 0.901538
O O5 0.886685 0.253701 0.178925
O O6 0.147099 0.165077 0.971654
O O7 0.000000 0.260903 0.000000
O O8 0.562511 0.123601 0.255016
O O9 0.733261 0.000000 0.092836
O O10 0.949624 0.859769 0.319868
O O11 0.837760 0.852494 0.291136
O O12 0.895212 0.000000 0.302744
O O13 0.250887 0.109800 0.469166
O O14 0.392620 0.174458 0.454481
O O15 0.416735 0.000000 0.408399
O O16 0.982015 0.831364 0.623848
O O17 0.017324 0.000000 0.639366
O O18 0.609072 0.193906 0.373666
O O19 0.660156 0.276431 0.421604
#
# Coordination Sequence:
#
# PCOD9208258 Si02
#       8
#     8   8   8   8   8   8   8   8
#     4  10  23  42  65  93 122 160 208 258 303 359
#     4  12  26  41  63  90 126 166 205 248 311 368
#     4  10  22  40  65  95 125 159 203 254 307 365
#     4  10  21  40  66  94 120 155 207 259 307 361
#     4  10  21  37  63  98 126 157 201 251 311 365
#     4  10  22  39  65  94 122 163 209 252 303 362
#     4  11  25  40  60  92 120 165 209 246 311 367
#     4  11  24  41  61  89 130 163 203 254 307 360
#
# _framework density 20.199667000000002
#
# number of rings (size 3 to 8) (size 9 to 14) (size 15 to 20)
#    0.000    1.500    2.500    1.500    5.250    1.000 
#    0.000    3.125    0.000    0.000    0.000    0.000 
#    0.000    0.000    0.000    0.000    0.000    0.000 
#
# Total GULP energy -178493.139794 kJ/mol
# GULP energy per Si atom -5577.910619 kJ/mol
# Density = 2.015369 g / cm^3
# Si number density = 20.199667 Si / 1000 Ang^3
#
#
#
# Elastic Constant Matrix: (Units=GPa)
#
#
# Indices 1 2 3 4 5 6 
#
# 1 109.4458 41.2010 21.7680 -0.0009 21.6143 -0.0036
# 2 41.2010 52.0758 9.1061 -0.0017 9.8089 -0.0031
# 3 21.7680 9.1061 88.0220 -0.0036 15.3873 -0.0084
# 4 -0.0009 -0.0017 -0.0036 17.7471 0.0008 2.0111
# 5 21.6143 9.8089 15.3873 0.0008 26.2728 0.0030
# 6 -0.0036 -0.0031 -0.0084 2.0111 0.0030 1.8466
#
#
#
# Elastic Compliance Matrix: (Units=1/GPa)
#
#
# Indices 1 2 3 4 5 6 
#
# 1 0.014619 -0.009917 -0.001264 -0.000003 -0.007585 0.000021
# 2 -0.009917 0.027444 -0.000024 -0.000001 -0.002073 0.000032
# 3 -0.001264 -0.000024 0.012803 -0.000005 -0.006450 0.000072
# 4 -0.000003 -0.000001 -0.000005 0.064281 0.000012 -0.070008
# 5 -0.007585 -0.002073 -0.006450 0.000012 0.048854 -0.000141
# 6 0.000021 0.000032 0.000072 -0.070008 -0.000141 0.617792
#
#
# Mechanical properties :
#
#
# Convention : Reuss Voigt Hill
#
# Bulk Modulus (GPa) = 30.81006 43.74374 37.27690
# Shear Modulus (GPa) = 6.10485 21.00451 13.55468
#
# Velocity S-wave (km/s) = 1.74035 3.22816 2.59324
# Velocity P-wave (km/s) = 4.39594 5.96635 5.24031
#
# Compressibility (1/GPa) = 0.03245693
#
# Stress axis : x y z
#
# Youngs Moduli (GPa) = 68.40237 36.43848 78.10464
#
# Poissons Ratio (x) = 0.36136 0.09869
# Poissons Ratio (y) = 0.67834 0.00189
# Poissons Ratio (z) = 0.08643 0.00088
#
# Static dielectric constant tensor:
#      x y z
#    x 1.707660 0.000000 0.019210 
#    y 0.000000 1.729700 0.000000 
#    z 0.019210 0.000000 1.755650 
# 
# From -- ./inp_files/344011.got.cif
#   From: 2010.05.17/outbox.cif.g08.bks.cpg/sg12_173_cif.got.tgz:344011.got - 2010.06.03 13:09:07.
