data_PCOD9208586
_publ_section_title
;
Structure prediction by ZEFSAII (Michael W. Deem and Ramdas Pophale) SiO2 
 PCOD9208586
Probable space group: C 2/M
;
_chemical_formula_sum "Si O2"
_cell_formula_units_Z 44
_cell_length_a 9.551943
_cell_length_b 16.189281
_cell_length_c 15.437573
_cell_angle_alpha 90.000000
_cell_angle_beta 70.948663
_cell_angle_gamma 90.000000
_cell_volume 2256.494039
_symmetry_space_group_name_H-M "C 2/M"
_symmetry_group_IT_number 12
_symmetry_cell_setting 'monoclinic'
loop_
_space_group_symop_operation_xyz
x,y,z
-x,y,-z
-x,-y,-z
x,-y,z
1/2+x,1/2+y,z
1/2-x,1/2+y,-z
1/2-x,1/2-y,-z
1/2+x,1/2-y,z
loop_
_atom_site_type_symbol
_atom_site_label
_atom_site_fract_x
_atom_site_fract_y
_atom_site_fract_z
Si Si1 0.500000 0.838800 0.500000
Si Si2 0.878347 0.681200 0.101241
Si Si3 0.870652 0.500000 0.096194
Si Si4 0.056888 0.812808 0.370357
Si Si5 0.459991 0.500000 0.906842
Si Si6 0.209287 0.904373 0.477663
Si Si7 0.960432 0.177385 0.831645
O O1 0.443030 0.778066 0.587937
O O2 0.367638 0.890900 0.487655
O O3 0.880032 0.588345 0.141453
O O4 0.709500 0.692826 0.102492
O O5 0.928973 0.753426 0.154916
O O6 0.000000 0.682467 0.000000
O O7 0.716201 0.500000 0.075293
O O8 0.000000 0.500000 0.000000
O O9 0.192382 0.861562 0.387462
O O10 0.052211 0.817309 0.269117
O O11 0.910467 0.857465 0.438226
O O12 0.510639 0.586167 0.852925
O O13 0.500000 0.500000 0.000000
O O14 0.172934 0.000000 0.478778
#
# Coordination Sequence:
#
# PCOD9208586 Si02
#       7
#     4   8   4   8   4   8   8
#     4  10  21  38  63  86 122 154 190 244 301 357
#     4  10  21  40  60  88 118 162 202 250 304 357
#     4   8  18  38  64  78 111 152 202 238 299 360
#     4  10  21  38  58  87 120 160 199 231 302 355
#     4  10  22  40  58  87 119 161 202 253 295 347
#     4  10  21  38  65  86 121 155 193 243 295 362
#     4  11  24  36  64  89 124 156 207 252 296 362
#
# _framework density 19.499275000000001
#
# number of rings (size 3 to 8) (size 9 to 14) (size 15 to 20)
#    0.000    2.182    0.000    4.636    7.636    2.909 
#    0.000    0.000    2.000    0.000    0.000    0.000 
#    0.000    0.000    0.000    0.000    0.000    0.000 
#
# Total GULP energy -122739.610649 kJ/mol
# GULP energy per Si atom -5579.073211 kJ/mol
# Density = 1.945489 g / cm^3
# Si number density = 19.499275 Si / 1000 Ang^3
#
#
#
# Elastic Constant Matrix: (Units=GPa)
#
#
# Indices 1 2 3 4 5 6 
#
# 1 74.9199 39.7668 0.9733 0.0000 21.3388 0.0000
# 2 39.7668 138.7901 33.1743 0.0000 21.9293 0.0000
# 3 0.9733 33.1743 96.0406 0.0000 21.7559 0.0000
# 4 0.0000 0.0000 0.0000 6.7973 0.0000 -2.5312
# 5 21.3388 21.9293 21.7559 0.0000 22.9866 0.0000
# 6 0.0000 0.0000 0.0000 -2.5312 0.0000 -30.5665
#
#
#
# Elastic Compliance Matrix: (Units=1/GPa)
#
#
# Indices 1 2 3 4 5 6 
#
# 1 0.021828 -0.004254 0.006261 0.000000 -0.022131 0.000000
# 2 -0.004254 0.009463 -0.002641 0.000000 -0.002578 0.000000
# 3 0.006261 -0.002641 0.015284 0.000000 -0.017758 0.000000
# 4 0.000000 0.000000 0.000000 0.142716 0.000000 -0.011818
# 5 -0.022131 -0.002578 -0.017758 0.000000 0.083315 0.000000
# 6 0.000000 0.000000 0.000000 -0.011818 0.000000 -0.031737
#
#
# Mechanical properties :
#
#
# Convention : Reuss Voigt Hill
#
# Bulk Modulus (GPa) = 22.07207 50.84217 36.45712
# Shear Modulus (GPa) = 19.43718 15.56590 17.50154
#
# Velocity S-wave (km/s) = 3.16066 2.82845 2.99916
# Velocity P-wave (km/s) = 4.96626 6.06608 5.54351
#
# Compressibility (1/GPa) = 0.04530613
#
# Stress axis : x y z
#
# Youngs Moduli (GPa) = 45.81365 105.67717 65.42818
#
# Poissons Ratio (x) = 0.44956 -0.40967
# Poissons Ratio (y) = 0.19489 0.17282
# Poissons Ratio (z) = -0.28686 0.27914
#
# Static dielectric constant tensor:
#      x y z
#    x 1.684500 0.000000 -0.018190 
#    y 0.000000 1.696230 0.000000 
#    z -0.018190 0.000000 1.674460 
# 
# From -- ./inp_files/195544.got.cif
#   From: 2010.05.17/outbox.cif.g08.bks.cpg/sg12_98_cif.got.tgz:195544.got - 2010.06.03 13:09:07.
