data_PCOD9208007
_publ_section_title
;
Structure prediction by ZEFSAII (Michael W. Deem and Ramdas Pophale) SiO2 
 PCOD9208007
Probable space group: C 2/M
;
_chemical_formula_sum "Si O2"
_cell_formula_units_Z 56
_cell_length_a 10.137318
_cell_length_b 22.435871
_cell_length_c 14.759090
_cell_angle_alpha 90.000000
_cell_angle_beta 119.462455
_cell_angle_gamma 90.000000
_cell_volume 2922.693337
_symmetry_space_group_name_H-M "C 2/M"
_symmetry_group_IT_number 12
_symmetry_cell_setting 'monoclinic'
loop_
_space_group_symop_operation_xyz
x,y,z
-x,y,-z
-x,-y,-z
x,-y,z
1/2+x,1/2+y,z
1/2-x,1/2+y,-z
1/2-x,1/2-y,-z
1/2+x,1/2-y,z
loop_
_atom_site_type_symbol
_atom_site_label
_atom_site_fract_x
_atom_site_fract_y
_atom_site_fract_z
Si Si1 0.334712 0.500000 0.400752
Si Si2 0.159025 0.694273 0.356355
Si Si3 0.837671 0.882297 0.279620
Si Si4 0.369750 0.120661 0.305099
Si Si5 0.177206 0.166511 0.402362
Si Si6 0.674351 0.929297 0.051770
Si Si7 0.964342 0.500000 0.594003
Si Si8 0.169680 0.070254 0.087312
O O1 0.500000 0.500000 0.500000
O O2 0.314462 0.441820 0.331608
O O3 0.211191 0.500000 0.438798
O O4 0.236132 0.668598 0.292429
O O5 0.162573 0.765404 0.363655
O O6 0.259315 0.669409 0.474262
O O7 0.989347 0.670249 0.313992
O O8 0.779554 0.895635 0.159049
O O9 0.014027 0.864528 0.342527
O O10 0.299252 0.134887 0.379007
O O11 0.461151 0.058877 0.339099
O O12 0.233700 0.110438 0.189028
O O13 0.682874 0.000000 0.076423
O O14 0.500000 0.910476 0.000000
O O15 0.727917 0.922449 0.966995
O O16 0.000000 0.500000 0.500000
O O17 0.171809 0.000000 0.115123
O O18 0.000000 0.084748 0.000000
#
# Coordination Sequence:
#
# PCOD9208007 Si02
#       8
#     4   8   8   8   8   8   4   8
#     4  12  26  40  60  95 136 168 194 255 327 383
#     4  11  23  43  64  89 124 170 216 254 299 376
#     4  12  23  40  64  93 126 162 204 263 313 369
#     4  12  23  40  66  91 126 164 210 260 314 376
#     4  11  25  41  64  91 124 170 216 252 303 372
#     4  10  21  37  61  88 120 158 207 250 307 378
#     4  12  26  40  60  96 134 168 198 250 327 389
#     4  10  21  39  59  88 124 162 205 256 311 380
#
# _framework density 19.160409999999999
#
# number of rings (size 3 to 8) (size 9 to 14) (size 15 to 20)
#    0.000    0.857    2.857    5.143    2.000    2.286 
#    0.000    0.000    0.000   17.143    0.000    0.000 
#    0.000    0.000    0.000    0.000    0.000    0.000 
#
# Total GULP energy -156660.749285 kJ/mol
# GULP energy per Si atom -5595.026760 kJ/mol
# Density = 1.911680 g / cm^3
# Si number density = 19.160410 Si / 1000 Ang^3
#
#
#
# Elastic Constant Matrix: (Units=GPa)
#
#
# Indices 1 2 3 4 5 6 
#
# 1 88.2197 8.7927 -17.7823 0.0000 17.3825 0.0000
# 2 8.7927 60.3652 8.5608 0.0000 1.7077 0.0000
# 3 -17.7823 8.5608 50.4150 0.0000 8.0689 0.0000
# 4 0.0000 0.0000 0.0000 -0.8955 0.0000 9.5108
# 5 17.3825 1.7077 8.0689 0.0000 24.7609 0.0000
# 6 0.0000 0.0000 0.0000 9.5108 0.0000 20.4800
#
#
#
# Elastic Compliance Matrix: (Units=1/GPa)
#
#
# Indices 1 2 3 4 5 6 
#
# 1 0.016062 -0.003141 0.008407 0.000000 -0.013799 0.000000
# 2 -0.003141 0.017590 -0.004488 0.000000 0.002455 0.000000
# 3 0.008407 -0.004488 0.025804 0.000000 -0.014001 0.000000
# 4 0.000000 0.000000 0.000000 -0.188246 0.000000 0.087420
# 5 -0.013799 0.002455 -0.014001 0.000000 0.054467 0.000000
# 6 0.000000 0.000000 0.000000 0.087420 0.000000 0.008231
#
#
# Mechanical properties :
#
#
# Convention : Reuss Voigt Hill
#
# Bulk Modulus (GPa) = 16.39027 22.01583 19.20305
# Shear Modulus (GPa) = -105.68370 22.16431 -41.75969
#
# Velocity S-wave (km/s) = -7.43485 3.40483 -4.67355
# Velocity P-wave (km/s) = 8.07031 5.19349 4.36793
#
# Compressibility (1/GPa) = 0.06101182
#
# Stress axis : x y z
#
# Youngs Moduli (GPa) = 62.25902 56.84906 38.75405
#
# Poissons Ratio (x) = 0.17859 -0.32582
# Poissons Ratio (y) = 0.19559 0.17393
# Poissons Ratio (z) = -0.52343 0.25513
#
# Static dielectric constant tensor:
#      x y z
#    x 1.635820 0.000000 0.003630 
#    y 0.000000 1.656800 0.000000 
#    z 0.003630 0.000000 1.644160 
# 
# From -- ./inp_files/199008.got.cif
#   From: 2010.05.17/outbox.cif.g08.bks.cpg/sg12_100_cif.got.tgz:199008.got - 2010.06.03 13:09:07.
