data_PCOD9208246
_publ_section_title
;
Structure prediction by ZEFSAII (Michael W. Deem and Ramdas Pophale) SiO2 
 PCOD9208246
Probable space group: C 2/M
;
_chemical_formula_sum "Si O2"
_cell_formula_units_Z 32
_cell_length_a 9.058037
_cell_length_b 14.289891
_cell_length_c 11.364825
_cell_angle_alpha 90.000000
_cell_angle_beta 119.161476
_cell_angle_gamma 90.000000
_cell_volume 1284.589314
_symmetry_space_group_name_H-M "C 2/M"
_symmetry_group_IT_number 12
_symmetry_cell_setting 'monoclinic'
loop_
_space_group_symop_operation_xyz
x,y,z
-x,y,-z
-x,-y,-z
x,-y,z
1/2+x,1/2+y,z
1/2-x,1/2+y,-z
1/2-x,1/2-y,-z
1/2+x,1/2-y,z
loop_
_atom_site_type_symbol
_atom_site_label
_atom_site_fract_x
_atom_site_fract_y
_atom_site_fract_z
Si Si1 0.656143 0.599338 0.713874
Si Si2 0.040330 0.599577 0.876757
Si Si3 0.829002 0.715573 0.408450
Si Si4 0.487067 0.311407 0.134518
O O1 0.574583 0.500000 0.652646
O O2 0.850633 0.595894 0.751005
O O3 0.598156 0.695033 0.634456
O O4 0.632264 0.616044 0.844030
O O5 0.125445 0.500000 0.876398
O O6 0.090398 0.706857 0.872203
O O7 0.000000 0.596968 0.000000
O O8 0.750000 0.750000 0.500000
O O9 0.672600 0.678966 0.267965
O O10 0.000000 0.655989 0.500000
O O11 0.500000 0.324880 0.000000
#
# Coordination Sequence:
#
# PCOD9208246 Si02
#       4
#     8   8   8   8
#     4  10  21  38  62  89 125 173 217 255 315 389
#     4   8  16  31  53  83 118 156 202 253 310 367
#     4  11  22  42  65  94 124 168 213 266 320 383
#     4  10  21  37  63  95 127 165 217 261 316 372
#
# _framework density 24.910685000000001
#
# number of rings (size 3 to 8) (size 9 to 14) (size 15 to 20)
#    0.000    2.250    2.500    0.000    0.000   10.000 
#    0.000    0.000    0.000   10.500    0.000    0.000 
#    0.000    0.000    0.000    0.000    0.000    0.000 
#
# Total GULP energy -89171.322698 kJ/mol
# GULP energy per Si atom -5573.207669 kJ/mol
# Density = 2.485399 g / cm^3
# Si number density = 24.910685 Si / 1000 Ang^3
#
#
#
# Elastic Constant Matrix: (Units=GPa)
#
#
# Indices 1 2 3 4 5 6 
#
# 1 99.1056 10.0872 40.1450 0.0000 4.5068 0.0000
# 2 10.0872 103.5132 2.4688 0.0000 -5.4294 0.0000
# 3 40.1450 2.4688 131.2113 0.0000 -0.6482 0.0000
# 4 0.0000 0.0000 0.0000 -9.9734 0.0000 -4.2846
# 5 4.5068 -5.4294 -0.6482 0.0000 53.0185 0.0000
# 6 0.0000 0.0000 0.0000 -4.2846 0.0000 17.7551
#
#
#
# Elastic Compliance Matrix: (Units=1/GPa)
#
#
# Indices 1 2 3 4 5 6 
#
# 1 0.011700 -0.001116 -0.003564 0.000000 -0.001152 0.000000
# 2 -0.001116 0.009823 0.000162 0.000000 0.001103 0.000000
# 3 -0.003564 0.000162 0.008711 0.000000 0.000426 0.000000
# 4 0.000000 0.000000 0.000000 -0.090848 0.000000 -0.021923
# 5 -0.001152 0.001103 0.000426 0.000000 0.019077 0.000000
# 6 0.000000 0.000000 0.000000 -0.021923 0.000000 0.051031
#
#
# Mechanical properties :
#
#
# Convention : Reuss Voigt Hill
#
# Bulk Modulus (GPa) = 47.17396 48.80356 47.98876
# Shear Modulus (GPa) = 195.33792 30.90200 113.11996
#
# Velocity S-wave (km/s) = 8.86485 3.52591 6.74602
# Velocity P-wave (km/s) = 11.12471 6.01748 8.94341
#
# Compressibility (1/GPa) = 0.02119814
#
# Stress axis : x y z
#
# Youngs Moduli (GPa) = 85.46980 101.79886 114.79861
#
# Poissons Ratio (x) = 0.11356 0.40919
# Poissons Ratio (y) = 0.09535 -0.01859
# Poissons Ratio (z) = 0.30465 -0.01649
#
# Static dielectric constant tensor:
#      x y z
#    x 2.015700 0.000000 0.104240 
#    y 0.000000 2.044290 0.000000 
#    z 0.104240 0.000000 2.148050 
# 
# From -- ./inp_files/117659.got.cif
#   From: 2010.05.17/outbox.cif.g08.bks.cpg/sg12_59_cif.got.tgz:117659.got - 2010.06.03 13:09:07.
