data_PCOD9208590
_publ_section_title
;
Structure prediction by ZEFSAII (Michael W. Deem and Ramdas Pophale) SiO2 
 PCOD9208590
Probable space group: C 2/M
;
_chemical_formula_sum "Si O2"
_cell_formula_units_Z 64
_cell_length_a 30.435242
_cell_length_b 8.979245
_cell_length_c 15.890628
_cell_angle_alpha 90.000000
_cell_angle_beta 49.099408
_cell_angle_gamma 90.000000
_cell_volume 3282.398953
_symmetry_space_group_name_H-M "C 2/M"
_symmetry_group_IT_number 12
_symmetry_cell_setting 'monoclinic'
loop_
_space_group_symop_operation_xyz
x,y,z
-x,y,-z
-x,-y,-z
x,-y,z
1/2+x,1/2+y,z
1/2-x,1/2+y,-z
1/2-x,1/2-y,-z
1/2+x,1/2-y,z
loop_
_atom_site_type_symbol
_atom_site_label
_atom_site_fract_x
_atom_site_fract_y
_atom_site_fract_z
Si Si1 0.738792 0.177551 0.423383
Si Si2 0.600214 0.825711 0.216340
Si Si3 0.011721 0.326604 0.747490
Si Si4 0.178738 0.820139 0.834935
Si Si5 0.618308 0.328153 0.541472
Si Si6 0.432121 0.673520 0.582449
Si Si7 0.051707 0.322385 0.997007
Si Si8 0.295659 0.322093 0.007773
O O1 0.750000 0.250000 0.500000
O O2 0.782899 0.226547 0.293692
O O3 0.674288 0.225859 0.478536
O O4 0.743464 0.000000 0.424808
O O5 0.533725 0.803191 0.271034
O O6 0.603895 0.772985 0.307535
O O7 0.641938 0.729270 0.105486
O O8 0.614370 0.000000 0.188549
O O9 0.029982 0.500000 0.724422
O O10 0.067657 0.224635 0.667657
O O11 0.974185 0.299871 0.877741
O O12 0.175935 0.000000 0.839007
O O13 0.113544 0.756628 0.909838
O O14 0.206526 0.775352 0.890870
O O15 0.633969 0.500000 0.537538
O O16 0.591912 0.315124 0.481193
O O17 0.500000 0.715845 0.500000
O O18 0.428321 0.500000 0.614155
O O19 0.060368 0.500000 0.973269
O O20 0.000000 0.272310 0.000000
O O21 0.289330 0.500000 0.012359
O O22 0.250000 0.250000 0.000000
#
# Coordination Sequence:
#
# PCOD9208590 Si02
#       8
#     8   8   8   8   8   8   8   8
#     4  11  26  48  69  93 126 167 217 270 321 379
#     4  11  22  37  60  89 125 166 208 257 317 376
#     4  10  21  38  60  92 129 165 207 258 315 376
#     4  10  24  45  67  94 128 165 210 262 317 376
#     4  11  24  41  64  93 126 169 216 262 318 376
#     4  10  21  38  58  87 126 166 207 253 306 368
#     4  10  22  40  65  96 127 161 202 251 313 376
#     4  11  24  42  64  92 126 167 211 260 318 379
#
# _framework density 19.497934999999998
#
# number of rings (size 3 to 8) (size 9 to 14) (size 15 to 20)
#    0.000    1.500    2.500    1.500    3.500    4.000 
#    0.000    0.000    0.000    0.000    0.000    0.000 
#    0.000    0.000    0.000    0.000    0.000    0.000 
#
# Total GULP energy -178760.972060 kJ/mol
# GULP energy per Si atom -5586.280377 kJ/mol
# Density = 1.945356 g / cm^3
# Si number density = 19.497935 Si / 1000 Ang^3
#
#
#
# Elastic Constant Matrix: (Units=GPa)
#
#
# Indices 1 2 3 4 5 6 
#
# 1 96.2835 36.8204 49.1141 0.0000 3.6265 0.0000
# 2 36.8204 40.5480 44.8287 0.0000 5.2647 0.0000
# 3 49.1141 44.8287 102.3857 0.0000 2.7923 0.0000
# 4 0.0000 0.0000 0.0000 32.6691 0.0000 -4.6841
# 5 3.6265 5.2647 2.7923 0.0000 19.6946 0.0000
# 6 0.0000 0.0000 0.0000 -4.6841 0.0000 34.8997
#
#
#
# Elastic Compliance Matrix: (Units=1/GPa)
#
#
# Indices 1 2 3 4 5 6 
#
# 1 0.016264 -0.012019 -0.002555 0.000000 0.000580 0.000000
# 2 -0.012019 0.058666 -0.019629 0.000000 -0.010686 0.000000
# 3 -0.002555 -0.019629 0.019507 0.000000 0.002952 0.000000
# 4 0.000000 0.000000 0.000000 0.031211 0.000000 0.004189
# 5 0.000580 -0.010686 0.002952 0.000000 0.053107 0.000000
# 6 0.000000 0.000000 0.000000 0.004189 0.000000 0.029216
#
#
# Mechanical properties :
#
#
# Convention : Reuss Voigt Hill
#
# Bulk Modulus (GPa) = 38.41877 55.63818 47.02847
# Shear Modulus (GPa) = 17.54066 24.68293 21.11179
#
# Velocity S-wave (km/s) = 3.00261 3.56184 3.29412
# Velocity P-wave (km/s) = 5.63629 6.74633 6.21614
#
# Compressibility (1/GPa) = 0.02602894
#
# Stress axis : x y z
#
# Youngs Moduli (GPa) = 61.48609 17.04579 51.26491
#
# Poissons Ratio (x) = 0.20488 0.13098
# Poissons Ratio (y) = 0.73903 1.00628
# Poissons Ratio (z) = 0.15709 0.33459
#
# Static dielectric constant tensor:
#      x y z
#    x 1.698110 0.000000 0.026940 
#    y 0.000000 1.664380 0.000000 
#    z 0.026940 0.000000 1.674120 
# 
# From -- ./inp_files/249842.got.cif
#   From: 2010.05.17/outbox.cif.g08.bks.cpg/sg12_125_cif.got.tgz:249842.got - 2010.06.03 13:09:07.
