data_PCOD9208728
_publ_section_title
;
Structure prediction by ZEFSAII (Michael W. Deem and Ramdas Pophale) SiO2 
 PCOD9208728
Probable space group: C 2/M
;
_chemical_formula_sum "Si O2"
_cell_formula_units_Z 40
_cell_length_a 24.413194
_cell_length_b 11.605699
_cell_length_c 22.540186
_cell_angle_alpha 90.000000
_cell_angle_beta 162.950942
_cell_angle_gamma 90.000000
_cell_volume 1872.419514
_symmetry_space_group_name_H-M "C 2/M"
_symmetry_group_IT_number 12
_symmetry_cell_setting 'monoclinic'
loop_
_space_group_symop_operation_xyz
x,y,z
-x,y,-z
-x,-y,-z
x,-y,z
1/2+x,1/2+y,z
1/2-x,1/2+y,-z
1/2-x,1/2-y,-z
1/2+x,1/2-y,z
loop_
_atom_site_type_symbol
_atom_site_label
_atom_site_fract_x
_atom_site_fract_y
_atom_site_fract_z
Si Si1 0.532408 0.370641 0.244084
Si Si2 0.152545 0.369807 0.795190
Si Si3 0.716759 0.626903 0.204207
Si Si4 0.285152 0.874904 0.755380
Si Si5 0.183284 0.201669 0.524615
O O1 0.559216 0.500000 0.248512
O O2 0.652988 0.282551 0.330793
O O3 0.602303 0.364576 0.383910
O O4 0.314220 0.343934 0.010230
O O5 0.083179 0.500000 0.733808
O O6 0.252439 0.368352 0.834448
O O7 0.985162 0.281281 0.626628
O O8 0.792463 0.500000 0.302985
O O9 0.793722 0.749852 0.306502
O O10 0.500000 0.625624 0.000000
O O11 0.263471 0.870613 0.662034
O O12 0.209199 0.000000 0.697589
O O13 0.500000 0.873426 0.000000
#
# Coordination Sequence:
#
# PCOD9208728 Si02
#       5
#     8   8   8   8   8
#     4  10  21  38  60  87 120 155 197 253 307 357
#     4  10  21  38  61  89 119 152 198 253 305 359
#     4   9  18  35  60  86 114 153 198 243 292 346
#     4  10  21  38  59  85 121 161 199 243 297 355
#     4  11  22  37  60  87 117 158 203 244 298 363
#
# _framework density 21.362735000000001
#
# number of rings (size 3 to 8) (size 9 to 14) (size 15 to 20)
#    0.000    2.000    0.000    4.200    0.000    4.000 
#    0.000    5.000    0.000   12.000    0.000    0.000 
#    0.000    0.000    0.000    0.000    0.000    0.000 
#
# Total GULP energy -111583.240652 kJ/mol
# GULP energy per Si atom -5579.162033 kJ/mol
# Density = 2.131411 g / cm^3
# Si number density = 21.362735 Si / 1000 Ang^3
#
#
#
# Elastic Constant Matrix: (Units=GPa)
#
#
# Indices 1 2 3 4 5 6 
#
# 1 44.4139 31.7460 22.7756 0.0126 -1.1775 0.0012
# 2 31.7460 177.2826 38.7631 0.0156 -8.1576 0.0095
# 3 22.7756 38.7631 108.5270 0.0156 -12.8459 0.0057
# 4 0.0126 0.0156 0.0156 -11.7253 0.0052 2.9628
# 5 -1.1775 -8.1576 -12.8459 0.0052 34.2874 0.0035
# 6 0.0012 0.0095 0.0057 2.9628 0.0035 10.1519
#
#
#
# Elastic Compliance Matrix: (Units=1/GPa)
#
#
# Indices 1 2 3 4 5 6 
#
# 1 0.027703 -0.004040 -0.004575 0.000017 -0.001724 -0.000001
# 2 -0.004040 0.006722 -0.001444 0.000002 0.000919 -0.000006
# 3 -0.004575 -0.001444 0.011124 0.000008 0.003667 -0.000008
# 4 0.000017 0.000002 0.000008 -0.079428 0.000014 0.023181
# 5 -0.001724 0.000919 0.003667 0.000014 0.030699 -0.000017
# 6 -0.000001 -0.000006 -0.000008 0.023181 -0.000017 0.091739
#
#
# Mechanical properties :
#
#
# Convention : Reuss Voigt Hill
#
# Bulk Modulus (GPa) = 39.32112 57.42143 48.37128
# Shear Modulus (GPa) = 42.67845 22.33870 32.50858
#
# Velocity S-wave (km/s) = 4.47452 3.23721 3.90518
# Velocity P-wave (km/s) = 6.71874 6.39612 6.55942
#
# Compressibility (1/GPa) = 0.02543162
#
# Stress axis : x y z
#
# Youngs Moduli (GPa) = 36.09657 148.75964 89.89282
#
# Poissons Ratio (x) = 0.60097 0.41126
# Poissons Ratio (y) = 0.14583 0.12984
# Poissons Ratio (z) = 0.16514 0.21486
#
# Static dielectric constant tensor:
#      x y z
#    x 1.742370 0.000000 -0.025600 
#    y 0.000000 1.812080 0.000000 
#    z -0.025600 0.000000 1.764210 
# 
# From -- ./inp_files/325207.got.cif
#   From: 2010.05.17/outbox.cif.g08.bks.cpg/sg12_163_cif.got.tgz:325207.got - 2010.06.03 13:09:07.
