data_PCOD9208529
_publ_section_title
;
Structure prediction by ZEFSAII (Michael W. Deem and Ramdas Pophale) SiO2 
 PCOD9208529
Probable space group: C 2/M
;
_chemical_formula_sum "Si O2"
_cell_formula_units_Z 64
_cell_length_a 17.264271
_cell_length_b 13.852601
_cell_length_c 20.994097
_cell_angle_alpha 90.000000
_cell_angle_beta 38.655672
_cell_angle_gamma 90.000000
_cell_volume 3136.213638
_symmetry_space_group_name_H-M "C 2/M"
_symmetry_group_IT_number 12
_symmetry_cell_setting 'monoclinic'
loop_
_space_group_symop_operation_xyz
x,y,z
-x,y,-z
-x,-y,-z
x,-y,z
1/2+x,1/2+y,z
1/2-x,1/2+y,-z
1/2-x,1/2-y,-z
1/2+x,1/2-y,z
loop_
_atom_site_type_symbol
_atom_site_label
_atom_site_fract_x
_atom_site_fract_y
_atom_site_fract_z
Si Si1 0.199689 0.613353 0.062327
Si Si2 0.366076 0.759263 0.579510
Si Si3 0.364325 0.616127 0.842303
Si Si4 0.506228 0.884907 0.707851
Si Si5 0.854228 0.109887 0.090848
Si Si6 0.699560 0.613336 0.484574
Si Si7 0.158856 0.753310 0.263997
Si Si8 0.852584 0.114561 0.333843
O O1 0.178105 0.500000 0.062611
O O2 0.261097 0.653320 0.958605
O O3 0.073263 0.646097 0.178520
O O4 0.301928 0.618703 0.052686
O O5 0.500000 0.809702 0.500000
O O6 0.368528 0.680742 0.521925
O O7 0.346693 0.711301 0.660719
O O8 0.252555 0.829511 0.636807
O O9 0.356879 0.500000 0.842596
O O10 0.344016 0.663815 0.786956
O O11 0.505022 0.637443 0.774499
O O12 0.652665 0.871929 0.619587
O O13 0.450411 0.821356 0.686562
O O14 0.483109 0.000000 0.712614
O O15 0.781620 0.188708 0.177474
O O16 0.825974 0.000000 0.130335
O O17 0.000000 0.123354 0.000000
O O18 0.672428 0.500000 0.492190
O O19 0.665247 0.636885 0.579457
O O20 0.834716 0.000000 0.337631
#
# Coordination Sequence:
#
# PCOD9208529 Si02
#       8
#     8   8   8   8   8   8   8   8
#     4   8  16  32  56  82 106 147 188 228 281 326
#     4  12  25  38  56  85 121 151 184 235 293 347
#     4  10  21  38  58  82 115 152 198 240 276 332
#     4   9  18  36  60  84 110 141 188 239 286 338
#     4   9  19  35  55  82 119 151 183 232 286 341
#     4  10  21  40  63  83 108 150 198 240 281 337
#     4  11  22  35  55  85 114 153 188 228 289 341
#     4  10  22  39  62  86 110 148 194 241 289 340
#
# _framework density 20.406773000000001
#
# number of rings (size 3 to 8) (size 9 to 14) (size 15 to 20)
#    0.000    2.125    0.000    3.750    1.750    4.000 
#    2.250    0.000    0.000    0.375    0.000    0.000 
#    0.000    0.000    0.000    0.000    0.000    0.000 
#
# Total GULP energy -178760.800685 kJ/mol
# GULP energy per Si atom -5586.275021 kJ/mol
# Density = 2.036033 g / cm^3
# Si number density = 20.406773 Si / 1000 Ang^3
#
#
#
# Elastic Constant Matrix: (Units=GPa)
#
#
# Indices 1 2 3 4 5 6 
#
# 1 47.4977 34.1003 27.0924 0.0000 -1.5363 0.0000
# 2 34.1003 79.4255 20.7069 0.0000 -6.0935 0.0000
# 3 27.0924 20.7069 73.4017 0.0000 2.9247 0.0000
# 4 0.0000 0.0000 0.0000 18.4130 0.0000 -3.8380
# 5 -1.5363 -6.0935 2.9247 0.0000 32.4306 0.0000
# 6 0.0000 0.0000 0.0000 -3.8380 0.0000 15.9502
#
#
#
# Elastic Compliance Matrix: (Units=1/GPa)
#
#
# Indices 1 2 3 4 5 6 
#
# 1 0.035734 -0.012835 -0.009574 0.000000 0.000145 0.000000
# 2 -0.012835 0.018479 -0.000592 0.000000 0.002917 0.000000
# 3 -0.009574 -0.000592 0.017410 0.000000 -0.002135 0.000000
# 4 0.000000 0.000000 0.000000 0.057177 0.000000 0.013758
# 5 0.000145 0.002917 -0.002135 0.000000 0.031583 0.000000
# 6 0.000000 0.000000 0.000000 0.013758 0.000000 0.066006
#
#
# Mechanical properties :
#
#
# Convention : Reuss Voigt Hill
#
# Bulk Modulus (GPa) = 39.03130 40.45823 39.74477
# Shear Modulus (GPa) = 17.79799 21.25377 19.52588
#
# Velocity S-wave (km/s) = 2.95644 3.23074 3.09663
# Velocity P-wave (km/s) = 5.55178 5.81256 5.68366
#
# Compressibility (1/GPa) = 0.02562046
#
# Stress axis : x y z
#
# Youngs Moduli (GPa) = 27.98452 54.11552 57.43954
#
# Poissons Ratio (x) = 0.69456 0.54995
# Poissons Ratio (y) = 0.35917 0.03400
# Poissons Ratio (z) = 0.26794 0.03203
#
# Static dielectric constant tensor:
#      x y z
#    x 1.681060 0.000000 -0.010030 
#    y 0.000000 1.750090 0.000000 
#    z -0.010030 0.000000 1.773110 
# 
# From -- ./inp_files/270651.got.cif
#   From: 2010.05.17/outbox.cif.g08.bks.cpg/sg12_136_cif.got.tgz:270651.got - 2010.06.03 13:09:07.
