data_PCOD9208091
_publ_section_title
;
Structure prediction by ZEFSAII (Michael W. Deem and Ramdas Pophale) SiO2 
 PCOD9208091
Probable space group: C 2/M
;
_chemical_formula_sum "Si O2"
_cell_formula_units_Z 56
_cell_length_a 19.867605
_cell_length_b 18.291694
_cell_length_c 20.683928
_cell_angle_alpha 90.000000
_cell_angle_beta 159.535859
_cell_angle_gamma 90.000000
_cell_volume 2628.028577
_symmetry_space_group_name_H-M "C 2/M"
_symmetry_group_IT_number 12
_symmetry_cell_setting 'monoclinic'
loop_
_space_group_symop_operation_xyz
x,y,z
-x,y,-z
-x,-y,-z
x,-y,z
1/2+x,1/2+y,z
1/2-x,1/2+y,-z
1/2-x,1/2-y,-z
1/2+x,1/2-y,z
loop_
_atom_site_type_symbol
_atom_site_label
_atom_site_fract_x
_atom_site_fract_y
_atom_site_fract_z
Si Si1 0.975583 0.419210 0.055103
Si Si2 0.217743 0.846242 0.212000
Si Si3 0.248429 0.872310 0.494938
Si Si4 0.452679 0.753093 0.217923
Si Si5 0.817440 0.202840 0.230934
Si Si6 0.402498 0.083432 0.498265
Si Si7 0.387905 0.419946 0.492204
O O1 0.899229 0.500000 0.006850
O O2 0.841175 0.349401 0.945521
O O3 0.000000 0.420716 0.000000
O O4 0.183984 0.411082 0.274056
O O5 0.240820 0.760926 0.213571
O O6 0.377895 0.890599 0.315079
O O7 0.275956 0.864017 0.338068
O O8 0.000000 0.868037 0.000000
O O9 0.420911 0.824553 0.681285
O O10 0.335539 0.912503 0.511823
O O11 0.152641 0.916009 0.467260
O O12 0.087849 0.815889 0.324220
O O13 0.416918 0.748056 0.262816
O O14 0.250000 0.750000 0.000000
O O15 0.969061 0.145336 0.395591
O O16 0.379447 0.000000 0.455123
O O17 0.468413 0.500000 0.548242
#
# Coordination Sequence:
#
# PCOD9208091 Si02
#       7
#     8   8   8   8   8   8   8
#     4  10  22  39  58  88 127 168 214 260 307 368
#     4  11  25  42  63  92 128 169 218 267 319 377
#     4  10  21  40  64  96 128 164 211 258 319 384
#     4  10  21  37  61  93 130 162 205 261 317 377
#     4  11  22  39  61  93 123 165 211 261 311 376
#     4  11  25  45  68  95 129 166 215 270 321 386
#     4  10  22  41  66  94 130 169 207 257 318 379
#
# _framework density 21.308748000000001
#
# number of rings (size 3 to 8) (size 9 to 14) (size 15 to 20)
#    0.000    1.571    1.429    3.000    2.000    6.286 
#    0.000    2.143    0.000    5.143    0.000    0.000 
#    0.000    0.000    0.000    0.000    0.000    0.000 
#
# Total GULP energy -156515.071766 kJ/mol
# GULP energy per Si atom -5589.823992 kJ/mol
# Density = 2.126025 g / cm^3
# Si number density = 21.308748 Si / 1000 Ang^3
#
#
#
# Elastic Constant Matrix: (Units=GPa)
#
#
# Indices 1 2 3 4 5 6 
#
# 1 82.1415 10.3398 14.6751 0.0144 -6.5920 -0.0179
# 2 10.3398 99.9533 40.2587 0.0504 -4.7064 -0.0218
# 3 14.6751 40.2587 143.1779 -0.0019 5.5184 -0.0556
# 4 0.0144 0.0504 -0.0019 48.7665 0.0122 46.7258
# 5 -6.5920 -4.7064 5.5184 0.0122 19.6395 -0.0134
# 6 -0.0179 -0.0218 -0.0556 46.7258 -0.0134 34.9155
#
#
#
# Elastic Compliance Matrix: (Units=1/GPa)
#
#
# Indices 1 2 3 4 5 6 
#
# 1 0.012850 -0.000580 -0.001329 0.000035 0.004547 -0.000041
# 2 -0.000580 0.011571 -0.003330 0.000055 0.003514 -0.000071
# 3 -0.001329 -0.003330 0.008193 0.000012 -0.003546 -0.000008
# 4 0.000035 0.000055 0.000012 -0.072650 0.000133 0.097224
# 5 0.004547 0.003514 -0.003546 0.000133 0.054282 -0.000158
# 6 -0.000041 -0.000071 -0.000008 0.097224 -0.000158 -0.101470
#
#
# Mechanical properties :
#
#
# Convention : Reuss Voigt Hill
#
# Bulk Modulus (GPa) = 45.17356 50.64665 47.91011
# Shear Modulus (GPa) = -72.07949 37.99759 -17.04095
#
# Velocity S-wave (km/s) = -5.82234 4.22737 -2.83099
# Velocity P-wave (km/s) = 4.89428 6.90269 3.44188
#
# Compressibility (1/GPa) = 0.02213684
#
# Stress axis : x y z
#
# Youngs Moduli (GPa) = 77.82400 86.42202 122.04861
#
# Poissons Ratio (x) = 0.05010 0.16224
# Poissons Ratio (y) = 0.04512 0.40637
# Poissons Ratio (z) = 0.10345 0.28775
#
# Static dielectric constant tensor:
#      x y z
#    x 1.780300 -0.000040 0.014890 
#    y -0.000040 1.796270 -0.000040 
#    z 0.014890 -0.000040 1.745430 
# 
# From -- ./inp_files/322734.got.cif
#   From: 2010.05.17/outbox.cif.g08.bks.cpg/sg12_162_cif.got.tgz:322734.got - 2010.06.03 13:09:07.
