data_PCOD9208762
_publ_section_title
;
Structure prediction by ZEFSAII (Michael W. Deem and Ramdas Pophale) SiO2 
 PCOD9208762
Probable space group: C 2/M
;
_chemical_formula_sum "Si O2"
_cell_formula_units_Z 56
_cell_length_a 27.512273
_cell_length_b 8.370103
_cell_length_c 12.261559
_cell_angle_alpha 90.000000
_cell_angle_beta 123.940706
_cell_angle_gamma 90.000000
_cell_volume 2342.502126
_symmetry_space_group_name_H-M "C 2/M"
_symmetry_group_IT_number 12
_symmetry_cell_setting 'monoclinic'
loop_
_space_group_symop_operation_xyz
x,y,z
-x,y,-z
-x,-y,-z
x,-y,z
1/2+x,1/2+y,z
1/2-x,1/2+y,-z
1/2-x,1/2-y,-z
1/2+x,1/2-y,z
loop_
_atom_site_type_symbol
_atom_site_label
_atom_site_fract_x
_atom_site_fract_y
_atom_site_fract_z
Si Si1 0.258050 0.319072 0.694396
Si Si2 0.452129 0.312306 0.220372
Si Si3 0.115453 0.193579 0.070971
Si Si4 0.586143 0.808170 0.619529
Si Si5 0.052752 0.683723 0.195329
Si Si6 0.360523 0.685378 0.536622
Si Si7 0.798077 0.323411 0.136486
O O1 0.263735 0.500000 0.656023
O O2 0.322314 0.251662 0.801646
O O3 0.208181 0.222507 0.568213
O O4 0.230106 0.334201 0.779569
O O5 0.445722 0.500000 0.234291
O O6 0.463271 0.226240 0.351307
O O7 0.507732 0.284357 0.211403
O O8 0.400156 0.255732 0.071972
O O9 0.065809 0.253272 0.091151
O O10 0.116890 0.000000 0.071819
O O11 0.601033 0.726446 0.523619
O O12 0.640254 0.742258 0.762553
O O13 0.589988 0.000000 0.607627
O O14 0.034150 0.500000 0.170947
O O15 0.113705 0.704726 0.336791
O O16 0.368196 0.500000 0.573588
O O17 0.811276 0.500000 0.111187
O O18 0.750000 0.250000 0.000000
#
# Coordination Sequence:
#
# PCOD9208762 Si02
#       7
#     8   8   8   8   8   8   8
#     4   9  19  37  59  86 121 158 196 243 300 358
#     4  11  23  41  65  93 123 158 203 251 301 357
#     4  10  22  41  65  92 124 161 202 250 302 357
#     4  10  21  38  59  87 123 159 197 245 301 359
#     4  12  26  43  63  87 120 162 206 254 305 359
#     4  11  23  41  64  91 122 159 205 251 301 360
#     4   9  17  29  49  79 116 155 193 236 288 349
#
# _framework density 23.90606
#
# number of rings (size 3 to 8) (size 9 to 14) (size 15 to 20)
#    0.000    1.714    0.000    5.571    0.000    8.571 
#    0.000    2.857    0.000    0.000    0.000    0.000 
#    0.000    0.000    0.000    0.000    0.000    0.000 
#
# Total GULP energy -156389.741477 kJ/mol
# GULP energy per Si atom -5585.347910 kJ/mol
# Density = 2.385165 g / cm^3
# Si number density = 23.906060 Si / 1000 Ang^3
#
#
#
# Elastic Constant Matrix: (Units=GPa)
#
#
# Indices 1 2 3 4 5 6 
#
# 1 76.6430 -1.7946 1.4275 0.0000 -14.7501 0.0000
# 2 -1.7946 52.6108 0.3969 0.0000 -4.9827 0.0000
# 3 1.4275 0.3969 80.4720 0.0000 -16.0342 0.0000
# 4 0.0000 0.0000 0.0000 24.4750 0.0000 0.5792
# 5 -14.7501 -4.9827 -16.0342 0.0000 48.6353 0.0000
# 6 0.0000 0.0000 0.0000 0.5792 0.0000 29.0272
#
#
#
# Elastic Compliance Matrix: (Units=1/GPa)
#
#
# Indices 1 2 3 4 5 6 
#
# 1 0.013928 0.000899 0.000651 0.000000 0.004531 0.000000
# 2 0.000899 0.019259 0.000360 0.000000 0.002365 0.000000
# 3 0.000651 0.000360 0.013336 0.000000 0.004631 0.000000
# 4 0.000000 0.000000 0.000000 0.040877 0.000000 -0.000816
# 5 0.004531 0.002365 0.004631 0.000000 0.023704 0.000000
# 6 0.000000 0.000000 0.000000 -0.000816 0.000000 0.034467
#
#
# Mechanical properties :
#
#
# Convention : Reuss Voigt Hill
#
# Bulk Modulus (GPa) = 19.86268 23.30950 21.58609
# Shear Modulus (GPa) = 31.53923 34.40722 32.97322
#
# Velocity S-wave (km/s) = 3.63616 3.79788 3.71790
# Velocity P-wave (km/s) = 5.09466 5.38549 5.24209
#
# Compressibility (1/GPa) = 0.05034566
#
# Stress axis : x y z
#
# Youngs Moduli (GPa) = 71.79552 51.92270 74.98437
#
# Poissons Ratio (x) = -0.04670 -0.04884
# Poissons Ratio (y) = -0.06457 -0.02701
# Poissons Ratio (z) = -0.04676 -0.01870
#
# Static dielectric constant tensor:
#      x y z
#    x 2.065200 0.000000 0.081610 
#    y 0.000000 1.855330 0.000000 
#    z 0.081610 0.000000 2.005050 
# 
# From -- ./inp_files/187762.got.cif
#   From: 2010.05.17/outbox.cif.g08.bks.cpg/sg12_94_cif.got.tgz:187762.got - 2010.06.03 13:09:07.
