data_PCOD9208358
_publ_section_title
;
Structure prediction by ZEFSAII (Michael W. Deem and Ramdas Pophale) SiO2 
 PCOD9208358
Probable space group: C 2/M
;
_chemical_formula_sum "Si O2"
_cell_formula_units_Z 42
_cell_length_a 19.742938
_cell_length_b 7.160825
_cell_length_c 10.677503
_cell_angle_alpha 90.000000
_cell_angle_beta 78.824870
_cell_angle_gamma 90.000000
_cell_volume 1480.917898
_symmetry_space_group_name_H-M "C 2/M"
_symmetry_group_IT_number 12
_symmetry_cell_setting 'monoclinic'
loop_
_space_group_symop_operation_xyz
x,y,z
-x,y,-z
-x,-y,-z
x,-y,z
1/2+x,1/2+y,z
1/2-x,1/2+y,-z
1/2-x,1/2-y,-z
1/2+x,1/2-y,z
loop_
_atom_site_type_symbol
_atom_site_label
_atom_site_fract_x
_atom_site_fract_y
_atom_site_fract_z
Si Si1 0.847494 0.787911 0.213237
Si Si2 0.708909 0.720150 0.383668
Si Si3 0.830741 0.221264 0.956801
Si Si4 0.576454 0.727348 0.563033
Si Si5 0.500000 0.000000 0.000000
Si Si6 0.039433 0.772118 0.219164
O O1 0.764712 0.792884 0.264804
O O2 0.861229 0.696752 0.075144
O O3 0.883650 0.712963 0.323028
O O4 0.872172 0.000000 0.198235
O O5 0.703991 0.500000 0.358640
O O6 0.750000 0.750000 0.500000
O O7 0.632038 0.790326 0.439937
O O8 0.838230 0.000000 0.958464
O O9 0.750000 0.250000 0.000000
O O10 0.879220 0.278285 0.825287
O O11 0.576750 0.500000 0.550752
O O12 0.498555 0.775491 0.635019
O O13 0.493007 0.835943 0.888304
O O14 0.032809 0.000000 0.211070
#
# Coordination Sequence:
#
# PCOD9208358 Si02
#       6
#     8   8   8   8   2   8
#     4   9  17  31  49  75 103 138 173 218 272 325
#     4   9  16  28  46  73 103 137 170 210 265 332
#     4  10  22  38  57  74 106 149 190 231 274 322
#     4   8  15  31  53  73 106 138 168 212 279 335
#     4  12  22  32  56  90 112 138 186 224 280 356
#     4  10  21  38  54  79 115 147 177 231 287 330
#
# _framework density 28.360787999999999
#
# number of rings (size 3 to 8) (size 9 to 14) (size 15 to 20)
#    0.000    2.667    0.000    3.143    1.333    3.810 
#   15.429    0.000    0.000    1.143    0.000    8.000 
#    0.000    0.000    0.000    0.000    0.000    0.000 
#
# Total GULP energy -117022.920798 kJ/mol
# GULP energy per Si atom -5572.520038 kJ/mol
# Density = 2.829624 g / cm^3
# Si number density = 28.360788 Si / 1000 Ang^3
#
#
#
# Elastic Constant Matrix: (Units=GPa)
#
#
# Indices 1 2 3 4 5 6 
#
# 1 119.8755 -23.7928 34.4645 0.0000 -51.2164 0.0000
# 2 -23.7928 171.7829 -10.8410 0.0000 6.1042 0.0000
# 3 34.4645 -10.8410 212.9761 0.0000 -29.8064 0.0000
# 4 0.0000 0.0000 0.0000 -1.0708 0.0000 -6.3434
# 5 -51.2164 6.1042 -29.8064 0.0000 67.9119 0.0000
# 6 0.0000 0.0000 0.0000 -6.3434 0.0000 5.9848
#
#
#
# Elastic Compliance Matrix: (Units=1/GPa)
#
#
# Indices 1 2 3 4 5 6 
#
# 1 0.012741 0.001394 -0.000707 0.000000 0.009173 0.000000
# 2 0.001394 0.006004 0.000162 0.000000 0.000583 0.000000
# 3 -0.000707 0.000162 0.005052 0.000000 0.001669 0.000000
# 4 0.000000 0.000000 0.000000 -0.128301 0.000000 -0.135987
# 5 0.009173 0.000583 0.001669 0.000000 0.022323 0.000000
# 6 0.000000 0.000000 0.000000 -0.135987 0.000000 0.022954
#
#
# Mechanical properties :
#
#
# Convention : Reuss Voigt Hill
#
# Bulk Modulus (GPa) = 39.22487 56.03289 47.62888
# Shear Modulus (GPa) = -95.37324 48.21878 -23.57723
#
# Velocity S-wave (km/s) = -5.80530 4.12781 -2.88641
# Velocity P-wave (km/s) = 5.57447 6.52062 2.39205
#
# Compressibility (1/GPa) = 0.02549403
#
# Stress axis : x y z
#
# Youngs Moduli (GPa) = 78.48539 166.55875 197.95549
#
# Poissons Ratio (x) = -0.23221 0.13996
# Poissons Ratio (y) = -0.10942 -0.03198
# Poissons Ratio (z) = 0.05549 -0.02691
#
# Static dielectric constant tensor:
#      x y z
#    x 2.362020 0.000000 -0.022530 
#    y 0.000000 1.962370 0.000000 
#    z -0.022530 0.000000 2.207430 
# 
# From -- ./inp_files/286970.got.cif
#   From: 2010.05.17/outbox.cif.g08.bks.cpg/sg12_144_cif.got.tgz:286970.got - 2010.06.03 13:09:07.
