data_PCOD9208129
_publ_section_title
;
Structure prediction by ZEFSAII (Michael W. Deem and Ramdas Pophale) SiO2 
 PCOD9208129
Probable space group: C 2/M
;
_chemical_formula_sum "Si O2"
_cell_formula_units_Z 48
_cell_length_a 10.898516
_cell_length_b 24.933658
_cell_length_c 8.257601
_cell_angle_alpha 90.000000
_cell_angle_beta 83.976907
_cell_angle_gamma 90.000000
_cell_volume 2231.532284
_symmetry_space_group_name_H-M "C 2/M"
_symmetry_group_IT_number 12
_symmetry_cell_setting 'monoclinic'
loop_
_space_group_symop_operation_xyz
x,y,z
-x,y,-z
-x,-y,-z
x,-y,z
1/2+x,1/2+y,z
1/2-x,1/2+y,-z
1/2-x,1/2-y,-z
1/2+x,1/2-y,z
loop_
_atom_site_type_symbol
_atom_site_label
_atom_site_fract_x
_atom_site_fract_y
_atom_site_fract_z
Si Si1 0.898619 0.192095 0.249661
Si Si2 0.553816 0.811683 0.733330
Si Si3 0.743354 0.119634 0.522631
Si Si4 0.881679 0.112403 0.847320
Si Si5 0.710182 0.500000 0.530234
Si Si6 0.530305 0.500000 0.238666
Si Si7 0.191398 0.669814 0.055474
O O1 0.944832 0.248851 0.312381
O O2 0.826251 0.153386 0.384785
O O3 0.797630 0.205185 0.124502
O O4 0.015293 0.158869 0.168227
O O5 0.622897 0.846933 0.590240
O O6 0.419038 0.833116 0.800903
O O7 0.629783 0.815301 0.892849
O O8 0.821516 0.116743 0.677917
O O9 0.721083 0.057517 0.475977
O O10 0.941036 0.054796 0.853193
O O11 0.774734 0.118867 0.995238
O O12 0.623433 0.500000 0.381235
O O13 0.610070 0.500000 0.685708
#
# Coordination Sequence:
#
# PCOD9208129 Si02
#       7
#     8   8   8   8   4   4   8
#     4  12  22  35  61  88 118 152 195 248 291 342
#     4  10  24  40  58  80 122 162 193 236 289 357
#     4  10  21  39  60  91 116 153 195 244 290 346
#     4  10  21  37  62  88 123 150 196 240 297 347
#     4   9  16  34  62  85 117 151 193 237 298 346
#     4   9  16  34  59  89 115 156 188 244 292 344
#     4  10  24  40  56  84 118 159 197 232 293 353
#
# _framework density 21.509881
#
# number of rings (size 3 to 8) (size 9 to 14) (size 15 to 20)
#    0.000    1.833    1.667    2.000    9.333    0.667 
#    3.000    3.333    0.000    6.000    0.000    0.000 
#    0.000    0.000    0.000    0.000    0.000    0.000 
#
# Total GULP energy -133940.631047 kJ/mol
# GULP energy per Si atom -5580.859627 kJ/mol
# Density = 2.146092 g / cm^3
# Si number density = 21.509881 Si / 1000 Ang^3
#
#
#
# Elastic Constant Matrix: (Units=GPa)
#
#
# Indices 1 2 3 4 5 6 
#
# 1 99.8486 72.5404 35.5443 0.0000 -23.9068 0.0000
# 2 72.5404 202.0641 57.4352 0.0000 -57.9106 0.0000
# 3 35.5443 57.4352 86.4334 0.0000 -25.4102 0.0000
# 4 0.0000 0.0000 0.0000 41.1617 0.0000 -34.7088
# 5 -23.9068 -57.9106 -25.4102 0.0000 45.6942 0.0000
# 6 0.0000 0.0000 0.0000 -34.7088 0.0000 42.1902
#
#
#
# Elastic Compliance Matrix: (Units=1/GPa)
#
#
# Indices 1 2 3 4 5 6 
#
# 1 0.014169 -0.004075 -0.002938 0.000000 0.000614 0.000000
# 2 -0.004075 0.009515 -0.002066 0.000000 0.008777 0.000000
# 3 -0.002938 -0.002066 0.015456 0.000000 0.004439 0.000000
# 4 0.000000 0.000000 0.000000 0.079317 0.000000 0.065252
# 5 0.000614 0.008777 0.004439 0.000000 0.035799 0.000000
# 6 0.000000 0.000000 0.000000 0.065252 0.000000 0.077383
#
#
# Mechanical properties :
#
#
# Convention : Reuss Voigt Hill
#
# Bulk Modulus (GPa) = 47.66387 79.93174 63.79781
# Shear Modulus (GPa) = 19.47109 40.66430 30.06770
#
# Velocity S-wave (km/s) = 3.01194 4.35270 3.74285
# Velocity P-wave (km/s) = 5.85687 7.90585 6.95720
#
# Compressibility (1/GPa) = 0.02098025
#
# Stress axis : x y z
#
# Youngs Moduli (GPa) = 70.57685 105.09832 64.70030
#
# Poissons Ratio (x) = 0.42833 0.19009
# Poissons Ratio (y) = 0.28763 0.13369
# Poissons Ratio (z) = 0.20736 0.21716
#
# Static dielectric constant tensor:
#      x y z
#    x 1.779150 0.000000 0.051630 
#    y 0.000000 1.759460 0.000000 
#    z 0.051630 0.000000 1.826120 
# 
# From -- ./inp_files/50670.got.cif
#   From: 2010.05.17/outbox.cif.g08.bks.cpg/sg12_26_cif.got.tgz:50670.got - 2010.06.03 13:09:07.
