data_PCOD9208747
_publ_section_title
;
Structure prediction by ZEFSAII (Michael W. Deem and Ramdas Pophale) SiO2 
 PCOD9208747
Probable space group: C 2/M
;
_chemical_formula_sum "Si O2"
_cell_formula_units_Z 58
_cell_length_a 22.610379
_cell_length_b 7.652598
_cell_length_c 15.184268
_cell_angle_alpha 90.000000
_cell_angle_beta 87.788478
_cell_angle_gamma 90.000000
_cell_volume 2625.348787
_symmetry_space_group_name_H-M "C 2/M"
_symmetry_group_IT_number 12
_symmetry_cell_setting 'monoclinic'
loop_
_space_group_symop_operation_xyz
x,y,z
-x,y,-z
-x,-y,-z
x,-y,z
1/2+x,1/2+y,z
1/2-x,1/2+y,-z
1/2-x,1/2-y,-z
1/2+x,1/2-y,z
loop_
_atom_site_type_symbol
_atom_site_label
_atom_site_fract_x
_atom_site_fract_y
_atom_site_fract_z
Si Si1 0.605550 0.201822 0.702921
Si Si2 0.000000 0.000000 0.000000
Si Si3 0.567159 0.786654 0.516322
Si Si4 0.737429 0.710742 0.730693
Si Si5 0.042345 0.302305 0.882873
Si Si6 0.711191 0.792347 0.086826
Si Si7 0.583565 0.306228 0.153271
Si Si8 0.364780 0.787866 0.661374
O O1 0.584905 0.280167 0.611577
O O2 0.676053 0.212022 0.703165
O O3 0.577555 0.267849 0.795312
O O4 0.585769 0.000000 0.703148
O O5 0.043994 0.157788 0.957889
O O6 0.500000 0.739952 0.500000
O O7 0.607221 0.730415 0.432003
O O8 0.571361 0.000000 0.517667
O O9 0.731277 0.500000 0.730764
O O10 0.753657 0.769359 0.828556
O O11 0.795419 0.755798 0.671015
O O12 0.062482 0.500000 0.905744
O O13 0.972948 0.312381 0.859894
O O14 0.644308 0.722408 0.097040
O O15 0.705069 0.000000 0.094849
O O16 0.750000 0.750000 0.000000
O O17 0.559170 0.500000 0.131724
O O18 0.602853 0.289504 0.254434
O O19 0.369978 0.000000 0.669307
#
# Coordination Sequence:
#
# PCOD9208747 Si02
#       8
#     8   2   8   8   8   8   8   8
#     4  10  22  38  61  89 120 164 209 256 318 384
#     4  12  26  44  64  94 122 164 214 260 318 388
#     4   9  17  33  59  90 120 158 213 263 313 380
#     4   9  20  36  55  81 121 167 204 254 320 378
#     4  11  24  44  65  91 127 165 212 262 321 386
#     4  10  21  38  59  87 118 156 207 259 319 380
#     4  11  21  37  61  89 121 160 203 261 317 373
#     4   9  18  35  59  87 121 163 210 257 313 374
#
# _framework density 22.092302
#
# number of rings (size 3 to 8) (size 9 to 14) (size 15 to 20)
#    0.000    2.069    0.690    3.517    0.966    6.621 
#    2.483    2.069    0.000    1.655    0.000    0.000 
#    0.000    0.000    0.000    0.000    0.000    0.000 
#
# Total GULP energy -161840.517710 kJ/mol
# GULP energy per Si atom -5580.707507 kJ/mol
# Density = 2.204202 g / cm^3
# Si number density = 22.092302 Si / 1000 Ang^3
#
#
#
# Elastic Constant Matrix: (Units=GPa)
#
#
# Indices 1 2 3 4 5 6 
#
# 1 86.6402 0.0440 50.1519 0.0000 -4.0342 0.0000
# 2 0.0440 81.6088 20.4929 0.0000 -4.4352 0.0000
# 3 50.1519 20.4929 150.0506 0.0000 -34.9747 0.0000
# 4 0.0000 0.0000 0.0000 7.7797 0.0000 -4.2334
# 5 -4.0342 -4.4352 -34.9747 0.0000 34.8885 0.0000
# 6 0.0000 0.0000 0.0000 -4.2334 0.0000 18.0654
#
#
#
# Elastic Compliance Matrix: (Units=1/GPa)
#
#
# Indices 1 2 3 4 5 6 
#
# 1 0.014907 0.001306 -0.006160 0.000000 -0.004285 0.000000
# 2 0.001306 0.012804 -0.002310 0.000000 -0.000537 0.000000
# 3 -0.006160 -0.002310 0.011489 0.000000 0.010511 0.000000
# 4 0.000000 0.000000 0.000000 0.147327 0.000000 0.034524
# 5 -0.004285 -0.000537 0.010511 0.000000 0.038636 0.000000
# 6 0.000000 0.000000 0.000000 0.034524 0.000000 0.063445
#
#
# Mechanical properties :
#
#
# Convention : Reuss Voigt Hill
#
# Bulk Modulus (GPa) = 40.20668 51.07524 45.64096
# Shear Modulus (GPa) = 16.06546 28.65409 22.35978
#
# Velocity S-wave (km/s) = 2.69958 3.60532 3.18481
# Velocity P-wave (km/s) = 5.28734 6.36399 5.85048
#
# Compressibility (1/GPa) = 0.02487149
#
# Stress axis : x y z
#
# Youngs Moduli (GPa) = 67.08106 78.10161 87.04188
#
# Poissons Ratio (x) = -0.10199 0.53615
# Poissons Ratio (y) = -0.08760 0.20110
# Poissons Ratio (z) = 0.41320 0.18044
#
# Static dielectric constant tensor:
#      x y z
#    x 1.724010 0.000000 -0.077060 
#    y 0.000000 1.843670 0.000000 
#    z -0.077060 0.000000 1.741240 
# 
# From -- ./inp_files/237604.got.cif
#   From: 2010.05.17/outbox.cif.g08.bks.cpg/sg12_119_cif.got.tgz:237604.got - 2010.06.03 13:09:07.
