data_PCOD9208407
_publ_section_title
;
Structure prediction by ZEFSAII (Michael W. Deem and Ramdas Pophale) SiO2 
 PCOD9208407
Probable space group: C 2/M
;
_chemical_formula_sum "Si O2"
_cell_formula_units_Z 48
_cell_length_a 18.176091
_cell_length_b 7.616664
_cell_length_c 21.472144
_cell_angle_alpha 90.000000
_cell_angle_beta 129.442775
_cell_angle_gamma 90.000000
_cell_volume 2295.640888
_symmetry_space_group_name_H-M "C 2/M"
_symmetry_group_IT_number 12
_symmetry_cell_setting 'monoclinic'
loop_
_space_group_symop_operation_xyz
x,y,z
-x,y,-z
-x,-y,-z
x,-y,z
1/2+x,1/2+y,z
1/2-x,1/2+y,-z
1/2-x,1/2-y,-z
1/2+x,1/2-y,z
loop_
_atom_site_type_symbol
_atom_site_label
_atom_site_fract_x
_atom_site_fract_y
_atom_site_fract_z
Si Si1 0.469633 0.784760 0.238376
Si Si2 0.096101 0.704608 0.080728
Si Si3 0.856785 0.288241 0.757754
Si Si4 0.762323 0.708239 0.417323
Si Si5 0.735878 0.790589 0.919969
Si Si6 0.911880 0.299583 0.587859
O O1 0.550381 0.731748 0.232009
O O2 0.366220 0.727415 0.160326
O O3 0.503260 0.721670 0.324883
O O4 0.470582 0.000000 0.240214
O O5 0.073870 0.500000 0.082161
O O6 0.131926 0.778319 0.165950
O O7 0.178792 0.714319 0.074649
O O8 0.000000 0.783966 0.000000
O O9 0.854998 0.500000 0.756910
O O10 0.764085 0.232808 0.668719
O O11 0.757731 0.500000 0.428234
O O12 0.862694 0.774831 0.499138
O O13 0.677076 0.796526 0.411023
O O14 0.738124 0.000000 0.913518
O O15 0.750000 0.750000 0.000000
O O16 0.939348 0.500000 0.588524
#
# Coordination Sequence:
#
# PCOD9208407 Si02
#       6
#     8   8   8   8   8   8
#     4   8  15  30  51  72  95 129 168 200 237 289
#     4  10  21  38  57  74  97 132 170 205 247 300
#     4   9  17  31  51  71  96 131 165 198 242 297
#     4   9  15  23  41  70  99 124 157 204 245 279
#     4  11  22  36  55  77 102 130 164 207 251 298
#     4   8  14  26  43  64  94 131 166 196 234 287
#
# _framework density 20.909193999999999
#
# number of rings (size 3 to 8) (size 9 to 14) (size 15 to 20)
#    0.000    2.833    0.000    3.000    0.000    4.333 
#    0.000   10.000    0.000    1.000    0.000    7.000 
#    0.000    0.000    0.000    0.000    0.000    0.000 
#
# Total GULP energy -133761.266454 kJ/mol
# GULP energy per Si atom -5573.386102 kJ/mol
# Density = 2.086160 g / cm^3
# Si number density = 20.909194 Si / 1000 Ang^3
#
#
#
# Elastic Constant Matrix: (Units=GPa)
#
#
# Indices 1 2 3 4 5 6 
#
# 1 50.3789 -11.1862 68.4361 0.0000 -3.3844 0.0000
# 2 -11.1862 52.5490 -0.3344 0.0000 -1.3548 0.0000
# 3 68.4361 -0.3344 265.4156 0.0000 -1.5725 0.0000
# 4 0.0000 0.0000 0.0000 16.0409 0.0000 -4.4442
# 5 -3.3844 -1.3548 -1.5725 0.0000 29.0165 0.0000
# 6 0.0000 0.0000 0.0000 -4.4442 0.0000 12.3539
#
#
#
# Elastic Compliance Matrix: (Units=1/GPa)
#
#
# Indices 1 2 3 4 5 6 
#
# 1 0.033311 0.007133 -0.008558 0.000000 0.003755 0.000000
# 2 0.007133 0.020581 -0.001803 0.000000 0.001695 0.000000
# 3 -0.008558 -0.001803 0.005967 0.000000 -0.000759 0.000000
# 4 0.000000 0.000000 0.000000 0.069242 0.000000 0.024909
# 5 0.003755 0.001695 -0.000759 0.000000 0.034939 0.000000
# 6 0.000000 0.000000 0.000000 0.024909 0.000000 0.089907
#
#
# Mechanical properties :
#
#
# Convention : Reuss Voigt Hill
#
# Bulk Modulus (GPa) = 18.72546 53.57494 36.15020
# Shear Modulus (GPa) = 17.97246 32.24414 25.10830
#
# Velocity S-wave (km/s) = 2.93499 3.93122 3.46905
# Velocity P-wave (km/s) = 4.52334 6.80326 5.77689
#
# Compressibility (1/GPa) = 0.05340324
#
# Stress axis : x y z
#
# Youngs Moduli (GPa) = 30.02026 48.58953 167.57453
#
# Poissons Ratio (x) = -0.34660 1.43407
# Poissons Ratio (y) = -0.21414 0.30219
# Poissons Ratio (z) = 0.25691 0.08762
#
# Static dielectric constant tensor:
#      x y z
#    x 1.756700 0.000000 -0.002780 
#    y 0.000000 1.827770 0.000000 
#    z -0.002780 0.000000 1.828990 
# 
# From -- ./inp_files/313609.got.cif
#   From: 2010.05.17/outbox.cif.g08.bks.cpg/sg12_157_cif.got.tgz:313609.got - 2010.06.03 13:09:07.
