data_PCOD9208885
_publ_section_title
;
Structure prediction by ZEFSAII (Michael W. Deem and Ramdas Pophale) SiO2 
 PCOD9208885
Probable space group: C 2/M
;
_chemical_formula_sum "Si O2"
_cell_formula_units_Z 56
_cell_length_a 28.175420
_cell_length_b 9.120071
_cell_length_c 20.433607
_cell_angle_alpha 90.000000
_cell_angle_beta 34.696890
_cell_angle_gamma 90.000000
_cell_volume 2988.857233
_symmetry_space_group_name_H-M "C 2/M"
_symmetry_group_IT_number 12
_symmetry_cell_setting 'monoclinic'
loop_
_space_group_symop_operation_xyz
x,y,z
-x,y,-z
-x,-y,-z
x,-y,z
1/2+x,1/2+y,z
1/2-x,1/2+y,-z
1/2-x,1/2-y,-z
1/2+x,1/2-y,z
loop_
_atom_site_type_symbol
_atom_site_label
_atom_site_fract_x
_atom_site_fract_y
_atom_site_fract_z
Si Si1 0.760435 0.331493 0.236745
Si Si2 0.162321 0.831719 0.098079
Si Si3 0.639777 0.160276 0.005432
Si Si4 0.049342 0.665237 0.779185
Si Si5 0.430829 0.677224 0.523420
Si Si6 0.087029 0.825162 0.864403
Si Si7 0.496181 0.175804 0.319216
O O1 0.765091 0.500000 0.255701
O O2 0.790091 0.333435 0.128085
O O3 0.664311 0.284384 0.349654
O O4 0.830929 0.238664 0.193458
O O5 0.089110 0.743879 0.216889
O O6 0.165029 0.000000 0.114974
O O7 0.250000 0.750000 0.000000
O O8 0.140633 0.806564 0.046888
O O9 0.649053 0.000000 0.030704
O O10 0.545845 0.154870 0.086744
O O11 0.085004 0.500000 0.740836
O O12 0.090556 0.770516 0.785171
O O13 0.041065 0.708748 0.711619
O O14 0.500000 0.719445 0.500000
O O15 0.436188 0.500000 0.510793
O O16 0.448644 0.752762 0.433703
O O17 0.088828 0.000000 0.864567
O O18 0.000000 0.779518 0.000000
O O19 0.498893 0.000000 0.321197
#
# Coordination Sequence:
#
# PCOD9208885 Si02
#       7
#     8   8   8   8   8   8   8
#     4  10  21  38  60  85 120 161 203 243 295 365
#     4  11  22  35  55  83 116 152 194 248 304 361
#     4   9  18  33  54  83 116 153 194 238 292 360
#     4   9  18  35  59  84 116 156 195 235 293 364
#     4  10  23  42  64  90 118 159 207 252 301 357
#     4  11  22  34  55  91 127 155 195 248 304 359
#     4  10  22  41  61  86 117 156 203 248 300 360
#
# _framework density 18.736259
#
# number of rings (size 3 to 8) (size 9 to 14) (size 15 to 20)
#    0.000    2.000    1.429    3.000    2.000    4.857 
#    0.000    0.714    0.000    0.000    0.000    0.000 
#    0.000    0.000    0.000    0.000    0.000    0.000 
#
# Total GULP energy -155904.570418 kJ/mol
# GULP energy per Si atom -5568.020372 kJ/mol
# Density = 1.869361 g / cm^3
# Si number density = 18.736259 Si / 1000 Ang^3
#
#
#
# Elastic Constant Matrix: (Units=GPa)
#
#
# Indices 1 2 3 4 5 6 
#
# 1 57.2650 29.6971 38.1264 -0.0037 -7.7348 0.0007
# 2 29.6971 52.6941 25.3047 -0.0072 -4.2316 0.0064
# 3 38.1264 25.3047 119.9742 -0.0037 3.2447 0.0034
# 4 -0.0037 -0.0072 -0.0037 24.0955 0.0014 -1.9323
# 5 -7.7348 -4.2316 3.2447 0.0014 26.9765 -0.0002
# 6 0.0007 0.0064 0.0034 -1.9323 -0.0002 11.2289
#
#
#
# Elastic Compliance Matrix: (Units=1/GPa)
#
#
# Indices 1 2 3 4 5 6 
#
# 1 0.029730 -0.012833 -0.006940 0.000000 0.007346 0.000008
# 2 -0.012833 0.027064 -0.001651 0.000005 0.000764 -0.000013
# 3 -0.006940 -0.001651 0.010985 0.000000 -0.003570 -0.000002
# 4 0.000000 0.000005 0.000000 0.042082 -0.000001 0.007241
# 5 0.007346 0.000764 -0.003570 -0.000001 0.039725 0.000001
# 6 0.000008 -0.000013 -0.000002 0.007241 0.000001 0.090302
#
#
# Mechanical properties :
#
#
# Convention : Reuss Voigt Hill
#
# Bulk Modulus (GPa) = 40.10831 46.24329 43.17580
# Shear Modulus (GPa) = 17.17941 21.58055 19.37998
#
# Velocity S-wave (km/s) = 3.03133 3.39751 3.21963
# Velocity P-wave (km/s) = 5.80562 6.33447 6.07580
#
# Compressibility (1/GPa) = 0.02493249
#
# Stress axis : x y z
#
# Youngs Moduli (GPa) = 33.63565 36.94969 91.03063
#
# Poissons Ratio (x) = 0.47416 0.63175
# Poissons Ratio (y) = 0.43164 0.15028
# Poissons Ratio (z) = 0.23343 0.06100
#
# Static dielectric constant tensor:
#      x y z
#    x 1.792210 -0.000020 -0.026370 
#    y -0.000020 1.991580 0.000000 
#    z -0.026370 0.000000 1.656830 
# 
# From -- ./inp_files/329483.got.cif
#   From: 2010.05.17/outbox.cif.g08.bks.cpg/sg12_165_cif.got.tgz:329483.got - 2010.06.03 13:09:07.
