data_PCOD9208546
_publ_section_title
;
Structure prediction by ZEFSAII (Michael W. Deem and Ramdas Pophale) SiO2 
 PCOD9208546
Probable space group: C 2/M
;
_chemical_formula_sum "Si O2"
_cell_formula_units_Z 40
_cell_length_a 13.925151
_cell_length_b 28.510679
_cell_length_c 8.877495
_cell_angle_alpha 90.000000
_cell_angle_beta 32.352810
_cell_angle_gamma 90.000000
_cell_volume 1886.071656
_symmetry_space_group_name_H-M "C 2/M"
_symmetry_group_IT_number 12
_symmetry_cell_setting 'monoclinic'
loop_
_space_group_symop_operation_xyz
x,y,z
-x,y,-z
-x,-y,-z
x,-y,z
1/2+x,1/2+y,z
1/2-x,1/2+y,-z
1/2-x,1/2-y,-z
1/2+x,1/2-y,z
loop_
_atom_site_type_symbol
_atom_site_label
_atom_site_fract_x
_atom_site_fract_y
_atom_site_fract_z
Si Si1 0.849841 0.228240 0.507028
Si Si2 0.378140 0.447696 0.311728
Si Si3 0.619672 0.804666 0.085950
Si Si4 0.373181 0.118055 0.517452
Si Si5 0.575593 0.358832 0.137073
O O1 0.750000 0.250000 0.500000
O O2 0.021201 0.262696 0.308796
O O3 0.919799 0.178338 0.359266
O O4 0.705653 0.220365 0.828796
O O5 0.358133 0.500000 0.401930
O O6 0.192197 0.425915 0.494587
O O7 0.485186 0.410067 0.272940
O O8 0.500000 0.451365 0.000000
O O9 0.466390 0.844284 0.285982
O O10 0.780669 0.836406 0.938896
O O11 0.500000 0.108939 0.500000
O O12 0.191187 0.139346 0.830486
#
# Coordination Sequence:
#
# PCOD9208546 Si02
#       5
#     8   8   8   8   8
#     4  12  24  38  59  85 117 156 201 245 297 359
#     4   9  18  35  61  90 117 152 200 250 299 350
#     4  11  23  39  57  85 122 158 198 242 296 357
#     4   9  19  36  58  86 122 157 196 246 297 351
#     4  10  21  38  58  83 120 158 198 245 294 354
#
# _framework density 21.208102
#
# number of rings (size 3 to 8) (size 9 to 14) (size 15 to 20)
#    0.000    1.800    0.000    4.200    0.000    6.800 
#    0.000    3.000    0.000    4.800    0.000    0.000 
#    0.000    0.000    0.000    0.000    0.000    0.600 
#
# Total GULP energy -111466.027221 kJ/mol
# GULP energy per Si atom -5573.301361 kJ/mol
# Density = 2.115983 g / cm^3
# Si number density = 21.208102 Si / 1000 Ang^3
#
#
#
# Elastic Constant Matrix: (Units=GPa)
#
#
# Indices 1 2 3 4 5 6 
#
# 1 83.7677 50.1347 51.3416 0.0000 -8.8662 0.0000
# 2 50.1347 185.8966 68.2270 0.0000 -7.8220 0.0000
# 3 51.3416 68.2270 133.5787 0.0000 -3.4812 0.0000
# 4 0.0000 0.0000 0.0000 20.8264 0.0000 -3.1423
# 5 -8.8662 -7.8220 -3.4812 0.0000 24.1340 0.0000
# 6 0.0000 0.0000 0.0000 -3.1423 0.0000 33.0588
#
#
#
# Elastic Compliance Matrix: (Units=1/GPa)
#
#
# Indices 1 2 3 4 5 6 
#
# 1 0.017113 -0.002520 -0.005167 0.000000 0.004725 0.000000
# 2 -0.002520 0.007059 -0.002611 0.000000 0.000985 0.000000
# 3 -0.005167 -0.002611 0.010775 0.000000 -0.001190 0.000000
# 4 0.000000 0.000000 0.000000 0.048715 0.000000 0.004630
# 5 0.004725 0.000985 -0.001190 0.000000 0.043319 0.000000
# 6 0.000000 0.000000 0.000000 0.004630 0.000000 0.030689
#
#
# Mechanical properties :
#
#
# Convention : Reuss Voigt Hill
#
# Bulk Modulus (GPa) = 69.68601 82.51662 76.10131
# Shear Modulus (GPa) = 27.31505 31.17316 29.24411
#
# Velocity S-wave (km/s) = 3.59270 3.83805 3.71740
# Velocity P-wave (km/s) = 7.08093 7.65724 7.37472
#
# Compressibility (1/GPa) = 0.01435008
#
# Stress axis : x y z
#
# Youngs Moduli (GPa) = 58.43479 141.66868 92.80831
#
# Poissons Ratio (x) = 0.35700 0.47956
# Poissons Ratio (y) = 0.14725 0.24233
# Poissons Ratio (z) = 0.30195 0.36991
#
# Static dielectric constant tensor:
#      x y z
#    x 1.937350 0.000000 -0.058060 
#    y 0.000000 1.785950 0.000000 
#    z -0.058060 0.000000 1.780530 
# 
# From -- ./inp_files/68447.got.cif
#   From: 2010.05.17/outbox.cif.g08.bks.cpg/sg12_35_cif.got.tgz:68447.got - 2010.06.03 13:09:07.
