data_PCOD9208368
_publ_section_title
;
Structure prediction by ZEFSAII (Michael W. Deem and Ramdas Pophale) SiO2 
 PCOD9208368
Probable space group: C 2/M
;
_chemical_formula_sum "Si O2"
_cell_formula_units_Z 56
_cell_length_a 14.802689
_cell_length_b 27.309787
_cell_length_c 8.941442
_cell_angle_alpha 90.000000
_cell_angle_beta 120.089267
_cell_angle_gamma 90.000000
_cell_volume 3127.560837
_symmetry_space_group_name_H-M "C 2/M"
_symmetry_group_IT_number 12
_symmetry_cell_setting 'monoclinic'
loop_
_space_group_symop_operation_xyz
x,y,z
-x,y,-z
-x,-y,-z
x,-y,z
1/2+x,1/2+y,z
1/2-x,1/2+y,-z
1/2-x,1/2-y,-z
1/2+x,1/2-y,z
loop_
_atom_site_type_symbol
_atom_site_label
_atom_site_fract_x
_atom_site_fract_y
_atom_site_fract_z
Si Si1 0.906255 0.056715 0.633710
Si Si2 0.740763 0.855557 0.008268
Si Si3 0.219758 0.224436 0.701717
Si Si4 0.588576 0.729903 0.308572
Si Si5 0.426329 0.805451 0.299330
Si Si6 0.647676 0.443527 0.756147
Si Si7 0.893819 0.867401 0.856551
O O1 0.859197 0.060298 0.428681
O O2 0.851293 0.094786 0.698624
O O3 0.030125 0.068492 0.716465
O O4 0.898281 0.000000 0.676203
O O5 0.767176 0.813061 0.151309
O O6 0.767306 0.906624 0.109441
O O7 0.624211 0.846199 0.848766
O O8 0.817761 0.855771 0.929354
O O9 0.326723 0.235976 0.704327
O O10 0.136639 0.209832 0.504668
O O11 0.173002 0.275769 0.719729
O O12 0.490888 0.764138 0.263384
O O13 0.571130 0.682670 0.194021
O O14 0.500000 0.821169 0.500000
O O15 0.668091 0.500000 0.812965
O O16 0.000000 0.892237 0.000000
#
# Coordination Sequence:
#
# PCOD9208368 Si02
#       7
#     8   8   8   8   8   8   8
#     4   9  19  36  56  81 116 151 183 228 292 351
#     4  12  22  35  57  84 115 149 190 235 278 342
#     4  10  21  38  55  79 109 152 200 231 274 337
#     4  10  22  37  55  76 114 157 191 234 279 323
#     4  10  22  38  55  80 118 153 189 238 282 329
#     4   9  19  37  58  81 111 147 189 237 287 344
#     4  12  22  31  51  84 116 151 185 228 277 342
#
# _framework density 17.905327
#
# number of rings (size 3 to 8) (size 9 to 14) (size 15 to 20)
#    0.000    1.714    2.857    3.000    2.000    0.857 
#    0.000    0.000    0.000    0.429    0.000    2.000 
#    0.000    0.000    0.000    0.000    0.000    0.000 
#
# Total GULP energy -156176.716193 kJ/mol
# GULP energy per Si atom -5577.739864 kJ/mol
# Density = 1.786457 g / cm^3
# Si number density = 17.905327 Si / 1000 Ang^3
#
#
#
# Elastic Constant Matrix: (Units=GPa)
#
#
# Indices 1 2 3 4 5 6 
#
# 1 51.4296 10.6379 31.3249 0.0000 -9.0861 0.0000
# 2 10.6379 70.2557 72.0005 0.0000 0.6687 0.0000
# 3 31.3249 72.0005 102.6664 0.0000 -3.8467 0.0000
# 4 0.0000 0.0000 0.0000 30.1727 0.0000 19.5695
# 5 -9.0861 0.6687 -3.8467 0.0000 25.6448 0.0000
# 6 0.0000 0.0000 0.0000 19.5695 0.0000 -37.4412
#
#
#
# Elastic Compliance Matrix: (Units=1/GPa)
#
#
# Indices 1 2 3 4 5 6 
#
# 1 0.029464 0.015689 -0.019728 0.000000 0.007071 0.000000
# 2 0.015689 0.060122 -0.047066 0.000000 -0.003069 0.000000
# 3 -0.019728 -0.047066 0.048826 0.000000 0.001561 0.000000
# 4 0.000000 0.000000 0.000000 0.024752 0.000000 0.012937
# 5 0.007071 -0.003069 0.001561 0.000000 0.041814 0.000000
# 6 0.000000 0.000000 0.000000 0.012937 0.000000 -0.019947
#
#
# Mechanical properties :
#
#
# Convention : Reuss Voigt Hill
#
# Bulk Modulus (GPa) = 27.62243 50.25317 38.93780
# Shear Modulus (GPa) = 16.70523 11.03447 13.86985
#
# Velocity S-wave (km/s) = 3.05778 2.48517 2.78622
# Velocity P-wave (km/s) = 5.28461 6.03007 5.66960
#
# Compressibility (1/GPa) = 0.03620246
#
# Stress axis : x y z
#
# Youngs Moduli (GPa) = 33.93973 16.63281 20.48107
#
# Poissons Ratio (x) = -0.26095 0.40404
# Poissons Ratio (y) = -0.53248 0.96396
# Poissons Ratio (z) = 0.66955 0.78284
#
# Static dielectric constant tensor:
#      x y z
#    x 1.603370 0.000000 -0.017400 
#    y 0.000000 1.608920 0.000000 
#    z -0.017400 0.000000 1.688210 
# 
# From -- ./inp_files/65794.got.cif
#   From: 2010.05.17/outbox.cif.g08.bks.cpg/sg12_33_cif.got.tgz:65794.got - 2010.06.03 13:09:07.
