data_PCOD9208905
_publ_section_title
;
Structure prediction by ZEFSAII (Michael W. Deem and Ramdas Pophale) SiO2 
 PCOD9208905
Probable space group: C 2/M
;
_chemical_formula_sum "Si O2"
_cell_formula_units_Z 48
_cell_length_a 14.706484
_cell_length_b 15.853100
_cell_length_c 15.551347
_cell_angle_alpha 90.000000
_cell_angle_beta 31.185901
_cell_angle_gamma 90.000000
_cell_volume 1877.443862
_symmetry_space_group_name_H-M "C 2/M"
_symmetry_group_IT_number 12
_symmetry_cell_setting 'monoclinic'
loop_
_space_group_symop_operation_xyz
x,y,z
-x,y,-z
-x,-y,-z
x,-y,z
1/2+x,1/2+y,z
1/2-x,1/2+y,-z
1/2-x,1/2-y,-z
1/2+x,1/2-y,z
loop_
_atom_site_type_symbol
_atom_site_label
_atom_site_fract_x
_atom_site_fract_y
_atom_site_fract_z
Si Si1 0.582260 0.836613 0.810038
Si Si2 0.593725 0.634826 0.790673
Si Si3 0.893339 0.402399 0.664943
Si Si4 0.624601 0.597114 0.313900
Si Si5 0.310331 0.654824 0.466693
Si Si6 0.189520 0.401026 0.084804
O O1 0.599259 0.736001 0.796211
O O2 0.685613 0.869956 0.809383
O O3 0.690886 0.877063 0.641468
O O4 0.385630 0.858605 0.940129
O O5 0.694076 0.598775 0.791184
O O6 0.697547 0.610376 0.619186
O O7 0.395342 0.608782 0.934827
O O8 0.948252 0.500000 0.627256
O O9 0.897992 0.364827 0.756360
O O10 0.000000 0.359804 0.500000
O O11 0.500000 0.599864 0.500000
O O12 0.637422 0.500000 0.274827
O O13 0.510944 0.648811 0.337142
O O14 0.250000 0.750000 0.500000
O O15 0.150957 0.500000 0.109859
#
# Coordination Sequence:
#
# PCOD9208905 Si02
#       6
#     8   8   8   8   8   8
#     4  10  21  38  60  86 116 156 202 247 297 356
#     4  11  22  36  58  87 121 156 194 246 306 360
#     4  10  22  40  63  89 116 153 202 251 300 359
#     4   9  18  34  58  87 117 151 195 246 295 344
#     4   9  20  37  59  87 118 153 196 243 292 353
#     4  11  23  40  60  84 120 160 200 249 305 364
#
# _framework density 25.566676000000001
#
# number of rings (size 3 to 8) (size 9 to 14) (size 15 to 20)
#    0.000    2.000    0.000    3.000    0.000    9.333 
#    0.000    2.500    0.000    2.000    0.000    0.000 
#    0.000    0.000    0.000    0.000    0.000    0.167 
#
# Total GULP energy -134292.189156 kJ/mol
# GULP energy per Si atom -5595.507881 kJ/mol
# Density = 2.550849 g / cm^3
# Si number density = 25.566676 Si / 1000 Ang^3
#
#
#
# Elastic Constant Matrix: (Units=GPa)
#
#
# Indices 1 2 3 4 5 6 
#
# 1 197.8752 39.7856 33.0703 -0.0018 -28.2491 -0.0002
# 2 39.7856 101.3202 9.5155 -0.0030 -18.3589 -0.0007
# 3 33.0703 9.5155 79.9738 -0.0076 -16.8895 -0.0003
# 4 -0.0018 -0.0030 -0.0076 18.5220 0.0027 -22.5042
# 5 -28.2491 -18.3589 -16.8895 0.0027 58.0877 0.0003
# 6 -0.0002 -0.0007 -0.0003 -22.5042 0.0003 29.0291
#
#
#
# Elastic Compliance Matrix: (Units=1/GPa)
#
#
# Indices 1 2 3 4 5 6 
#
# 1 0.005996 -0.001855 -0.001882 -0.000014 0.001782 -0.000011
# 2 -0.001855 0.011068 -0.000002 0.000026 0.002596 0.000021
# 3 -0.001882 -0.000002 0.013946 0.000089 0.003139 0.000069
# 4 -0.000014 0.000026 0.000089 0.929387 -0.000019 0.720490
# 5 0.001782 0.002596 0.003139 -0.000019 0.019815 -0.000014
# 6 -0.000011 0.000021 0.000069 0.720490 -0.000014 0.592995
#
#
# Mechanical properties :
#
#
# Convention : Reuss Voigt Hill
#
# Bulk Modulus (GPa) = 42.49473 60.43467 51.46470
# Shear Modulus (GPa) = 3.14757 40.91427 22.03092
#
# Velocity S-wave (km/s) = 1.11076 4.00471 2.93867
# Velocity P-wave (km/s) = 4.27812 6.71364 5.62918
#
# Compressibility (1/GPa) = 0.02353233
#
# Stress axis : x y z
#
# Youngs Moduli (GPa) = 166.78902 90.34678 71.70755
#
# Poissons Ratio (x) = 0.16756 0.13497
# Poissons Ratio (y) = 0.30932 0.00013
# Poissons Ratio (z) = 0.31393 0.00017
#
# Static dielectric constant tensor:
#      x y z
#    x 2.011980 0.000000 0.030650 
#    y 0.000000 1.920340 0.000000 
#    z 0.030650 0.000000 2.166190 
# 
# From -- ./inp_files/271607.got.cif
#   From: 2010.05.17/outbox.cif.g08.bks.cpg/sg12_136_cif.got.tgz:271607.got - 2010.06.03 13:09:07.
