data_PCOD9208971
_publ_section_title
;
Structure prediction by ZEFSAII (Michael W. Deem and Ramdas Pophale) SiO2 
 PCOD9208971
Probable space group: C 2/M
;
_chemical_formula_sum "Si O2"
_cell_formula_units_Z 56
_cell_length_a 14.040079
_cell_length_b 14.453817
_cell_length_c 25.861977
_cell_angle_alpha 90.000000
_cell_angle_beta 148.771351
_cell_angle_gamma 90.000000
_cell_volume 2720.975258
_symmetry_space_group_name_H-M "C 2/M"
_symmetry_group_IT_number 12
_symmetry_cell_setting 'monoclinic'
loop_
_space_group_symop_operation_xyz
x,y,z
-x,y,-z
-x,-y,-z
x,-y,z
1/2+x,1/2+y,z
1/2-x,1/2+y,-z
1/2-x,1/2-y,-z
1/2+x,1/2-y,z
loop_
_atom_site_type_symbol
_atom_site_label
_atom_site_fract_x
_atom_site_fract_y
_atom_site_fract_z
Si Si1 0.103770 0.106730 0.602159
Si Si2 0.306370 0.760520 0.770933
Si Si3 0.528647 0.891412 0.072685
Si Si4 0.912011 0.399688 0.363582
Si Si5 0.092532 0.102760 0.299971
Si Si6 0.887169 0.893241 0.103665
Si Si7 0.684987 0.344440 0.445646
O O1 0.258262 0.177584 0.696951
O O2 0.000000 0.134102 0.500000
O O3 0.950393 0.108981 0.576243
O O4 0.169313 0.000000 0.626338
O O5 0.332330 0.831125 0.829578
O O6 0.141985 0.686387 0.696989
O O7 0.483470 0.691198 0.854111
O O8 0.578772 0.000000 0.096322
O O9 0.500000 0.862449 0.000000
O O10 0.327544 0.881957 0.006037
O O11 0.871620 0.500000 0.321288
O O12 0.774915 0.389929 0.348960
O O13 0.123837 0.396691 0.476221
O O14 0.094948 0.170765 0.348344
O O15 0.924493 0.109268 0.182665
O O16 0.088382 0.000000 0.321233
O O17 0.938702 0.000000 0.111985
O O18 0.750000 0.250000 0.500000
#
# Coordination Sequence:
#
# PCOD9208971 Si02
#       7
#     8   8   8   8   8   8   8
#     4  11  26  43  56  80 123 167 206 242 283 349
#     4  11  21  38  63  87 114 155 195 240 292 351
#     4  10  22  39  61  91 122 149 189 244 296 351
#     4  10  21  38  60  88 118 150 195 251 298 345
#     4   9  19  35  59  87 115 148 191 247 299 347
#     4   9  20  37  62  90 116 147 186 243 303 352
#     4  12  23  34  57  86 118 162 200 242 294 351
#
# _framework density 20.580857000000002
#
# number of rings (size 3 to 8) (size 9 to 14) (size 15 to 20)
#    0.000    1.714    1.429    3.857    6.000    1.143 
#    0.000    0.000    0.000    2.143    0.000    0.000 
#    0.000    0.000    0.000    0.000    0.000    0.000 
#
# Total GULP energy -156105.012409 kJ/mol
# GULP energy per Si atom -5575.179015 kJ/mol
# Density = 2.053401 g / cm^3
# Si number density = 20.580857 Si / 1000 Ang^3
#
#
#
# Elastic Constant Matrix: (Units=GPa)
#
#
# Indices 1 2 3 4 5 6 
#
# 1 42.9929 11.9028 27.3716 0.0000 -2.6955 0.0000
# 2 11.9028 123.1116 41.0028 0.0000 -17.2833 0.0000
# 3 27.3716 41.0028 86.3323 -0.0002 -2.2498 -0.0001
# 4 0.0000 0.0000 -0.0002 39.2755 0.0000 -4.6499
# 5 -2.6955 -17.2833 -2.2498 0.0000 40.5471 0.0000
# 6 0.0000 0.0000 -0.0001 -4.6499 0.0000 23.8211
#
#
#
# Elastic Compliance Matrix: (Units=1/GPa)
#
#
# Indices 1 2 3 4 5 6 
#
# 1 0.029256 0.000569 -0.009503 0.000000 0.001660 0.000000
# 2 0.000569 0.010305 -0.004967 0.000000 0.004155 0.000000
# 3 -0.009503 -0.004967 0.016908 0.000000 -0.001811 0.000000
# 4 0.000000 0.000000 0.000000 0.026064 0.000000 0.005088
# 5 0.001660 0.004155 -0.001811 0.000000 0.026444 0.000000
# 6 0.000000 0.000000 0.000000 0.005088 0.000000 0.042973
#
#
# Mechanical properties :
#
#
# Convention : Reuss Voigt Hill
#
# Bulk Modulus (GPa) = 34.88089 45.88790 40.38440
# Shear Modulus (GPa) = 26.41242 32.20604 29.30923
#
# Velocity S-wave (km/s) = 3.58627 3.96012 3.77782
# Velocity P-wave (km/s) = 5.84239 6.57684 6.22046
#
# Compressibility (1/GPa) = 0.02866899
#
# Stress axis : x y z
#
# Youngs Moduli (GPa) = 34.18087 97.03953 59.14476
#
# Poissons Ratio (x) = -0.05526 0.56204
# Poissons Ratio (y) = -0.01947 0.29375
# Poissons Ratio (z) = 0.32482 0.48196
#
# Static dielectric constant tensor:
#      x y z
#    x 1.745710 0.000000 0.035830 
#    y 0.000000 1.779920 0.000000 
#    z 0.035830 0.000000 1.757810 
# 
# From -- ./inp_files/361462.got.cif
#   From: 2010.05.17/outbox.cif.g08.bks.cpg/sg12_181_cif.got.tgz:361462.got - 2010.06.03 13:09:07.
