data_PCOD9208093
_publ_section_title
;
Structure prediction by ZEFSAII (Michael W. Deem and Ramdas Pophale) SiO2 
 PCOD9208093
Probable space group: C 2/M
;
_chemical_formula_sum "Si O2"
_cell_formula_units_Z 56
_cell_length_a 26.689731
_cell_length_b 8.805087
_cell_length_c 12.695862
_cell_angle_alpha 90.000000
_cell_angle_beta 111.132560
_cell_angle_gamma 90.000000
_cell_volume 2782.945765
_symmetry_space_group_name_H-M "C 2/M"
_symmetry_group_IT_number 12
_symmetry_cell_setting 'monoclinic'
loop_
_space_group_symop_operation_xyz
x,y,z
-x,y,-z
-x,-y,-z
x,-y,z
1/2+x,1/2+y,z
1/2-x,1/2+y,-z
1/2-x,1/2-y,-z
1/2+x,1/2-y,z
loop_
_atom_site_type_symbol
_atom_site_label
_atom_site_fract_x
_atom_site_fract_y
_atom_site_fract_z
Si Si1 0.157028 0.820091 0.658134
Si Si2 0.618034 0.679677 0.224241
Si Si3 0.002628 0.319952 0.181453
Si Si4 0.389046 0.181276 0.000662
Si Si5 0.466068 0.678642 0.368965
Si Si6 0.701069 0.818792 0.897275
Si Si7 0.190612 0.681069 0.463035
O O1 0.096136 0.795804 0.651339
O O2 0.195175 0.755541 0.778411
O O3 0.165930 0.737660 0.554478
O O4 0.165596 0.000000 0.651082
O O5 0.623050 0.500000 0.239132
O O6 0.556543 0.731546 0.194590
O O7 0.654638 0.759719 0.339318
O O8 0.632549 0.732552 0.117533
O O9 0.011942 0.500000 0.176108
O O10 0.950816 0.277707 0.071950
O O11 0.986120 0.280463 0.288304
O O12 0.352640 0.212843 0.075010
O O13 0.387053 0.000000 0.979730
O O14 0.500000 0.707022 0.500000
O O15 0.473030 0.500000 0.345716
O O16 0.706712 0.000000 0.891673
O O17 0.750000 0.750000 0.000000
O O18 0.193039 0.500000 0.462598
O O19 0.250000 0.750000 0.500000
#
# Coordination Sequence:
#
# PCOD9208093 Si02
#       7
#     8   8   8   8   8   8   8
#     4  11  23  42  68  99 136 172 214 267 326 390
#     4  12  26  43  66  97 133 174 221 271 327 391
#     4  11  22  40  65  95 131 172 217 268 326 391
#     4  10  23  43  66  95 133 175 220 270 327 390
#     4  10  21  37  61  93 131 171 212 263 318 381
#     4  11  24  43  67  97 133 174 223 274 328 391
#     4  12  27  48  72  97 130 172 220 271 327 389
#
# _framework density 20.122561000000001
#
# number of rings (size 3 to 8) (size 9 to 14) (size 15 to 20)
#    0.000    1.000    1.429    5.143    2.000    6.000 
#    0.000    0.000    0.000    0.000    0.000    0.000 
#    0.000    0.000    0.000    0.000    0.000    0.000 
#
# Total GULP energy -156740.375366 kJ/mol
# GULP energy per Si atom -5597.870549 kJ/mol
# Density = 2.007676 g / cm^3
# Si number density = 20.122561 Si / 1000 Ang^3
#
#
#
# Elastic Constant Matrix: (Units=GPa)
#
#
# Indices 1 2 3 4 5 6 
#
# 1 40.5932 35.6044 16.5130 0.0000 8.6606 0.0000
# 2 35.6044 98.7645 53.5548 0.0000 -3.9463 0.0000
# 3 16.5130 53.5548 130.7835 0.0000 6.2399 0.0000
# 4 0.0000 0.0000 0.0000 36.6437 0.0000 -1.6797
# 5 8.6606 -3.9463 6.2399 0.0000 36.0107 0.0000
# 6 0.0000 0.0000 0.0000 -1.6797 0.0000 34.2757
#
#
#
# Elastic Compliance Matrix: (Units=1/GPa)
#
#
# Indices 1 2 3 4 5 6 
#
# 1 0.040558 -0.016231 0.002093 0.000000 -0.011896 0.000000
# 2 -0.016231 0.019714 -0.006365 0.000000 0.007167 0.000000
# 3 0.002093 -0.006365 0.010130 0.000000 -0.002956 0.000000
# 4 0.000000 0.000000 0.000000 0.027351 0.000000 0.001340
# 5 -0.011896 0.007167 -0.002956 0.000000 0.031928 0.000000
# 6 0.000000 0.000000 0.000000 0.001340 0.000000 0.029241
#
#
# Mechanical properties :
#
#
# Convention : Reuss Voigt Hill
#
# Bulk Modulus (GPa) = 34.01983 53.49839 43.75911
# Shear Modulus (GPa) = 23.84049 32.35061 28.09555
#
# Velocity S-wave (km/s) = 3.44577 4.01394 3.74066
# Velocity P-wave (km/s) = 5.72487 6.93731 6.36005
#
# Compressibility (1/GPa) = 0.02939462
#
# Stress axis : x y z
#
# Youngs Moduli (GPa) = 24.65630 50.72413 98.72071
#
# Poissons Ratio (x) = 0.82332 -0.20665
# Poissons Ratio (y) = 0.40020 0.62840
# Poissons Ratio (z) = -0.05161 0.32288
#
# Static dielectric constant tensor:
#      x y z
#    x 1.707570 0.000000 -0.007410 
#    y 0.000000 1.666200 0.000000 
#    z -0.007410 0.000000 1.681780 
# 
# From -- ./inp_files/181142.got.cif
#   From: 2010.05.17/outbox.cif.g08.bks.cpg/sg12_91_cif.got.tgz:181142.got - 2010.06.03 13:09:07.
