data_PCOD9208393
_publ_section_title
;
Structure prediction by ZEFSAII (Michael W. Deem and Ramdas Pophale) SiO2 
 PCOD9208393
Probable space group: C 2/M
;
_chemical_formula_sum "Si O2"
_cell_formula_units_Z 42
_cell_length_a 21.189785
_cell_length_b 8.165403
_cell_length_c 9.331505
_cell_angle_alpha 90.000000
_cell_angle_beta 90.598210
_cell_angle_gamma 90.000000
_cell_volume 1614.478240
_symmetry_space_group_name_H-M "C 2/M"
_symmetry_group_IT_number 12
_symmetry_cell_setting 'monoclinic'
loop_
_space_group_symop_operation_xyz
x,y,z
-x,y,-z
-x,-y,-z
x,-y,z
1/2+x,1/2+y,z
1/2-x,1/2+y,-z
1/2-x,1/2-y,-z
1/2+x,1/2-y,z
loop_
_atom_site_type_symbol
_atom_site_label
_atom_site_fract_x
_atom_site_fract_y
_atom_site_fract_z
Si Si1 0.347652 0.815206 0.243484
Si Si2 0.500000 0.000000 0.500000
Si Si3 0.090196 0.191918 0.024904
Si Si4 0.016036 0.808630 0.302627
Si Si5 0.214526 0.687357 0.190603
Si Si6 0.345083 0.678172 0.551923
O O1 0.279743 0.780144 0.170149
O O2 0.349496 0.704213 0.383763
O O3 0.350281 0.000000 0.293760
O O4 0.400412 0.779176 0.126493
O O5 0.486911 0.148831 0.379020
O O6 0.034981 0.226664 0.137779
O O7 0.154830 0.232640 0.111818
O O8 0.087648 0.000000 0.995545
O O9 0.084478 0.815954 0.383437
O O10 0.991038 0.000000 0.314112
O O11 0.220963 0.500000 0.145876
O O12 0.196764 0.695574 0.359516
O O13 0.317774 0.500000 0.584501
#
# Coordination Sequence:
#
# PCOD9208393 Si02
#       6
#     8   2   8   8   8   8
#     4  12  23  33  53  81 115 156 200 233 278 341
#     4  12  22  36  76  88 120 136 202 230 312 354
#     4  10  21  38  56  79 117 152 191 238 290 334
#     4   9  22  40  63  92 116 145 184 242 296 355
#     4  11  21  34  53  78 114 155 203 240 275 325
#     4  10  21  38  56  79 117 152 191 238 290 334
#
# _framework density 26.014596000000001
#
# number of rings (size 3 to 8) (size 9 to 14) (size 15 to 20)
#    0.000    1.524    0.000    7.143    8.000    0.000 
#    0.000    0.000    0.000    2.286    0.000    5.333 
#    0.000    0.000    0.000    0.000    0.000    0.000 
#
# Total GULP energy -117386.112926 kJ/mol
# GULP energy per Si atom -5589.814901 kJ/mol
# Density = 2.595539 g / cm^3
# Si number density = 26.014596 Si / 1000 Ang^3
#
#
#
# Elastic Constant Matrix: (Units=GPa)
#
#
# Indices 1 2 3 4 5 6 
#
# 1 104.3843 27.7046 18.4105 0.0000 -9.3670 0.0000
# 2 27.7046 144.2046 31.3132 0.0000 -18.8875 0.0000
# 3 18.4105 31.3132 160.2251 0.0000 0.3947 0.0000
# 4 0.0000 0.0000 0.0000 47.6044 0.0000 -6.1175
# 5 -9.3670 -18.8875 0.3947 0.0000 32.2452 0.0000
# 6 0.0000 0.0000 0.0000 -6.1175 0.0000 22.6645
#
#
#
# Elastic Compliance Matrix: (Units=1/GPa)
#
#
# Indices 1 2 3 4 5 6 
#
# 1 0.010330 -0.001511 -0.000897 0.000000 0.002127 0.000000
# 2 -0.001511 0.008099 -0.001420 0.000000 0.004323 0.000000
# 3 -0.000897 -0.001420 0.006625 0.000000 -0.001173 0.000000
# 4 0.000000 0.000000 0.000000 0.021761 0.000000 0.005874
# 5 0.002127 0.004323 -0.001173 0.000000 0.034176 0.000000
# 6 0.000000 0.000000 0.000000 0.005874 0.000000 0.045707
#
#
# Mechanical properties :
#
#
# Convention : Reuss Voigt Hill
#
# Bulk Modulus (GPa) = 57.47772 62.63007 60.05389
# Shear Modulus (GPa) = 35.67487 42.59520 39.13504
#
# Velocity S-wave (km/s) = 3.70718 4.05082 3.88280
# Velocity P-wave (km/s) = 6.36134 6.78278 6.57543
#
# Compressibility (1/GPa) = 0.01739805
#
# Stress axis : x y z
#
# Youngs Moduli (GPa) = 96.80431 123.46556 150.95139
#
# Poissons Ratio (x) = 0.18660 0.13538
# Poissons Ratio (y) = 0.14631 0.21433
# Poissons Ratio (z) = 0.08682 0.17531
#
# Static dielectric constant tensor:
#      x y z
#    x 2.116840 0.000000 0.040060 
#    y 0.000000 1.908700 0.000000 
#    z 0.040060 0.000000 2.070820 
# 
# From -- ./inp_files/107845.got.cif
#   From: 2010.05.17/outbox.cif.g08.bks.cpg/sg12_54_cif.got.tgz:107845.got - 2010.06.03 13:09:07.
