data_PCOD9208359
_publ_section_title
;
Structure prediction by ZEFSAII (Michael W. Deem and Ramdas Pophale) SiO2 
 PCOD9208359
Probable space group: C 2/M
;
_chemical_formula_sum "Si O2"
_cell_formula_units_Z 48
_cell_length_a 14.827039
_cell_length_b 24.976495
_cell_length_c 14.933020
_cell_angle_alpha 90.000000
_cell_angle_beta 28.807981
_cell_angle_gamma 90.000000
_cell_volume 2664.824587
_symmetry_space_group_name_H-M "C 2/M"
_symmetry_group_IT_number 12
_symmetry_cell_setting 'monoclinic'
loop_
_space_group_symop_operation_xyz
x,y,z
-x,y,-z
-x,-y,-z
x,-y,z
1/2+x,1/2+y,z
1/2-x,1/2+y,-z
1/2-x,1/2-y,-z
1/2+x,1/2-y,z
loop_
_atom_site_type_symbol
_atom_site_label
_atom_site_fract_x
_atom_site_fract_y
_atom_site_fract_z
Si Si1 0.329316 0.757299 0.031873
Si Si2 0.860236 0.874867 0.343840
Si Si3 0.005302 0.439291 0.603266
Si Si4 0.976305 0.828218 0.616287
Si Si5 0.737864 0.740177 0.616655
Si Si6 0.345353 0.364964 0.058759
O O1 0.222865 0.805815 0.173685
O O2 0.304284 0.698870 0.098742
O O3 0.250000 0.750000 0.000000
O O4 0.551137 0.763479 0.824517
O O5 0.707342 0.920788 0.464658
O O6 0.768197 0.823507 0.372661
O O7 0.918265 0.859175 0.394475
O O8 0.052892 0.880684 0.122301
O O9 0.964040 0.500000 0.668623
O O10 0.844569 0.397823 0.770159
O O11 0.000000 0.438888 0.500000
O O12 0.000000 0.857360 0.500000
O O13 0.089303 0.773345 0.501296
O O14 0.750000 0.750000 0.500000
O O15 0.500000 0.378047 0.000000
#
# Coordination Sequence:
#
# PCOD9208359 Si02
#       6
#     8   8   8   8   8   8
#     4  11  20  34  52  81 119 154 193 226 268 333
#     4  10  21  38  54  80 114 149 187 232 281 339
#     4  11  24  39  59  85 111 142 187 245 300 346
#     4  11  23  34  54  82 117 156 195 228 271 329
#     4   9  18  32  51  77 108 151 185 226 270 320
#     4  11  22  35  56  83 115 152 186 224 284 341
#
# _framework density 18.012442
#
# number of rings (size 3 to 8) (size 9 to 14) (size 15 to 20)
#    0.000    1.500    6.667    1.000    7.000    2.333 
#    0.000    0.000    0.000    0.500    0.000    1.167 
#    0.000    0.000    0.000    0.000    0.000    0.000 
#
# Total GULP energy -133772.452937 kJ/mol
# GULP energy per Si atom -5573.852206 kJ/mol
# Density = 1.797144 g / cm^3
# Si number density = 18.012442 Si / 1000 Ang^3
#
#
#
# Elastic Constant Matrix: (Units=GPa)
#
#
# Indices 1 2 3 4 5 6 
#
# 1 101.5496 15.8958 18.1942 0.0086 17.5940 -0.0153
# 2 15.8958 43.3010 30.9544 -0.0340 -1.1814 -0.0086
# 3 18.1942 30.9544 76.5039 0.0188 7.5036 -0.0252
# 4 0.0086 -0.0340 0.0188 14.0389 0.0035 -2.7635
# 5 17.5940 -1.1814 7.5036 0.0035 20.2077 0.0204
# 6 -0.0153 -0.0086 -0.0252 -2.7635 0.0204 17.6718
#
#
#
# Elastic Compliance Matrix: (Units=1/GPa)
#
#
# Indices 1 2 3 4 5 6 
#
# 1 0.012563 -0.005031 0.000155 -0.000013 -0.011290 0.000020
# 2 -0.005031 0.035501 -0.014322 0.000104 0.011774 -0.000005
# 3 0.000155 -0.014322 0.019640 -0.000055 -0.008265 0.000022
# 4 -0.000013 0.000104 -0.000055 0.073493 0.000014 0.011493
# 5 -0.011290 0.011774 -0.008265 0.000014 0.063073 -0.000087
# 6 0.000020 -0.000005 0.000022 0.011493 -0.000087 0.058385
#
#
# Mechanical properties :
#
#
# Convention : Reuss Voigt Hill
#
# Bulk Modulus (GPa) = 34.12071 39.04925 36.58498
# Shear Modulus (GPa) = 16.08643 20.80435 18.44539
#
# Velocity S-wave (km/s) = 2.99168 3.40221 3.20353
# Velocity P-wave (km/s) = 5.56035 6.09586 5.83425
#
# Compressibility (1/GPa) = 0.02930771
#
# Stress axis : x y z
#
# Youngs Moduli (GPa) = 79.59798 28.16824 50.91631
#
# Poissons Ratio (x) = 0.14171 -0.00790
# Poissons Ratio (y) = 0.40044 0.72925
# Poissons Ratio (z) = -0.01234 0.40344
#
# Static dielectric constant tensor:
#      x y z
#    x 1.686000 -0.000290 -0.025060 
#    y -0.000290 1.626410 -0.000270 
#    z -0.025060 -0.000270 1.571990 
# 
# From -- ./inp_files/218550.got.cif
#   From: 2010.05.17/outbox.cif.g08.bks.cpg/sg12_110_cif.got.tgz:218550.got - 2010.06.03 13:09:07.
