data_PCOD9208192
_publ_section_title
;
Structure prediction by ZEFSAII (Michael W. Deem and Ramdas Pophale) SiO2 
 PCOD9208192
Probable space group: C 2/M
;
_chemical_formula_sum "Si O2"
_cell_formula_units_Z 56
_cell_length_a 17.772876
_cell_length_b 22.797051
_cell_length_c 13.702564
_cell_angle_alpha 90.000000
_cell_angle_beta 31.533241
_cell_angle_gamma 90.000000
_cell_volume 2903.582835
_symmetry_space_group_name_H-M "C 2/M"
_symmetry_group_IT_number 12
_symmetry_cell_setting 'monoclinic'
loop_
_space_group_symop_operation_xyz
x,y,z
-x,y,-z
-x,-y,-z
x,-y,z
1/2+x,1/2+y,z
1/2-x,1/2+y,-z
1/2-x,1/2-y,-z
1/2+x,1/2-y,z
loop_
_atom_site_type_symbol
_atom_site_label
_atom_site_fract_x
_atom_site_fract_y
_atom_site_fract_z
Si Si1 0.123281 0.643408 0.107602
Si Si2 0.330368 0.431412 0.194347
Si Si3 0.322369 0.606381 0.596272
Si Si4 0.132413 0.066796 0.238786
Si Si5 0.837725 0.567222 0.419338
Si Si6 0.662051 0.827713 0.281092
Si Si7 0.841218 0.285845 0.132596
O O1 0.153544 0.676654 0.174008
O O2 0.967622 0.613024 0.283242
O O3 0.240137 0.591775 0.966529
O O4 0.141055 0.684160 0.993211
O O5 0.310512 0.500000 0.189622
O O6 0.271892 0.424047 0.369550
O O7 0.238494 0.388073 0.228692
O O8 0.500000 0.418113 0.000000
O O9 0.491772 0.607516 0.384837
O O10 0.317225 0.570699 0.703880
O O11 0.240364 0.576886 0.597528
O O12 0.249358 0.668356 0.701516
O O13 0.092917 0.000000 0.259195
O O14 0.890964 0.500000 0.366027
O O15 0.500000 0.826635 0.500000
O O16 0.754730 0.774253 0.220345
O O17 0.000000 0.277428 0.000000
#
# Coordination Sequence:
#
# PCOD9208192 Si02
#       7
#     8   8   8   8   8   8   8
#     4  11  24  42  63  98 129 169 214 269 324 382
#     4  10  24  45  68  96 131 171 214 262 317 381
#     4  10  21  39  64  94 134 169 214 267 318 384
#     4  10  21  37  62  97 133 172 213 258 325 391
#     4  11  21  39  66  99 136 169 212 264 323 388
#     4  12  26  45  68  93 127 171 219 268 323 374
#     4  11  24  46  67  92 129 168 217 269 325 383
#
# _framework density 19.286515999999999
#
# number of rings (size 3 to 8) (size 9 to 14) (size 15 to 20)
#    0.000    1.286    2.857    3.000    6.000    1.429 
#    0.000    3.571    0.000    0.000    0.000    0.000 
#    0.000    0.000    0.000    0.000    0.000    0.000 
#
# Total GULP energy -156477.006455 kJ/mol
# GULP energy per Si atom -5588.464516 kJ/mol
# Density = 1.924262 g / cm^3
# Si number density = 19.286516 Si / 1000 Ang^3
#
#
#
# Elastic Constant Matrix: (Units=GPa)
#
#
# Indices 1 2 3 4 5 6 
#
# 1 75.0316 39.6879 33.9705 0.0162 -14.3426 -0.0025
# 2 39.6879 88.8116 56.6489 0.0281 -21.1303 -0.0016
# 3 33.9705 56.6489 131.6611 0.0319 -20.7990 -0.0073
# 4 0.0162 0.0281 0.0319 23.2126 -0.0162 -9.7873
# 5 -14.3426 -21.1303 -20.7990 -0.0162 31.4347 0.0016
# 6 -0.0025 -0.0016 -0.0073 -9.7873 0.0016 26.5411
#
#
#
# Elastic Compliance Matrix: (Units=1/GPa)
#
#
# Indices 1 2 3 4 5 6 
#
# 1 0.017916 -0.006416 -0.001398 -0.000001 0.002937 0.000001
# 2 -0.006416 0.019199 -0.005616 -0.000009 0.006262 -0.000005
# 3 -0.001398 -0.005616 0.010805 -0.000005 0.002736 0.000000
# 4 -0.000001 -0.000009 -0.000005 0.051011 0.000016 0.018811
# 5 0.002937 0.006262 0.002736 0.000016 0.039172 0.000005
# 6 0.000001 -0.000005 0.000000 0.018811 0.000005 0.044614
#
#
# Mechanical properties :
#
#
# Convention : Reuss Voigt Hill
#
# Bulk Modulus (GPa) = 47.48420 61.79098 54.63759
# Shear Modulus (GPa) = 23.08450 27.25082 25.16766
#
# Velocity S-wave (km/s) = 3.46341 3.76300 3.61631
# Velocity P-wave (km/s) = 6.37711 7.14060 6.76963
#
# Compressibility (1/GPa) = 0.02105964
#
# Stress axis : x y z
#
# Youngs Moduli (GPa) = 55.81732 52.08637 92.55351
#
# Poissons Ratio (x) = 0.33416 0.12941
# Poissons Ratio (y) = 0.35810 0.51978
# Poissons Ratio (z) = 0.07804 0.29252
#
# Static dielectric constant tensor:
#      x y z
#    x 1.651380 0.000000 0.008030 
#    y 0.000000 1.652780 0.000000 
#    z 0.008030 0.000000 1.655250 
# 
# From -- ./inp_files/227557.got.cif
#   From: 2010.05.17/outbox.cif.g08.bks.cpg/sg12_114_cif.got.tgz:227557.got - 2010.06.03 13:09:07.
