data_PCOD9208991
_publ_section_title
;
Structure prediction by ZEFSAII (Michael W. Deem and Ramdas Pophale) SiO2 
 PCOD9208991
Probable space group: C 2/M
;
_chemical_formula_sum "Si O2"
_cell_formula_units_Z 64
_cell_length_a 19.664046
_cell_length_b 8.638730
_cell_length_c 31.203694
_cell_angle_alpha 90.000000
_cell_angle_beta 38.405011
_cell_angle_gamma 90.000000
_cell_volume 3292.847727
_symmetry_space_group_name_H-M "C 2/M"
_symmetry_group_IT_number 12
_symmetry_cell_setting 'monoclinic'
loop_
_space_group_symop_operation_xyz
x,y,z
-x,y,-z
-x,-y,-z
x,-y,z
1/2+x,1/2+y,z
1/2-x,1/2+y,-z
1/2-x,1/2-y,-z
1/2+x,1/2-y,z
loop_
_atom_site_type_symbol
_atom_site_label
_atom_site_fract_x
_atom_site_fract_y
_atom_site_fract_z
Si Si1 0.756213 0.680696 0.708564
Si Si2 0.766052 0.181356 0.445068
Si Si3 0.628959 0.685349 0.433216
Si Si4 0.296134 0.316453 0.780635
Si Si5 0.874610 0.311578 0.063409
Si Si6 0.779720 0.813935 0.939000
Si Si7 0.023896 0.678318 0.695940
Si Si8 0.479164 0.681408 0.212210
O O1 0.783848 0.500000 0.701528
O O2 0.816012 0.738813 0.635939
O O3 0.786065 0.776942 0.735763
O O4 0.625565 0.692619 0.766388
O O5 0.750000 0.250000 0.500000
O O6 0.691851 0.260026 0.444946
O O7 0.891480 0.214358 0.370840
O O8 0.742495 0.000000 0.456621
O O9 0.500000 0.725137 0.500000
O O10 0.638547 0.500000 0.424921
O O11 0.312448 0.500000 0.778768
O O12 0.190149 0.270269 0.861144
O O13 0.400526 0.226478 0.747008
O O14 0.877521 0.500000 0.060532
O O15 0.802270 0.260172 0.058267
O O16 0.000000 0.256625 0.000000
O O17 0.904976 0.775084 0.865445
O O18 0.772643 0.000000 0.943744
O O19 0.750000 0.750000 0.000000
O O20 0.044406 0.500000 0.674996
O O21 0.043040 0.711172 0.736349
O O22 0.486918 0.500000 0.222482
#
# Coordination Sequence:
#
# PCOD9208991 Si02
#       8
#     8   8   8   8   8   8   8   8
#     4  11  24  41  64  93 127 165 213 263 315 375
#     4  12  26  45  69  97 131 168 212 261 316 374
#     4  11  25  45  67  95 132 170 212 259 313 374
#     4  11  23  41  65  90 126 169 212 262 321 378
#     4   9  19  37  60  87 121 163 209 258 313 375
#     4  10  21  38  60  88 124 162 206 256 314 378
#     4  12  24  41  67  95 125 161 213 266 315 378
#     4  10  21  41  64  88 124 167 207 261 322 373
#
# _framework density 19.436063000000001
#
# number of rings (size 3 to 8) (size 9 to 14) (size 15 to 20)
#    0.000    1.250    2.500    3.375    3.500    2.000 
#    0.000    0.000    0.000    1.875    0.000    0.000 
#    0.000    0.000    0.000    0.000    0.000    0.000 
#
# Total GULP energy -178856.645378 kJ/mol
# GULP energy per Si atom -5589.270168 kJ/mol
# Density = 1.939183 g / cm^3
# Si number density = 19.436063 Si / 1000 Ang^3
#
#
#
# Elastic Constant Matrix: (Units=GPa)
#
#
# Indices 1 2 3 4 5 6 
#
# 1 43.6555 5.4900 5.8100 0.0000 5.2928 0.0071
# 2 5.4900 31.5476 1.3609 -0.0009 -1.3996 -0.0014
# 3 5.8100 1.3609 85.5482 0.0018 -0.5361 0.0001
# 4 0.0000 -0.0009 0.0018 25.6113 -0.0006 2.2956
# 5 5.2928 -1.3996 -0.5361 -0.0006 39.5122 -0.0005
# 6 0.0071 -0.0014 0.0001 2.2956 -0.0005 30.7794
#
#
#
# Elastic Compliance Matrix: (Units=1/GPa)
#
#
# Indices 1 2 3 4 5 6 
#
# 1 0.024067 -0.004270 -0.001588 0.000000 -0.003397 -0.000006
# 2 -0.004270 0.032527 -0.000217 0.000001 0.001721 0.000002
# 3 -0.001588 -0.000217 0.011803 -0.000001 0.000365 0.000000
# 4 0.000000 0.000001 -0.000001 0.039308 0.000001 -0.002932
# 5 -0.003397 0.001721 0.000365 0.000001 0.025830 0.000001
# 6 -0.000006 0.000002 0.000000 -0.002932 0.000001 0.032708
#
#
# Mechanical properties :
#
#
# Convention : Reuss Voigt Hill
#
# Bulk Modulus (GPa) = 17.77876 20.67480 19.22678
# Shear Modulus (GPa) = 25.36257 29.05326 27.20791
#
# Velocity S-wave (km/s) = 3.61629 3.87047 3.74554
# Velocity P-wave (km/s) = 5.15790 5.53485 5.34969
#
# Compressibility (1/GPa) = 0.05624689
#
# Stress axis : x y z
#
# Youngs Moduli (GPa) = 41.55104 30.74374 84.72504
#
# Poissons Ratio (x) = 0.13129 0.13453
# Poissons Ratio (y) = 0.17744 0.01836
# Poissons Ratio (z) = 0.06598 0.00666
#
# Static dielectric constant tensor:
#      x y z
#    x 1.668560 0.000000 -0.027030 
#    y 0.000000 1.658070 0.000000 
#    z -0.027030 0.000000 1.706950 
# 
# From -- ./inp_files/377972.got.cif
#   From: 2010.05.17/outbox.cif.g08.bks.cpg/sg12_189_cif.got.tgz:377972.got - 2010.06.03 13:09:07.
