data_PCOD9208459
_publ_section_title
;
Structure prediction by ZEFSAII (Michael W. Deem and Ramdas Pophale) SiO2 
 PCOD9208459
Probable space group: C 2/M
;
_chemical_formula_sum "Si O2"
_cell_formula_units_Z 56
_cell_length_a 18.197869
_cell_length_b 23.945043
_cell_length_c 22.547496
_cell_angle_alpha 90.000000
_cell_angle_beta 161.978776
_cell_angle_gamma 90.000000
_cell_volume 3039.566499
_symmetry_space_group_name_H-M "C 2/M"
_symmetry_group_IT_number 12
_symmetry_cell_setting 'monoclinic'
loop_
_space_group_symop_operation_xyz
x,y,z
-x,y,-z
-x,-y,-z
x,-y,z
1/2+x,1/2+y,z
1/2-x,1/2+y,-z
1/2-x,1/2-y,-z
1/2+x,1/2-y,z
loop_
_atom_site_type_symbol
_atom_site_label
_atom_site_fract_x
_atom_site_fract_y
_atom_site_fract_z
Si Si1 0.026423 0.239211 0.199969
Si Si2 0.989817 0.141240 0.259992
Si Si3 0.803987 0.934427 0.490498
Si Si4 0.692743 0.763526 0.198899
Si Si5 0.397260 0.275579 0.559161
Si Si6 0.724810 0.105289 0.217046
Si Si7 0.451123 0.064602 0.116128
O O1 0.074156 0.181451 0.271901
O O2 0.098014 0.237547 0.186625
O O3 0.183040 0.289169 0.349682
O O4 0.750000 0.250000 0.000000
O O5 0.181167 0.100447 0.437234
O O6 0.938070 0.181443 0.277503
O O7 0.761716 0.106313 0.064500
O O8 0.573864 0.923743 0.273447
O O9 0.038339 0.917591 0.632252
O O10 0.817232 0.000000 0.512903
O O11 0.748185 0.829305 0.251805
O O12 0.931681 0.740226 0.351970
O O13 0.500000 0.758695 0.000000
O O14 0.250000 0.250000 0.500000
O O15 0.652882 0.072534 0.220967
O O16 0.500000 0.099500 0.000000
O O17 0.370010 0.000000 0.052598
#
# Coordination Sequence:
#
# PCOD9208459 Si02
#       7
#     8   8   8   8   8   8   8
#     4  11  24  36  59  85 118 162 212 251 296 358
#     4  11  22  39  55  81 115 157 196 249 298 346
#     4  11  23  36  55  82 114 156 205 249 302 367
#     4  11  21  37  57  86 120 165 205 244 303 363
#     4  10  21  38  57  84 115 155 200 244 299 361
#     4  11  20  32  55  78 115 158 198 243 302 359
#     4  11  23  37  55  81 115 155 202 252 305 363
#
# _framework density 18.423680000000001
#
# number of rings (size 3 to 8) (size 9 to 14) (size 15 to 20)
#    0.000    1.143    2.857    5.143    4.000    2.857 
#    0.000    0.000    0.000    0.000    0.000    0.000 
#    0.000   38.857    0.000    0.286    0.000    0.000 
#
# Total GULP energy -156118.165362 kJ/mol
# GULP energy per Si atom -5575.648763 kJ/mol
# Density = 1.838175 g / cm^3
# Si number density = 18.423680 Si / 1000 Ang^3
#
#
#
# Elastic Constant Matrix: (Units=GPa)
#
#
# Indices 1 2 3 4 5 6 
#
# 1 135.0930 54.0159 47.1029 -0.0579 -10.7831 -0.0134
# 2 54.0159 86.9058 40.4638 -0.0310 -14.0634 0.0176
# 3 47.1029 40.4638 114.5511 0.1417 -10.2466 0.0541
# 4 -0.0579 -0.0310 0.1417 11.0401 -0.0260 -22.8072
# 5 -10.7831 -14.0634 -10.2466 -0.0260 32.6777 -0.0029
# 6 -0.0134 0.0176 0.0541 -22.8072 -0.0029 18.3556
#
#
#
# Elastic Compliance Matrix: (Units=1/GPa)
#
#
# Indices 1 2 3 4 5 6 
#
# 1 0.010369 -0.005279 -0.002362 -0.000071 0.000409 -0.000069
# 2 -0.005279 0.017143 -0.003478 -0.000036 0.004545 -0.000054
# 3 -0.002362 -0.003478 0.011035 0.000143 0.001184 0.000147
# 4 -0.000071 -0.000036 0.000143 -0.057807 -0.000047 -0.071826
# 5 0.000409 0.004545 0.001184 -0.000047 0.033064 -0.000060
# 6 -0.000069 -0.000054 0.000147 -0.071826 -0.000060 -0.034767
#
#
# Mechanical properties :
#
#
# Convention : Reuss Voigt Hill
#
# Bulk Modulus (GPa) = 61.31760 68.85726 65.08743
# Shear Modulus (GPa) = 744.80350 25.41250 385.10800
#
# Velocity S-wave (km/s) = 20.12814 3.71797 14.47351
# Velocity P-wave (km/s) = 23.94877 7.47573 17.74021
#
# Compressibility (1/GPa) = 0.01630853
#
# Stress axis : x y z
#
# Youngs Moduli (GPa) = 96.43813 58.33374 90.61722
#
# Poissons Ratio (x) = 0.30794 0.21408
# Poissons Ratio (y) = 0.50909 0.31518
# Poissons Ratio (z) = 0.22783 0.20290
#
# Static dielectric constant tensor:
#      x y z
#    x 1.651310 0.000000 -0.006210 
#    y 0.000000 1.691730 -0.000090 
#    z -0.006210 -0.000090 1.724050 
# 
# From -- ./inp_files/318287.got.cif
#   From: 2010.05.17/outbox.cif.g08.bks.cpg/sg12_160_cif.got.tgz:318287.got - 2010.06.03 13:09:07.
