data_PCOD9208221
_publ_section_title
;
Structure prediction by ZEFSAII (Michael W. Deem and Ramdas Pophale) SiO2 
 PCOD9208221
Probable space group: C 2/M
;
_chemical_formula_sum "Si O2"
_cell_formula_units_Z 42
_cell_length_a 19.247622
_cell_length_b 7.177548
_cell_length_c 12.456535
_cell_angle_alpha 90.000000
_cell_angle_beta 65.356344
_cell_angle_gamma 90.000000
_cell_volume 1564.139417
_symmetry_space_group_name_H-M "C 2/M"
_symmetry_group_IT_number 12
_symmetry_cell_setting 'monoclinic'
loop_
_space_group_symop_operation_xyz
x,y,z
-x,y,-z
-x,-y,-z
x,-y,z
1/2+x,1/2+y,z
1/2-x,1/2+y,-z
1/2-x,1/2-y,-z
1/2+x,1/2-y,z
loop_
_atom_site_type_symbol
_atom_site_label
_atom_site_fract_x
_atom_site_fract_y
_atom_site_fract_z
Si Si1 0.926761 0.773350 0.116212
Si Si2 0.163405 0.779445 0.020434
Si Si3 0.911711 0.774746 0.715774
Si Si4 0.000000 0.500000 0.500000
Si Si5 0.708810 0.723628 0.378471
Si Si6 0.126849 0.208509 0.635480
O O1 0.924791 0.704869 0.239337
O O2 0.925938 0.000000 0.126981
O O3 0.856680 0.710984 0.085798
O O4 0.000000 0.723314 0.000000
O O5 0.104907 0.717265 0.151072
O O6 0.151325 0.000000 0.023312
O O7 0.250000 0.750000 0.000000
O O8 0.973054 0.662785 0.606491
O O9 0.830382 0.735374 0.708200
O O10 0.923494 0.000000 0.702875
O O11 0.715098 0.500000 0.386568
O O12 0.791063 0.800856 0.355731
O O13 0.649083 0.794814 0.507742
O O14 0.099160 0.000000 0.629883
#
# Coordination Sequence:
#
# PCOD9208221 Si02
#       6
#     8   8   8   2   8   8
#     4   9  18  33  55  84 115 155 200 241 301 369
#     4  10  21  37  63  92 124 163 207 267 312 368
#     4  10  23  41  60  91 124 161 211 258 316 375
#     4  12  26  40  64  86 122 172 200 258 312 382
#     4   9  18  33  54  82 117 150 191 255 307 350
#     4   9  17  30  55  85 112 151 199 244 294 366
#
# _framework density 26.851825999999999
#
# number of rings (size 3 to 8) (size 9 to 14) (size 15 to 20)
#    0.000    2.476    0.000    1.429    2.667    1.524 
#    0.000    5.714    0.000    1.143    0.000    0.000 
#    0.000    0.000    0.000    0.000    0.000    0.000 
#
# Total GULP energy -117265.544538 kJ/mol
# GULP energy per Si atom -5584.073549 kJ/mol
# Density = 2.679071 g / cm^3
# Si number density = 26.851826 Si / 1000 Ang^3
#
#
#
# Elastic Constant Matrix: (Units=GPa)
#
#
# Indices 1 2 3 4 5 6 
#
# 1 86.4613 -24.6196 -5.4008 0.0000 -6.0148 0.0000
# 2 -24.6196 166.1243 12.9872 0.0000 -0.9109 0.0000
# 3 -5.4008 12.9872 174.2934 0.0000 -9.1757 0.0000
# 4 0.0000 0.0000 0.0000 -1.2673 0.0000 -8.6886
# 5 -6.0148 -0.9109 -9.1757 0.0000 43.6400 0.0000
# 6 0.0000 0.0000 0.0000 -8.6886 0.0000 7.4531
#
#
#
# Elastic Compliance Matrix: (Units=1/GPa)
#
#
# Indices 1 2 3 4 5 6 
#
# 1 0.012223 0.001795 0.000339 0.000000 0.001793 0.000000
# 2 0.001795 0.006318 -0.000400 0.000000 0.000295 0.000000
# 3 0.000339 -0.000400 0.005844 0.000000 0.001267 0.000000
# 4 0.000000 0.000000 0.000000 -0.087749 0.000000 -0.102295
# 5 0.001793 0.000295 0.001267 0.000000 0.023435 0.000000
# 6 0.000000 0.000000 0.000000 -0.102295 0.000000 0.014920
#
#
# Mechanical properties :
#
#
# Convention : Reuss Voigt Hill
#
# Bulk Modulus (GPa) = 35.90046 43.64583 39.77315
# Shear Modulus (GPa) = -260.51262 39.55933 -110.47664
#
# Velocity S-wave (km/s) = -9.86049 3.84245 -6.42124
# Velocity P-wave (km/s) = 10.78147 5.99796 6.33500
#
# Compressibility (1/GPa) = 0.02785480
#
# Stress axis : x y z
#
# Youngs Moduli (GPa) = 81.81380 158.26721 171.10198
#
# Poissons Ratio (x) = -0.28405 -0.05808
# Poissons Ratio (y) = -0.14683 0.06838
# Poissons Ratio (z) = -0.02777 0.06325
#
# Static dielectric constant tensor:
#      x y z
#    x 2.219660 0.000000 0.054780 
#    y 0.000000 2.031060 0.000000 
#    z 0.054780 0.000000 2.121090 
# 
# From -- ./inp_files/163015.got.cif
#   From: 2010.05.17/outbox.cif.g08.bks.cpg/sg12_82_cif.got.tgz:163015.got - 2010.06.03 13:09:07.
