data_PCOD9208698
_publ_section_title
;
Structure prediction by ZEFSAII (Michael W. Deem and Ramdas Pophale) SiO2 
 PCOD9208698
Probable space group: C 2/M
;
_chemical_formula_sum "Si O2"
_cell_formula_units_Z 40
_cell_length_a 13.958567
_cell_length_b 18.184530
_cell_length_c 13.389499
_cell_angle_alpha 90.000000
_cell_angle_beta 143.530388
_cell_angle_gamma 90.000000
_cell_volume 2020.148918
_symmetry_space_group_name_H-M "C 2/M"
_symmetry_group_IT_number 12
_symmetry_cell_setting 'monoclinic'
loop_
_space_group_symop_operation_xyz
x,y,z
-x,y,-z
-x,-y,-z
x,-y,z
1/2+x,1/2+y,z
1/2-x,1/2+y,-z
1/2-x,1/2-y,-z
1/2+x,1/2-y,z
loop_
_atom_site_type_symbol
_atom_site_label
_atom_site_fract_x
_atom_site_fract_y
_atom_site_fract_z
Si Si1 0.286668 0.323342 0.721769
Si Si2 0.280095 0.085742 0.134981
Si Si3 0.899103 0.194101 0.131185
Si Si4 0.161474 0.586166 0.430379
Si Si5 0.395994 0.320435 0.497533
O O1 0.267742 0.362871 0.811694
O O2 0.464221 0.296182 0.838928
O O3 0.232496 0.382817 0.593406
O O4 0.172701 0.253252 0.610617
O O5 0.469222 0.096406 0.271563
O O6 0.251721 0.000000 0.133571
O O7 0.176109 0.114094 0.954472
O O8 0.991244 0.199027 0.313382
O O9 0.750000 0.250000 0.000000
O O10 0.195421 0.500000 0.448933
O O11 0.249165 0.632464 0.418122
O O12 0.500000 0.360217 0.500000
#
# Coordination Sequence:
#
# PCOD9208698 Si02
#       5
#     8   8   8   8   8
#     4  11  21  37  62  89 118 152 197 244 297 359
#     4  11  23  39  62  93 124 151 187 247 315 358
#     4  11  22  37  58  86 123 157 192 241 293 353
#     4  10  21  38  59  84 118 157 196 240 292 355
#     4  11  23  39  61  84 114 159 208 245 280 345
#
# _framework density 19.800521
#
# number of rings (size 3 to 8) (size 9 to 14) (size 15 to 20)
#    0.000    1.200    0.000    9.000    0.000    6.800 
#    0.000    3.000    0.000    2.400    0.000    0.000 
#    0.000    0.000    0.000    0.000    0.000    0.000 
#
# Total GULP energy -111800.933693 kJ/mol
# GULP energy per Si atom -5590.046685 kJ/mol
# Density = 1.975545 g / cm^3
# Si number density = 19.800521 Si / 1000 Ang^3
#
#
#
# Elastic Constant Matrix: (Units=GPa)
#
#
# Indices 1 2 3 4 5 6 
#
# 1 106.3944 39.9732 24.2921 0.0000 15.2183 0.0000
# 2 39.9732 75.9807 23.3268 0.0000 6.8240 0.0000
# 3 24.2921 23.3268 65.2143 0.0000 21.1046 0.0000
# 4 0.0000 0.0000 0.0000 29.1502 0.0000 3.0606
# 5 15.2183 6.8240 21.1046 0.0000 28.5697 0.0000
# 6 0.0000 0.0000 0.0000 3.0606 0.0000 31.7921
#
#
#
# Elastic Compliance Matrix: (Units=1/GPa)
#
#
# Indices 1 2 3 4 5 6 
#
# 1 0.012476 -0.005818 -0.001137 0.000000 -0.004416 0.000000
# 2 -0.005818 0.017503 -0.004920 0.000000 0.002553 0.000000
# 3 -0.001137 -0.004920 0.022263 0.000000 -0.014665 0.000000
# 4 0.000000 0.000000 0.000000 0.034655 0.000000 -0.003336
# 5 -0.004416 0.002553 -0.014665 0.000000 0.047578 0.000000
# 6 0.000000 0.000000 0.000000 -0.003336 0.000000 0.031776
#
#
# Mechanical properties :
#
#
# Convention : Reuss Voigt Hill
#
# Bulk Modulus (GPa) = 35.09622 46.97487 41.03555
# Shear Modulus (GPa) = 25.06282 28.56889 26.81586
#
# Velocity S-wave (km/s) = 3.56162 3.80259 3.68407
# Velocity P-wave (km/s) = 5.88871 6.56164 6.23426
#
# Compressibility (1/GPa) = 0.02849310
#
# Stress axis : x y z
#
# Youngs Moduli (GPa) = 80.15318 57.13259 44.91690
#
# Poissons Ratio (x) = 0.33239 0.05108
# Poissons Ratio (y) = 0.46632 0.22098
# Poissons Ratio (z) = 0.09115 0.28107
#
# Static dielectric constant tensor:
#      x y z
#    x 1.709190 0.000000 0.021510 
#    y 0.000000 1.688910 0.000000 
#    z 0.021510 0.000000 1.719060 
# 
# From -- ./inp_files/61375.got.cif
#   From: 2010.05.17/outbox.cif.g08.bks.cpg/sg12_31_cif.got.tgz:61375.got - 2010.06.03 13:09:07.
