data_PCOD9208320
_publ_section_title
;
Structure prediction by ZEFSAII (Michael W. Deem and Ramdas Pophale) SiO2 
 PCOD9208320
Probable space group: C 2/M
;
_chemical_formula_sum "Si O2"
_cell_formula_units_Z 64
_cell_length_a 7.867631
_cell_length_b 16.013935
_cell_length_c 23.390973
_cell_angle_alpha 90.000000
_cell_angle_beta 94.291818
_cell_angle_gamma 90.000000
_cell_volume 2938.805107
_symmetry_space_group_name_H-M "C 2/M"
_symmetry_group_IT_number 12
_symmetry_cell_setting 'monoclinic'
loop_
_space_group_symop_operation_xyz
x,y,z
-x,y,-z
-x,-y,-z
x,-y,z
1/2+x,1/2+y,z
1/2-x,1/2+y,-z
1/2-x,1/2-y,-z
1/2+x,1/2-y,z
loop_
_atom_site_type_symbol
_atom_site_label
_atom_site_fract_x
_atom_site_fract_y
_atom_site_fract_z
Si Si1 0.383889 0.846164 0.256858
Si Si2 0.316860 0.642072 0.142155
Si Si3 0.435135 0.408341 0.394051
Si Si4 0.287890 0.651571 0.270366
Si Si5 0.589196 0.595162 0.057718
Si Si6 0.910837 0.335712 0.129855
Si Si7 0.616706 0.768603 0.546618
Si Si8 0.180740 0.411593 0.629458
O O1 0.332393 0.749884 0.265818
O O2 0.585188 0.854575 0.272405
O O3 0.356965 0.871731 0.190655
O O4 0.292532 0.900124 0.302419
O O5 0.334212 0.615432 0.208984
O O6 0.442939 0.594848 0.102705
O O7 0.388757 0.736562 0.137918
O O8 0.111340 0.642957 0.123800
O O9 0.368980 0.500000 0.411266
O O10 0.370696 0.388990 0.328113
O O11 0.407868 0.325448 0.430623
O O12 0.638094 0.414910 0.396310
O O13 0.633939 0.500000 0.044149
O O14 0.765827 0.636899 0.081890
O O15 0.500000 0.635910 0.000000
O O16 0.500000 0.820332 0.500000
O O17 0.750000 0.750000 0.500000
O O18 0.609474 0.825627 0.602591
O O19 0.088784 0.500000 0.617248
#
# Coordination Sequence:
#
# PCOD9208320 Si02
#       8
#     8   8   8   8   8   8   8   8
#     4  10  21  37  65  97 132 165 207 264 331 395
#     4  10  21  41  68 100 131 171 226 280 335 402
#     4  11  25  43  66  96 128 167 214 265 326 392
#     4  10  21  37  65  97 131 167 206 263 336 392
#     4  11  26  44  63  94 138 183 226 277 338 399
#     4  10  21  41  68 100 131 172 224 282 336 394
#     4  12  26  46  68  89 122 170 215 264 323 376
#     4  11  25  43  65  97 128 165 214 264 326 393
#
# _framework density 21.777559
#
# number of rings (size 3 to 8) (size 9 to 14) (size 15 to 20)
#    0.000    1.375    3.750    0.750    5.250    4.000 
#    0.000    3.750    0.000    0.000    0.000    0.000 
#    0.000    0.000    0.000    0.000    0.000    0.000 
#
# Total GULP energy -178154.269377 kJ/mol
# GULP energy per Si atom -5567.320918 kJ/mol
# Density = 2.172799 g / cm^3
# Si number density = 21.777559 Si / 1000 Ang^3
#
#
#
# Elastic Constant Matrix: (Units=GPa)
#
#
# Indices 1 2 3 4 5 6 
#
# 1 25.1287 -13.0483 3.9227 0.0000 -1.6161 0.0000
# 2 -13.0483 86.2096 12.3459 0.0000 -0.6428 0.0000
# 3 3.9227 12.3459 68.1165 0.0000 6.4367 0.0000
# 4 0.0000 0.0000 0.0000 -250.8789 0.0000 -144.4442
# 5 -1.6161 -0.6428 6.4367 0.0000 36.3687 0.0000
# 6 0.0000 0.0000 0.0000 -144.4442 0.0000 -61.0392
#
#
#
# Elastic Compliance Matrix: (Units=1/GPa)
#
#
# Indices 1 2 3 4 5 6 
#
# 1 0.044440 0.007343 -0.004159 0.000000 0.002841 0.000000
# 2 0.007343 0.013135 -0.002905 0.000000 0.001073 0.000000
# 3 -0.004159 -0.002905 0.015732 0.000000 -0.003020 0.000000
# 4 0.000000 0.000000 0.000000 0.010997 0.000000 -0.026023
# 5 0.002841 0.001073 -0.003020 0.000000 0.028176 0.000000
# 6 0.000000 0.000000 0.000000 -0.026023 0.000000 0.045198
#
#
# Mechanical properties :
#
#
# Convention : Reuss Voigt Hill
#
# Bulk Modulus (GPa) = 13.53799 20.65503 17.09651
# Shear Modulus (GPa) = 27.51174 -43.36091 -7.92458
#
# Velocity S-wave (km/s) = 3.55816 -4.46700 -1.90965
# Velocity P-wave (km/s) = 4.80735 4.13525 1.73355
#
# Compressibility (1/GPa) = 0.07386622
#
# Stress axis : x y z
#
# Youngs Moduli (GPa) = 22.50227 76.13228 63.56413
#
# Poissons Ratio (x) = -0.55904 0.26433
# Poissons Ratio (y) = -0.16523 0.18465
# Poissons Ratio (z) = 0.09358 0.22116
#
# Static dielectric constant tensor:
#      x y z
#    x 1.853350 0.000000 0.034090 
#    y 0.000000 1.872410 0.000000 
#    z 0.034090 0.000000 1.793810 
# 
# From -- ./inp_files/332946.got.cif
#   From: 2010.05.17/outbox.cif.g08.bks.cpg/sg12_167_cif.got.tgz:332946.got - 2010.06.03 13:09:07.
