data_PCOD9208275
_publ_section_title
;
Structure prediction by ZEFSAII (Michael W. Deem and Ramdas Pophale) SiO2 
 PCOD9208275
Probable space group: C 2/M
;
_chemical_formula_sum "Si O2"
_cell_formula_units_Z 40
_cell_length_a 8.502078
_cell_length_b 25.115756
_cell_length_c 15.148009
_cell_angle_alpha 90.000000
_cell_angle_beta 37.404587
_cell_angle_gamma 90.000000
_cell_volume 1964.852163
_symmetry_space_group_name_H-M "C 2/M"
_symmetry_group_IT_number 12
_symmetry_cell_setting 'monoclinic'
loop_
_space_group_symop_operation_xyz
x,y,z
-x,y,-z
-x,-y,-z
x,-y,z
1/2+x,1/2+y,z
1/2-x,1/2+y,-z
1/2-x,1/2-y,-z
1/2+x,1/2-y,z
loop_
_atom_site_type_symbol
_atom_site_label
_atom_site_fract_x
_atom_site_fract_y
_atom_site_fract_z
Si Si1 0.742339 0.260377 0.675480
Si Si2 0.073971 0.168505 0.313502
Si Si3 0.986149 0.358780 0.399350
Si Si4 0.166336 0.441409 0.836933
Si Si5 0.219898 0.561659 0.157155
O O1 0.708224 0.202424 0.732381
O O2 0.522470 0.289691 0.717785
O O3 0.000000 0.254412 0.500000
O O4 0.840507 0.306742 0.697468
O O5 0.162157 0.111501 0.239338
O O6 0.812864 0.155651 0.485001
O O7 0.000000 0.368975 0.500000
O O8 0.096184 0.406054 0.292492
O O9 0.298983 0.500000 0.772128
O O10 0.976492 0.437008 0.837676
O O11 0.000000 0.441460 0.000000
O O12 0.256807 0.500000 0.167129
O O13 0.500000 0.582038 0.000000
#
# Coordination Sequence:
#
# PCOD9208275 Si02
#       5
#     8   8   8   8   8
#     4   9  19  35  58  92 122 161 196 245 318 362
#     4  10  21  37  64  92 121 162 205 257 305 369
#     4   9  20  37  62  95 126 159 205 254 309 369
#     4  10  24  43  62  87 125 170 208 254 316 371
#     4  10  23  41  64  90 122 168 211 255 315 368
#
# _framework density 20.357764
#
# number of rings (size 3 to 8) (size 9 to 14) (size 15 to 20)
#    0.000    2.800    0.000    2.400   11.200    1.200 
#    0.000    4.000    0.000    0.600    0.000    0.000 
#    0.000    0.000    0.000    0.000    0.000    0.000 
#
# Total GULP energy -111463.208323 kJ/mol
# GULP energy per Si atom -5573.160416 kJ/mol
# Density = 2.031143 g / cm^3
# Si number density = 20.357764 Si / 1000 Ang^3
#
#
#
# Elastic Constant Matrix: (Units=GPa)
#
#
# Indices 1 2 3 4 5 6 
#
# 1 56.4548 56.2095 32.1072 0.0000 3.4105 0.0000
# 2 56.2095 169.6275 60.2298 0.0000 11.6434 0.0000
# 3 32.1072 60.2298 54.7674 0.0000 11.7186 0.0000
# 4 0.0000 0.0000 0.0000 29.1336 0.0000 -41.1049
# 5 3.4105 11.6434 11.7186 0.0000 20.8782 0.0000
# 6 0.0000 0.0000 0.0000 -41.1049 0.0000 24.6965
#
#
#
# Elastic Compliance Matrix: (Units=1/GPa)
#
#
# Indices 1 2 3 4 5 6 
#
# 1 0.030445 -0.006090 -0.012289 0.000000 0.005321 0.000000
# 2 -0.006090 0.010898 -0.008327 0.000000 -0.000409 0.000000
# 3 -0.012289 -0.008327 0.037729 0.000000 -0.014525 0.000000
# 4 0.000000 0.000000 0.000000 -0.025457 0.000000 -0.042371
# 5 0.005321 -0.000409 -0.014525 0.000000 0.055408 0.000000
# 6 0.000000 0.000000 0.000000 -0.042371 0.000000 -0.030031
#
#
# Mechanical properties :
#
#
# Convention : Reuss Voigt Hill
#
# Bulk Modulus (GPa) = 38.97237 64.21584 51.59411
# Shear Modulus (GPa) = 35.47147 23.76188 29.61668
#
# Velocity S-wave (km/s) = 4.17874 3.42016 3.81834
# Velocity P-wave (km/s) = 6.51673 6.87087 6.69614
#
# Compressibility (1/GPa) = 0.02565921
#
# Stress axis : x y z
#
# Youngs Moduli (GPa) = 32.84654 91.75780 26.50462
#
# Poissons Ratio (x) = 0.55883 0.32571
# Poissons Ratio (y) = 0.20004 0.22071
# Poissons Ratio (z) = 0.40365 0.76410
#
# Static dielectric constant tensor:
#      x y z
#    x 1.801420 0.000000 0.017670 
#    y 0.000000 1.756470 0.000000 
#    z 0.017670 0.000000 1.689390 
# 
# From -- ./inp_files/198190.got.cif
#   From: 2010.05.17/outbox.cif.g08.bks.cpg/sg12_100_cif.got.tgz:198190.got - 2010.06.03 13:09:07.
