data_PCOD9208105
_publ_section_title
;
Structure prediction by ZEFSAII (Michael W. Deem and Ramdas Pophale) SiO2 
 PCOD9208105
Probable space group: C 2/M
;
_chemical_formula_sum "Si O2"
_cell_formula_units_Z 48
_cell_length_a 14.805416
_cell_length_b 11.061436
_cell_length_c 14.966531
_cell_angle_alpha 90.000000
_cell_angle_beta 74.728087
_cell_angle_gamma 90.000000
_cell_volume 2364.501241
_symmetry_space_group_name_H-M "C 2/M"
_symmetry_group_IT_number 12
_symmetry_cell_setting 'monoclinic'
loop_
_space_group_symop_operation_xyz
x,y,z
-x,y,-z
-x,-y,-z
x,-y,z
1/2+x,1/2+y,z
1/2-x,1/2+y,-z
1/2-x,1/2-y,-z
1/2+x,1/2-y,z
loop_
_atom_site_type_symbol
_atom_site_label
_atom_site_fract_x
_atom_site_fract_y
_atom_site_fract_z
Si Si1 0.590094 0.640560 0.032435
Si Si2 0.081370 0.711726 0.213833
Si Si3 0.879351 0.368499 0.240283
Si Si4 0.555720 0.638428 0.398338
Si Si5 0.710448 0.364564 0.831628
Si Si6 0.745216 0.131843 0.561026
O O1 0.570705 0.500000 0.055759
O O2 0.602700 0.704830 0.122876
O O3 0.500000 0.688169 0.000000
O O4 0.678198 0.647783 0.943071
O O5 0.049999 0.786798 0.309317
O O6 0.178204 0.644402 0.208938
O O7 0.991000 0.635818 0.209371
O O8 0.846367 0.500000 0.212340
O O9 0.837302 0.249033 0.205171
O O10 0.843952 0.363706 0.351467
O O11 0.500000 0.686086 0.500000
O O12 0.522853 0.500000 0.392172
O O13 0.664071 0.634709 0.398900
O O14 0.678507 0.500000 0.810961
O O15 0.750000 0.250000 0.500000
O O16 0.746631 0.000000 0.513445
#
# Coordination Sequence:
#
# PCOD9208105 Si02
#       6
#     8   8   8   8   8   8
#     4  10  21  39  64  96 131 171 219 268 319 391
#     4  12  22  40  68  94 129 171 216 269 333 371
#     4  11  24  42  64  94 133 170 212 265 327 387
#     4  10  21  37  61  95 130 167 216 263 316 392
#     4  11  24  43  65  94 131 168 219 269 318 388
#     4  10  21  40  61  89 126 166 212 265 318 383
#
# _framework density 20.300263000000001
#
# number of rings (size 3 to 8) (size 9 to 14) (size 15 to 20)
#    0.000    1.333    3.333    2.500    0.000    2.000 
#    0.000    2.500    0.000    3.500    0.000    0.000 
#    0.000    0.000    0.000    0.000    0.000    0.000 
#
# Total GULP energy -133934.226610 kJ/mol
# GULP energy per Si atom -5580.592775 kJ/mol
# Density = 2.025406 g / cm^3
# Si number density = 20.300263 Si / 1000 Ang^3
#
#
#
# Elastic Constant Matrix: (Units=GPa)
#
#
# Indices 1 2 3 4 5 6 
#
# 1 74.3810 31.9918 5.1187 0.0000 -16.6169 0.0000
# 2 31.9918 170.8370 61.9740 0.0000 15.3163 0.0000
# 3 5.1187 61.9740 92.0623 0.0000 -6.1097 0.0000
# 4 0.0000 0.0000 0.0000 19.0336 0.0000 -6.0134
# 5 -16.6169 15.3163 -6.1097 0.0000 35.1041 0.0000
# 6 0.0000 0.0000 0.0000 -6.0134 0.0000 18.5895
#
#
#
# Elastic Compliance Matrix: (Units=1/GPa)
#
#
# Indices 1 2 3 4 5 6 
#
# 1 0.018360 -0.005848 0.003705 0.000000 0.011887 0.000000
# 2 -0.005848 0.010320 -0.007188 0.000000 -0.008522 0.000000
# 3 0.003705 -0.007188 0.016004 0.000000 0.007675 0.000000
# 4 0.000000 0.000000 0.000000 0.058519 0.000000 0.018930
# 5 0.011887 -0.008522 0.007675 0.000000 0.039168 0.000000
# 6 0.000000 0.000000 0.000000 0.018930 0.000000 0.059917
#
#
# Mechanical properties :
#
#
# Convention : Reuss Voigt Hill
#
# Bulk Modulus (GPa) = 38.42788 59.49438 48.96113
# Shear Modulus (GPa) = 21.77466 30.42517 26.09991
#
# Velocity S-wave (km/s) = 3.27866 3.87558 3.58955
# Velocity P-wave (km/s) = 5.77093 7.02834 6.43044
#
# Compressibility (1/GPa) = 0.02602277
#
# Stress axis : x y z
#
# Youngs Moduli (GPa) = 54.46553 96.89815 62.48395
#
# Poissons Ratio (x) = 0.56665 -0.23149
# Poissons Ratio (y) = 0.31851 0.44911
# Poissons Ratio (z) = -0.20178 0.69647
#
# Static dielectric constant tensor:
#      x y z
#    x 1.748140 0.000000 -0.025150 
#    y 0.000000 1.755690 0.000000 
#    z -0.025150 0.000000 1.701340 
# 
# From -- ./inp_files/212498.got.cif
#   From: 2010.05.17/outbox.cif.g08.bks.cpg/sg12_107_cif.got.tgz:212498.got - 2010.06.03 13:09:07.
