data_PCOD9208582
_publ_section_title
;
Structure prediction by ZEFSAII (Michael W. Deem and Ramdas Pophale) SiO2 
 PCOD9208582
Probable space group: C 2/M
;
_chemical_formula_sum "Si O2"
_cell_formula_units_Z 40
_cell_length_a 13.205332
_cell_length_b 18.040477
_cell_length_c 11.584147
_cell_angle_alpha 90.000000
_cell_angle_beta 38.200080
_cell_angle_gamma 90.000000
_cell_volume 1706.622819
_symmetry_space_group_name_H-M "C 2/M"
_symmetry_group_IT_number 12
_symmetry_cell_setting 'monoclinic'
loop_
_space_group_symop_operation_xyz
x,y,z
-x,y,-z
-x,-y,-z
x,-y,z
1/2+x,1/2+y,z
1/2-x,1/2+y,-z
1/2-x,1/2-y,-z
1/2+x,1/2-y,z
loop_
_atom_site_type_symbol
_atom_site_label
_atom_site_fract_x
_atom_site_fract_y
_atom_site_fract_z
Si Si1 0.739098 0.350944 0.613351
Si Si2 0.842467 0.341163 0.031194
Si Si3 0.388618 0.330100 0.962364
Si Si4 0.824257 0.819887 0.594813
Si Si5 0.424504 0.915678 0.732783
O O1 0.561909 0.368456 0.826460
O O2 0.788871 0.267586 0.605986
O O3 0.698244 0.352093 0.512460
O O4 0.901020 0.400037 0.480509
O O5 0.194941 0.354743 0.802280
O O6 0.667189 0.336964 0.121221
O O7 0.909488 0.257370 0.962744
O O8 0.935906 0.395450 0.859970
O O9 0.225465 0.361933 0.169533
O O10 0.000000 0.827339 0.500000
O O11 0.374889 0.000000 0.762738
#
# Coordination Sequence:
#
# PCOD9208582 Si02
#       5
#     8   8   8   8   8
#     4  11  22  34  59  87 115 156 198 232 300 359
#     4   9  18  36  57  85 117 150 192 247 299 330
#     4   9  19  38  57  86 117 149 201 247 287 344
#     4  11  19  34  60  90 118 147 192 256 291 338
#     4  10  21  38  58  86 125 159 195 242 292 358
#
# _framework density 23.438103000000002
#
# number of rings (size 3 to 8) (size 9 to 14) (size 15 to 20)
#    1.200    0.800    2.000    3.600    0.000    4.000 
#    0.000    2.000    0.000    7.800    0.000    7.000 
#    0.000    0.000    0.000    0.000    0.000    0.000 
#
# Total GULP energy -111604.558018 kJ/mol
# GULP energy per Si atom -5580.227901 kJ/mol
# Density = 2.338476 g / cm^3
# Si number density = 23.438103 Si / 1000 Ang^3
#
#
#
# Elastic Constant Matrix: (Units=GPa)
#
#
# Indices 1 2 3 4 5 6 
#
# 1 127.9315 -8.5756 27.3176 -0.0005 -7.9905 -0.0003
# 2 -8.5756 45.5478 16.1748 -0.0025 -5.5845 0.0002
# 3 27.3176 16.1748 130.7117 -0.0038 0.5966 0.0005
# 4 -0.0005 -0.0025 -0.0038 17.6466 0.0012 6.0231
# 5 -7.9905 -5.5845 0.5966 0.0012 54.2470 0.0004
# 6 -0.0003 0.0002 0.0005 6.0231 0.0004 2.4955
#
#
#
# Elastic Compliance Matrix: (Units=1/GPa)
#
#
# Indices 1 2 3 4 5 6 
#
# 1 0.008533 0.002543 -0.002105 -0.000002 0.001542 0.000005
# 2 0.002543 0.024038 -0.003519 0.000017 0.002888 -0.000041
# 3 -0.002105 -0.003519 0.008529 0.000011 -0.000766 -0.000027
# 4 -0.000002 0.000017 0.000011 0.321598 0.000000 -0.776197
# 5 0.001542 0.002888 -0.000766 0.000000 0.018967 -0.000003
# 6 0.000005 -0.000041 -0.000027 -0.776197 -0.000003 2.274121
#
#
# Mechanical properties :
#
#
# Convention : Reuss Voigt Hill
#
# Bulk Modulus (GPa) = 28.62239 41.55828 35.09033
# Shear Modulus (GPa) = 1.87014 32.82944 17.34979
#
# Velocity S-wave (km/s) = 0.89423 3.74664 2.72368
# Velocity P-wave (km/s) = 3.64755 6.04036 4.98952
#
# Compressibility (1/GPa) = 0.03493769
#
# Stress axis : x y z
#
# Youngs Moduli (GPa) = 117.19267 41.60153 117.24245
#
# Poissons Ratio (x) = -0.10580 0.24680
# Poissons Ratio (y) = -0.29804 0.41260
# Poissons Ratio (z) = 0.24670 0.14640
#
# Static dielectric constant tensor:
#      x y z
#    x 2.005830 0.000000 0.024860 
#    y 0.000000 1.763970 0.000000 
#    z 0.024860 0.000000 1.979820 
# 
# From -- ./inp_files/271891.got.cif
#   From: 2010.05.17/outbox.cif.g08.bks.cpg/sg12_136_cif.got.tgz:271891.got - 2010.06.03 13:09:07.
