data_PCOD9208090
_publ_section_title
;
Structure prediction by ZEFSAII (Michael W. Deem and Ramdas Pophale) SiO2 
 PCOD9208090
Probable space group: C 2/M
;
_chemical_formula_sum "Si O2"
_cell_formula_units_Z 44
_cell_length_a 25.269674
_cell_length_b 15.372808
_cell_length_c 16.824257
_cell_angle_alpha 90.000000
_cell_angle_beta 160.503040
_cell_angle_gamma 90.000000
_cell_volume 2181.317664
_symmetry_space_group_name_H-M "C 2/M"
_symmetry_group_IT_number 12
_symmetry_cell_setting 'monoclinic'
loop_
_space_group_symop_operation_xyz
x,y,z
-x,y,-z
-x,-y,-z
x,-y,z
1/2+x,1/2+y,z
1/2-x,1/2+y,-z
1/2-x,1/2-y,-z
1/2+x,1/2-y,z
loop_
_atom_site_type_symbol
_atom_site_label
_atom_site_fract_x
_atom_site_fract_y
_atom_site_fract_z
Si Si1 0.837746 0.901042 0.741265
Si Si2 0.324797 0.786489 0.953586
Si Si3 0.172209 0.602155 0.202639
Si Si4 0.499638 0.896854 0.327048
Si Si5 0.639638 0.677467 0.386097
Si Si6 0.500000 0.180866 0.500000
O O1 0.671617 0.864922 0.537469
O O2 0.845969 0.899194 0.658073
O O3 0.839908 0.000000 0.775082
O O4 0.000000 0.855754 0.000000
O O5 0.331743 0.848205 0.886351
O O6 0.155957 0.740584 0.719415
O O7 0.368575 0.844009 0.092494
O O8 0.463015 0.714418 0.141614
O O9 0.209279 0.500000 0.244399
O O10 0.293779 0.647169 0.435545
O O11 0.000000 0.608204 0.000000
O O12 0.494311 0.876414 0.412349
O O13 0.485581 0.000000 0.291702
O O14 0.750000 0.750000 0.500000
#
# Coordination Sequence:
#
# PCOD9208090 Si02
#       6
#     8   8   8   8   8   4
#     4  10  21  37  61  93 129 162 199 252 319 383
#     4  12  25  43  65  94 128 167 213 264 312 369
#     4  11  23  41  65  98 133 168 202 251 320 387
#     4  11  23  44  66  90 124 170 213 261 317 373
#     4  12  22  36  65  97 129 155 205 253 319 367
#     4  12  27  44  65  90 126 168 222 264 311 366
#
# _framework density 20.171294
#
# number of rings (size 3 to 8) (size 9 to 14) (size 15 to 20)
#    0.000    0.727    3.636    4.091    2.545    2.909 
#    0.000    6.364    0.000    0.000    0.000    0.000 
#    0.000    0.000    0.000    0.000    0.000    0.000 
#
# Total GULP energy -123028.896728 kJ/mol
# GULP energy per Si atom -5592.222579 kJ/mol
# Density = 2.012538 g / cm^3
# Si number density = 20.171294 Si / 1000 Ang^3
#
#
#
# Elastic Constant Matrix: (Units=GPa)
#
#
# Indices 1 2 3 4 5 6 
#
# 1 91.1979 24.2500 36.3953 0.0000 -17.7929 0.0000
# 2 24.2500 69.2815 29.2947 0.0000 10.1353 0.0000
# 3 36.3953 29.2947 114.0766 0.0000 5.9895 0.0000
# 4 0.0000 0.0000 0.0000 7.8045 0.0000 4.2721
# 5 -17.7929 10.1353 5.9895 0.0000 48.9749 0.0000
# 6 0.0000 0.0000 0.0000 4.2721 0.0000 12.3394
#
#
#
# Elastic Compliance Matrix: (Units=1/GPa)
#
#
# Indices 1 2 3 4 5 6 
#
# 1 0.015152 -0.004624 -0.004012 0.000000 0.006953 0.000000
# 2 -0.004624 0.018012 -0.002885 0.000000 -0.005055 0.000000
# 3 -0.004012 -0.002885 0.010902 0.000000 -0.002194 0.000000
# 4 0.000000 0.000000 0.000000 0.158091 0.000000 -0.054733
# 5 0.006953 -0.005055 -0.002194 0.000000 0.024259 0.000000
# 6 0.000000 0.000000 0.000000 -0.054733 0.000000 0.099990
#
#
# Mechanical properties :
#
#
# Convention : Reuss Voigt Hill
#
# Bulk Modulus (GPa) = 47.56375 50.49287 49.02831
# Shear Modulus (GPa) = 14.02700 26.13153 20.07926
#
# Velocity S-wave (km/s) = 2.63989 3.60318 3.15848
# Velocity P-wave (km/s) = 5.73787 6.51130 6.13678
#
# Compressibility (1/GPa) = 0.02102441
#
# Stress axis : x y z
#
# Youngs Moduli (GPa) = 65.99673 55.51950 91.72726
#
# Poissons Ratio (x) = 0.25674 0.36798
# Poissons Ratio (y) = 0.30520 0.26460
# Poissons Ratio (z) = 0.26476 0.16015
#
# Static dielectric constant tensor:
#      x y z
#    x 1.686520 0.000000 -0.004420 
#    y 0.000000 1.737820 0.000000 
#    z -0.004420 0.000000 1.730880 
# 
# From -- ./inp_files/241555.got.cif
#   From: 2010.05.17/outbox.cif.g08.bks.cpg/sg12_121_cif.got.tgz:241555.got - 2010.06.03 13:09:07.
