data_PCOD9208838
_publ_section_title
;
Structure prediction by ZEFSAII (Michael W. Deem and Ramdas Pophale) SiO2 
 PCOD9208838
Probable space group: C 2/M
;
_chemical_formula_sum "Si O2"
_cell_formula_units_Z 48
_cell_length_a 9.446261
_cell_length_b 19.923246
_cell_length_c 12.938173
_cell_angle_alpha 90.000000
_cell_angle_beta 80.756788
_cell_angle_gamma 90.000000
_cell_volume 2403.349451
_symmetry_space_group_name_H-M "C 2/M"
_symmetry_group_IT_number 12
_symmetry_cell_setting 'monoclinic'
loop_
_space_group_symop_operation_xyz
x,y,z
-x,y,-z
-x,-y,-z
x,-y,z
1/2+x,1/2+y,z
1/2-x,1/2+y,-z
1/2-x,1/2-y,-z
1/2+x,1/2-y,z
loop_
_atom_site_type_symbol
_atom_site_label
_atom_site_fract_x
_atom_site_fract_y
_atom_site_fract_z
Si Si1 0.142815 0.191686 0.046679
Si Si2 0.164807 0.576081 0.710797
Si Si3 0.201764 0.204429 0.603879
Si Si4 0.104588 0.576710 0.389140
Si Si5 0.655617 0.924125 0.959564
Si Si6 0.374630 0.306516 0.704761
O O1 0.219843 0.121520 0.011605
O O2 0.112442 0.190162 0.172988
O O3 0.250000 0.250000 0.000000
O O4 0.000000 0.199975 0.000000
O O5 0.189719 0.500000 0.668157
O O6 0.166326 0.573540 0.834493
O O7 0.289119 0.628815 0.669928
O O8 0.006711 0.596761 0.689291
O O9 0.250000 0.250000 0.500000
O O10 0.272839 0.130691 0.600875
O O11 0.272544 0.244197 0.690724
O O12 0.030638 0.201323 0.635432
O O13 0.155722 0.500000 0.364568
O O14 0.000000 0.575923 0.500000
O O15 0.659416 0.000000 0.000465
O O16 0.500000 0.893897 0.000000
#
# Coordination Sequence:
#
# PCOD9208838 Si02
#       6
#     8   8   8   8   8   8
#     4  11  23  38  57  83 114 150 192 237 283 335
#     4   9  19  37  59  84 114 147 185 230 281 337
#     4  12  24  39  59  86 117 150 191 235 284 338
#     4  10  21  38  60  84 112 147 187 230 277 333
#     4   9  19  36  58  83 112 148 187 229 281 337
#     4  11  23  38  59  83 114 152 189 235 286 338
#
# _framework density 19.972125999999999
#
# number of rings (size 3 to 8) (size 9 to 14) (size 15 to 20)
#    0.000    1.667    0.000    5.000    0.000    6.333 
#    0.000    0.000    0.000    5.000    0.000    0.000 
#    0.000    0.000    0.000    0.000    0.000    0.000 
#
# Total GULP energy -134015.326686 kJ/mol
# GULP energy per Si atom -5583.971945 kJ/mol
# Density = 1.992667 g / cm^3
# Si number density = 19.972126 Si / 1000 Ang^3
#
#
#
# Elastic Constant Matrix: (Units=GPa)
#
#
# Indices 1 2 3 4 5 6 
#
# 1 136.5502 68.4054 21.0294 0.0000 -0.8217 0.0000
# 2 68.4054 101.1347 20.4018 0.0000 1.8454 0.0000
# 3 21.0294 20.4018 31.4812 0.0000 7.8378 0.0000
# 4 0.0000 0.0000 0.0000 22.4968 0.0000 3.3660
# 5 -0.8217 1.8454 7.8378 0.0000 35.3042 0.0000
# 6 0.0000 0.0000 0.0000 3.3660 0.0000 41.8267
#
#
#
# Elastic Compliance Matrix: (Units=1/GPa)
#
#
# Indices 1 2 3 4 5 6 
#
# 1 0.011379 -0.007039 -0.003384 0.000000 0.001384 0.000000
# 2 -0.007039 0.015770 -0.005580 0.000000 0.000251 0.000000
# 3 -0.003384 -0.005580 0.039788 0.000000 -0.008620 0.000000
# 4 0.000000 0.000000 0.000000 0.044992 0.000000 -0.003621
# 5 0.001384 0.000251 -0.008620 0.000000 0.030258 0.000000
# 6 0.000000 0.000000 0.000000 -0.003621 0.000000 0.024200
#
#
# Mechanical properties :
#
#
# Convention : Reuss Voigt Hill
#
# Bulk Modulus (GPa) = 28.62837 54.31548 41.47193
# Shear Modulus (GPa) = 23.80523 30.54750 27.17636
#
# Velocity S-wave (km/s) = 3.45617 3.91513 3.69279
# Velocity P-wave (km/s) = 5.50382 6.90597 6.24438
#
# Compressibility (1/GPa) = 0.03493039
#
# Stress axis : x y z
#
# Youngs Moduli (GPa) = 87.88031 63.41111 25.13316
#
# Poissons Ratio (x) = 0.44636 0.08505
# Poissons Ratio (y) = 0.61861 0.14025
# Poissons Ratio (z) = 0.29738 0.35385
#
# Static dielectric constant tensor:
#      x y z
#    x 1.647170 0.000000 0.008310 
#    y 0.000000 1.755800 0.000000 
#    z 0.008310 0.000000 1.734530 
# 
# From -- ./inp_files/195961.got.cif
#   From: 2010.05.17/outbox.cif.g08.bks.cpg/sg12_98_cif.got.tgz:195961.got - 2010.06.03 13:09:07.
