data_PCOD9208882
_publ_section_title
;
Structure prediction by ZEFSAII (Michael W. Deem and Ramdas Pophale) SiO2 
 PCOD9208882
Probable space group: C 2/M
;
_chemical_formula_sum "Si O2"
_cell_formula_units_Z 48
_cell_length_a 9.615871
_cell_length_b 20.734086
_cell_length_c 9.509703
_cell_angle_alpha 90.000000
_cell_angle_beta 96.753172
_cell_angle_gamma 90.000000
_cell_volume 1882.854752
_symmetry_space_group_name_H-M "C 2/M"
_symmetry_group_IT_number 12
_symmetry_cell_setting 'monoclinic'
loop_
_space_group_symop_operation_xyz
x,y,z
-x,y,-z
-x,-y,-z
x,-y,z
1/2+x,1/2+y,z
1/2-x,1/2+y,-z
1/2-x,1/2-y,-z
1/2+x,1/2-y,z
loop_
_atom_site_type_symbol
_atom_site_label
_atom_site_fract_x
_atom_site_fract_y
_atom_site_fract_z
Si Si1 0.844124 0.720745 0.638022
Si Si2 0.354699 0.926776 0.570777
Si Si3 0.625081 0.765353 0.816383
Si Si4 0.656548 0.430076 0.283922
Si Si5 0.413927 0.375554 0.121785
Si Si6 0.145027 0.598032 0.956975
O O1 0.750000 0.750000 0.500000
O O2 0.833570 0.642331 0.644830
O O3 0.775472 0.756833 0.762584
O O4 0.009788 0.731864 0.677218
O O5 0.500000 0.921395 0.500000
O O6 0.233130 0.926164 0.440269
O O7 0.356287 0.000000 0.636065
O O8 0.607307 0.700070 0.899373
O O9 0.614579 0.828146 0.909265
O O10 0.590722 0.500000 0.257670
O O11 0.523158 0.383747 0.259883
O O12 0.777464 0.424533 0.177889
O O13 0.500000 0.402331 0.000000
O O14 0.263053 0.407454 0.091011
O O15 0.000000 0.571222 0.000000
#
# Coordination Sequence:
#
# PCOD9208882 Si02
#       6
#     8   8   8   8   8   8
#     4  12  23  37  61  91 123 159 206 258 308 365
#     4  10  21  40  64  90 124 165 208 254 309 369
#     4  12  23  38  60  90 124 156 201 252 309 363
#     4  10  22  41  63  87 119 161 204 246 301 367
#     4  10  21  38  60  85 119 159 198 244 301 364
#     4  11  22  37  60  91 125 159 199 249 304 365
#
# _framework density 25.493205
#
# number of rings (size 3 to 8) (size 9 to 14) (size 15 to 20)
#    0.000    1.167    0.000    8.500    0.000    3.333 
#    0.000    0.833    0.000    8.000    0.000    2.333 
#    0.000    0.000    0.000    0.000    0.000    0.000 
#
# Total GULP energy -134068.859401 kJ/mol
# GULP energy per Si atom -5586.202475 kJ/mol
# Density = 2.543518 g / cm^3
# Si number density = 25.493205 Si / 1000 Ang^3
#
#
#
# Elastic Constant Matrix: (Units=GPa)
#
#
# Indices 1 2 3 4 5 6 
#
# 1 130.2686 31.8945 24.1917 0.0000 25.5323 0.0000
# 2 31.8945 120.6092 5.3294 0.0000 1.2051 0.0000
# 3 24.1917 5.3294 36.9103 0.0000 11.0324 0.0000
# 4 0.0000 0.0000 0.0000 -33.5259 0.0000 35.2373
# 5 25.5323 1.2051 11.0324 0.0000 40.9621 0.0000
# 6 0.0000 0.0000 0.0000 35.2373 0.0000 -10.5718
#
#
#
# Elastic Compliance Matrix: (Units=1/GPa)
#
#
# Indices 1 2 3 4 5 6 
#
# 1 0.010132 -0.002417 -0.004813 0.000000 -0.004948 0.000000
# 2 -0.002417 0.008921 -0.000082 0.000000 0.001266 0.000000
# 3 -0.004813 -0.000082 0.031932 0.000000 -0.005598 0.000000
# 4 0.000000 0.000000 0.000000 0.011915 0.000000 0.039716
# 5 -0.004948 0.001266 -0.005598 0.000000 0.028967 0.000000
# 6 0.000000 0.000000 0.000000 0.039716 0.000000 0.037787
#
#
# Mechanical properties :
#
#
# Convention : Reuss Voigt Hill
#
# Bulk Modulus (GPa) = 27.50202 45.62437 36.56319
# Shear Modulus (GPa) = 31.96933 14.46438 23.21685
#
# Velocity S-wave (km/s) = 3.54508 2.38456 3.02107
# Velocity P-wave (km/s) = 5.25054 5.05144 5.15195
#
# Compressibility (1/GPa) = 0.03636097
#
# Stress axis : x y z
#
# Youngs Moduli (GPa) = 98.69928 112.08947 31.31644
#
# Poissons Ratio (x) = 0.27094 0.15071
# Poissons Ratio (y) = 0.23858 0.00258
# Poissons Ratio (z) = 0.47500 0.00924
#
# Static dielectric constant tensor:
#      x y z
#    x 2.036200 0.000000 0.106030 
#    y 0.000000 2.030390 0.000000 
#    z 0.106030 0.000000 2.617820 
# 
# From -- ./inp_files/122018.got.cif
#   From: 2010.05.17/outbox.cif.g08.bks.cpg/sg12_62_cif.got.tgz:122018.got - 2010.06.03 13:09:07.
