data_PCOD9208850
_publ_section_title
;
Structure prediction by ZEFSAII (Michael W. Deem and Ramdas Pophale) SiO2 
 PCOD9208850
Probable space group: C 2/M
;
_chemical_formula_sum "Si O2"
_cell_formula_units_Z 56
_cell_length_a 8.893085
_cell_length_b 24.737991
_cell_length_c 17.532685
_cell_angle_alpha 90.000000
_cell_angle_beta 129.758119
_cell_angle_gamma 90.000000
_cell_volume 2965.180362
_symmetry_space_group_name_H-M "C 2/M"
_symmetry_group_IT_number 12
_symmetry_cell_setting 'monoclinic'
loop_
_space_group_symop_operation_xyz
x,y,z
-x,y,-z
-x,-y,-z
x,-y,z
1/2+x,1/2+y,z
1/2-x,1/2+y,-z
1/2-x,1/2-y,-z
1/2+x,1/2-y,z
loop_
_atom_site_type_symbol
_atom_site_label
_atom_site_fract_x
_atom_site_fract_y
_atom_site_fract_z
Si Si1 0.712518 0.270572 0.072080
Si Si2 0.734732 0.635489 0.359851
Si Si3 0.844056 0.808391 0.238641
Si Si4 0.558713 0.781812 0.403589
Si Si5 0.581509 0.940333 0.699541
Si Si6 0.343795 0.562515 0.516405
Si Si7 0.953937 0.653304 0.752158
O O1 0.716780 0.220687 0.132985
O O2 0.885820 0.307806 0.158592
O O3 0.500000 0.297447 0.000000
O O4 0.750000 0.250000 0.000000
O O5 0.542699 0.667088 0.270940
O O6 0.781433 0.586741 0.318682
O O7 0.686746 0.607869 0.426839
O O8 0.915239 0.678039 0.405500
O O9 0.721402 0.851919 0.245753
O O10 0.915777 0.763901 0.323304
O O11 0.750000 0.750000 0.500000
O O12 0.619085 0.818277 0.350162
O O13 0.367170 0.941472 0.591570
O O14 0.557653 0.901594 0.763241
O O15 0.644335 0.000000 0.739602
O O16 0.500000 0.576529 0.500000
O O17 0.390476 0.500000 0.558551
#
# Coordination Sequence:
#
# PCOD9208850 Si02
#       7
#     8   8   8   8   8   8   8
#     4  11  22  40  66  91 122 154 193 246 297 361
#     4  11  23  36  59  82 120 160 210 247 299 354
#     4  11  23  37  56  91 122 155 202 243 293 372
#     4  10  23  37  53  82 126 166 197 239 291 359
#     4  10  22  39  59  84 117 155 205 255 301 357
#     4  10  21  38  60  85 113 159 214 260 303 352
#     4  10  22  39  58  90 120 156 201 241 301 358
#
# _framework density 18.885867000000001
#
# number of rings (size 3 to 8) (size 9 to 14) (size 15 to 20)
#    0.000    1.571    1.429    3.429   10.000    2.857 
#    0.000    0.714    0.000    0.429    0.000    1.000 
#    0.000    0.000    0.000    0.000    0.000    0.000 
#
# Total GULP energy -156183.842776 kJ/mol
# GULP energy per Si atom -5577.994385 kJ/mol
# Density = 1.884288 g / cm^3
# Si number density = 18.885867 Si / 1000 Ang^3
#
#
#
# Elastic Constant Matrix: (Units=GPa)
#
#
# Indices 1 2 3 4 5 6 
#
# 1 117.9426 51.7156 29.3526 0.0000 -0.6933 0.0000
# 2 51.7156 102.9209 25.1262 0.0000 -15.6310 0.0000
# 3 29.3526 25.1262 77.2503 0.0000 -4.4646 0.0000
# 4 0.0000 0.0000 0.0000 6.5340 0.0000 6.2953
# 5 -0.6933 -15.6310 -4.4646 0.0000 19.3783 0.0000
# 6 0.0000 0.0000 0.0000 6.2953 0.0000 7.3193
#
#
#
# Elastic Compliance Matrix: (Units=1/GPa)
#
#
# Indices 1 2 3 4 5 6 
#
# 1 0.011782 -0.006002 -0.002817 0.000000 -0.005069 0.000000
# 2 -0.006002 0.014929 -0.001917 0.000000 0.011386 0.000000
# 3 -0.002817 -0.001917 0.014740 0.000000 0.001749 0.000000
# 4 0.000000 0.000000 0.000000 0.893360 0.000000 -0.768378
# 5 -0.005069 0.011386 0.001749 0.000000 0.061010 0.000000
# 6 0.000000 0.000000 0.000000 -0.768378 0.000000 0.797505
#
#
# Mechanical properties :
#
#
# Convention : Reuss Voigt Hill
#
# Bulk Modulus (GPa) = 50.05567 56.72250 53.38909
# Shear Modulus (GPa) = 2.74505 19.44094 11.09300
#
# Velocity S-wave (km/s) = 1.20692 3.21189 2.42620
# Velocity P-wave (km/s) = 5.33892 6.62228 6.01492
#
# Compressibility (1/GPa) = 0.01997776
#
# Stress axis : x y z
#
# Youngs Moduli (GPa) = 84.87561 66.98153 67.84195
#
# Poissons Ratio (x) = 0.40204 0.19114
# Poissons Ratio (y) = 0.50944 0.13007
# Poissons Ratio (z) = 0.23913 0.12842
#
# Static dielectric constant tensor:
#      x y z
#    x 1.720020 0.000000 -0.012300 
#    y 0.000000 1.703820 0.000000 
#    z -0.012300 0.000000 1.641730 
# 
# From -- ./inp_files/259259.got.cif
#   From: 2010.05.17/outbox.cif.g08.bks.cpg/sg12_130_cif.got.tgz:259259.got - 2010.06.03 13:09:07.
