data_PCOD9208213
_publ_section_title
;
Structure prediction by ZEFSAII (Michael W. Deem and Ramdas Pophale) SiO2 
 PCOD9208213
Probable space group: C 2/M
;
_chemical_formula_sum "Si O2"
_cell_formula_units_Z 42
_cell_length_a 12.746818
_cell_length_b 12.757815
_cell_length_c 10.547265
_cell_angle_alpha 90.000000
_cell_angle_beta 102.799648
_cell_angle_gamma 90.000000
_cell_volume 1672.590735
_symmetry_space_group_name_H-M "C 2/M"
_symmetry_group_IT_number 12
_symmetry_cell_setting 'monoclinic'
loop_
_space_group_symop_operation_xyz
x,y,z
-x,y,-z
-x,-y,-z
x,-y,z
1/2+x,1/2+y,z
1/2-x,1/2+y,-z
1/2-x,1/2-y,-z
1/2+x,1/2-y,z
loop_
_atom_site_type_symbol
_atom_site_label
_atom_site_fract_x
_atom_site_fract_y
_atom_site_fract_z
Si Si1 0.371689 0.884719 0.991736
Si Si2 0.381139 0.693807 0.818614
Si Si3 0.921674 0.293374 0.261569
Si Si4 0.000000 0.000000 0.000000
Si Si5 0.288200 0.122455 0.433835
Si Si6 0.382156 0.377237 0.403839
O O1 0.366620 0.864210 0.140823
O O2 0.324668 0.000000 0.946596
O O3 0.500000 0.891206 0.000000
O O4 0.339143 0.778316 0.910816
O O5 0.458456 0.768510 0.752525
O O6 0.296344 0.644268 0.700849
O O7 0.440365 0.595595 0.900470
O O8 0.896440 0.334405 0.396204
O O9 0.876578 0.176121 0.265866
O O10 0.220949 0.156656 0.540663
O O11 0.307201 0.000000 0.459253
O O12 0.500000 0.358565 0.500000
O O13 0.375602 0.500000 0.388180
#
# Coordination Sequence:
#
# PCOD9208213 Si02
#       6
#     8   8   8   2   8   8
#     4   9  19  37  57  84 122 167 200 243 313 378
#     4  11  22  38  64  94 127 167 209 266 314 376
#     4  11  21  37  61  90 120 165 206 261 311 375
#     4  12  20  40  62  98 132 162 212 270 314 380
#     4  11  23  39  62  93 127 165 212 261 321 385
#     4  10  21  37  63  91 121 163 208 267 323 378
#
# _framework density 25.110744
#
# number of rings (size 3 to 8) (size 9 to 14) (size 15 to 20)
#    0.000    1.524    5.714    1.143    1.333    1.524 
#    0.000    0.952    0.000    4.571    0.000    0.000 
#    0.000    0.000    0.000    0.000    0.000    0.000 
#
# Total GULP energy -116909.584445 kJ/mol
# GULP energy per Si atom -5567.123069 kJ/mol
# Density = 2.505359 g / cm^3
# Si number density = 25.110744 Si / 1000 Ang^3
#
#
#
# Elastic Constant Matrix: (Units=GPa)
#
#
# Indices 1 2 3 4 5 6 
#
# 1 76.5633 21.2716 32.7772 0.0000 -10.6255 0.0000
# 2 21.2716 109.6954 13.7144 0.0000 -11.9203 0.0000
# 3 32.7772 13.7144 76.9104 0.0000 -30.6939 0.0000
# 4 0.0000 0.0000 0.0000 37.7966 0.0000 0.6140
# 5 -10.6255 -11.9203 -30.6939 0.0000 48.0863 0.0000
# 6 0.0000 0.0000 0.0000 0.6140 0.0000 20.4334
#
#
#
# Elastic Compliance Matrix: (Units=1/GPa)
#
#
# Indices 1 2 3 4 5 6 
#
# 1 0.016652 -0.002491 -0.007287 0.000000 -0.001589 0.000000
# 2 -0.002491 0.009799 0.000086 0.000000 0.001933 0.000000
# 3 -0.007287 0.000086 0.020742 0.000000 0.011651 0.000000
# 4 0.000000 0.000000 0.000000 0.026470 0.000000 -0.000795
# 5 -0.001589 0.001933 0.011651 0.000000 0.028361 0.000000
# 6 0.000000 0.000000 0.000000 -0.000795 0.000000 0.048963
#
#
# Mechanical properties :
#
#
# Convention : Reuss Voigt Hill
#
# Bulk Modulus (GPa) = 35.95912 44.29951 40.12932
# Shear Modulus (GPa) = 27.83343 34.29033 31.06188
#
# Velocity S-wave (km/s) = 3.33292 3.69936 3.52091
# Velocity P-wave (km/s) = 5.40022 5.99391 5.70480
#
# Compressibility (1/GPa) = 0.02780935
#
# Stress axis : x y z
#
# Youngs Moduli (GPa) = 60.05275 102.05631 48.21144
#
# Poissons Ratio (x) = 0.25420 0.35130
# Poissons Ratio (y) = 0.14958 -0.00414
# Poissons Ratio (z) = 0.43758 -0.00876
#
# Static dielectric constant tensor:
#      x y z
#    x 2.115970 0.000000 -0.042120 
#    y 0.000000 2.078370 0.000000 
#    z -0.042120 0.000000 1.985920 
# 
# From -- ./inp_files/140962.got.cif
#   From: 2010.05.17/outbox.cif.g08.bks.cpg/sg12_71_cif.got.tgz:140962.got - 2010.06.03 13:09:07.
