data_PCOD9208133
_publ_section_title
;
Structure prediction by ZEFSAII (Michael W. Deem and Ramdas Pophale) SiO2 
 PCOD9208133
Probable space group: C 2/M
;
_chemical_formula_sum "Si O2"
_cell_formula_units_Z 56
_cell_length_a 16.372497
_cell_length_b 15.932750
_cell_length_c 20.634358
_cell_angle_alpha 90.000000
_cell_angle_beta 29.609493
_cell_angle_gamma 90.000000
_cell_volume 2659.494530
_symmetry_space_group_name_H-M "C 2/M"
_symmetry_group_IT_number 12
_symmetry_cell_setting 'monoclinic'
loop_
_space_group_symop_operation_xyz
x,y,z
-x,y,-z
-x,-y,-z
x,-y,z
1/2+x,1/2+y,z
1/2-x,1/2+y,-z
1/2-x,1/2-y,-z
1/2+x,1/2-y,z
loop_
_atom_site_type_symbol
_atom_site_label
_atom_site_fract_x
_atom_site_fract_y
_atom_site_fract_z
Si Si1 0.670990 0.601788 0.576937
Si Si2 0.988757 0.096374 0.578587
Si Si3 0.865495 0.826310 0.145486
Si Si4 0.459548 0.098038 0.690193
Si Si5 0.036506 0.160834 0.158883
Si Si6 0.588748 0.862140 0.126382
Si Si7 0.389027 0.875502 0.137672
O O1 0.668939 0.500000 0.576595
O O2 0.602644 0.634755 0.555434
O O3 0.549986 0.630899 0.716538
O O4 0.859796 0.628179 0.456124
O O5 0.799555 0.094819 0.732458
O O6 0.000000 0.137361 0.500000
O O7 0.047381 0.000000 0.530370
O O8 0.687040 0.852188 0.243057
O O9 0.878039 0.725615 0.140681
O O10 0.920879 0.859469 0.177211
O O11 0.000000 0.855569 0.000000
O O12 0.449797 0.106391 0.775011
O O13 0.441531 0.000000 0.686198
O O14 0.061210 0.261425 0.145426
O O15 0.218785 0.122993 0.022730
O O16 0.475688 0.896963 0.146243
O O17 0.500000 0.903097 0.000000
#
# Coordination Sequence:
#
# PCOD9208133 Si02
#       7
#     8   8   8   8   8   8   8
#     4  10  23  40  59  88 121 160 200 246 305 356
#     4  10  21  39  60  85 123 161 195 241 300 363
#     4  10  21  41  61  89 121 157 204 249 304 358
#     4  11  24  41  62  88 122 163 207 249 298 366
#     4  10  21  39  63  87 122 156 197 254 303 352
#     4  10  21  38  62  91 115 159 204 245 301 356
#     4  10  21  37  62  89 120 155 198 251 299 357
#
# _framework density 21.056632
#
# number of rings (size 3 to 8) (size 9 to 14) (size 15 to 20)
#    0.000    1.857    1.429    1.714    4.000    4.571 
#    5.143    1.429    0.000    0.000    0.000    0.000 
#    0.000    0.000    0.000    0.000    0.000    0.000 
#
# Total GULP energy -156521.690689 kJ/mol
# GULP energy per Si atom -5590.060382 kJ/mol
# Density = 2.100871 g / cm^3
# Si number density = 21.056632 Si / 1000 Ang^3
#
#
#
# Elastic Constant Matrix: (Units=GPa)
#
#
# Indices 1 2 3 4 5 6 
#
# 1 140.5701 17.6748 38.4236 -0.0001 -10.6531 0.0006
# 2 17.6748 22.9592 6.5968 0.0016 -6.7240 -0.0001
# 3 38.4236 6.5968 119.3772 0.0029 -9.4110 -0.0007
# 4 -0.0001 0.0016 0.0029 26.5583 -0.0005 5.6376
# 5 -10.6531 -6.7240 -9.4110 -0.0005 36.3625 -0.0001
# 6 0.0006 -0.0001 -0.0007 5.6376 -0.0001 11.3665
#
#
#
# Elastic Compliance Matrix: (Units=1/GPa)
#
#
# Indices 1 2 3 4 5 6 
#
# 1 0.008535 -0.005643 -0.002369 0.000001 0.000844 -0.000001
# 2 -0.005643 0.050212 -0.000364 -0.000003 0.007537 0.000002
# 3 -0.002369 -0.000364 0.009289 -0.000001 0.001643 0.000001
# 4 0.000001 -0.000003 -0.000001 0.042084 0.000000 -0.020873
# 5 0.000844 0.007537 0.001643 0.000000 0.029567 0.000000
# 6 -0.000001 0.000002 0.000001 -0.020873 0.000000 0.098331
#
#
# Mechanical properties :
#
#
# Convention : Reuss Voigt Hill
#
# Bulk Modulus (GPa) = 19.49931 45.36632 32.43282
# Shear Modulus (GPa) = 18.39165 29.53822 23.96493
#
# Velocity S-wave (km/s) = 2.95860 3.74946 3.37726
# Velocity P-wave (km/s) = 4.57730 6.35108 5.53570
#
# Compressibility (1/GPa) = 0.05128387
#
# Stress axis : x y z
#
# Youngs Moduli (GPa) = 117.16729 19.91574 107.65582
#
# Poissons Ratio (x) = 0.11238 0.25501
# Poissons Ratio (y) = 0.66113 0.03922
# Poissons Ratio (z) = 0.27754 0.00726
#
# Static dielectric constant tensor:
#      x y z
#    x 1.748960 0.000000 0.005600 
#    y 0.000000 1.773100 0.000000 
#    z 0.005600 0.000000 1.715970 
# 
# From -- ./inp_files/272365.got.cif
#   From: 2010.05.17/outbox.cif.g08.bks.cpg/sg12_137_cif.got.tgz:272365.got - 2010.06.03 13:09:07.
