data_PCOD9208458
_publ_section_title
;
Structure prediction by ZEFSAII (Michael W. Deem and Ramdas Pophale) SiO2 
 PCOD9208458
Probable space group: C 2/M
;
_chemical_formula_sum "Si O2"
_cell_formula_units_Z 60
_cell_length_a 18.386236
_cell_length_b 9.676064
_cell_length_c 18.801467
_cell_angle_alpha 90.000000
_cell_angle_beta 129.144239
_cell_angle_gamma 90.000000
_cell_volume 2594.168998
_symmetry_space_group_name_H-M "C 2/M"
_symmetry_group_IT_number 12
_symmetry_cell_setting 'monoclinic'
loop_
_space_group_symop_operation_xyz
x,y,z
-x,y,-z
-x,-y,-z
x,-y,z
1/2+x,1/2+y,z
1/2-x,1/2+y,-z
1/2-x,1/2-y,-z
1/2+x,1/2-y,z
loop_
_atom_site_type_symbol
_atom_site_label
_atom_site_fract_x
_atom_site_fract_y
_atom_site_fract_z
Si Si1 0.356960 0.342771 0.955430
Si Si2 0.270079 0.236395 0.414623
Si Si3 0.848234 0.840688 0.325497
Si Si4 0.187827 0.159272 0.865461
Si Si5 0.022980 0.654776 0.407912
Si Si6 0.934161 0.842158 0.849492
Si Si7 0.218485 0.000000 0.475722
Si Si8 0.505617 0.839889 0.777174
O O1 0.320458 0.500000 0.939782
O O2 0.285088 0.233574 0.942814
O O3 0.371872 0.315218 0.880649
O O4 0.459083 0.337575 0.053729
O O5 0.278274 0.263808 0.335840
O O6 0.373543 0.175458 0.498606
O O7 0.261784 0.378844 0.452147
O O8 0.202544 0.121679 0.405287
O O9 0.819343 0.838919 0.225212
O O10 0.949252 0.766084 0.390141
O O11 0.857288 0.000000 0.353762
O O12 0.100353 0.249544 0.837387
O O13 0.181812 0.000000 0.885522
O O14 0.989118 0.500000 0.404391
O O15 0.027000 0.664728 0.324875
O O16 0.933556 0.730721 0.786729
O O17 0.917479 0.000000 0.815338
O O18 0.521790 0.000000 0.805743
#
# Coordination Sequence:
#
# PCOD9208458 Si02
#       8
#     8   8   8   8   8   8   4   8
#     4   9  19  38  60  84 114 148 186 228 277 335
#     4  11  21  42  56  82 113 149 190 228 280 331
#     4  10  22  38  59  82 110 143 187 238 279 327
#     4  10  21  38  57  84 115 147 187 234 281 330
#     4  10  22  38  59  82 110 143 187 238 279 327
#     4   9  19  38  60  84 114 148 186 228 277 335
#     4  10  24  38  58  78 116 150 182 236 272 336
#     4  10  21  38  57  84 115 147 187 234 281 330
#
# _framework density 23.128795
#
# number of rings (size 3 to 8) (size 9 to 14) (size 15 to 20)
#    0.000    2.133    1.333    2.000    1.867    3.733 
#    4.800    1.333    0.000    0.000    0.000    0.000 
#    0.000    0.000    0.000    0.000    0.000    0.000 
#
# Total GULP energy -167359.233074 kJ/mol
# GULP energy per Si atom -5578.641102 kJ/mol
# Density = 2.307615 g / cm^3
# Si number density = 23.128795 Si / 1000 Ang^3
#
#
#
# Elastic Constant Matrix: (Units=GPa)
#
#
# Indices 1 2 3 4 5 6 
#
# 1 81.3323 47.9593 24.2259 0.0000 -21.6171 0.0000
# 2 47.9593 152.5956 16.9674 0.0000 -14.7177 0.0000
# 3 24.2259 16.9674 57.4878 0.0000 -13.9882 0.0000
# 4 0.0000 0.0000 0.0000 26.3975 0.0000 -14.9642
# 5 -21.6171 -14.7177 -13.9882 0.0000 52.9731 0.0000
# 6 0.0000 0.0000 0.0000 -14.9642 0.0000 -6.8242
#
#
#
# Elastic Compliance Matrix: (Units=1/GPa)
#
#
# Indices 1 2 3 4 5 6 
#
# 1 0.017704 -0.004562 -0.004985 0.000000 0.004641 0.000000
# 2 -0.004562 0.008057 -0.000389 0.000000 0.000274 0.000000
# 3 -0.004985 -0.000389 0.020400 0.000000 0.003245 0.000000
# 4 0.000000 0.000000 0.000000 0.016889 0.000000 -0.037034
# 5 0.004641 0.000274 0.003245 0.000000 0.021704 0.000000
# 6 0.000000 0.000000 0.000000 -0.037034 0.000000 -0.065329
#
#
# Mechanical properties :
#
#
# Convention : Reuss Voigt Hill
#
# Bulk Modulus (GPa) = 38.03886 52.19121 45.11503
# Shear Modulus (GPa) = 104.04024 27.99349 66.01686
#
# Velocity S-wave (km/s) = 6.71421 3.48275 5.34837
# Velocity P-wave (km/s) = 8.75156 6.22794 7.59529
#
# Compressibility (1/GPa) = 0.02628891
#
# Stress axis : x y z
#
# Youngs Moduli (GPa) = 56.48547 124.11895 49.01995
#
# Poissons Ratio (x) = 0.56626 0.24435
# Poissons Ratio (y) = 0.25770 0.01905
# Poissons Ratio (z) = 0.28157 0.04824
#
# Static dielectric constant tensor:
#      x y z
#    x 1.875460 0.000000 -0.015080 
#    y 0.000000 1.804130 0.000000 
#    z -0.015080 0.000000 1.917280 
# 
# From -- ./inp_files/314857.got.cif
#   From: 2010.05.17/outbox.cif.g08.bks.cpg/sg12_158_cif.got.tgz:314857.got - 2010.06.03 13:09:07.
