data_PCOD9208031
_publ_section_title
;
Structure prediction by ZEFSAII (Michael W. Deem and Ramdas Pophale) SiO2 
 PCOD9208031
Probable space group: C 2/M
;
_chemical_formula_sum "Si O2"
_cell_formula_units_Z 40
_cell_length_a 26.754517
_cell_length_b 18.339131
_cell_length_c 9.601085
_cell_angle_alpha 90.000000
_cell_angle_beta 151.209437
_cell_angle_gamma 90.000000
_cell_volume 2268.773170
_symmetry_space_group_name_H-M "C 2/M"
_symmetry_group_IT_number 12
_symmetry_cell_setting 'monoclinic'
loop_
_space_group_symop_operation_xyz
x,y,z
-x,y,-z
-x,-y,-z
x,-y,z
1/2+x,1/2+y,z
1/2-x,1/2+y,-z
1/2-x,1/2-y,-z
1/2+x,1/2-y,z
loop_
_atom_site_type_symbol
_atom_site_label
_atom_site_fract_x
_atom_site_fract_y
_atom_site_fract_z
Si Si1 0.708420 0.913252 0.069906
Si Si2 0.793132 0.680630 0.193871
Si Si3 0.028318 0.300802 0.720606
Si Si4 0.619413 0.412988 0.282186
Si Si5 0.809478 0.801090 0.755706
O O1 0.807811 0.893989 0.408297
O O2 0.689675 0.000000 0.031992
O O3 0.730327 0.887253 0.965772
O O4 0.609149 0.866899 0.884528
O O5 0.745519 0.686056 0.230688
O O6 0.917692 0.678830 0.513178
O O7 0.750000 0.750000 0.000000
O O8 0.000000 0.268623 0.500000
O O9 0.085659 0.241919 0.953005
O O10 0.619449 0.500000 0.271317
O O11 0.669261 0.376282 0.269602
O O12 0.500000 0.388197 0.000000
O O13 0.750000 0.750000 0.500000
#
# Coordination Sequence:
#
# PCOD9208031 Si02
#       5
#     8   8   8   8   8
#     4  10  21  42  63  87 121 162 203 243 300 366
#     4  11  22  38  58  90 122 153 202 246 300 350
#     4  10  21  37  61  90 119 157 198 249 296 362
#     4  10  23  41  61  87 124 163 200 245 305 363
#     4  12  23  37  62  91 122 157 199 251 306 348
#
# _framework density 17.630673999999999
#
# number of rings (size 3 to 8) (size 9 to 14) (size 15 to 20)
#    0.000    1.400    6.000    0.000    5.600    4.400 
#    0.000    0.000    0.000    6.600    0.000    0.000 
#    0.000    0.000    0.000    0.000    0.000    0.000 
#
# Total GULP energy -111517.226166 kJ/mol
# GULP energy per Si atom -5575.861308 kJ/mol
# Density = 1.759055 g / cm^3
# Si number density = 17.630674 Si / 1000 Ang^3
#
#
#
# Elastic Constant Matrix: (Units=GPa)
#
#
# Indices 1 2 3 4 5 6 
#
# 1 139.6212 26.4472 59.3537 0.0000 -10.0877 0.0000
# 2 26.4472 32.0283 35.8815 0.0000 -2.7047 0.0000
# 3 59.3537 35.8815 150.4539 0.0000 -5.2760 0.0000
# 4 0.0000 0.0000 0.0000 29.5242 0.0000 -4.9392
# 5 -10.0877 -2.7047 -5.2760 0.0000 25.0128 0.0000
# 6 0.0000 0.0000 0.0000 -4.9392 0.0000 27.7481
#
#
#
# Elastic Compliance Matrix: (Units=1/GPa)
#
#
# Indices 1 2 3 4 5 6 
#
# 1 0.009290 -0.004697 -0.002449 0.000000 0.002722 0.000000
# 2 -0.004697 0.045135 -0.008872 0.000000 0.001115 0.000000
# 3 -0.002449 -0.008872 0.009732 0.000000 0.000106 0.000000
# 4 0.000000 0.000000 0.000000 0.034910 0.000000 0.006214
# 5 0.002722 0.001115 0.000106 0.000000 0.041220 0.000000
# 6 0.000000 0.000000 0.000000 0.006214 0.000000 0.037145
#
#
# Mechanical properties :
#
#
# Convention : Reuss Voigt Hill
#
# Bulk Modulus (GPa) = 31.13334 62.82983 46.98159
# Shear Modulus (GPa) = 22.70923 29.81843 26.26383
#
# Velocity S-wave (km/s) = 3.59284 4.11698 3.86381
# Velocity P-wave (km/s) = 5.90832 7.63632 6.82721
#
# Compressibility (1/GPa) = 0.03211991
#
# Stress axis : x y z
#
# Youngs Moduli (GPa) = 107.64477 22.15596 102.75111
#
# Poissons Ratio (x) = 0.10408 0.25164
# Poissons Ratio (y) = 0.50565 0.91159
# Poissons Ratio (z) = 0.26363 0.19656
#
# Static dielectric constant tensor:
#      x y z
#    x 1.602830 0.000000 0.020950 
#    y 0.000000 1.600590 0.000000 
#    z 0.020950 0.000000 1.619090 
# 
# From -- ./inp_files/46959.got.cif
#   From: 2010.05.17/outbox.cif.g08.bks.cpg/sg12_24_cif.got.tgz:46959.got - 2010.06.03 13:09:07.
