data_PCOD9208682
_publ_section_title
;
Structure prediction by ZEFSAII (Michael W. Deem and Ramdas Pophale) SiO2 
 PCOD9208682
Probable space group: C 2/M
;
_chemical_formula_sum "Si O2"
_cell_formula_units_Z 56
_cell_length_a 10.341514
_cell_length_b 8.786488
_cell_length_c 32.270060
_cell_angle_alpha 90.000000
_cell_angle_beta 76.045139
_cell_angle_gamma 90.000000
_cell_volume 2845.695976
_symmetry_space_group_name_H-M "C 2/M"
_symmetry_group_IT_number 12
_symmetry_cell_setting 'monoclinic'
loop_
_space_group_symop_operation_xyz
x,y,z
-x,y,-z
-x,-y,-z
x,-y,z
1/2+x,1/2+y,z
1/2-x,1/2+y,-z
1/2-x,1/2-y,-z
1/2+x,1/2-y,z
loop_
_atom_site_type_symbol
_atom_site_label
_atom_site_fract_x
_atom_site_fract_y
_atom_site_fract_z
Si Si1 0.653159 0.182377 0.187782
Si Si2 0.109849 0.316459 0.524613
Si Si3 0.725013 0.817731 0.328454
Si Si4 0.928517 0.683667 0.377035
Si Si5 0.064796 0.683125 0.951511
Si Si6 0.139451 0.817921 0.097044
Si Si7 0.143095 0.317851 0.763917
O O1 0.644582 0.244031 0.141904
O O2 0.775936 0.253851 0.203139
O O3 0.513027 0.222495 0.220785
O O4 0.666072 0.000000 0.186565
O O5 0.115516 0.500000 0.523014
O O6 0.250000 0.250000 0.500000
O O7 0.075021 0.272715 0.574369
O O8 0.000000 0.265547 0.500000
O O9 0.809869 0.760390 0.360957
O O10 0.570700 0.773799 0.346248
O O11 0.789595 0.747969 0.282401
O O12 0.730897 0.000000 0.325549
O O13 0.915480 0.500000 0.375264
O O14 0.052410 0.500000 0.949357
O O15 0.220884 0.720786 0.936361
O O16 0.983114 0.756588 0.920299
O O17 0.000000 0.732017 0.000000
O O18 0.130696 0.000000 0.101633
O O19 0.152380 0.500000 0.762925
#
# Coordination Sequence:
#
# PCOD9208682 Si02
#       7
#     8   8   8   8   8   8   8
#     4  11  24  41  61  86 118 155 193 236 288 343
#     4  10  21  38  59  84 116 152 191 237 286 338
#     4  11  23  39  61  87 115 151 193 235 285 343
#     4  10  22  39  58  84 118 152 189 236 287 339
#     4  10  22  40  60  85 119 155 192 238 290 343
#     4  11  23  38  60  89 117 151 196 240 286 342
#     4  11  24  41  61  87 118 151 191 238 287 341
#
# _framework density 19.678840999999998
#
# number of rings (size 3 to 8) (size 9 to 14) (size 15 to 20)
#    0.000    1.429    0.000    4.714    0.000   13.714 
#    0.000    0.000    0.000    0.000    0.000    0.000 
#    0.000    0.000    0.000    0.000    0.000    0.000 
#
# Total GULP energy -156637.933594 kJ/mol
# GULP energy per Si atom -5594.211914 kJ/mol
# Density = 1.963405 g / cm^3
# Si number density = 19.678841 Si / 1000 Ang^3
#
#
#
# Elastic Constant Matrix: (Units=GPa)
#
#
# Indices 1 2 3 4 5 6 
#
# 1 62.5800 9.6175 -30.2354 0.0000 1.7486 0.0000
# 2 9.6175 17.3101 0.5151 0.0000 -5.2856 0.0000
# 3 -30.2354 0.5151 50.7325 0.0000 -1.3006 0.0000
# 4 0.0000 0.0000 0.0000 30.5731 0.0000 4.4211
# 5 1.7486 -5.2856 -1.3006 0.0000 42.7933 0.0000
# 6 0.0000 0.0000 0.0000 4.4211 0.0000 37.1993
#
#
#
# Elastic Compliance Matrix: (Units=1/GPa)
#
#
# Indices 1 2 3 4 5 6 
#
# 1 0.025987 -0.015673 0.015582 0.000000 -0.002524 0.000000
# 2 -0.015673 0.069495 -0.009817 0.000000 0.008926 0.000000
# 3 0.015582 -0.009817 0.029073 0.000000 -0.000966 0.000000
# 4 0.000000 0.000000 0.000000 0.033280 0.000000 -0.003955
# 5 -0.002524 0.008926 -0.000966 0.000000 0.024544 0.000000
# 6 0.000000 0.000000 0.000000 -0.003955 0.000000 0.027352
#
#
# Mechanical properties :
#
#
# Convention : Reuss Voigt Hill
#
# Bulk Modulus (GPa) = 9.54753 10.04631 9.79692
# Shear Modulus (GPa) = 18.90633 32.16151 25.53392
#
# Velocity S-wave (km/s) = 3.10295 4.04706 3.60603
# Velocity P-wave (km/s) = 4.20713 5.19177 4.72517
#
# Compressibility (1/GPa) = 0.10473914
#
# Stress axis : x y z
#
# Youngs Moduli (GPa) = 38.48040 14.38948 34.39645
#
# Poissons Ratio (x) = 0.22552 -0.53597
# Poissons Ratio (y) = 0.60310 0.33768
# Poissons Ratio (z) = -0.59961 0.14127
#
# Static dielectric constant tensor:
#      x y z
#    x 1.651520 0.000000 -0.013470 
#    y 0.000000 1.660400 0.000000 
#    z -0.013470 0.000000 1.670840 
# 
# From -- ./inp_files/357494.got.cif
#   From: 2010.05.17/outbox.cif.g08.bks.cpg/sg12_179_cif.got.tgz:357494.got - 2010.06.03 13:09:07.
