data_PCOD9208950
_publ_section_title
;
Structure prediction by ZEFSAII (Michael W. Deem and Ramdas Pophale) SiO2 
 PCOD9208950
Probable space group: C 2/M
;
_chemical_formula_sum "Si O2"
_cell_formula_units_Z 56
_cell_length_a 16.388838
_cell_length_b 8.998084
_cell_length_c 20.242102
_cell_angle_alpha 90.000000
_cell_angle_beta 78.504819
_cell_angle_gamma 90.000000
_cell_volume 2925.189131
_symmetry_space_group_name_H-M "C 2/M"
_symmetry_group_IT_number 12
_symmetry_cell_setting 'monoclinic'
loop_
_space_group_symop_operation_xyz
x,y,z
-x,y,-z
-x,-y,-z
x,-y,z
1/2+x,1/2+y,z
1/2-x,1/2+y,-z
1/2-x,1/2-y,-z
1/2+x,1/2-y,z
loop_
_atom_site_type_symbol
_atom_site_label
_atom_site_fract_x
_atom_site_fract_y
_atom_site_fract_z
Si Si1 0.982035 0.678933 0.079083
Si Si2 0.880354 0.822758 0.848672
Si Si3 0.488946 0.675379 0.705957
Si Si4 0.799036 0.680753 0.155765
Si Si5 0.161677 0.322387 0.704189
Si Si6 0.047493 0.327326 0.426312
Si Si7 0.258466 0.828324 0.569040
O O1 0.983987 0.500000 0.086388
O O2 0.888648 0.729911 0.113657
O O3 0.053619 0.746637 0.113673
O O4 0.000000 0.714877 0.000000
O O5 0.912582 0.800157 0.768395
O O6 0.784717 0.768870 0.867750
O O7 0.882046 0.000000 0.860873
O O8 0.507265 0.500000 0.702234
O O9 0.567555 0.764342 0.721319
O O10 0.471978 0.732876 0.635179
O O11 0.798517 0.500000 0.152970
O O12 0.795375 0.721525 0.233755
O O13 0.163072 0.500000 0.698858
O O14 0.205136 0.252350 0.633627
O O15 0.022320 0.500000 0.418604
O O16 0.145302 0.323410 0.425162
O O17 0.000000 0.275890 0.500000
O O18 0.250000 0.750000 0.500000
O O19 0.232379 0.000000 0.567953
#
# Coordination Sequence:
#
# PCOD9208950 Si02
#       7
#     8   8   8   8   8   8   8
#     4  10  21  39  62  89 122 160 204 250 299 363
#     4  10  21  38  60  87 121 157 199 248 302 364
#     4  11  22  36  58  87 116 149 197 253 303 358
#     4   9  19  37  60  86 119 161 201 243 303 366
#     4  11  21  37  61  83 114 159 200 242 305 365
#     4  10  22  39  57  80 112 152 195 240 298 362
#     4  11  23  38  57  84 117 152 196 248 300 358
#
# _framework density 19.144061000000001
#
# number of rings (size 3 to 8) (size 9 to 14) (size 15 to 20)
#    0.000    1.714    1.429    3.000    0.000    5.143 
#    0.000    2.143    0.000    0.000    0.000    0.000 
#    0.000    0.000    0.000    0.000    0.000    0.000 
#
# Total GULP energy -156405.880790 kJ/mol
# GULP energy per Si atom -5585.924314 kJ/mol
# Density = 1.910049 g / cm^3
# Si number density = 19.144061 Si / 1000 Ang^3
#
#
#
# Elastic Constant Matrix: (Units=GPa)
#
#
# Indices 1 2 3 4 5 6 
#
# 1 134.4258 34.6922 59.7034 0.0000 1.8349 0.0000
# 2 34.6922 56.6834 44.3907 0.0000 0.1229 0.0000
# 3 59.7034 44.3907 117.1681 0.0000 -0.2027 0.0000
# 4 0.0000 0.0000 0.0000 44.4161 0.0000 -11.9501
# 5 1.8349 0.1229 -0.2027 0.0000 24.9982 0.0000
# 6 0.0000 0.0000 0.0000 -11.9501 0.0000 42.8077
#
#
#
# Elastic Compliance Matrix: (Units=1/GPa)
#
#
# Indices 1 2 3 4 5 6 
#
# 1 0.009979 -0.003018 -0.003943 0.000000 -0.000750 0.000000
# 2 -0.003018 0.025998 -0.008312 0.000000 0.000026 0.000000
# 3 -0.003943 -0.008312 0.013694 0.000000 0.000441 0.000000
# 4 0.000000 0.000000 0.000000 0.024343 0.000000 0.006795
# 5 -0.000750 0.000026 0.000441 0.000000 0.040061 0.000000
# 6 0.000000 0.000000 0.000000 0.006795 0.000000 0.025257
#
#
# Mechanical properties :
#
#
# Convention : Reuss Voigt Hill
#
# Bulk Modulus (GPa) = 52.28616 65.09442 58.69029
# Shear Modulus (GPa) = 28.36821 33.74381 31.05601
#
# Velocity S-wave (km/s) = 3.85363 4.20292 4.03206
# Velocity P-wave (km/s) = 6.86818 7.59137 7.23881
#
# Compressibility (1/GPa) = 0.01912552
#
# Stress axis : x y z
#
# Youngs Moduli (GPa) = 100.20658 38.46396 73.02691
#
# Poissons Ratio (x) = 0.11610 0.28793
# Poissons Ratio (y) = 0.30246 0.60698
# Poissons Ratio (z) = 0.39509 0.31970
#
# Static dielectric constant tensor:
#      x y z
#    x 1.673680 0.000000 -0.014560 
#    y 0.000000 1.656280 0.000000 
#    z -0.014560 0.000000 1.648950 
# 
# From -- ./inp_files/309064.got.cif
#   From: 2010.05.17/outbox.cif.g08.bks.cpg/sg12_155_cif.got.tgz:309064.got - 2010.06.03 13:09:07.
