data_PCOD9208883
_publ_section_title
;
Structure prediction by ZEFSAII (Michael W. Deem and Ramdas Pophale) SiO2 
 PCOD9208883
Probable space group: C 2/M
;
_chemical_formula_sum "Si O2"
_cell_formula_units_Z 64
_cell_length_a 15.863896
_cell_length_b 8.692664
_cell_length_c 31.379707
_cell_angle_alpha 90.000000
_cell_angle_beta 129.888107
_cell_angle_gamma 90.000000
_cell_volume 3320.288775
_symmetry_space_group_name_H-M "C 2/M"
_symmetry_group_IT_number 12
_symmetry_cell_setting 'monoclinic'
loop_
_space_group_symop_operation_xyz
x,y,z
-x,y,-z
-x,-y,-z
x,-y,z
1/2+x,1/2+y,z
1/2-x,1/2+y,-z
1/2-x,1/2-y,-z
1/2+x,1/2-y,z
loop_
_atom_site_type_symbol
_atom_site_label
_atom_site_fract_x
_atom_site_fract_y
_atom_site_fract_z
Si Si1 0.236563 0.182561 0.323596
Si Si2 0.851004 0.818591 0.559151
Si Si3 0.177351 0.186742 0.138141
Si Si4 0.437069 0.817700 0.672875
Si Si5 0.820449 0.816812 0.261484
Si Si6 0.248343 0.814588 0.066731
Si Si7 0.922733 0.814726 0.061402
Si Si8 0.033696 0.682236 0.559520
O O1 0.129259 0.265275 0.306981
O O2 0.275038 0.242624 0.290257
O O3 0.338982 0.210018 0.388898
O O4 0.217408 0.000000 0.315561
O O5 0.750000 0.750000 0.500000
O O6 0.866215 0.736851 0.609292
O O7 0.959778 0.781929 0.567126
O O8 0.836367 0.000000 0.560738
O O9 0.245703 0.260982 0.198213
O O10 0.225166 0.232266 0.107548
O O11 0.049258 0.231682 0.099359
O O12 0.183505 0.000000 0.143314
O O13 0.555505 0.739229 0.706700
O O14 0.451120 0.000000 0.676640
O O15 0.818895 0.000000 0.264946
O O16 0.358726 0.749559 0.081532
O O17 0.252887 0.000000 0.067250
O O18 0.148228 0.766424 0.003034
O O19 0.919833 0.000000 0.061923
O O20 0.012132 0.500000 0.560849
O O21 0.000000 0.713508 0.500000
#
# Coordination Sequence:
#
# PCOD9208883 Si02
#       8
#     8   8   8   8   8   8   8   8
#     4  11  23  42  68  94 125 162 203 254 316 378
#     4  12  24  39  62  92 128 163 205 253 308 372
#     4  10  21  38  60  85 119 163 210 255 309 372
#     4  12  25  44  68  93 124 162 208 258 315 376
#     4  12  26  44  64  90 125 166 215 265 314 374
#     4   9  18  34  58  88 122 160 203 253 309 368
#     4   9  18  34  58  88 122 160 202 252 310 371
#     4  10  21  38  62  92 126 159 198 249 310 374
#
# _framework density 19.275431000000001
#
# number of rings (size 3 to 8) (size 9 to 14) (size 15 to 20)
#    0.000    1.375    1.250    4.875    0.000    5.250 
#    0.000    2.500    0.000    3.750    0.000    0.000 
#    0.000    0.000    0.000    0.000    0.000    0.000 
#
# Total GULP energy -178950.034753 kJ/mol
# GULP energy per Si atom -5592.188586 kJ/mol
# Density = 1.923156 g / cm^3
# Si number density = 19.275431 Si / 1000 Ang^3
#
#
#
# Elastic Constant Matrix: (Units=GPa)
#
#
# Indices 1 2 3 4 5 6 
#
# 1 97.4274 5.6607 40.3727 0.0000 -20.0760 0.0000
# 2 5.6607 39.6847 12.0423 0.0000 -6.7216 0.0000
# 3 40.3727 12.0423 84.6814 0.0000 -24.2560 0.0000
# 4 0.0000 0.0000 0.0000 24.2162 0.0000 -3.0514
# 5 -20.0760 -6.7216 -24.2560 0.0000 13.6122 0.0000
# 6 0.0000 0.0000 0.0000 -3.0514 0.0000 36.2817
#
#
#
# Elastic Compliance Matrix: (Units=1/GPa)
#
#
# Indices 1 2 3 4 5 6 
#
# 1 0.014968 0.001753 -0.001663 0.000000 0.019978 0.000000
# 2 0.001753 0.027704 -0.000238 0.000000 0.015842 0.000000
# 3 -0.001663 -0.000238 0.024305 0.000000 0.040739 0.000000
# 4 0.000000 0.000000 0.000000 0.041737 0.000000 0.003510
# 5 0.019978 0.015842 0.040739 0.000000 0.183346 0.000000
# 6 0.000000 0.000000 0.000000 0.003510 0.000000 0.027857
#
#
# Mechanical properties :
#
#
# Convention : Reuss Voigt Hill
#
# Bulk Modulus (GPa) = 14.99653 37.54943 26.27298
# Shear Modulus (GPa) = 14.60114 25.73655 20.16885
#
# Velocity S-wave (km/s) = 2.75526 3.65800 3.23824
# Velocity P-wave (km/s) = 4.23308 6.11262 5.25752
#
# Compressibility (1/GPa) = 0.06668208
#
# Stress axis : x y z
#
# Youngs Moduli (GPa) = 66.80911 36.09590 41.14384
#
# Poissons Ratio (x) = -0.06329 0.06842
# Poissons Ratio (y) = -0.11714 0.00978
# Poissons Ratio (z) = 0.11111 0.00858
#
# Static dielectric constant tensor:
#      x y z
#    x 1.642880 0.000000 0.009460 
#    y 0.000000 1.647600 0.000000 
#    z 0.009460 0.000000 1.655880 
# 
# From -- ./inp_files/375679.got.cif
#   From: 2010.05.17/outbox.cif.g08.bks.cpg/sg12_188_cif.got.tgz:375679.got - 2010.06.03 13:09:07.
