data_PCOD9208533
_publ_section_title
;
Structure prediction by ZEFSAII (Michael W. Deem and Ramdas Pophale) SiO2 
 PCOD9208533
Probable space group: C 2/M
;
_chemical_formula_sum "Si O2"
_cell_formula_units_Z 56
_cell_length_a 9.503668
_cell_length_b 16.917162
_cell_length_c 24.214553
_cell_angle_alpha 90.000000
_cell_angle_beta 48.588532
_cell_angle_gamma 90.000000
_cell_volume 2919.739763
_symmetry_space_group_name_H-M "C 2/M"
_symmetry_group_IT_number 12
_symmetry_cell_setting 'monoclinic'
loop_
_space_group_symop_operation_xyz
x,y,z
-x,y,-z
-x,-y,-z
x,-y,z
1/2+x,1/2+y,z
1/2-x,1/2+y,-z
1/2-x,1/2-y,-z
1/2+x,1/2-y,z
loop_
_atom_site_type_symbol
_atom_site_label
_atom_site_fract_x
_atom_site_fract_y
_atom_site_fract_z
Si Si1 0.983059 0.088193 0.700176
Si Si2 0.207239 0.320935 0.594148
Si Si3 0.121316 0.409277 0.254054
Si Si4 0.979757 0.823943 0.202709
Si Si5 0.415517 0.659433 0.433854
Si Si6 0.882521 0.594168 0.085460
Si Si7 0.050280 0.638092 0.812919
O O1 0.060404 0.152503 0.723120
O O2 0.763886 0.108634 0.751019
O O3 0.065736 0.094181 0.617898
O O4 0.006401 0.000000 0.717110
O O5 0.383786 0.319659 0.590253
O O6 0.280687 0.363968 0.519371
O O7 0.155165 0.235666 0.582257
O O8 0.033447 0.361225 0.670215
O O9 0.124173 0.500000 0.271569
O O10 0.321463 0.368576 0.209569
O O11 0.066775 0.404354 0.203987
O O12 0.186736 0.858137 0.136928
O O13 0.965624 0.731279 0.194982
O O14 0.844536 0.500000 0.097670
O O15 0.994135 0.618364 0.112018
O O16 0.000000 0.610842 0.000000
#
# Coordination Sequence:
#
# PCOD9208533 Si02
#       7
#     8   8   8   8   8   8   8
#     4  11  22  38  59  85 118 161 204 246 297 356
#     4  10  22  37  57  85 117 159 202 251 303 353
#     4  12  23  36  57  90 122 149 193 253 302 341
#     4  11  23  40  61  88 120 157 196 241 291 350
#     4  10  21  38  58  82 117 159 206 250 300 357
#     4  10  22  43  67  90 121 160 195 231 288 359
#     4  11  21  38  63  88 118 155 199 241 284 348
#
# _framework density 19.179791999999999
#
# number of rings (size 3 to 8) (size 9 to 14) (size 15 to 20)
#    0.000    1.286    1.429    6.857    2.000    1.143 
#    0.000    2.143    0.000    4.286    0.000    0.000 
#    0.000    0.000    0.000    0.000    0.000    0.000 
#
# Total GULP energy -156369.371715 kJ/mol
# GULP energy per Si atom -5584.620418 kJ/mol
# Density = 1.913614 g / cm^3
# Si number density = 19.179792 Si / 1000 Ang^3
#
#
#
# Elastic Constant Matrix: (Units=GPa)
#
#
# Indices 1 2 3 4 5 6 
#
# 1 57.9003 3.4954 22.2957 0.0000 8.0870 0.0003
# 2 3.4954 78.3502 29.4216 -0.0001 3.9707 0.0002
# 3 22.2957 29.4216 119.8019 -0.0002 22.2404 0.0000
# 4 0.0000 -0.0001 -0.0002 24.4572 0.0000 7.6378
# 5 8.0870 3.9707 22.2404 0.0000 25.7786 -0.0001
# 6 0.0003 0.0002 0.0000 7.6378 -0.0001 17.9549
#
#
#
# Elastic Compliance Matrix: (Units=1/GPa)
#
#
# Indices 1 2 3 4 5 6 
#
# 1 0.018872 0.000454 -0.002990 0.000000 -0.003410 0.000000
# 2 0.000454 0.014091 -0.003710 0.000000 0.000888 0.000000
# 3 -0.002990 -0.003710 0.011353 0.000000 -0.008285 0.000000
# 4 0.000000 0.000000 0.000000 0.047152 0.000000 -0.020058
# 5 -0.003410 0.000888 -0.008285 0.000000 0.046873 0.000000
# 6 0.000000 0.000000 0.000000 -0.020058 0.000000 0.064227
#
#
# Mechanical properties :
#
#
# Convention : Reuss Voigt Hill
#
# Bulk Modulus (GPa) = 31.42435 40.71976 36.07206
# Shear Modulus (GPa) = 22.15649 27.02745 24.59197
#
# Velocity S-wave (km/s) = 3.40251 3.75795 3.58464
# Velocity P-wave (km/s) = 5.64409 6.33295 5.99842
#
# Compressibility (1/GPa) = 0.03182245
#
# Stress axis : x y z
#
# Youngs Moduli (GPa) = 52.98995 70.96695 88.08404
#
# Poissons Ratio (x) = -0.03221 0.26341
# Poissons Ratio (y) = -0.02405 0.32678
# Poissons Ratio (z) = 0.15847 0.26328
#
# Static dielectric constant tensor:
#      x y z
#    x 1.662970 -0.000030 0.022220 
#    y -0.000030 -0.923980 -0.000010 
#    z 0.022220 -0.000010 1.695940 
# 
# From -- ./inp_files/332865.got.cif
#   From: 2010.05.17/outbox.cif.g08.bks.cpg/sg12_167_cif.got.tgz:332865.got - 2010.06.03 13:09:07.
