data_PCOD9208141
_publ_section_title
;
Structure prediction by ZEFSAII (Michael W. Deem and Ramdas Pophale) SiO2 
 PCOD9208141
Probable space group: C 2/M
;
_chemical_formula_sum "Si O2"
_cell_formula_units_Z 56
_cell_length_a 15.986802
_cell_length_b 14.395123
_cell_length_c 19.748368
_cell_angle_alpha 90.000000
_cell_angle_beta 144.548580
_cell_angle_gamma 90.000000
_cell_volume 2636.000702
_symmetry_space_group_name_H-M "C 2/M"
_symmetry_group_IT_number 12
_symmetry_cell_setting 'monoclinic'
loop_
_space_group_symop_operation_xyz
x,y,z
-x,y,-z
-x,-y,-z
x,-y,z
1/2+x,1/2+y,z
1/2-x,1/2+y,-z
1/2-x,1/2-y,-z
1/2+x,1/2-y,z
loop_
_atom_site_type_symbol
_atom_site_label
_atom_site_fract_x
_atom_site_fract_y
_atom_site_fract_z
Si Si1 0.856318 0.105051 0.234729
Si Si2 0.356728 0.609308 0.643760
Si Si3 0.850379 0.388523 0.195677
Si Si4 0.027872 0.612581 0.441307
Si Si5 0.662055 0.607215 0.619351
Si Si6 0.940184 0.286358 0.773724
Si Si7 0.672772 0.243786 0.022527
O O1 0.814294 0.109761 0.284720
O O2 0.761819 0.172456 0.126841
O O3 0.029074 0.121698 0.341796
O O4 0.832968 0.000000 0.194399
O O5 0.357714 0.500000 0.663455
O O6 0.189763 0.635665 0.523026
O O7 0.422866 0.678497 0.742819
O O8 0.849719 0.500000 0.190639
O O9 0.908595 0.357907 0.307961
O O10 0.962395 0.343720 0.215589
O O11 0.697942 0.342167 0.075766
O O12 0.020540 0.500000 0.437487
O O13 0.000000 0.643791 0.500000
O O14 0.500000 0.638781 0.500000
O O15 0.673172 0.500000 0.603059
O O16 0.784071 0.668692 0.667218
O O17 0.014371 0.289040 0.896628
O O18 0.750000 0.250000 0.000000
#
# Coordination Sequence:
#
# PCOD9208141 Si02
#       7
#     8   8   8   8   8   8   8
#     4  10  21  40  64  89 124 167 210 259 314 374
#     4  10  21  38  62  89 123 166 211 259 316 377
#     4  10  21  37  62  90 125 166 206 262 320 376
#     4   9  20  38  59  87 121 160 208 257 311 375
#     4  10  24  43  65  96 132 166 206 260 318 377
#     4  11  23  40  61  94 127 166 213 261 312 374
#     4  10  21  39  58  87 123 159 214 258 305 367
#
# _framework density 21.244304
#
# number of rings (size 3 to 8) (size 9 to 14) (size 15 to 20)
#    0.000    2.000    2.857    0.429    2.000    7.429 
#    0.000    1.429    0.000    0.000    0.000    6.000 
#    0.000    0.000    0.000    0.000    0.000    0.000 
#
# Total GULP energy -156278.093079 kJ/mol
# GULP energy per Si atom -5581.360467 kJ/mol
# Density = 2.119595 g / cm^3
# Si number density = 21.244304 Si / 1000 Ang^3
#
#
#
# Elastic Constant Matrix: (Units=GPa)
#
#
# Indices 1 2 3 4 5 6 
#
# 1 30.8653 12.3165 4.5978 0.0000 1.0192 -0.0001
# 2 12.3165 80.4419 28.7748 0.0000 -3.4831 0.0001
# 3 4.5978 28.7748 89.2672 0.0000 -10.8110 0.0001
# 4 0.0000 0.0000 0.0000 24.4587 0.0000 -22.8143
# 5 1.0192 -3.4831 -10.8110 0.0000 29.8564 0.0000
# 6 -0.0001 0.0001 0.0001 -22.8143 0.0000 -18.5740
#
#
#
# Elastic Compliance Matrix: (Units=1/GPa)
#
#
# Indices 1 2 3 4 5 6 
#
# 1 0.034612 -0.005269 -0.000316 0.000000 -0.001910 0.000000
# 2 -0.005269 0.014854 -0.004482 0.000000 0.000290 0.000000
# 3 -0.000316 -0.004482 0.013179 0.000000 0.004260 0.000000
# 4 0.000000 0.000000 0.000000 0.019054 0.000000 -0.023404
# 5 -0.001910 0.000290 0.004260 0.000000 0.035135 0.000000
# 6 0.000000 0.000000 0.000000 -0.023404 0.000000 -0.025091
#
#
# Mechanical properties :
#
#
# Convention : Reuss Voigt Hill
#
# Bulk Modulus (GPa) = 23.52291 32.43919 27.98105
# Shear Modulus (GPa) = 39.66810 17.47392 28.57101
#
# Velocity S-wave (km/s) = 4.32584 2.87108 3.67124
# Velocity P-wave (km/s) = 6.00393 5.12772 5.58304
#
# Compressibility (1/GPa) = 0.04251174
#
# Stress axis : x y z
#
# Youngs Moduli (GPa) = 28.89212 67.32318 75.87771
#
# Poissons Ratio (x) = 0.35474 0.02395
# Poissons Ratio (y) = 0.15224 0.34005
# Poissons Ratio (z) = 0.00912 0.30171
#
# Static dielectric constant tensor:
#      x y z
#    x 1.781190 0.000000 0.025830 
#    y 0.000000 1.783100 0.000000 
#    z 0.025830 0.000000 1.785010 
# 
# From -- ./inp_files/316741.got.cif
#   From: 2010.05.17/outbox.cif.g08.bks.cpg/sg12_159_cif.got.tgz:316741.got - 2010.06.03 13:09:07.
