data_PCOD9208559
_publ_section_title
;
Structure prediction by ZEFSAII (Michael W. Deem and Ramdas Pophale) SiO2 
 PCOD9208559
Probable space group: C 2/M
;
_chemical_formula_sum "Si O2"
_cell_formula_units_Z 44
_cell_length_a 28.705251
_cell_length_b 11.681142
_cell_length_c 17.046844
_cell_angle_alpha 90.000000
_cell_angle_beta 157.478945
_cell_angle_gamma 90.000000
_cell_volume 2189.350999
_symmetry_space_group_name_H-M "C 2/M"
_symmetry_group_IT_number 12
_symmetry_cell_setting 'monoclinic'
loop_
_space_group_symop_operation_xyz
x,y,z
-x,y,-z
-x,-y,-z
x,-y,z
1/2+x,1/2+y,z
1/2-x,1/2+y,-z
1/2-x,1/2-y,-z
1/2+x,1/2-y,z
loop_
_atom_site_type_symbol
_atom_site_label
_atom_site_fract_x
_atom_site_fract_y
_atom_site_fract_z
Si Si1 0.863290 0.707836 0.581406
Si Si2 0.357732 0.132559 0.398952
Si Si3 0.089896 0.129404 0.930054
Si Si4 0.000000 0.793020 0.500000
Si Si5 0.312477 0.624980 0.092832
Si Si6 0.864872 0.370232 0.757472
O O1 0.885317 0.644303 0.533720
O O2 0.859608 0.633338 0.654421
O O3 0.738743 0.780445 0.378991
O O4 0.975617 0.793114 0.769807
O O5 0.441578 0.211974 0.475696
O O6 0.368733 0.000000 0.391353
O O7 0.217581 0.167760 0.165844
O O8 0.113791 0.126973 0.873857
O O9 0.066459 0.000000 0.920801
O O10 0.100295 0.870032 0.697165
O O11 0.245065 0.500000 0.987969
O O12 0.250000 0.750000 0.000000
O O13 0.837362 0.500000 0.741657
O O14 0.000000 0.341348 0.000000
#
# Coordination Sequence:
#
# PCOD9208559 Si02
#       6
#     8   8   8   4   8   8
#     4  11  21  39  63  87 118 156 203 248 309 379
#     4  11  23  37  59  90 125 164 210 258 306 365
#     4  10  21  38  58  84 120 160 204 253 305 365
#     4  12  22  40  60  88 127 170 209 258 307 364
#     4  11  23  41  62  89 126 169 217 261 306 362
#     4  10  22  40  62  89 119 151 192 252 316 377
#
# _framework density 20.097279
#
# number of rings (size 3 to 8) (size 9 to 14) (size 15 to 20)
#    0.000    1.273    3.636    2.727    0.000    0.727 
#    0.000    0.000    0.000    8.727    0.000    0.000 
#    0.000    0.000    0.000    0.000    0.000    0.000 
#
# Total GULP energy -122772.639111 kJ/mol
# GULP energy per Si atom -5580.574505 kJ/mol
# Density = 2.005154 g / cm^3
# Si number density = 20.097279 Si / 1000 Ang^3
#
#
#
# Elastic Constant Matrix: (Units=GPa)
#
#
# Indices 1 2 3 4 5 6 
#
# 1 68.3368 16.1761 -0.4885 0.0000 -12.9479 0.0000
# 2 16.1761 110.0726 43.3941 0.0000 14.0707 0.0000
# 3 -0.4885 43.3941 71.2569 0.0000 -4.7388 0.0000
# 4 0.0000 0.0000 0.0000 14.5464 0.0000 -2.6012
# 5 -12.9479 14.0707 -4.7388 0.0000 31.4733 0.0000
# 6 0.0000 0.0000 0.0000 -2.6012 0.0000 -7.2328
#
#
#
# Elastic Compliance Matrix: (Units=1/GPa)
#
#
# Indices 1 2 3 4 5 6 
#
# 1 0.018024 -0.005701 0.004301 0.000000 0.010611 0.000000
# 2 -0.005701 0.015241 -0.010030 0.000000 -0.010669 0.000000
# 3 0.004301 -0.010030 0.020795 0.000000 0.009384 0.000000
# 4 0.000000 0.000000 0.000000 0.064592 0.000000 -0.023230
# 5 0.010611 -0.010669 0.009384 0.000000 0.042321 0.000000
# 6 0.000000 0.000000 0.000000 -0.023230 0.000000 -0.129905
#
#
# Mechanical properties :
#
#
# Convention : Reuss Voigt Hill
#
# Bulk Modulus (GPa) = 32.05068 40.86998 36.46033
# Shear Modulus (GPa) = 77.72679 20.46300 49.09490
#
# Velocity S-wave (km/s) = 6.22569 3.19438 4.94789
# Velocity P-wave (km/s) = 8.22565 5.82972 7.12906
#
# Compressibility (1/GPa) = 0.03120058
#
# Stress axis : x y z
#
# Youngs Moduli (GPa) = 55.48115 65.61417 48.08778
#
# Poissons Ratio (x) = 0.37405 -0.20682
# Poissons Ratio (y) = 0.31629 0.48231
# Poissons Ratio (z) = -0.23862 0.65810
#
# Static dielectric constant tensor:
#      x y z
#    x 1.682430 0.000000 -0.006550 
#    y 0.000000 1.744630 0.000000 
#    z -0.006550 0.000000 1.722470 
# 
# From -- ./inp_files/296530.got.cif
#   From: 2010.05.17/outbox.cif.g08.bks.cpg/sg12_149_cif.got.tgz:296530.got - 2010.06.03 13:09:07.
