data_PCOD9208689
_publ_section_title
;
Structure prediction by ZEFSAII (Michael W. Deem and Ramdas Pophale) SiO2 
 PCOD9208689
Probable space group: C 2/M
;
_chemical_formula_sum "Si O2"
_cell_formula_units_Z 56
_cell_length_a 18.041892
_cell_length_b 14.178766
_cell_length_c 20.346646
_cell_angle_alpha 90.000000
_cell_angle_beta 147.471102
_cell_angle_gamma 90.000000
_cell_volume 2798.810564
_symmetry_space_group_name_H-M "C 2/M"
_symmetry_group_IT_number 12
_symmetry_cell_setting 'monoclinic'
loop_
_space_group_symop_operation_xyz
x,y,z
-x,y,-z
-x,-y,-z
x,-y,z
1/2+x,1/2+y,z
1/2-x,1/2+y,-z
1/2-x,1/2-y,-z
1/2+x,1/2-y,z
loop_
_atom_site_type_symbol
_atom_site_label
_atom_site_fract_x
_atom_site_fract_y
_atom_site_fract_z
Si Si1 0.862967 0.611795 0.686893
Si Si2 0.865223 0.110762 0.745107
Si Si3 0.613878 0.248677 0.733859
Si Si4 0.592827 0.262701 0.863033
Si Si5 0.163295 0.109018 0.127618
Si Si6 0.355268 0.886830 0.531395
Si Si7 0.652607 0.609709 0.644292
O O1 0.882087 0.500000 0.706617
O O2 0.808226 0.629578 0.571805
O O3 0.759130 0.640906 0.667113
O O4 0.006976 0.665448 0.801018
O O5 0.799996 0.124606 0.768109
O O6 0.761327 0.136903 0.608862
O O7 0.006309 0.167143 0.843696
O O8 0.894670 0.000000 0.761485
O O9 0.580724 0.296866 0.778482
O O10 0.744165 0.180460 0.843362
O O11 0.487943 0.179430 0.620049
O O12 0.651501 0.323352 0.706328
O O13 0.750000 0.250000 0.000000
O O14 0.190817 0.000000 0.130868
O O15 0.000000 0.124493 0.000000
O O16 0.387035 0.000000 0.548764
O O17 0.500000 0.612445 0.500000
O O18 0.682974 0.500000 0.683800
#
# Coordination Sequence:
#
# PCOD9208689 Si02
#       7
#     8   8   8   8   8   8   8
#     4   9  20  40  62  82 117 159 195 240 294 352
#     4  10  22  38  58  82 114 151 187 238 293 349
#     4  11  23  35  61  88 117 153 193 246 292 352
#     4  11  24  39  59  87 116 153 200 242 289 347
#     4  10  21  38  59  84 117 156 193 235 292 353
#     4   9  20  37  59  89 117 147 188 240 304 360
#     4  10  23  39  58  87 120 158 197 240 297 356
#
# _framework density 20.008500000000002
#
# number of rings (size 3 to 8) (size 9 to 14) (size 15 to 20)
#    0.000    2.000    0.000    2.143    6.000    2.857 
#    0.000    2.143    0.000    2.143    0.000    0.000 
#    0.000    0.000    0.000    0.000    0.000    0.000 
#
# Total GULP energy -156460.076692 kJ/mol
# GULP energy per Si atom -5587.859882 kJ/mol
# Density = 1.996296 g / cm^3
# Si number density = 20.008500 Si / 1000 Ang^3
#
#
#
# Elastic Constant Matrix: (Units=GPa)
#
#
# Indices 1 2 3 4 5 6 
#
# 1 88.8832 33.1567 14.3729 0.0000 -3.9700 0.0000
# 2 33.1567 49.4520 10.6470 -0.0001 -3.9226 0.0000
# 3 14.3729 10.6470 74.0264 -0.0001 -1.5379 -0.0001
# 4 0.0000 -0.0001 -0.0001 23.4535 0.0000 2.4875
# 5 -3.9700 -3.9226 -1.5379 0.0000 21.0932 0.0000
# 6 0.0000 0.0000 -0.0001 2.4875 0.0000 30.5438
#
#
#
# Elastic Compliance Matrix: (Units=1/GPa)
#
#
# Indices 1 2 3 4 5 6 
#
# 1 0.015187 -0.009781 -0.001523 0.000000 0.000928 0.000000
# 2 -0.009781 0.027455 -0.001985 0.000000 0.003120 0.000000
# 3 -0.001523 -0.001985 0.014098 0.000000 0.000372 0.000000
# 4 0.000000 0.000000 0.000000 0.043009 0.000000 -0.003503
# 5 0.000928 0.003120 0.000372 0.000000 0.048191 0.000000
# 6 0.000000 0.000000 0.000000 -0.003503 0.000000 0.033025
#
#
# Mechanical properties :
#
#
# Convention : Reuss Voigt Hill
#
# Bulk Modulus (GPa) = 33.15435 36.52386 34.83911
# Shear Modulus (GPa) = 22.97844 25.29712 24.13778
#
# Velocity S-wave (km/s) = 3.39253 3.55958 3.47706
# Velocity P-wave (km/s) = 5.65259 5.93195 5.79395
#
# Compressibility (1/GPa) = 0.03016196
#
# Stress axis : x y z
#
# Youngs Moduli (GPa) = 65.84509 36.42380 70.93446
#
# Poissons Ratio (x) = 0.35627 0.10801
# Poissons Ratio (y) = 0.64405 0.14079
# Poissons Ratio (z) = 0.10026 0.07229
#
# Static dielectric constant tensor:
#      x y z
#    x 1.720880 0.000000 -0.025020 
#    y 0.000000 1.705840 0.000000 
#    z -0.025020 0.000000 1.689500 
# 
# From -- ./inp_files/316695.got.cif
#   From: 2010.05.17/outbox.cif.g08.bks.cpg/sg12_159_cif.got.tgz:316695.got - 2010.06.03 13:09:07.
