data_PCOD9208370
_publ_section_title
;
Structure prediction by ZEFSAII (Michael W. Deem and Ramdas Pophale) SiO2 
 PCOD9208370
Probable space group: C 2/M
;
_chemical_formula_sum "Si O2"
_cell_formula_units_Z 48
_cell_length_a 19.452505
_cell_length_b 14.470716
_cell_length_c 18.918711
_cell_angle_alpha 90.000000
_cell_angle_beta 29.554641
_cell_angle_gamma 90.000000
_cell_volume 2626.800890
_symmetry_space_group_name_H-M "C 2/M"
_symmetry_group_IT_number 12
_symmetry_cell_setting 'monoclinic'
loop_
_space_group_symop_operation_xyz
x,y,z
-x,y,-z
-x,-y,-z
x,-y,z
1/2+x,1/2+y,z
1/2-x,1/2+y,-z
1/2-x,1/2-y,-z
1/2+x,1/2-y,z
loop_
_atom_site_type_symbol
_atom_site_label
_atom_site_fract_x
_atom_site_fract_y
_atom_site_fract_z
Si Si1 0.904018 0.821608 0.388725
Si Si2 0.159781 0.704783 0.838576
Si Si3 0.384003 0.788032 0.282385
Si Si4 0.330780 0.233566 0.816354
Si Si5 0.544280 0.500000 0.573449
Si Si6 0.732171 0.500000 0.272427
Si Si7 0.326974 0.110494 0.952548
O O1 0.742809 0.821431 0.555132
O O2 0.927665 0.805168 0.284527
O O3 0.001818 0.743553 0.337121
O O4 0.959149 0.913729 0.373001
O O5 0.174444 0.728097 0.742987
O O6 0.258177 0.759423 0.805146
O O7 0.189299 0.594519 0.816133
O O8 0.000000 0.722802 0.000000
O O9 0.515290 0.857435 0.166483
O O10 0.302638 0.147459 0.893948
O O11 0.270377 0.324330 0.911638
O O12 0.680126 0.500000 0.400681
O O13 0.409749 0.500000 0.644799
O O14 0.309662 0.000000 0.975839
#
# Coordination Sequence:
#
# PCOD9208370 Si02
#       7
#     8   8   8   8   4   4   8
#     4  10  21  38  55  82 112 153 190 233 275 344
#     4  12  22  35  55  82 117 147 184 235 283 344
#     4  10  22  37  57  83 114 148 191 233 287 327
#     4  10  22  38  57  84 114 153 192 228 287 342
#     4  11  20  34  56  80 115 146 189 225 291 351
#     4  11  23  32  50  88 117 146 178 234 293 347
#     4  10  22  39  58  83 114 153 192 232 279 343
#
# _framework density 18.273177
#
# number of rings (size 3 to 8) (size 9 to 14) (size 15 to 20)
#    0.000    1.500    5.000    0.250    4.667    0.667 
#    0.000    0.000    1.833    0.500    0.000    3.500 
#    0.000    0.000    0.000    0.000    0.000    0.000 
#
# Total GULP energy -133742.330045 kJ/mol
# GULP energy per Si atom -5572.597085 kJ/mol
# Density = 1.823159 g / cm^3
# Si number density = 18.273177 Si / 1000 Ang^3
#
#
#
# Elastic Constant Matrix: (Units=GPa)
#
#
# Indices 1 2 3 4 5 6 
#
# 1 126.3988 22.3879 -3.9071 0.0000 6.0010 0.0000
# 2 22.3879 55.6129 4.2121 -0.0010 11.7146 0.0004
# 3 -3.9071 4.2121 50.7080 -0.0007 -19.0481 0.0003
# 4 0.0000 -0.0010 -0.0007 15.6211 0.0003 5.1768
# 5 6.0010 11.7146 -19.0481 0.0003 28.0330 -0.0001
# 6 0.0000 0.0004 0.0003 5.1768 -0.0001 28.3082
#
#
#
# Elastic Compliance Matrix: (Units=1/GPa)
#
#
# Indices 1 2 3 4 5 6 
#
# 1 0.008568 -0.003630 0.001131 0.000000 0.000451 0.000000
# 2 -0.003630 0.022908 -0.007367 0.000002 -0.013802 -0.000001
# 3 0.001131 -0.007367 0.028849 0.000000 0.022439 0.000000
# 4 0.000000 0.000002 0.000000 0.068146 -0.000001 -0.012462
# 5 0.000451 -0.013802 0.022439 -0.000001 0.056590 0.000000
# 6 0.000000 -0.000001 0.000000 -0.012462 0.000000 0.037604
#
#
# Mechanical properties :
#
#
# Convention : Reuss Voigt Hill
#
# Bulk Modulus (GPa) = 24.63462 30.90064 27.76763
# Shear Modulus (GPa) = 19.53678 28.39425 23.96552
#
# Velocity S-wave (km/s) = 3.27333 3.94620 3.62541
# Velocity P-wave (km/s) = 5.27227 6.14088 5.72308
#
# Compressibility (1/GPa) = 0.04059328
#
# Stress axis : x y z
#
# Youngs Moduli (GPa) = 116.71412 43.65298 34.66348
#
# Poissons Ratio (x) = 0.15846 -0.03921
# Poissons Ratio (y) = 0.42367 0.25537
# Poissons Ratio (z) = -0.13204 0.32159
#
# Static dielectric constant tensor:
#      x y z
#    x 1.689600 0.000000 -0.014580 
#    y 0.000000 1.618500 0.000000 
#    z -0.014580 0.000000 1.690300 
# 
# From -- ./inp_files/278077.got.cif
#   From: 2010.05.17/outbox.cif.g08.bks.cpg/sg12_140_cif.got.tgz:278077.got - 2010.06.03 13:09:07.
