data_PCOD9208749
_publ_section_title
;
Structure prediction by ZEFSAII (Michael W. Deem and Ramdas Pophale) SiO2 
 PCOD9208749
Probable space group: C 2/M
;
_chemical_formula_sum "Si O2"
_cell_formula_units_Z 58
_cell_length_a 24.221658
_cell_length_b 8.117515
_cell_length_c 14.731909
_cell_angle_alpha 90.000000
_cell_angle_beta 100.148041
_cell_angle_gamma 90.000000
_cell_volume 2851.268373
_symmetry_space_group_name_H-M "C 2/M"
_symmetry_group_IT_number 12
_symmetry_cell_setting 'monoclinic'
loop_
_space_group_symop_operation_xyz
x,y,z
-x,y,-z
-x,-y,-z
x,-y,z
1/2+x,1/2+y,z
1/2-x,1/2+y,-z
1/2-x,1/2-y,-z
1/2+x,1/2-y,z
loop_
_atom_site_type_symbol
_atom_site_label
_atom_site_fract_x
_atom_site_fract_y
_atom_site_fract_z
Si Si1 0.074193 0.687095 0.505010
Si Si2 0.720330 0.193515 0.083829
Si Si3 0.592062 0.299874 0.043853
Si Si4 0.075768 0.310294 0.724838
Si Si5 0.695771 0.308812 0.537822
Si Si6 0.493014 0.304999 0.137343
Si Si7 0.500000 0.500000 0.500000
Si Si8 0.697670 0.805517 0.740858
O O1 0.056058 0.500000 0.472933
O O2 0.071889 0.698178 0.614956
O O3 0.139239 0.709619 0.498291
O O4 0.039784 0.849869 0.467501
O O5 0.654436 0.231668 0.062718
O O6 0.751918 0.281080 0.175814
O O7 0.728953 0.000000 0.097152
O O8 0.750000 0.250000 0.000000
O O9 0.596360 0.500000 0.044445
O O10 0.552979 0.245103 0.117532
O O11 0.556410 0.246091 0.944826
O O12 0.073454 0.500000 0.751715
O O13 0.026426 0.226565 0.766259
O O14 0.138190 0.244170 0.765123
O O15 0.685250 0.500000 0.516698
O O16 0.750000 0.250000 0.500000
O O17 0.706384 0.283151 0.648007
O O18 0.495090 0.500000 0.124386
O O19 0.689979 0.000000 0.719335
#
# Coordination Sequence:
#
# PCOD9208749 Si02
#       8
#     8   8   8   8   8   8   2   8
#     4  10  22  40  61  93 127 160 202 259 307 375
#     4  12  24  37  55  82 115 156 195 242 302 363
#     4   9  19  36  52  77 110 147 189 238 286 341
#     4   9  19  34  56  84 114 144 188 242 295 341
#     4  11  21  39  66  96 126 164 210 260 318 379
#     4   9  18  32  56  79 106 146 193 236 282 342
#     4  12  22  40  64  90 120 162 202 238 320 368
#     4  10  21  38  59  87 119 155 198 254 303 358
#
# _framework density 20.341825
#
# number of rings (size 3 to 8) (size 9 to 14) (size 15 to 20)
#    0.000    1.931    0.690    5.586    0.966    4.414 
#    0.000    2.759    0.000    1.655    0.000    0.000 
#    0.000    0.000    0.000    0.000    0.000    0.000 
#
# Total GULP energy -161583.915565 kJ/mol
# GULP energy per Si atom -5571.859157 kJ/mol
# Density = 2.029553 g / cm^3
# Si number density = 20.341825 Si / 1000 Ang^3
#
#
#
# Elastic Constant Matrix: (Units=GPa)
#
#
# Indices 1 2 3 4 5 6 
#
# 1 150.5484 28.2842 26.4276 0.0000 -15.7676 0.0000
# 2 28.2842 94.3541 7.6563 0.0000 -0.4053 0.0000
# 3 26.4276 7.6563 19.0509 0.0000 -11.4437 0.0000
# 4 0.0000 0.0000 0.0000 20.1089 0.0000 -2.0720
# 5 -15.7676 -0.4053 -11.4437 0.0000 32.8166 0.0000
# 6 0.0000 0.0000 0.0000 -2.0720 0.0000 32.6073
#
#
#
# Elastic Compliance Matrix: (Units=1/GPa)
#
#
# Indices 1 2 3 4 5 6 
#
# 1 0.009054 -0.001763 -0.011702 0.000000 0.000248 0.000000
# 2 -0.001763 0.011381 -0.003228 0.000000 -0.001833 0.000000
# 3 -0.011702 -0.003228 0.084273 0.000000 0.023725 0.000000
# 4 0.000000 0.000000 0.000000 0.050057 0.000000 0.003181
# 5 0.000248 -0.001833 0.023725 0.000000 0.038842 0.000000
# 6 0.000000 0.000000 0.000000 0.003181 0.000000 0.030870
#
#
# Mechanical properties :
#
#
# Convention : Reuss Voigt Hill
#
# Bulk Modulus (GPa) = 14.02131 43.18772 28.60452
# Shear Modulus (GPa) = 17.75325 30.54557 24.14941
#
# Velocity S-wave (km/s) = 2.95743 3.87927 3.44929
# Velocity P-wave (km/s) = 4.30926 6.42978 5.47320
#
# Compressibility (1/GPa) = 0.07132003
#
# Stress axis : x y z
#
# Youngs Moduli (GPa) = 110.45048 87.86503 11.86619
#
# Poissons Ratio (x) = 0.15494 0.13886
# Poissons Ratio (y) = 0.19477 0.03831
# Poissons Ratio (z) = 1.29250 0.28367
#
# Static dielectric constant tensor:
#      x y z
#    x 1.742100 0.000000 0.009450 
#    y 0.000000 1.723260 0.000000 
#    z 0.009450 0.000000 1.727740 
# 
# From -- ./inp_files/237776.got.cif
#   From: 2010.05.17/outbox.cif.g08.bks.cpg/sg12_119_cif.got.tgz:237776.got - 2010.06.03 13:09:07.
