data_PCOD9208150
_publ_section_title
;
Structure prediction by ZEFSAII (Michael W. Deem and Ramdas Pophale) SiO2 
 PCOD9208150
Probable space group: C 2/M
;
_chemical_formula_sum "Si O2"
_cell_formula_units_Z 36
_cell_length_a 18.527182
_cell_length_b 14.328515
_cell_length_c 22.469679
_cell_angle_alpha 90.000000
_cell_angle_beta 161.769005
_cell_angle_gamma 90.000000
_cell_volume 1866.129921
_symmetry_space_group_name_H-M "C 2/M"
_symmetry_group_IT_number 12
_symmetry_cell_setting 'monoclinic'
loop_
_space_group_symop_operation_xyz
x,y,z
-x,y,-z
-x,-y,-z
x,-y,z
1/2+x,1/2+y,z
1/2-x,1/2+y,-z
1/2-x,1/2-y,-z
1/2+x,1/2-y,z
loop_
_atom_site_type_symbol
_atom_site_label
_atom_site_fract_x
_atom_site_fract_y
_atom_site_fract_z
Si Si1 0.257451 0.390971 0.406372
Si Si2 0.519967 0.786711 0.583522
Si Si3 0.000000 0.265034 0.000000
Si Si4 0.649346 0.110955 0.004704
Si Si5 0.317640 0.388968 0.590834
O O1 0.321767 0.500000 0.451107
O O2 0.453881 0.323028 0.535543
O O3 0.231090 0.370378 0.455798
O O4 0.025684 0.374771 0.187163
O O5 0.500000 0.817990 0.500000
O O6 0.336766 0.837208 0.482098
O O7 0.777846 0.795735 0.809406
O O8 0.936806 0.329674 0.006823
O O9 0.912329 0.137664 0.195408
O O10 0.649461 0.000000 0.019130
O O11 0.303552 0.500000 0.589700
#
# Coordination Sequence:
#
# PCOD9208150 Si02
#       5
#     8   8   4   8   8
#     4  10  21  38  62  92 121 154 196 248 304 357
#     4  12  25  40  59  92 125 163 199 246 302 356
#     4  12  23  36  57  94 126 158 194 246 308 360
#     4  10  21  37  62  92 121 157 198 246 303 362
#     4  10  23  43  64  86 120 163 205 248 295 353
#
# _framework density 19.291260999999999
#
# number of rings (size 3 to 8) (size 9 to 14) (size 15 to 20)
#    0.000    1.333    4.444    1.000    0.000    4.444 
#    0.000    0.556    0.000    0.000    0.000    0.000 
#    0.000    0.000    0.000    0.000    0.000    0.000 
#
# Total GULP energy -100639.640613 kJ/mol
# GULP energy per Si atom -5591.091145 kJ/mol
# Density = 1.924735 g / cm^3
# Si number density = 19.291261 Si / 1000 Ang^3
#
#
#
# Elastic Constant Matrix: (Units=GPa)
#
#
# Indices 1 2 3 4 5 6 
#
# 1 77.7159 21.1904 28.8064 0.0150 8.4521 -0.0752
# 2 21.1904 23.7185 13.6145 0.0217 4.7977 -0.0513
# 3 28.8064 13.6145 108.9152 0.0343 2.7631 -0.1167
# 4 0.0150 0.0217 0.0343 14.1681 -0.0043 8.0889
# 5 8.4521 4.7977 2.7631 -0.0043 33.3464 0.0078
# 6 -0.0752 -0.0513 -0.1167 8.0889 0.0078 9.8465
#
#
#
# Elastic Compliance Matrix: (Units=1/GPa)
#
#
# Indices 1 2 3 4 5 6 
#
# 1 0.018015 -0.013924 -0.002965 -0.000018 -0.002317 0.000046
# 2 -0.013924 0.057446 -0.003385 -0.000294 -0.004455 0.000398
# 3 -0.002965 -0.003385 0.010379 -0.000120 0.000378 0.000181
# 4 -0.000018 -0.000294 -0.000120 0.132928 0.000099 -0.109203
# 5 -0.002317 -0.004455 0.000378 0.000099 0.031185 -0.000143
# 6 0.000046 0.000398 0.000181 -0.109203 -0.000143 0.191273
#
#
# Mechanical properties :
#
#
# Convention : Reuss Voigt Hill
#
# Bulk Modulus (GPa) = 22.07852 37.50800 29.79326
# Shear Modulus (GPa) = 10.06293 21.25476 15.65885
#
# Velocity S-wave (km/s) = 2.28640 3.32291 2.85214
# Velocity P-wave (km/s) = 4.29417 5.84872 5.13066
#
# Compressibility (1/GPa) = 0.04529290
#
# Stress axis : x y z
#
# Youngs Moduli (GPa) = 55.50881 17.40760 96.34413
#
# Poissons Ratio (x) = 0.24238 0.28570
# Poissons Ratio (y) = 0.77290 0.32609
# Poissons Ratio (z) = 0.16460 0.05892
#
# Static dielectric constant tensor:
#      x y z
#    x 1.636890 0.000010 -0.014640 
#    y 0.000010 1.680600 -0.000020 
#    z -0.014640 -0.000020 1.673830 
# 
# From -- ./inp_files/216156.got.cif
#   From: 2010.05.17/outbox.cif.g08.bks.cpg/sg12_109_cif.got.tgz:216156.got - 2010.06.03 13:09:07.
