data_PCOD9208177
_publ_section_title
;
Structure prediction by ZEFSAII (Michael W. Deem and Ramdas Pophale) SiO2 
 PCOD9208177
Probable space group: C 2/M
;
_chemical_formula_sum "Si O2"
_cell_formula_units_Z 48
_cell_length_a 14.418799
_cell_length_b 18.902797
_cell_length_c 8.709325
_cell_angle_alpha 90.000000
_cell_angle_beta 107.470897
_cell_angle_gamma 90.000000
_cell_volume 2264.272277
_symmetry_space_group_name_H-M "C 2/M"
_symmetry_group_IT_number 12
_symmetry_cell_setting 'monoclinic'
loop_
_space_group_symop_operation_xyz
x,y,z
-x,y,-z
-x,-y,-z
x,-y,z
1/2+x,1/2+y,z
1/2-x,1/2+y,-z
1/2-x,1/2-y,-z
1/2+x,1/2-y,z
loop_
_atom_site_type_symbol
_atom_site_label
_atom_site_fract_x
_atom_site_fract_y
_atom_site_fract_z
Si Si1 0.607151 0.847801 0.480496
Si Si2 0.386905 0.500000 0.762871
Si Si3 0.901002 0.714821 0.851078
Si Si4 0.610614 0.500000 0.861093
Si Si5 0.255043 0.877062 0.939631
Si Si6 0.899804 0.500000 0.037632
Si Si7 0.704674 0.349764 0.269628
Si Si8 0.110025 0.500000 0.598973
O O1 0.500000 0.833988 0.500000
O O2 0.592749 0.834316 0.295139
O O3 0.704527 0.812013 0.597467
O O4 0.641168 0.927137 0.540110
O O5 0.497997 0.500000 0.764005
O O6 0.335930 0.426013 0.692323
O O7 0.383966 0.500000 0.948976
O O8 0.884511 0.794788 0.784588
O O9 0.799928 0.692800 0.885280
O O10 0.000000 0.709442 0.000000
O O11 0.665010 0.426804 0.839393
O O12 0.344216 0.930302 0.961232
O O13 0.238579 0.863127 0.111110
O O14 0.888892 0.500000 0.216985
O O15 0.000000 0.500000 0.000000
O O16 0.000000 0.500000 0.500000
#
# Coordination Sequence:
#
# PCOD9208177 Si02
#       8
#     8   4   8   4   8   4   8   4
#     4  11  24  44  65  94 133 176 224 270 341 410
#     4   9  19  38  71  94 124 159 240 263 324 398
#     4  12  27  40  63  99 136 177 221 280 339 402
#     4   8  18  35  62  95 124 171 204 283 315 381
#     4  10  21  37  62  94 136 162 217 275 333 387
#     4  11  21  35  63  95 131 164 215 272 327 386
#     4  11  22  43  68  95 128 179 225 275 337 402
#     4  10  22  36  62  91 122 175 209 261 327 398
#
# _framework density 21.198864
#
# number of rings (size 3 to 8) (size 9 to 14) (size 15 to 20)
#    0.000    1.500    1.667    3.500   11.667    0.667 
#    0.000    0.417    0.000    1.000    0.000    0.000 
#    0.000    0.000    0.000    0.000    0.000    0.000 
#
# Total GULP energy -133651.196174 kJ/mol
# GULP energy per Si atom -5568.799841 kJ/mol
# Density = 2.115061 g / cm^3
# Si number density = 21.198864 Si / 1000 Ang^3
#
#
#
# Elastic Constant Matrix: (Units=GPa)
#
#
# Indices 1 2 3 4 5 6 
#
# 1 140.4619 41.6174 57.7054 0.0000 22.9475 0.0000
# 2 41.6174 81.4284 27.7171 0.0000 5.3425 0.0000
# 3 57.7054 27.7171 95.6452 0.0000 15.8807 0.0000
# 4 0.0000 0.0000 0.0000 32.7493 0.0000 3.6673
# 5 22.9475 5.3425 15.8807 0.0000 37.7613 0.0000
# 6 0.0000 0.0000 0.0000 3.6673 0.0000 16.1017
#
#
#
# Elastic Compliance Matrix: (Units=1/GPa)
#
#
# Indices 1 2 3 4 5 6 
#
# 1 0.010834 -0.003634 -0.004811 0.000000 -0.004046 0.000000
# 2 -0.003634 0.014846 -0.002288 0.000000 0.001070 0.000000
# 3 -0.004811 -0.002288 0.014494 0.000000 -0.002848 0.000000
# 4 0.000000 0.000000 0.000000 0.031334 0.000000 -0.007137
# 5 -0.004046 0.001070 -0.002848 0.000000 0.029987 0.000000
# 6 0.000000 0.000000 0.000000 -0.007137 0.000000 0.063731
#
#
# Mechanical properties :
#
#
# Convention : Reuss Voigt Hill
#
# Bulk Modulus (GPa) = 53.45196 63.51281 58.48239
# Shear Modulus (GPa) = 25.91643 30.02219 27.96931
#
# Velocity S-wave (km/s) = 3.50028 3.76735 3.63626
# Velocity P-wave (km/s) = 6.45021 6.99639 6.72884
#
# Compressibility (1/GPa) = 0.01870839
#
# Stress axis : x y z
#
# Youngs Moduli (GPa) = 92.30465 67.35635 68.99419
#
# Poissons Ratio (x) = 0.24476 0.33196
# Poissons Ratio (y) = 0.33542 0.15783
# Poissons Ratio (z) = 0.44412 0.15408
#
# Static dielectric constant tensor:
#      x y z
#    x 1.746700 0.000000 0.023780 
#    y 0.000000 1.886940 0.000000 
#    z 0.023780 0.000000 1.759390 
# 
# From -- ./inp_files/63682.got.cif
#   From: 2010.05.17/outbox.cif.g08.bks.cpg/sg12_32_cif.got.tgz:63682.got - 2010.06.03 13:09:07.
