data_PCOD9208307
_publ_section_title
;
Structure prediction by ZEFSAII (Michael W. Deem and Ramdas Pophale) SiO2 
 PCOD9208307
Probable space group: C 2/M
;
_chemical_formula_sum "Si O2"
_cell_formula_units_Z 56
_cell_length_a 20.457472
_cell_length_b 24.967706
_cell_length_c 5.480669
_cell_angle_alpha 90.000000
_cell_angle_beta 118.608152
_cell_angle_gamma 90.000000
_cell_volume 2457.630458
_symmetry_space_group_name_H-M "C 2/M"
_symmetry_group_IT_number 12
_symmetry_cell_setting 'monoclinic'
loop_
_space_group_symop_operation_xyz
x,y,z
-x,y,-z
-x,-y,-z
x,-y,z
1/2+x,1/2+y,z
1/2-x,1/2+y,-z
1/2-x,1/2-y,-z
1/2+x,1/2-y,z
loop_
_atom_site_type_symbol
_atom_site_label
_atom_site_fract_x
_atom_site_fract_y
_atom_site_fract_z
Si Si1 0.300107 0.251841 0.842981
Si Si2 0.917982 0.334155 0.891103
Si Si3 0.711370 0.440964 0.585193
Si Si4 0.820436 0.403019 0.411107
Si Si5 0.169141 0.137638 0.907989
Si Si6 0.070709 0.940452 0.970938
Si Si7 0.074030 0.557036 0.795190
O O1 0.250000 0.250000 0.500000
O O2 0.358894 0.203865 0.918379
O O3 0.250000 0.250000 0.000000
O O4 0.346585 0.305154 0.997894
O O5 0.877686 0.355488 0.574999
O O6 0.929238 0.389690 0.053458
O O7 0.000000 0.309896 0.000000
O O8 0.709790 0.500000 0.715250
O O9 0.790858 0.435532 0.592829
O O10 0.696877 0.384091 0.694264
O O11 0.642966 0.444215 0.274226
O O12 0.856876 0.438166 0.266725
O O13 0.743747 0.377808 0.186469
O O14 0.096881 0.100994 0.817124
O O15 0.055418 0.000000 0.845971
O O16 0.000000 0.923240 0.000000
O O17 0.075167 0.500000 0.931714
O O18 0.000000 0.557218 0.500000
#
# Coordination Sequence:
#
# PCOD9208307 Si02
#       7
#     8   8   8   8   8   8   8
#     4  12  27  49  78 104 138 190 245 306 367 428
#     4  12  26  45  71 101 139 185 238 302 365 429
#     4  10  21  37  65 101 137 185 235 287 352 432
#     4  11  21  40  63  95 140 177 230 289 349 427
#     4  11  23  40  68  96 134 180 238 290 359 428
#     4   9  20  39  65  98 141 179 222 289 363 430
#     4  11  24  41  65  99 140 185 231 288 357 433
#
# _framework density 22.786173999999999
#
# number of rings (size 3 to 8) (size 9 to 14) (size 15 to 20)
#    0.000    1.143    2.857    3.429    2.000    5.429 
#    0.000    2.143    6.286    0.000    0.000    0.000 
#    0.000    0.000    0.000    0.000    0.000    0.000 
#
# Total GULP energy -156129.643934 kJ/mol
# GULP energy per Si atom -5576.058712 kJ/mol
# Density = 2.273431 g / cm^3
# Si number density = 22.786174 Si / 1000 Ang^3
#
#
#
# Elastic Constant Matrix: (Units=GPa)
#
#
# Indices 1 2 3 4 5 6 
#
# 1 134.4388 23.4825 15.4022 0.0000 3.9196 0.0000
# 2 23.4825 88.2776 8.6593 0.0000 -9.5974 0.0000
# 3 15.4022 8.6593 49.2623 0.0000 -3.1115 0.0000
# 4 0.0000 0.0000 0.0000 20.5816 0.0000 -3.2535
# 5 3.9196 -9.5974 -3.1115 0.0000 35.5065 0.0000
# 6 0.0000 0.0000 0.0000 -3.2535 0.0000 24.9284
#
#
#
# Elastic Compliance Matrix: (Units=1/GPa)
#
#
# Indices 1 2 3 4 5 6 
#
# 1 0.008117 -0.002118 -0.002271 0.000000 -0.001667 0.000000
# 2 -0.002118 0.012396 -0.001298 0.000000 0.003471 0.000000
# 3 -0.002271 -0.001298 0.021349 0.000000 0.001771 0.000000
# 4 0.000000 0.000000 0.000000 0.049611 0.000000 0.006475
# 5 -0.001667 0.003471 0.001771 0.000000 0.029441 0.000000
# 6 0.000000 0.000000 0.000000 0.006475 0.000000 0.040960
#
#
# Mechanical properties :
#
#
# Convention : Reuss Voigt Hill
#
# Bulk Modulus (GPa) = 32.79782 40.78520 36.79151
# Shear Modulus (GPa) = 27.26136 31.16563 29.21350
#
# Velocity S-wave (km/s) = 3.46265 3.70231 3.58449
# Velocity P-wave (km/s) = 5.51467 6.01782 5.77173
#
# Compressibility (1/GPa) = 0.03048983
#
# Stress axis : x y z
#
# Youngs Moduli (GPa) = 123.19796 80.67228 46.83962
#
# Poissons Ratio (x) = 0.17084 0.10637
# Poissons Ratio (y) = 0.26090 0.06078
# Poissons Ratio (z) = 0.27977 0.10468
#
# Static dielectric constant tensor:
#      x y z
#    x 2.236640 0.000000 -0.262830 
#    y 0.000000 2.006040 0.000000 
#    z -0.262830 0.000000 2.065960 
# 
# From -- ./inp_files/22379.got.cif
#   From: 2010.05.17/outbox.cif.g08.bks.cpg/sg12_12_cif.got.tgz:22379.got - 2010.06.03 13:09:07.
