data_PCOD9208064
_publ_section_title
;
Structure prediction by ZEFSAII (Michael W. Deem and Ramdas Pophale) SiO2 
 PCOD9208064
Probable space group: C 2/M
;
_chemical_formula_sum "Si O2"
_cell_formula_units_Z 56
_cell_length_a 10.295313
_cell_length_b 22.937998
_cell_length_c 13.007267
_cell_angle_alpha 90.000000
_cell_angle_beta 79.405307
_cell_angle_gamma 90.000000
_cell_volume 3019.350983
_symmetry_space_group_name_H-M "C 2/M"
_symmetry_group_IT_number 12
_symmetry_cell_setting 'monoclinic'
loop_
_space_group_symop_operation_xyz
x,y,z
-x,y,-z
-x,-y,-z
x,-y,z
1/2+x,1/2+y,z
1/2-x,1/2+y,-z
1/2-x,1/2-y,-z
1/2+x,1/2-y,z
loop_
_atom_site_type_symbol
_atom_site_label
_atom_site_fract_x
_atom_site_fract_y
_atom_site_fract_z
Si Si1 0.994323 0.692213 0.377784
Si Si2 0.357955 0.682966 0.070291
Si Si3 0.257890 0.375393 0.285461
Si Si4 0.672470 0.000000 0.370703
Si Si5 0.997381 0.827641 0.377578
Si Si6 0.221978 0.377529 0.707067
Si Si7 0.860253 0.317721 0.075062
Si Si8 0.356512 0.000000 0.382062
O O1 0.857013 0.666092 0.357544
O O2 0.000000 0.686717 0.500000
O O3 0.116191 0.656219 0.313941
O O4 0.009906 0.759688 0.346782
O O5 0.321231 0.639770 0.166904
O O6 0.357663 0.749909 0.111918
O O7 0.500000 0.672100 0.000000
O O8 0.251412 0.678050 0.995379
O O9 0.234749 0.442608 0.312829
O O10 0.359220 0.350372 0.354662
O O11 0.515750 0.000000 0.368904
O O12 0.690958 0.000000 0.491914
O O13 0.122926 0.862892 0.317128
O O14 0.000000 0.831820 0.500000
O O15 0.166219 0.361319 0.827526
O O16 0.191226 0.442204 0.670545
O O17 0.000000 0.327992 0.000000
#
# Coordination Sequence:
#
# PCOD9208064 Si02
#       8
#     8   8   8   4   8   8   8   4
#     4  11  21  36  60  90 125 161 201 253 315 385
#     4  10  21  39  61  89 125 160 201 253 313 373
#     4  12  23  40  64  89 123 169 210 250 305 376
#     4  11  24  43  65  89 120 171 221 249 298 379
#     4  11  23  36  58  94 126 155 198 260 324 374
#     4  12  23  40  62  90 127 165 208 258 312 362
#     4  10  21  37  61  92 122 157 204 258 311 364
#     4  11  24  43  65  88 124 170 213 257 302 369
#
# _framework density 18.547034
#
# number of rings (size 3 to 8) (size 9 to 14) (size 15 to 20)
#    0.000    1.000    1.429    6.857    0.000    5.143 
#    0.000    2.857    0.000    0.000    0.000    0.000 
#    0.000    0.000    0.000    0.000    0.000    0.000 
#
# Total GULP energy -156606.153687 kJ/mol
# GULP energy per Si atom -5593.076917 kJ/mol
# Density = 1.850482 g / cm^3
# Si number density = 18.547034 Si / 1000 Ang^3
#
#
#
# Elastic Constant Matrix: (Units=GPa)
#
#
# Indices 1 2 3 4 5 6 
#
# 1 54.8194 6.3009 6.0203 0.0000 -12.5085 0.0000
# 2 6.3009 133.3323 64.2990 0.0000 -12.7616 0.0000
# 3 6.0203 64.2990 87.1374 0.0000 -6.8703 0.0000
# 4 0.0000 0.0000 0.0000 42.2115 0.0000 -4.6596
# 5 -12.5085 -12.7616 -6.8703 0.0000 24.5418 0.0000
# 6 0.0000 0.0000 0.0000 -4.6596 0.0000 27.2064
#
#
#
# Elastic Compliance Matrix: (Units=1/GPa)
#
#
# Indices 1 2 3 4 5 6 
#
# 1 0.020695 0.000496 -0.000965 0.000000 0.010535 0.000000
# 2 0.000496 0.011999 -0.008566 0.000000 0.004094 0.000000
# 3 -0.000965 -0.008566 0.017868 0.000000 0.000056 0.000000
# 4 0.000000 0.000000 0.000000 0.024147 0.000000 0.004136
# 5 0.010535 0.004094 0.000056 0.000000 0.048261 0.000000
# 6 0.000000 0.000000 0.000000 0.004136 0.000000 0.037464
#
#
# Mechanical properties :
#
#
# Convention : Reuss Voigt Hill
#
# Bulk Modulus (GPa) = 30.77693 47.61439 39.19566
# Shear Modulus (GPa) = 26.40827 32.03654 29.22240
#
# Velocity S-wave (km/s) = 3.77749 4.16060 3.97367
# Velocity P-wave (km/s) = 5.97126 6.98633 6.49864
#
# Compressibility (1/GPa) = 0.03249187
#
# Stress axis : x y z
#
# Youngs Moduli (GPa) = 48.32181 83.33803 55.96623
#
# Poissons Ratio (x) = -0.04131 0.05401
# Poissons Ratio (y) = -0.02396 0.47939
# Poissons Ratio (z) = 0.04663 0.71385
#
# Static dielectric constant tensor:
#      x y z
#    x 1.617410 0.000000 0.005170 
#    y 0.000000 1.665760 0.000000 
#    z 0.005170 0.000000 1.630920 
# 
# From -- ./inp_files/133906.got.cif
#   From: 2010.05.17/outbox.cif.g08.bks.cpg/sg12_67_cif.got.tgz:133906.got - 2010.06.03 13:09:07.
