data_PCOD9208406
_publ_section_title
;
Structure prediction by ZEFSAII (Michael W. Deem and Ramdas Pophale) SiO2 
 PCOD9208406
Probable space group: C 2/M
;
_chemical_formula_sum "Si O2"
_cell_formula_units_Z 56
_cell_length_a 17.922935
_cell_length_b 7.571506
_cell_length_c 29.732083
_cell_angle_alpha 90.000000
_cell_angle_beta 41.042091
_cell_angle_gamma 90.000000
_cell_volume 2649.271090
_symmetry_space_group_name_H-M "C 2/M"
_symmetry_group_IT_number 12
_symmetry_cell_setting 'monoclinic'
loop_
_space_group_symop_operation_xyz
x,y,z
-x,y,-z
-x,-y,-z
x,-y,z
1/2+x,1/2+y,z
1/2-x,1/2+y,-z
1/2-x,1/2-y,-z
1/2+x,1/2-y,z
loop_
_atom_site_type_symbol
_atom_site_label
_atom_site_fract_x
_atom_site_fract_y
_atom_site_fract_z
Si Si1 0.965521 0.283744 0.295970
Si Si2 0.381599 0.789362 0.431677
Si Si3 0.552640 0.704131 0.430928
Si Si4 0.163301 0.297466 0.148426
Si Si5 0.702824 0.787148 0.707729
Si Si6 0.336761 0.288527 0.001663
Si Si7 0.003744 0.791731 0.856082
O O1 0.968001 0.500000 0.294469
O O2 0.925047 0.226604 0.363278
O O3 0.873421 0.230316 0.300301
O O4 0.089612 0.220505 0.222836
O O5 0.250000 0.750000 0.500000
O O6 0.457635 0.709039 0.436191
O O7 0.396877 0.000000 0.426164
O O8 0.500000 0.786137 0.500000
O O9 0.580599 0.500000 0.429823
O O10 0.669906 0.779713 0.358020
O O11 0.189740 0.500000 0.148559
O O12 0.071216 0.298211 0.149162
O O13 0.276043 0.216714 0.074251
O O14 0.634419 0.732110 0.783412
O O15 0.703655 0.000000 0.708451
O O16 0.342204 0.500000 0.005561
O O17 0.456911 0.229848 0.925860
O O18 0.250000 0.250000 0.000000
O O19 0.977952 0.000000 0.864531
#
# Coordination Sequence:
#
# PCOD9208406 Si02
#       7
#     8   8   8   8   8   8   8
#     4   8  15  29  49  70  92 123 160 195 231 276
#     4  11  22  36  54  76 101 127 158 196 240 288
#     4  10  21  38  57  74  95 125 161 200 241 286
#     4   8  13  24  40  57  83 122 162 190 222 274
#     4   9  17  31  50  68  90 125 162 190 228 285
#     4   8  13  20  33  55  84 118 152 188 228 270
#     4   9  15  22  35  61  94 120 147 190 238 273
#
# _framework density 21.137889999999999
#
# number of rings (size 3 to 8) (size 9 to 14) (size 15 to 20)
#    0.000    3.000    0.000    2.571    0.000    3.714 
#    0.000    8.571    0.000    0.000    0.000    1.000 
#    0.000    8.000    0.000    0.000    0.000    0.000 
#
# Total GULP energy -155957.930284 kJ/mol
# GULP energy per Si atom -5569.926082 kJ/mol
# Density = 2.108978 g / cm^3
# Si number density = 21.137890 Si / 1000 Ang^3
#
#
#
# Elastic Constant Matrix: (Units=GPa)
#
#
# Indices 1 2 3 4 5 6 
#
# 1 37.0598 -8.5965 58.4060 -0.0138 -0.9612 -0.0146
# 2 -8.5965 57.1113 1.1103 -0.0713 0.0676 -0.0703
# 3 58.4060 1.1103 278.1224 -0.0078 3.5784 -0.0083
# 4 -0.0138 -0.0713 -0.0078 -9.7219 -0.0016 -26.8438
# 5 -0.9612 0.0676 3.5784 -0.0016 21.2145 -0.0011
# 6 -0.0146 -0.0703 -0.0083 -26.8438 -0.0011 -15.2531
#
#
#
# Elastic Compliance Matrix: (Units=1/GPa)
#
#
# Indices 1 2 3 4 5 6 
#
# 1 0.042933 0.006635 -0.009087 -0.000021 0.003457 -0.000030
# 2 0.006635 0.018536 -0.001474 -0.000028 0.000490 -0.000042
# 3 -0.009087 -0.001474 0.005527 0.000004 -0.001339 0.000006
# 4 -0.000021 -0.000028 0.000004 0.026652 -0.000002 -0.046905
# 5 0.003457 0.000490 -0.001339 -0.000002 0.047518 -0.000005
# 6 -0.000030 -0.000042 0.000006 -0.046905 -0.000005 0.016988
#
#
# Mechanical properties :
#
#
# Convention : Reuss Voigt Hill
#
# Bulk Modulus (GPa) = 16.90764 52.68148 34.79456
# Shear Modulus (GPa) = 26.92210 20.67282 23.79746
#
# Velocity S-wave (km/s) = 3.57268 3.13069 3.35896
# Velocity P-wave (km/s) = 5.00348 6.16808 5.61605
#
# Compressibility (1/GPa) = 0.05914485
#
# Stress axis : x y z
#
# Youngs Moduli (GPa) = 23.29208 53.94808 180.93237
#
# Poissons Ratio (x) = -0.35794 1.64413
# Poissons Ratio (y) = -0.15454 0.26663
# Poissons Ratio (z) = 0.21165 0.07950
#
# Static dielectric constant tensor:
#      x y z
#    x 1.709470 0.000000 0.004390 
#    y 0.000000 1.770070 0.000000 
#    z 0.004390 0.000000 1.865990 
# 
# From -- ./inp_files/314353.got.cif
#   From: 2010.05.17/outbox.cif.g08.bks.cpg/sg12_158_cif.got.tgz:314353.got - 2010.06.03 13:09:07.
