data_PCOD9208178
_publ_section_title
;
Structure prediction by ZEFSAII (Michael W. Deem and Ramdas Pophale) SiO2 
 PCOD9208178
Probable space group: C 2/M
;
_chemical_formula_sum "Si O2"
_cell_formula_units_Z 60
_cell_length_a 24.524957
_cell_length_b 9.319167
_cell_length_c 13.138297
_cell_angle_alpha 90.000000
_cell_angle_beta 77.696084
_cell_angle_gamma 90.000000
_cell_volume 2933.815327
_symmetry_space_group_name_H-M "C 2/M"
_symmetry_group_IT_number 12
_symmetry_cell_setting 'monoclinic'
loop_
_space_group_symop_operation_xyz
x,y,z
-x,y,-z
-x,-y,-z
x,-y,z
1/2+x,1/2+y,z
1/2-x,1/2+y,-z
1/2-x,1/2-y,-z
1/2+x,1/2-y,z
loop_
_atom_site_type_symbol
_atom_site_label
_atom_site_fract_x
_atom_site_fract_y
_atom_site_fract_z
Si Si1 0.334062 0.172833 0.632100
Si Si2 0.175849 0.272581 0.970295
Si Si3 0.453071 0.667412 0.281740
Si Si4 0.964275 0.671667 0.614189
Si Si5 0.062641 0.827809 0.942816
Si Si6 0.743930 0.000000 0.048152
Si Si7 0.731391 0.165365 0.734344
Si Si8 0.667409 0.670185 0.579577
O O1 0.398789 0.206179 0.629768
O O2 0.290185 0.251974 0.722592
O O3 0.320072 0.240492 0.527042
O O4 0.326429 0.000000 0.636423
O O5 0.110114 0.249949 0.987538
O O6 0.196093 0.375861 0.050432
O O7 0.198730 0.335098 0.853706
O O8 0.207585 0.123355 0.966858
O O9 0.468879 0.500000 0.270267
O O10 0.504648 0.755783 0.304010
O O11 0.433021 0.711045 0.177756
O O12 0.398988 0.681043 0.374858
O O13 0.968648 0.500000 0.620179
O O14 0.000000 0.715912 0.500000
O O15 0.070809 0.000000 0.948396
O O16 0.000000 0.794310 0.000000
O O17 0.697849 0.256352 0.663195
O O18 0.739677 0.000000 0.698701
O O19 0.681598 0.500000 0.566803
#
# Coordination Sequence:
#
# PCOD9208178 Si02
#       8
#     8   8   8   8   8   4   8   8
#     4  11  24  41  61  92 130 172 213 260 319 375
#     4  11  22  45  67  98 130 169 215 266 322 401
#     4  10  21  37  62  95 121 165 212 254 310 371
#     4  10  21  40  61  86 123 166 209 258 313 374
#     4  10  21  42  69  97 129 168 212 266 326 386
#     4  10  24  42  70  94 126 168 214 260 332 384
#     4  12  25  41  64  93 128 167 214 263 319 379
#     4  11  22  38  64  92 128 165 213 262 312 372
#
# _framework density 20.451186
#
# number of rings (size 3 to 8) (size 9 to 14) (size 15 to 20)
#    0.000    1.333    4.000    1.600    1.867    1.867 
#    6.000    0.333    0.000    0.000    0.000    0.000 
#    0.000    0.000    0.000    0.000    0.000    0.000 
#
# Total GULP energy -167117.397166 kJ/mol
# GULP energy per Si atom -5570.579906 kJ/mol
# Density = 2.040464 g / cm^3
# Si number density = 20.451186 Si / 1000 Ang^3
#
#
#
# Elastic Constant Matrix: (Units=GPa)
#
#
# Indices 1 2 3 4 5 6 
#
# 1 139.2870 54.4897 3.8667 0.0000 5.9478 0.0000
# 2 54.4897 110.8390 9.4825 0.0000 7.9433 0.0000
# 3 3.8667 9.4825 16.8011 0.0000 -6.4857 0.0000
# 4 0.0000 0.0000 0.0000 292.9358 0.0000 608.4525
# 5 5.9478 7.9433 -6.4857 0.0000 25.0426 0.0000
# 6 0.0000 0.0000 0.0000 608.4525 0.0000 1323.1158
#
#
#
# Elastic Compliance Matrix: (Units=1/GPa)
#
#
# Indices 1 2 3 4 5 6 
#
# 1 0.008903 -0.004337 0.000126 0.000000 -0.000706 0.000000
# 2 -0.004337 0.012162 -0.007730 0.000000 -0.004830 0.000000
# 3 0.000126 -0.007730 0.071986 0.000000 0.021065 0.000000
# 4 0.000000 0.000000 0.000000 0.076157 0.000000 -0.035022
# 5 -0.000706 -0.004830 0.021065 0.000000 0.047087 0.000000
# 6 0.000000 0.000000 0.000000 -0.035022 0.000000 0.016861
#
#
# Mechanical properties :
#
#
# Convention : Reuss Voigt Hill
#
# Bulk Modulus (GPa) = 14.45753 44.73389 29.59571
# Shear Modulus (GPa) = 17.85120 341.49137 179.67128
#
# Velocity S-wave (km/s) = 2.95764 12.93604 9.38320
# Velocity P-wave (km/s) = 4.32991 15.65384 11.48457
#
# Compressibility (1/GPa) = 0.06916810
#
# Stress axis : x y z
#
# Youngs Moduli (GPa) = 112.32593 82.22615 13.89167
#
# Poissons Ratio (x) = 0.35660 -0.00175
# Poissons Ratio (y) = 0.48714 0.10739
# Poissons Ratio (z) = -0.01417 0.63562
#
# Static dielectric constant tensor:
#      x y z
#    x 1.716150 0.000000 -0.014420 
#    y 0.000000 1.702030 0.000000 
#    z -0.014420 0.000000 1.792640 
# 
# From -- ./inp_files/237531.got.cif
#   From: 2010.05.17/outbox.cif.g08.bks.cpg/sg12_119_cif.got.tgz:237531.got - 2010.06.03 13:09:07.
