data_PCOD9208723
_publ_section_title
;
Structure prediction by ZEFSAII (Michael W. Deem and Ramdas Pophale) SiO2 
 PCOD9208723
Probable space group: C 2/M
;
_chemical_formula_sum "Si O2"
_cell_formula_units_Z 64
_cell_length_a 24.101317
_cell_length_b 13.700804
_cell_length_c 18.705059
_cell_angle_alpha 90.000000
_cell_angle_beta 151.658040
_cell_angle_gamma 90.000000
_cell_volume 2932.211095
_symmetry_space_group_name_H-M "C 2/M"
_symmetry_group_IT_number 12
_symmetry_cell_setting 'monoclinic'
loop_
_space_group_symop_operation_xyz
x,y,z
-x,y,-z
-x,-y,-z
x,-y,z
1/2+x,1/2+y,z
1/2-x,1/2+y,-z
1/2-x,1/2-y,-z
1/2+x,1/2-y,z
loop_
_atom_site_type_symbol
_atom_site_label
_atom_site_fract_x
_atom_site_fract_y
_atom_site_fract_z
Si Si1 0.177487 0.616430 0.095429
Si Si2 0.088576 0.381764 0.493164
Si Si3 0.076008 0.382163 0.183343
Si Si4 0.694819 0.882146 0.462803
Si Si5 0.437960 0.380984 0.659348
Si Si6 0.686790 0.381726 0.622929
Si Si7 0.334247 0.268272 0.030173
Si Si8 0.835030 0.382223 0.261988
O O1 0.177293 0.500000 0.092138
O O2 0.292705 0.645334 0.271085
O O3 0.164007 0.661976 0.003241
O O4 0.052307 0.648511 0.986758
O O5 0.086587 0.500000 0.487381
O O6 0.151965 0.348214 0.492221
O O7 0.153643 0.356519 0.641091
O O8 0.954031 0.352255 0.354913
O O9 0.078398 0.500000 0.178666
O O10 0.101094 0.358976 0.294792
O O11 0.191318 0.347417 0.273899
O O12 0.822294 0.854788 0.575462
O O13 0.699667 0.000000 0.471996
O O14 0.453163 0.500000 0.681516
O O15 0.412773 0.356430 0.546885
O O16 0.548178 0.321623 0.812343
O O17 0.685722 0.500000 0.621040
O O18 0.250000 0.250000 0.000000
O O19 0.273636 0.334584 0.900618
O O20 0.828465 0.500000 0.251055
#
# Coordination Sequence:
#
# PCOD9208723 Si02
#       8
#     8   8   8   8   8   8   8   8
#     4  10  21  38  59  85 119 157 201 248 294 348
#     4   8  15  32  61  93 118 151 197 238 288 356
#     4   8  14  27  55  89 118 150 189 239 294 347
#     4   8  14  28  58  95 123 153 193 237 293 362
#     4   9  19  40  66  91 124 158 191 243 309 366
#     4   8  15  34  63  90 117 154 193 236 298 363
#     4  12  27  42  55  85 118 155 208 251 300 360
#     4   9  19  38  62  86 118 159 198 242 297 350
#
# _framework density 21.826532
#
# number of rings (size 3 to 8) (size 9 to 14) (size 15 to 20)
#    0.000    3.000    0.000    3.000    1.750    2.500 
#    4.500    5.625    0.000    5.250    0.000    0.000 
#    0.000    0.000    0.000    0.000    0.000    0.250 
#
# Total GULP energy -178435.142648 kJ/mol
# GULP energy per Si atom -5576.098208 kJ/mol
# Density = 2.177685 g / cm^3
# Si number density = 21.826532 Si / 1000 Ang^3
#
#
#
# Elastic Constant Matrix: (Units=GPa)
#
#
# Indices 1 2 3 4 5 6 
#
# 1 76.2552 -6.8085 37.5493 0.0000 -13.0181 0.0000
# 2 -6.8085 50.9660 24.1938 0.0000 0.4581 0.0000
# 3 37.5493 24.1938 179.8286 0.0000 -20.4140 0.0000
# 4 0.0000 0.0000 0.0000 21.4511 0.0000 8.0563
# 5 -13.0181 0.4581 -20.4140 0.0000 17.9645 0.0000
# 6 0.0000 0.0000 0.0000 8.0563 0.0000 10.5761
#
#
#
# Elastic Compliance Matrix: (Units=1/GPa)
#
#
# Indices 1 2 3 4 5 6 
#
# 1 0.016297 0.003487 -0.002918 0.000000 0.008405 0.000000
# 2 0.003487 0.021998 -0.003978 0.000000 -0.002554 0.000000
# 3 -0.002918 -0.003978 0.007436 0.000000 0.006437 0.000000
# 4 0.000000 0.000000 0.000000 0.065299 0.000000 -0.049741
# 5 0.008405 -0.002554 0.006437 0.000000 0.069136 0.000000
# 6 0.000000 0.000000 0.000000 -0.049741 0.000000 0.132443
#
#
# Mechanical properties :
#
#
# Convention : Reuss Voigt Hill
#
# Bulk Modulus (GPa) = 25.69820 46.32433 36.01127
# Shear Modulus (GPa) = 15.04229 26.80602 20.92416
#
# Velocity S-wave (km/s) = 2.62806 3.50828 3.09958
# Velocity P-wave (km/s) = 4.58349 6.13846 5.41706
#
# Compressibility (1/GPa) = 0.03891322
#
# Stress axis : x y z
#
# Youngs Moduli (GPa) = 61.36150 45.45900 134.48180
#
# Poissons Ratio (x) = -0.15850 0.39240
# Poissons Ratio (y) = -0.21395 0.53491
# Poissons Ratio (z) = 0.17904 0.18081
#
# Static dielectric constant tensor:
#      x y z
#    x 1.893470 0.000000 -0.029620 
#    y 0.000000 1.835190 0.000000 
#    z -0.029620 0.000000 1.801070 
# 
# From -- ./inp_files/290141.got.cif
#   From: 2010.05.17/outbox.cif.g08.bks.cpg/sg12_146_cif.got.tgz:290141.got - 2010.06.03 13:09:07.
