data_PCOD9208686
_publ_section_title
;
Structure prediction by ZEFSAII (Michael W. Deem and Ramdas Pophale) SiO2 
 PCOD9208686
Probable space group: C 2/M
;
_chemical_formula_sum "Si O2"
_cell_formula_units_Z 32
_cell_length_a 10.276166
_cell_length_b 14.939332
_cell_length_c 8.096916
_cell_angle_alpha 90.000000
_cell_angle_beta 108.996648
_cell_angle_gamma 90.000000
_cell_volume 1175.332477
_symmetry_space_group_name_H-M "C 2/M"
_symmetry_group_IT_number 12
_symmetry_cell_setting 'monoclinic'
loop_
_space_group_symop_operation_xyz
x,y,z
-x,y,-z
-x,-y,-z
x,-y,z
1/2+x,1/2+y,z
1/2-x,1/2+y,-z
1/2-x,1/2-y,-z
1/2+x,1/2-y,z
loop_
_atom_site_type_symbol
_atom_site_label
_atom_site_fract_x
_atom_site_fract_y
_atom_site_fract_z
Si Si1 0.337263 0.898773 0.308688
Si Si2 0.076709 0.607377 0.200013
Si Si3 0.194087 0.153923 0.925084
Si Si4 0.070084 0.109476 0.357621
O O1 0.484576 0.858203 0.314282
O O2 0.224848 0.856954 0.384366
O O3 0.359887 0.000000 0.378093
O O4 0.253438 0.904631 0.099859
O O5 0.067034 0.500000 0.206231
O O6 0.232171 0.629085 0.217984
O O7 0.000000 0.636375 0.000000
O O8 0.033415 0.143759 0.826743
O O9 0.250000 0.250000 0.000000
O O10 0.000000 0.135908 0.500000
O O11 0.072420 0.000000 0.352434
#
# Coordination Sequence:
#
# PCOD9208686 Si02
#       4
#     8   8   8   8
#     4   9  18  34  57  82 107 144 195 243 285 336
#     4   8  15  30  52  79 110 141 182 237 286 331
#     4  11  21  33  55  86 115 149 192 238 289 346
#     4  10  21  38  59  84 116 152 192 241 294 345
#
# _framework density 27.226337999999998
#
# number of rings (size 3 to 8) (size 9 to 14) (size 15 to 20)
#    0.000    2.500    0.000    4.500    0.000    8.000 
#    0.000    2.500    0.000    6.000    0.000    0.000 
#    0.000    6.000    0.000    0.000    0.000    0.000 
#
# Total GULP energy -89487.849386 kJ/mol
# GULP energy per Si atom -5592.990587 kJ/mol
# Density = 2.716437 g / cm^3
# Si number density = 27.226338 Si / 1000 Ang^3
#
#
#
# Elastic Constant Matrix: (Units=GPa)
#
#
# Indices 1 2 3 4 5 6 
#
# 1 221.3881 0.7260 53.6299 0.0000 -44.1680 0.0000
# 2 0.7260 59.8096 0.9305 0.0000 -2.6617 0.0000
# 3 53.6299 0.9305 140.6180 0.0000 -33.7226 0.0000
# 4 0.0000 0.0000 0.0000 -2.9942 0.0000 2.8663
# 5 -44.1680 -2.6617 -33.7226 0.0000 67.7142 0.0000
# 6 0.0000 0.0000 0.0000 2.8663 0.0000 19.4674
#
#
#
# Elastic Compliance Matrix: (Units=1/GPa)
#
#
# Indices 1 2 3 4 5 6 
#
# 1 0.005421 0.000083 -0.001385 0.000000 0.002849 0.000000
# 2 0.000083 0.016751 0.000032 0.000000 0.000728 0.000000
# 3 -0.001385 0.000032 0.008430 0.000000 0.003296 0.000000
# 4 0.000000 0.000000 0.000000 -0.292725 0.000000 0.043099
# 5 0.002849 0.000728 0.003296 0.000000 0.018297 0.000000
# 6 0.000000 0.000000 0.000000 0.043099 0.000000 0.045022
#
#
# Mechanical properties :
#
#
# Convention : Reuss Voigt Hill
#
# Bulk Modulus (GPa) = 35.63573 59.15428 47.39501
# Shear Modulus (GPa) = -26.75054 41.27277 7.26112
#
# Velocity S-wave (km/s) = -3.13792 3.89770 1.63485
# Velocity P-wave (km/s) = 0.10794 6.48306 4.58358
#
# Compressibility (1/GPa) = 0.02806172
#
# Stress axis : x y z
#
# Youngs Moduli (GPa) = 184.48327 59.69922 118.62655
#
# Poissons Ratio (x) = -0.00493 0.16424
# Poissons Ratio (y) = -0.01523 -0.00384
# Poissons Ratio (z) = 0.25542 -0.00193
#
# Static dielectric constant tensor:
#      x y z
#    x 2.159340 0.000000 -0.025470 
#    y 0.000000 2.079230 0.000000 
#    z -0.025470 0.000000 2.171820 
# 
# From -- ./inp_files/46126.got.cif
#   From: 2010.05.17/outbox.cif.g08.bks.cpg/sg12_24_cif.got.tgz:46126.got - 2010.06.03 13:09:07.
