data_PCOD9208366
_publ_section_title
;
Structure prediction by ZEFSAII (Michael W. Deem and Ramdas Pophale) SiO2 
 PCOD9208366
Probable space group: C 2/M
;
_chemical_formula_sum "Si O2"
_cell_formula_units_Z 48
_cell_length_a 8.633918
_cell_length_b 18.922978
_cell_length_c 19.767318
_cell_angle_alpha 90.000000
_cell_angle_beta 123.434081
_cell_angle_gamma 90.000000
_cell_volume 2695.144444
_symmetry_space_group_name_H-M "C 2/M"
_symmetry_group_IT_number 12
_symmetry_cell_setting 'monoclinic'
loop_
_space_group_symop_operation_xyz
x,y,z
-x,y,-z
-x,-y,-z
x,-y,z
1/2+x,1/2+y,z
1/2-x,1/2+y,-z
1/2-x,1/2-y,-z
1/2+x,1/2-y,z
loop_
_atom_site_type_symbol
_atom_site_label
_atom_site_fract_x
_atom_site_fract_y
_atom_site_fract_z
Si Si1 0.585031 0.582041 0.729017
Si Si2 0.807791 0.194467 0.690276
Si Si3 0.329921 0.422034 0.407585
Si Si4 0.885644 0.287423 0.587310
Si Si5 0.389748 0.196812 0.831883
Si Si6 0.801696 0.211926 0.942179
O O1 0.600492 0.500000 0.750875
O O2 0.402488 0.618143 0.717051
O O3 0.589095 0.587017 0.648146
O O4 0.759175 0.629420 0.792678
O O5 0.913407 0.232573 0.654621
O O6 0.593733 0.193895 0.615179
O O7 0.842279 0.242748 0.764574
O O8 0.500000 0.422629 0.500000
O O9 0.237851 0.500000 0.387969
O O10 0.204808 0.356946 0.401218
O O11 0.750000 0.250000 0.500000
O O12 0.606527 0.175889 0.876063
O O13 0.345601 0.231673 0.893824
O O14 0.750000 0.250000 0.000000
O O15 0.000000 0.172594 0.000000
#
# Coordination Sequence:
#
# PCOD9208366 Si02
#       6
#     8   8   8   8   8   8
#     4  11  23  38  58  87 122 161 195 240 304 350
#     4  12  21  35  57  84 113 151 198 247 286 337
#     4  10  21  38  55  76 115 161 201 245 299 350
#     4  12  22  34  55  83 114 152 206 252 294 341
#     4  11  18  36  59  87 117 146 187 243 278 344
#     4   9  19  33  60  94 113 142 188 236 286 347
#
# _framework density 17.809805000000001
#
# number of rings (size 3 to 8) (size 9 to 14) (size 15 to 20)
#    0.000    1.167    5.000    2.500    0.000    0.667 
#    0.000    0.000    0.000   10.000    0.000    0.000 
#    0.000    0.000    0.000    0.000    0.000    0.000 
#
# Total GULP energy -133755.754749 kJ/mol
# GULP energy per Si atom -5573.156448 kJ/mol
# Density = 1.776927 g / cm^3
# Si number density = 17.809805 Si / 1000 Ang^3
#
#
#
# Elastic Constant Matrix: (Units=GPa)
#
#
# Indices 1 2 3 4 5 6 
#
# 1 103.4741 39.2151 31.9389 0.0000 27.8315 0.0000
# 2 39.2151 121.8369 28.4943 0.0000 6.4585 0.0000
# 3 31.9389 28.4943 85.0001 0.0000 5.3563 0.0000
# 4 0.0000 0.0000 0.0000 4.3606 0.0000 0.5366
# 5 27.8315 6.4585 5.3563 0.0000 40.9072 0.0000
# 6 0.0000 0.0000 0.0000 0.5366 0.0000 32.4293
#
#
#
# Elastic Compliance Matrix: (Units=1/GPa)
#
#
# Indices 1 2 3 4 5 6 
#
# 1 0.014450 -0.003303 -0.003767 0.000000 -0.008817 0.000000
# 2 -0.003303 0.009703 -0.002074 0.000000 0.000987 0.000000
# 3 -0.003767 -0.002074 0.013807 0.000000 0.001082 0.000000
# 4 0.000000 0.000000 0.000000 0.229794 0.000000 -0.003802
# 5 -0.008817 0.000987 0.001082 0.000000 0.030146 0.000000
# 6 0.000000 0.000000 0.000000 -0.003802 0.000000 0.030899
#
#
# Mechanical properties :
#
#
# Convention : Reuss Voigt Hill
#
# Bulk Modulus (GPa) = 50.82988 56.62307 53.72648
# Shear Modulus (GPa) = 14.13847 29.58360 21.86104
#
# Velocity S-wave (km/s) = 2.82061 4.08006 3.50733
# Velocity P-wave (km/s) = 6.26180 7.35242 6.82892
#
# Compressibility (1/GPa) = 0.01967347
#
# Stress axis : x y z
#
# Youngs Moduli (GPa) = 69.20421 103.05602 72.42607
#
# Poissons Ratio (x) = 0.34035 0.27282
# Poissons Ratio (y) = 0.22856 0.15022
# Poissons Ratio (z) = 0.26069 0.21374
#
# Static dielectric constant tensor:
#      x y z
#    x 1.650550 0.000000 0.027350 
#    y 0.000000 1.573920 0.000000 
#    z 0.027350 0.000000 1.642150 
# 
# From -- ./inp_files/256132.got.cif
#   From: 2010.05.17/outbox.cif.g08.bks.cpg/sg12_129_cif.got.tgz:256132.got - 2010.06.03 13:09:07.
