data_PCOD9208308
_publ_section_title
;
Structure prediction by ZEFSAII (Michael W. Deem and Ramdas Pophale) SiO2 
 PCOD9208308
Probable space group: C 2/M
;
_chemical_formula_sum "Si O2"
_cell_formula_units_Z 40
_cell_length_a 5.517741
_cell_length_b 22.114051
_cell_length_c 17.050596
_cell_angle_alpha 90.000000
_cell_angle_beta 63.276793
_cell_angle_gamma 90.000000
_cell_volume 1858.286643
_symmetry_space_group_name_H-M "C 2/M"
_symmetry_group_IT_number 12
_symmetry_cell_setting 'monoclinic'
loop_
_space_group_symop_operation_xyz
x,y,z
-x,y,-z
-x,-y,-z
x,-y,z
1/2+x,1/2+y,z
1/2-x,1/2+y,-z
1/2-x,1/2-y,-z
1/2+x,1/2-y,z
loop_
_atom_site_type_symbol
_atom_site_label
_atom_site_fract_x
_atom_site_fract_y
_atom_site_fract_z
Si Si1 0.510827 0.069606 0.280841
Si Si2 0.636328 0.727488 0.100767
Si Si3 0.904729 0.117678 0.781771
Si Si4 0.172502 0.660078 0.553643
Si Si5 0.985354 0.231938 0.682120
O O1 0.342946 0.084674 0.225736
O O2 0.407075 0.113622 0.365434
O O3 0.835653 0.079897 0.227527
O O4 0.458086 0.000000 0.309283
O O5 0.315696 0.729691 0.130939
O O6 0.689024 0.662137 0.133835
O O7 0.750000 0.750000 0.000000
O O8 0.025590 0.161996 0.695324
O O9 0.500000 0.657847 0.500000
O O10 0.082355 0.727545 0.594883
O O11 0.000000 0.646928 0.500000
O O12 0.164423 0.262355 0.722961
#
# Coordination Sequence:
#
# PCOD9208308 Si02
#       5
#     8   8   8   8   8
#     4  12  27  46  64  90 124 184 236 268 315 370
#     4  10  21  37  65 108 146 168 193 246 336 395
#     4  12  22  43  66  97 136 165 213 276 312 395
#     4  12  26  42  62  89 127 166 215 283 346 398
#     4  12  21  38  60  92 124 157 196 261 348 397
#
# _framework density 21.525207000000002
#
# number of rings (size 3 to 8) (size 9 to 14) (size 15 to 20)
#    0.000    0.400    4.000    5.400    0.000    3.200 
#    0.000    0.000    0.000    0.000    0.000   56.000 
#    0.000    0.000    0.000    0.000    0.000    0.000 
#
# Total GULP energy -111369.565698 kJ/mol
# GULP energy per Si atom -5568.478285 kJ/mol
# Density = 2.147621 g / cm^3
# Si number density = 21.525207 Si / 1000 Ang^3
#
#
#
# Elastic Constant Matrix: (Units=GPa)
#
#
# Indices 1 2 3 4 5 6 
#
# 1 236.1828 37.7388 58.6000 0.0000 17.9550 0.0000
# 2 37.7388 89.4725 25.2577 0.0000 6.0812 0.0000
# 3 58.6000 25.2577 109.7646 0.0000 20.3433 0.0000
# 4 0.0000 0.0000 0.0000 8.8922 0.0000 2.1996
# 5 17.9550 6.0812 20.3433 0.0000 47.4360 0.0000
# 6 0.0000 0.0000 0.0000 2.1996 0.0000 27.7317
#
#
#
# Elastic Compliance Matrix: (Units=1/GPa)
#
#
# Indices 1 2 3 4 5 6 
#
# 1 0.005080 -0.001460 -0.002232 0.000000 -0.000779 0.000000
# 2 -0.001460 0.012379 -0.002040 0.000000 -0.000160 0.000000
# 3 -0.002232 -0.002040 0.011479 0.000000 -0.003816 0.000000
# 4 0.000000 0.000000 0.000000 0.114709 0.000000 -0.009098
# 5 -0.000779 -0.000160 -0.003816 0.000000 0.023033 0.000000
# 6 0.000000 0.000000 0.000000 -0.009098 0.000000 0.036781
#
#
# Mechanical properties :
#
#
# Convention : Reuss Voigt Hill
#
# Bulk Modulus (GPa) = 57.22408 75.40142 66.31275
# Shear Modulus (GPa) = 22.65021 37.73354 30.19187
#
# Velocity S-wave (km/s) = 3.24738 4.19142 3.74923
# Velocity P-wave (km/s) = 6.37989 7.65045 7.04388
#
# Compressibility (1/GPa) = 0.01747516
#
# Stress axis : x y z
#
# Youngs Moduli (GPa) = 196.84122 80.78224 87.11849
#
# Poissons Ratio (x) = 0.11793 0.19445
# Poissons Ratio (y) = 0.28735 0.17768
# Poissons Ratio (z) = 0.43934 0.16476
#
# Static dielectric constant tensor:
#      x y z
#    x 1.969340 0.000000 -0.333680 
#    y 0.000000 1.748700 0.000000 
#    z -0.333680 0.000000 2.565340 
# 
# From -- ./inp_files/252805.got.cif
#   From: 2010.05.17/outbox.cif.g08.bks.cpg/sg12_127_cif.got.tgz:252805.got - 2010.06.03 13:09:07.
