data_PCOD9208440
_publ_section_title
;
Structure prediction by ZEFSAII (Michael W. Deem and Ramdas Pophale) SiO2 
 PCOD9208440
Probable space group: C 2/M
;
_chemical_formula_sum "Si O2"
_cell_formula_units_Z 48
_cell_length_a 9.145035
_cell_length_b 19.314599
_cell_length_c 28.697985
_cell_angle_alpha 90.000000
_cell_angle_beta 32.513704
_cell_angle_gamma 90.000000
_cell_volume 2724.595302
_symmetry_space_group_name_H-M "C 2/M"
_symmetry_group_IT_number 12
_symmetry_cell_setting 'monoclinic'
loop_
_space_group_symop_operation_xyz
x,y,z
-x,y,-z
-x,-y,-z
x,-y,z
1/2+x,1/2+y,z
1/2-x,1/2+y,-z
1/2-x,1/2-y,-z
1/2+x,1/2-y,z
loop_
_atom_site_type_symbol
_atom_site_label
_atom_site_fract_x
_atom_site_fract_y
_atom_site_fract_z
Si Si1 0.258445 0.918250 0.398396
Si Si2 0.297498 0.668091 0.252644
Si Si3 0.693487 0.919527 0.721627
Si Si4 0.552001 0.418163 0.873759
Si Si5 0.293274 0.314153 0.773782
Si Si6 0.268910 0.321877 0.022731
O O1 0.518304 0.871319 0.339591
O O2 0.197789 0.907668 0.359878
O O3 0.000000 0.903410 0.500000
O O4 0.329236 0.000000 0.384515
O O5 0.461967 0.618587 0.172698
O O6 0.467743 0.684341 0.252847
O O7 0.239482 0.738449 0.239967
O O8 0.366349 0.907429 0.805986
O O9 0.823276 0.869024 0.724214
O O10 0.734305 0.000000 0.722862
O O11 0.505217 0.500000 0.883086
O O12 0.355857 0.381168 0.963149
O O13 0.016962 0.333274 0.875297
O O14 0.500000 0.316716 0.000000
O O15 0.250000 0.250000 0.000000
#
# Coordination Sequence:
#
# PCOD9208440 Si02
#       6
#     8   8   8   8   8   8
#     4   9  19  40  68  91 116 152 189 234 296 362
#     4  11  22  38  59  85 119 154 195 241 296 354
#     4   9  19  37  59  86 117 151 194 242 296 352
#     4  10  21  38  57  81 115 155 199 246 293 344
#     4  12  23  37  59  86 119 159 199 244 295 345
#     4  12  23  37  58  82 113 158 209 247 286 340
#
# _framework density 17.617294999999999
#
# number of rings (size 3 to 8) (size 9 to 14) (size 15 to 20)
#    0.000    1.500    3.333    4.500    0.000    2.333 
#    0.000    5.000    0.000    3.000    0.000    0.000 
#    0.000    0.000    0.000    0.000    0.000    0.000 
#
# Total GULP energy -134065.030651 kJ/mol
# GULP energy per Si atom -5586.042944 kJ/mol
# Density = 1.757720 g / cm^3
# Si number density = 17.617295 Si / 1000 Ang^3
#
#
#
# Elastic Constant Matrix: (Units=GPa)
#
#
# Indices 1 2 3 4 5 6 
#
# 1 132.9680 84.7528 58.6072 -0.1345 2.3154 0.0413
# 2 84.7528 123.8814 61.3270 0.0086 11.8054 -0.0375
# 3 58.6072 61.3270 130.9806 0.1216 18.6667 0.0224
# 4 -0.1345 0.0086 0.1216 26.0872 0.0079 4.0393
# 5 2.3154 11.8054 18.6667 0.0079 16.3227 -0.0422
# 6 0.0413 -0.0375 0.0224 4.0393 -0.0422 34.5058
#
#
#
# Elastic Compliance Matrix: (Units=1/GPa)
#
#
# Indices 1 2 3 4 5 6 
#
# 1 0.014783 -0.009179 -0.003541 0.000097 0.008591 -0.000026
# 2 -0.009179 0.016284 -0.002418 -0.000043 -0.007709 0.000026
# 3 -0.003541 -0.002418 0.011984 -0.000068 -0.011453 -0.000012
# 4 0.000097 -0.000043 -0.000068 0.039041 0.000064 -0.004570
# 5 0.008591 -0.007709 -0.011453 0.000064 0.078719 0.000078
# 6 -0.000026 0.000026 -0.000012 -0.004570 0.000078 0.029516
#
#
# Mechanical properties :
#
#
# Convention : Reuss Voigt Hill
#
# Bulk Modulus (GPa) = 78.29007 88.57824 83.43416
# Shear Modulus (GPa) = 22.23580 27.59269 24.91424
#
# Velocity S-wave (km/s) = 3.55654 3.96185 3.76465
# Velocity P-wave (km/s) = 7.83589 8.44492 8.14610
#
# Compressibility (1/GPa) = 0.01277301
#
# Stress axis : x y z
#
# Youngs Moduli (GPa) = 67.64676 61.40966 83.44532
#
# Poissons Ratio (x) = 0.56369 0.29549
# Poissons Ratio (y) = 0.62094 0.20181
# Poissons Ratio (z) = 0.23955 0.14852
#
# Static dielectric constant tensor:
#      x y z
#    x 2.008500 0.000180 0.814490 
#    y 0.000180 1.594000 0.000350 
#    z 0.814490 0.000350 3.149490 
# 
# From -- ./inp_files/195958.got.cif
#   From: 2010.05.17/outbox.cif.g08.bks.cpg/sg12_98_cif.got.tgz:195958.got - 2010.06.03 13:09:07.
