data_PCOD9208935
_publ_section_title
;
Structure prediction by ZEFSAII (Michael W. Deem and Ramdas Pophale) SiO2 
 PCOD9208935
Probable space group: C 2/M
;
_chemical_formula_sum "Si O2"
_cell_formula_units_Z 64
_cell_length_a 16.621315
_cell_length_b 9.002130
_cell_length_c 29.244663
_cell_angle_alpha 90.000000
_cell_angle_beta 139.126302
_cell_angle_gamma 90.000000
_cell_volume 2863.495036
_symmetry_space_group_name_H-M "C 2/M"
_symmetry_group_IT_number 12
_symmetry_cell_setting 'monoclinic'
loop_
_space_group_symop_operation_xyz
x,y,z
-x,y,-z
-x,-y,-z
x,-y,z
1/2+x,1/2+y,z
1/2-x,1/2+y,-z
1/2-x,1/2-y,-z
1/2+x,1/2-y,z
loop_
_atom_site_type_symbol
_atom_site_label
_atom_site_fract_x
_atom_site_fract_y
_atom_site_fract_z
Si Si1 0.624118 0.671431 0.958797
Si Si2 0.878485 0.675262 0.849457
Si Si3 0.723046 0.175864 0.537089
Si Si4 0.707758 0.326612 0.094865
Si Si5 0.204405 0.676490 0.339577
Si Si6 0.541842 0.325709 0.785894
Si Si7 0.893210 0.171348 0.293841
Si Si8 0.443198 0.171698 0.402773
O O1 0.629690 0.500000 0.948245
O O2 0.501363 0.744028 0.886431
O O3 0.750000 0.750000 0.000000
O O4 0.623631 0.681658 0.013917
O O5 0.900367 0.500000 0.860701
O O6 0.846372 0.735880 0.886139
O O7 0.753608 0.699597 0.767508
O O8 0.750000 0.250000 0.500000
O O9 0.792948 0.256946 0.608031
O O10 0.576390 0.190853 0.482586
O O11 0.752538 0.000000 0.549066
O O12 0.720673 0.500000 0.113208
O O13 0.842465 0.258614 0.142312
O O14 0.191790 0.500000 0.334411
O O15 0.334900 0.725343 0.374756
O O16 0.089626 0.749618 0.263922
O O17 0.540690 0.500000 0.797242
O O18 0.568919 0.314717 0.742716
O O19 0.957514 0.283977 0.355719
O O20 0.916920 0.000000 0.317769
O O21 0.406339 0.000000 0.392215
#
# Coordination Sequence:
#
# PCOD9208935 Si02
#       8
#     8   8   8   8   8   8   8   8
#     4  11  24  39  57  83 116 154 194 242 297 352
#     4  10  21  38  61  87 116 153 196 241 290 346
#     4  11  24  42  64  90 120 154 197 245 292 346
#     4  10  21  38  60  87 118 151 193 242 291 346
#     4  12  25  40  61  88 120 158 196 239 293 347
#     4  10  21  39  63  89 118 153 194 240 290 346
#     4   9  20  38  60  87 117 150 190 237 287 341
#     4  11  24  40  60  87 119 156 195 238 289 345
#
# _framework density 22.350308999999999
#
# number of rings (size 3 to 8) (size 9 to 14) (size 15 to 20)
#    0.000    1.500    0.000    5.625    0.000   13.000 
#    0.000    1.250    0.000    0.000    0.000    0.000 
#    0.000    0.000    0.000    0.000    0.000    0.000 
#
# Total GULP energy -179163.128302 kJ/mol
# GULP energy per Si atom -5598.847759 kJ/mol
# Density = 2.229944 g / cm^3
# Si number density = 22.350309 Si / 1000 Ang^3
#
#
#
# Elastic Constant Matrix: (Units=GPa)
#
#
# Indices 1 2 3 4 5 6 
#
# 1 65.4694 10.1006 9.2540 0.0000 15.9366 0.0000
# 2 10.1006 106.0815 48.7497 0.0000 20.7433 0.0000
# 3 9.2540 48.7497 88.6191 0.0000 19.7223 0.0000
# 4 0.0000 0.0000 0.0000 31.9011 0.0000 3.2483
# 5 15.9366 20.7433 19.7223 0.0000 43.4820 0.0000
# 6 0.0000 0.0000 0.0000 3.2483 0.0000 32.2511
#
#
#
# Elastic Compliance Matrix: (Units=1/GPa)
#
#
# Indices 1 2 3 4 5 6 
#
# 1 0.016793 -0.000328 -0.000265 0.000000 -0.005878 0.000000
# 2 -0.000328 0.013034 -0.006428 0.000000 -0.003182 0.000000
# 3 -0.000265 -0.006428 0.015732 0.000000 -0.003972 0.000000
# 4 0.000000 0.000000 0.000000 0.031672 0.000000 -0.003190
# 5 -0.005878 -0.003182 -0.003972 0.000000 0.028472 0.000000
# 6 0.000000 0.000000 0.000000 -0.003190 0.000000 0.031328
#
#
# Mechanical properties :
#
#
# Convention : Reuss Voigt Hill
#
# Bulk Modulus (GPa) = 31.72773 44.04208 37.88491
# Shear Modulus (GPa) = 30.94483 34.33121 32.63802
#
# Velocity S-wave (km/s) = 3.72497 3.92350 3.82552
# Velocity P-wave (km/s) = 5.72076 6.34612 6.04154
#
# Compressibility (1/GPa) = 0.03151817
#
# Stress axis : x y z
#
# Youngs Moduli (GPa) = 59.54778 76.72235 63.56574
#
# Poissons Ratio (x) = 0.02514 0.01685
# Poissons Ratio (y) = 0.01951 0.40857
# Poissons Ratio (z) = 0.01579 0.49314
#
# Static dielectric constant tensor:
#      x y z
#    x 1.880450 0.000000 -0.012900 
#    y 0.000000 1.740980 0.000000 
#    z -0.012900 0.000000 1.834690 
# 
# From -- ./inp_files/378535.got.cif
#   From: 2010.05.17/outbox.cif.g08.bks.cpg/sg12_190_cif.got.tgz:378535.got - 2010.06.03 13:09:07.
