data_PCOD9208866
_publ_section_title
;
Structure prediction by ZEFSAII (Michael W. Deem and Ramdas Pophale) SiO2 
 PCOD9208866
Probable space group: C 2/M
;
_chemical_formula_sum "Si O2"
_cell_formula_units_Z 40
_cell_length_a 17.684351
_cell_length_b 13.985941
_cell_length_c 12.177733
_cell_angle_alpha 90.000000
_cell_angle_beta 139.276732
_cell_angle_gamma 90.000000
_cell_volume 1965.012720
_symmetry_space_group_name_H-M "C 2/M"
_symmetry_group_IT_number 12
_symmetry_cell_setting 'monoclinic'
loop_
_space_group_symop_operation_xyz
x,y,z
-x,y,-z
-x,-y,-z
x,-y,z
1/2+x,1/2+y,z
1/2-x,1/2+y,-z
1/2-x,1/2-y,-z
1/2+x,1/2-y,z
loop_
_atom_site_type_symbol
_atom_site_label
_atom_site_fract_x
_atom_site_fract_y
_atom_site_fract_z
Si Si1 0.417272 0.387424 0.513653
Si Si2 0.612892 0.753831 0.329235
Si Si3 0.577570 0.108363 0.871676
Si Si4 0.197455 0.276970 0.195420
Si Si5 0.632164 0.891455 0.681254
O O1 0.500000 0.365181 0.500000
O O2 0.427659 0.500000 0.547825
O O3 0.443311 0.324325 0.651032
O O4 0.286550 0.359131 0.335315
O O5 0.750000 0.750000 0.500000
O O6 0.552923 0.854286 0.290892
O O7 0.608532 0.747189 0.193066
O O8 0.637003 0.110624 0.818588
O O9 0.579573 0.000000 0.916329
O O10 0.636976 0.181130 0.021169
O O11 0.279451 0.186343 0.264995
O O12 0.500000 0.869808 0.500000
O O13 0.657222 0.000000 0.671596
#
# Coordination Sequence:
#
# PCOD9208866 Si02
#       5
#     8   8   8   8   8
#     4  10  21  38  60  85 116 156 199 241 289 351
#     4  10  22  37  57  84 114 152 194 242 297 350
#     4  11  23  39  61  88 119 157 201 248 299 354
#     4  11  21  37  60  88 121 153 195 251 299 346
#     4  10  21  38  62  89 120 162 203 241 291 353
#
# _framework density 20.356100999999999
#
# number of rings (size 3 to 8) (size 9 to 14) (size 15 to 20)
#    0.000    1.600    0.000    6.000    0.000    5.600 
#    0.000    3.000    0.000    2.400    0.000    0.000 
#    0.000    0.000    0.000    0.000    0.000    0.000 
#
# Total GULP energy -111636.530859 kJ/mol
# GULP energy per Si atom -5581.826543 kJ/mol
# Density = 2.030977 g / cm^3
# Si number density = 20.356101 Si / 1000 Ang^3
#
#
#
# Elastic Constant Matrix: (Units=GPa)
#
#
# Indices 1 2 3 4 5 6 
#
# 1 112.3056 60.6559 9.6321 0.0000 -18.0986 0.0000
# 2 60.6559 137.5782 22.1011 0.0000 -7.5855 0.0000
# 3 9.6321 22.1011 62.6242 0.0000 -16.5161 0.0000
# 4 0.0000 0.0000 0.0000 35.0252 0.0000 1.1322
# 5 -18.0986 -7.5855 -16.5161 0.0000 30.0928 0.0000
# 6 0.0000 0.0000 0.0000 1.1322 0.0000 0.7278
#
#
#
# Elastic Compliance Matrix: (Units=1/GPa)
#
#
# Indices 1 2 3 4 5 6 
#
# 1 0.012976 -0.005624 0.001956 0.000000 0.007460 0.000000
# 2 -0.005624 0.010150 -0.003431 0.000000 -0.002707 0.000000
# 3 0.001956 -0.003431 0.019831 0.000000 0.011196 0.000000
# 4 0.000000 0.000000 0.000000 0.030062 0.000000 -0.046763
# 5 0.007460 -0.002707 0.011196 0.000000 0.043180 0.000000
# 6 0.000000 0.000000 0.000000 -0.046763 0.000000 1.446672
#
#
# Mechanical properties :
#
#
# Convention : Reuss Voigt Hill
#
# Bulk Modulus (GPa) = 34.77024 55.25400 45.01212
# Shear Modulus (GPa) = 3.15128 27.84378 15.49753
#
# Velocity S-wave (km/s) = 1.24557 3.70244 2.76220
# Velocity P-wave (km/s) = 4.38026 6.74389 5.68624
#
# Compressibility (1/GPa) = 0.02876023
#
# Stress axis : x y z
#
# Youngs Moduli (GPa) = 77.06399 98.52195 50.42632
#
# Poissons Ratio (x) = 0.55408 -0.09866
# Poissons Ratio (y) = 0.43340 0.17301
# Poissons Ratio (z) = -0.15078 0.33803
#
# Static dielectric constant tensor:
#      x y z
#    x 1.803410 0.000000 -0.060330 
#    y 0.000000 1.705460 0.000000 
#    z -0.060330 0.000000 1.802920 
# 
# From -- ./inp_files/143343.got.cif
#   From: 2010.05.17/outbox.cif.g08.bks.cpg/sg12_72_cif.got.tgz:143343.got - 2010.06.03 13:09:07.
