data_PCOD9208716
_publ_section_title
;
Structure prediction by ZEFSAII (Michael W. Deem and Ramdas Pophale) SiO2 
 PCOD9208716
Probable space group: C 2/M
;
_chemical_formula_sum "Si O2"
_cell_formula_units_Z 48
_cell_length_a 10.433600
_cell_length_b 8.808769
_cell_length_c 27.140545
_cell_angle_alpha 90.000000
_cell_angle_beta 90.019998
_cell_angle_gamma 90.000000
_cell_volume 2494.410592
_symmetry_space_group_name_H-M "C 2/M"
_symmetry_group_IT_number 12
_symmetry_cell_setting 'monoclinic'
loop_
_space_group_symop_operation_xyz
x,y,z
-x,y,-z
-x,-y,-z
x,-y,z
1/2+x,1/2+y,z
1/2-x,1/2+y,-z
1/2-x,1/2-y,-z
1/2+x,1/2-y,z
loop_
_atom_site_type_symbol
_atom_site_label
_atom_site_fract_x
_atom_site_fract_y
_atom_site_fract_z
Si Si1 0.371525 0.183064 0.527835
Si Si2 0.396612 0.681792 0.862008
Si Si3 0.896389 0.681885 0.301854
Si Si4 0.657027 0.183004 0.358083
Si Si5 0.369342 0.181398 0.970581
Si Si6 0.656902 0.318188 0.805297
O O1 0.500000 0.233463 0.500000
O O2 0.250000 0.250000 0.500000
O O3 0.370176 0.225799 0.585336
O O4 0.366525 0.000000 0.525513
O O5 0.386353 0.500000 0.864158
O O6 0.377898 0.750352 0.916069
O O7 0.536575 0.720531 0.840434
O O8 0.286255 0.746136 0.826572
O O9 0.891190 0.500000 0.297279
O O10 0.784070 0.738119 0.337843
O O11 0.873753 0.756949 0.248934
O O12 0.034538 0.723168 0.324540
O O13 0.673020 0.000000 0.355801
O O14 0.355227 0.000000 0.967358
O O15 0.500000 0.215687 0.000000
O O16 0.250000 0.250000 0.000000
O O17 0.670248 0.500000 0.803887
#
# Coordination Sequence:
#
# PCOD9208716 Si02
#       6
#     8   8   8   8   8   8
#     4  10  21  38  59  85 117 152 193 240 290 346
#     4  11  24  41  63  91 121 156 199 244 292 349
#     4  11  23  39  61  87 116 153 196 241 290 347
#     4  10  22  39  59  85 118 154 192 239 293 347
#     4  11  24  41  63  91 123 160 200 244 295 349
#     4  11  24  41  62  89 121 156 195 242 295 350
#
# _framework density 19.243023000000001
#
# number of rings (size 3 to 8) (size 9 to 14) (size 15 to 20)
#    0.000    1.333    0.000    5.000    0.000   13.000 
#    0.000    0.000    0.000    0.000    0.000    0.000 
#    0.000    0.000    0.000    0.000    0.000    0.000 
#
# Total GULP energy -134280.783247 kJ/mol
# GULP energy per Si atom -5595.032635 kJ/mol
# Density = 1.919922 g / cm^3
# Si number density = 19.243023 Si / 1000 Ang^3
#
#
#
# Elastic Constant Matrix: (Units=GPa)
#
#
# Indices 1 2 3 4 5 6 
#
# 1 69.3971 21.2136 -23.6084 0.0000 -2.8390 0.0000
# 2 21.2136 24.9992 6.6951 0.0000 -0.5062 0.0000
# 3 -23.6084 6.6951 60.9011 0.0000 -1.8773 0.0000
# 4 0.0000 0.0000 0.0000 34.1437 0.0000 1.0304
# 5 -2.8390 -0.5062 -1.8773 0.0000 41.2371 0.0000
# 6 0.0000 0.0000 0.0000 1.0304 0.0000 35.9493
#
#
#
# Elastic Compliance Matrix: (Units=1/GPa)
#
#
# Indices 1 2 3 4 5 6 
#
# 1 0.027306 -0.026768 0.013595 0.000000 0.002170 0.000000
# 2 -0.026768 0.067459 -0.017849 0.000000 -0.001827 0.000000
# 3 0.013595 -0.017849 0.023708 0.000000 0.001796 0.000000
# 4 0.000000 0.000000 0.000000 0.029313 0.000000 -0.000840
# 5 0.002170 -0.001827 0.001796 0.000000 0.024459 0.000000
# 6 0.000000 0.000000 0.000000 -0.000840 0.000000 0.027841
#
#
# Mechanical properties :
#
#
# Convention : Reuss Voigt Hill
#
# Bulk Modulus (GPa) = 17.72161 18.21091 17.96626
# Shear Modulus (GPa) = 17.79742 32.33250 25.06496
#
# Velocity S-wave (km/s) = 3.04448 4.10350 3.61300
# Velocity P-wave (km/s) = 4.64627 5.65117 5.17318
#
# Compressibility (1/GPa) = 0.05642827
#
# Stress axis : x y z
#
# Youngs Moduli (GPa) = 36.62196 14.82382 42.18047
#
# Poissons Ratio (x) = 0.39680 -0.57343
# Poissons Ratio (y) = 0.98030 0.75288
# Poissons Ratio (z) = -0.49787 0.26459
#
# Static dielectric constant tensor:
#      x y z
#    x 1.630420 0.000000 -0.005040 
#    y 0.000000 1.646510 0.000000 
#    z -0.005040 0.000000 1.635900 
# 
# From -- ./inp_files/334639.got.cif
#   From: 2010.05.17/outbox.cif.g08.bks.cpg/sg12_168_cif.got.tgz:334639.got - 2010.06.03 13:09:07.
