data_PCOD9208700
_publ_section_title
;
Structure prediction by ZEFSAII (Michael W. Deem and Ramdas Pophale) SiO2 
 PCOD9208700
Probable space group: C 2/M
;
_chemical_formula_sum "Si O2"
_cell_formula_units_Z 44
_cell_length_a 9.099691
_cell_length_b 25.981049
_cell_length_c 11.973497
_cell_angle_alpha 90.000000
_cell_angle_beta 136.352178
_cell_angle_gamma 90.000000
_cell_volume 1953.863527
_symmetry_space_group_name_H-M "C 2/M"
_symmetry_group_IT_number 12
_symmetry_cell_setting 'monoclinic'
loop_
_space_group_symop_operation_xyz
x,y,z
-x,y,-z
-x,-y,-z
x,-y,z
1/2+x,1/2+y,z
1/2-x,1/2+y,-z
1/2-x,1/2-y,-z
1/2+x,1/2-y,z
loop_
_atom_site_type_symbol
_atom_site_label
_atom_site_fract_x
_atom_site_fract_y
_atom_site_fract_z
Si Si1 0.720228 0.372284 0.134160
Si Si2 0.750116 0.942581 0.161658
Si Si3 0.000000 0.775772 0.000000
Si Si4 0.689224 0.107163 0.349298
Si Si5 0.348115 0.286863 0.323044
Si Si6 0.090380 0.861577 0.306877
O O1 0.725951 0.357871 0.269010
O O2 0.936107 0.397017 0.216160
O O3 0.500000 0.403304 0.000000
O O4 0.668100 0.317930 0.042607
O O5 0.775514 0.933989 0.308925
O O6 0.885827 0.898354 0.177448
O O7 0.814838 0.000000 0.164668
O O8 0.500000 0.935971 0.000000
O O9 0.852709 0.742755 0.837934
O O10 0.756369 0.161935 0.332215
O O11 0.780277 0.109945 0.523510
O O12 0.500000 0.260394 0.500000
O O13 0.502113 0.308087 0.309152
#
# Coordination Sequence:
#
# PCOD9208700 Si02
#       6
#     8   8   4   8   8   8
#     4  10  23  36  54  83 116 156 199 231 297 351
#     4  10  21  38  65  93 115 143 189 237 283 352
#     4  10  24  36  62  82 116 164 198 256 296 342
#     4  10  21  38  59  84 119 156 190 241 293 346
#     4   9  21  37  57  86 116 154 207 252 292 343
#     4  10  21  38  59  84 119 156 190 241 293 346
#
# _framework density 22.519483999999999
#
# number of rings (size 3 to 8) (size 9 to 14) (size 15 to 20)
#    0.545    1.636    0.000    3.273    7.636    5.818 
#    0.000    4.545    0.000    5.455    0.000    0.000 
#    0.000    0.000    0.000    0.000    0.000    0.000 
#
# Total GULP energy -122755.850018 kJ/mol
# GULP energy per Si atom -5579.811364 kJ/mol
# Density = 2.246823 g / cm^3
# Si number density = 22.519484 Si / 1000 Ang^3
#
#
#
# Elastic Constant Matrix: (Units=GPa)
#
#
# Indices 1 2 3 4 5 6 
#
# 1 87.2237 -3.5379 18.0300 0.0000 -3.5374 0.0000
# 2 -3.5379 56.6943 21.4821 0.0000 2.3514 0.0000
# 3 18.0300 21.4821 123.3839 0.0000 3.4159 0.0000
# 4 0.0000 0.0000 0.0000 16.5384 0.0000 1.3233
# 5 -3.5374 2.3514 3.4159 0.0000 41.5496 0.0000
# 6 0.0000 0.0000 0.0000 1.3233 0.0000 3.0572
#
#
#
# Elastic Compliance Matrix: (Units=1/GPa)
#
#
# Indices 1 2 3 4 5 6 
#
# 1 0.011991 0.001475 -0.002040 0.000000 0.001105 0.000000
# 2 0.001475 0.019092 -0.003521 0.000000 -0.000665 0.000000
# 3 -0.002040 -0.003521 0.009036 0.000000 -0.000717 0.000000
# 4 0.000000 0.000000 0.000000 0.062634 0.000000 -0.027110
# 5 0.001105 -0.000665 -0.000717 0.000000 0.024258 0.000000
# 6 0.000000 0.000000 0.000000 -0.027110 0.000000 0.338826
#
#
# Mechanical properties :
#
#
# Convention : Reuss Voigt Hill
#
# Bulk Modulus (GPa) = 31.30102 37.69448 34.49775
# Shear Modulus (GPa) = 10.31654 27.65092 18.98373
#
# Velocity S-wave (km/s) = 2.14269 3.50789 2.90658
# Velocity P-wave (km/s) = 4.47785 5.76039 5.15913
#
# Compressibility (1/GPa) = 0.03194784
#
# Stress axis : x y z
#
# Youngs Moduli (GPa) = 83.39553 52.37695 110.67106
#
# Poissons Ratio (x) = -0.07727 0.22574
# Poissons Ratio (y) = -0.12303 0.38971
# Poissons Ratio (z) = 0.17010 0.18443
#
# Static dielectric constant tensor:
#      x y z
#    x 1.844270 0.000000 -0.024400 
#    y 0.000000 1.813560 0.000000 
#    z -0.024400 0.000000 1.945750 
# 
# From -- ./inp_files/125422.got.cif
#   From: 2010.05.17/outbox.cif.g08.bks.cpg/sg12_63_cif.got.tgz:125422.got - 2010.06.03 13:09:07.
