data_PCOD9208457
_publ_section_title
;
Structure prediction by ZEFSAII (Michael W. Deem and Ramdas Pophale) SiO2 
 PCOD9208457
Probable space group: C 2/M
;
_chemical_formula_sum "Si O2"
_cell_formula_units_Z 32
_cell_length_a 16.900940
_cell_length_b 16.833728
_cell_length_c 7.271163
_cell_angle_alpha 90.000000
_cell_angle_beta 133.136008
_cell_angle_gamma 90.000000
_cell_volume 1509.589505
_symmetry_space_group_name_H-M "C 2/M"
_symmetry_group_IT_number 12
_symmetry_cell_setting 'monoclinic'
loop_
_space_group_symop_operation_xyz
x,y,z
-x,y,-z
-x,-y,-z
x,-y,z
1/2+x,1/2+y,z
1/2-x,1/2+y,-z
1/2-x,1/2-y,-z
1/2+x,1/2-y,z
loop_
_atom_site_type_symbol
_atom_site_label
_atom_site_fract_x
_atom_site_fract_y
_atom_site_fract_z
Si Si1 0.158943 0.869674 0.351149
Si Si2 0.350290 0.000000 0.134874
Si Si3 0.500000 0.863662 0.500000
Si Si4 0.098099 0.312414 0.286435
Si Si5 0.353869 0.500000 0.964280
Si Si6 0.631597 0.500000 0.598016
O O1 0.118344 0.780066 0.274304
O O2 0.290173 0.860409 0.566523
O O3 0.125186 0.922157 0.121718
O O4 0.114372 0.920387 0.452767
O O5 0.422139 0.077926 0.261402
O O6 0.274414 0.000000 0.195560
O O7 0.263257 0.000000 0.836222
O O8 0.565611 0.816689 0.449870
O O9 0.000000 0.340715 0.000000
O O10 0.407136 0.500000 0.250887
#
# Coordination Sequence:
#
# PCOD9208457 Si02
#       6
#     8   4   4   8   4   4
#     4  10  21  38  57  84 114 148 193 228 274 340
#     4   9  18  33  58  85 111 140 180 234 290 332
#     4  11  20  36  54  89 120 140 180 235 290 344
#     4  11  23  36  56  84 119 152 182 229 283 337
#     4   9  18  38  59  83 110 146 191 235 278 327
#     4   9  18  35  59  79 103 149 188 230 276 321
#
# _framework density 21.197814000000001
#
# number of rings (size 3 to 8) (size 9 to 14) (size 15 to 20)
#    0.750    1.250    2.500    1.500    0.000    2.000 
#    0.000   12.500    0.000    4.500    0.000    0.000 
#    0.000    0.000    0.000    0.000    0.000    0.000 
#
# Total GULP energy -89303.404853 kJ/mol
# GULP energy per Si atom -5581.462803 kJ/mol
# Density = 2.114957 g / cm^3
# Si number density = 21.197814 Si / 1000 Ang^3
#
#
#
# Elastic Constant Matrix: (Units=GPa)
#
#
# Indices 1 2 3 4 5 6 
#
# 1 120.2856 52.2680 22.6255 0.0000 -19.4111 0.0000
# 2 52.2680 96.8770 24.2629 0.0000 -18.4418 0.0000
# 3 22.6255 24.2629 110.7679 0.0000 -6.1394 0.0000
# 4 0.0000 0.0000 0.0000 11.9229 0.0000 -3.0974
# 5 -19.4111 -18.4418 -6.1394 0.0000 38.1717 0.0000
# 6 0.0000 0.0000 0.0000 -3.0974 0.0000 25.2144
#
#
#
# Elastic Compliance Matrix: (Units=1/GPa)
#
#
# Indices 1 2 3 4 5 6 
#
# 1 0.011273 -0.005258 -0.000983 0.000000 0.003034 0.000000
# 2 -0.005258 0.014381 -0.001856 0.000000 0.003975 0.000000
# 3 -0.000983 -0.001856 0.009644 0.000000 0.000155 0.000000
# 4 0.000000 0.000000 0.000000 0.086637 0.000000 0.010643
# 5 0.003034 0.003975 0.000155 0.000000 0.029686 0.000000
# 6 0.000000 0.000000 0.000000 0.010643 0.000000 0.040967
#
#
# Mechanical properties :
#
#
# Convention : Reuss Voigt Hill
#
# Bulk Modulus (GPa) = 52.34457 58.47149 55.40803
# Shear Modulus (GPa) = 23.23970 30.31341 26.77655
#
# Velocity S-wave (km/s) = 3.31467 3.78567 3.55797
# Velocity P-wave (km/s) = 6.27665 6.83754 6.56309
#
# Compressibility (1/GPa) = 0.01910418
#
# Stress axis : x y z
#
# Youngs Moduli (GPa) = 88.70796 69.53649 103.69527
#
# Poissons Ratio (x) = 0.36565 0.10189
# Poissons Ratio (y) = 0.46646 0.19242
# Poissons Ratio (z) = 0.08717 0.12903
#
# Static dielectric constant tensor:
#      x y z
#    x 1.800500 0.000000 0.058700 
#    y 0.000000 1.698760 0.000000 
#    z 0.058700 0.000000 1.800290 
# 
# From -- ./inp_files/74838.got.cif
#   From: 2010.05.17/outbox.cif.g08.bks.cpg/sg12_38_cif.got.tgz:74838.got - 2010.06.03 13:09:07.
