data_PCOD9208088
_publ_section_title
;
Structure prediction by ZEFSAII (Michael W. Deem and Ramdas Pophale) SiO2 
 PCOD9208088
Probable space group: C 2/M
;
_chemical_formula_sum "Si O2"
_cell_formula_units_Z 44
_cell_length_a 9.543794
_cell_length_b 9.543809
_cell_length_c 27.280680
_cell_angle_alpha 90.000000
_cell_angle_beta 55.804357
_cell_angle_gamma 90.000000
_cell_volume 2055.267005
_symmetry_space_group_name_H-M "C 2/M"
_symmetry_group_IT_number 12
_symmetry_cell_setting 'monoclinic'
loop_
_space_group_symop_operation_xyz
x,y,z
-x,y,-z
-x,-y,-z
x,-y,z
1/2+x,1/2+y,z
1/2-x,1/2+y,-z
1/2-x,1/2-y,-z
1/2+x,1/2-y,z
loop_
_atom_site_type_symbol
_atom_site_label
_atom_site_fract_x
_atom_site_fract_y
_atom_site_fract_z
Si Si1 0.416280 0.158548 0.963054
Si Si2 0.806766 0.000000 0.499598
Si Si3 0.486222 0.231930 0.424454
Si Si4 0.059795 0.664855 0.765571
Si Si5 0.729299 0.834733 0.834564
Si Si6 0.131889 0.836280 0.653494
O O1 0.560118 0.207498 0.896963
O O2 0.370315 0.000000 0.957309
O O3 0.500000 0.154934 0.000000
O O4 0.250000 0.250000 0.000000
O O5 0.659382 0.120620 0.536183
O O6 0.946776 0.122784 0.458978
O O7 0.671483 0.174975 0.401500
O O8 0.477285 0.268549 0.368349
O O9 0.037919 0.500000 0.759190
O O10 0.192407 0.677464 0.783896
O O11 0.112007 0.749914 0.707139
O O12 0.885000 0.736151 0.817317
O O13 0.762467 0.000000 0.839077
O O14 0.088614 0.000000 0.668440
#
# Coordination Sequence:
#
# PCOD9208088 Si02
#       6
#     8   4   8   8   8   8
#     4  10  21  37  61  93 128 167 209 255 310 368
#     4  10  24  44  66 100 124 164 206 248 308 380
#     4  11  25  43  70  93 127 165 202 254 313 371
#     4  11  25  40  64  91 120 163 214 257 309 369
#     4  10  22  42  62  90 129 166 207 260 311 365
#     4  12  26  45  64  94 127 161 206 260 312 367
#
# _framework density 21.408411999999998
#
# number of rings (size 3 to 8) (size 9 to 14) (size 15 to 20)
#    0.000    1.273    1.818    2.727    2.545    9.818 
#    0.000    0.000    0.000    0.000    0.000    0.000 
#    0.000    0.000    0.000    0.000    0.000    0.000 
#
# Total GULP energy -122623.628269 kJ/mol
# GULP energy per Si atom -5573.801285 kJ/mol
# Density = 2.135969 g / cm^3
# Si number density = 21.408412 Si / 1000 Ang^3
#
#
#
# Elastic Constant Matrix: (Units=GPa)
#
#
# Indices 1 2 3 4 5 6 
#
# 1 54.0885 9.7633 -3.9220 0.0000 -4.8214 0.0000
# 2 9.7633 120.7234 10.4232 0.0000 -3.6546 0.0000
# 3 -3.9220 10.4232 66.8882 0.0000 0.2005 0.0000
# 4 0.0000 0.0000 0.0000 35.5592 0.0000 -17.0546
# 5 -4.8214 -3.6546 0.2005 0.0000 39.4126 0.0000
# 6 0.0000 0.0000 0.0000 -17.0546 0.0000 -3.4209
#
#
#
# Elastic Compliance Matrix: (Units=1/GPa)
#
#
# Indices 1 2 3 4 5 6 
#
# 1 0.019069 -0.001594 0.001360 0.000000 0.002178 0.000000
# 2 -0.001594 0.008554 -0.001428 0.000000 0.000605 0.000000
# 3 0.001360 -0.001428 0.015253 0.000000 -0.000044 0.000000
# 4 0.000000 0.000000 0.000000 0.008293 0.000000 -0.041344
# 5 0.002178 0.000605 -0.000044 0.000000 0.025695 0.000000
# 6 0.000000 0.000000 0.000000 -0.041344 0.000000 -0.086204
#
#
# Mechanical properties :
#
#
# Convention : Reuss Voigt Hill
#
# Bulk Modulus (GPa) = 25.28352 30.46987 27.87670
# Shear Modulus (GPa) = 697.56115 29.33922 363.45019
#
# Velocity S-wave (km/s) = 18.07049 3.70598 13.04371
# Velocity P-wave (km/s) = 21.14771 5.70753 15.48873
#
# Compressibility (1/GPa) = 0.03955145
#
# Stress axis : x y z
#
# Youngs Moduli (GPa) = 52.44215 116.90544 65.56191
#
# Poissons Ratio (x) = 0.18630 -0.08916
# Poissons Ratio (y) = 0.08357 0.09364
# Poissons Ratio (z) = -0.07132 0.16697
#
# Static dielectric constant tensor:
#      x y z
#    x 1.784900 0.000000 0.020350 
#    y 0.000000 1.726630 0.000000 
#    z 0.020350 0.000000 1.805900 
# 
# From -- ./inp_files/303621.got.cif
#   From: 2010.05.17/outbox.cif.g08.bks.cpg/sg12_152_cif.got.tgz:303621.got - 2010.06.03 13:09:07.
