data_PCOD9208010
_publ_section_title
;
Structure prediction by ZEFSAII (Michael W. Deem and Ramdas Pophale) SiO2 
 PCOD9208010
Probable space group: C 2/M
;
_chemical_formula_sum "Si O2"
_cell_formula_units_Z 48
_cell_length_a 24.809802
_cell_length_b 11.254741
_cell_length_c 9.634506
_cell_angle_alpha 90.000000
_cell_angle_beta 107.908083
_cell_angle_gamma 90.000000
_cell_volume 2559.884323
_symmetry_space_group_name_H-M "C 2/M"
_symmetry_group_IT_number 12
_symmetry_cell_setting 'monoclinic'
loop_
_space_group_symop_operation_xyz
x,y,z
-x,y,-z
-x,-y,-z
x,-y,z
1/2+x,1/2+y,z
1/2-x,1/2+y,-z
1/2-x,1/2-y,-z
1/2+x,1/2-y,z
loop_
_atom_site_type_symbol
_atom_site_label
_atom_site_fract_x
_atom_site_fract_y
_atom_site_fract_z
Si Si1 0.732862 0.857903 0.765310
Si Si2 0.066918 0.253828 0.571710
Si Si3 0.640622 0.273965 0.155166
Si Si4 0.655982 0.137951 0.454064
Si Si5 0.059261 0.000000 0.131957
Si Si6 0.373538 0.141232 0.130677
Si Si7 0.940542 0.000000 0.534414
O O1 0.796099 0.814368 0.835356
O O2 0.705631 0.817418 0.596900
O O3 0.688043 0.828827 0.851024
O O4 0.734350 0.000000 0.758677
O O5 0.099914 0.348452 0.503772
O O6 0.083144 0.283580 0.741649
O O7 0.087552 0.123234 0.537348
O O8 0.000000 0.260273 0.500000
O O9 0.646726 0.214080 0.310006
O O10 0.597157 0.384072 0.126725
O O11 0.622083 0.180489 0.023993
O O12 0.666178 0.000000 0.427720
O O13 0.050473 0.000000 0.292655
O O14 0.000000 0.000000 0.000000
O O15 0.382405 0.000000 0.154234
O O16 0.000000 0.000000 0.500000
#
# Coordination Sequence:
#
# PCOD9208010 Si02
#       7
#     8   8   8   8   4   8   4
#     4   9  19  39  60  88 119 159 206 254 302 367
#     4  10  21  39  63  86 116 158 205 256 302 363
#     4  12  22  39  63  86 125 165 200 251 319 365
#     4  10  21  37  61  88 121 158 202 257 304 364
#     4  12  28  42  62  96 130 162 207 263 315 364
#     4  10  23  39  61  90 125 158 206 255 301 366
#     4  10  22  42  66  86 122 158 216 255 302 364
#
# _framework density 18.750847
#
# number of rings (size 3 to 8) (size 9 to 14) (size 15 to 20)
#    0.000    1.667    2.500    3.000    4.667    1.333 
#    0.000    0.000    7.333    3.000    0.000    0.000 
#    0.000    0.000    0.000    0.000    0.000    0.000 
#
# Total GULP energy -133901.080247 kJ/mol
# GULP energy per Si atom -5579.211677 kJ/mol
# Density = 1.870817 g / cm^3
# Si number density = 18.750847 Si / 1000 Ang^3
#
#
#
# Elastic Constant Matrix: (Units=GPa)
#
#
# Indices 1 2 3 4 5 6 
#
# 1 56.0378 16.9084 19.3705 0.0000 19.2755 0.0000
# 2 16.9084 77.3746 43.2204 0.0000 9.7953 0.0000
# 3 19.3705 43.2204 115.4361 0.0000 0.2223 0.0000
# 4 0.0000 0.0000 0.0000 33.8380 0.0000 -3.3176
# 5 19.2755 9.7953 0.2223 0.0000 28.0041 0.0000
# 6 0.0000 0.0000 0.0000 -3.3176 0.0000 14.2831
#
#
#
# Elastic Compliance Matrix: (Units=1/GPa)
#
#
# Indices 1 2 3 4 5 6 
#
# 1 0.025370 -0.001309 -0.003734 0.000000 -0.016975 0.000000
# 2 -0.001309 0.017361 -0.006271 0.000000 -0.005122 0.000000
# 3 -0.003734 -0.006271 0.011628 0.000000 0.004671 0.000000
# 4 0.000000 0.000000 0.000000 0.030241 0.000000 0.007024
# 5 -0.016975 -0.005122 0.004671 0.000000 0.049147 0.000000
# 6 0.000000 0.000000 0.000000 0.007024 0.000000 0.071644
#
#
# Mechanical properties :
#
#
# Convention : Reuss Voigt Hill
#
# Bulk Modulus (GPa) = 31.51478 45.31633 38.41555
# Shear Modulus (GPa) = 20.95579 26.51500 23.73539
#
# Velocity S-wave (km/s) = 3.34667 3.76449 3.56171
# Velocity P-wave (km/s) = 5.63713 6.56622 6.11933
#
# Compressibility (1/GPa) = 0.03173115
#
# Stress axis : x y z
#
# Youngs Moduli (GPa) = 39.41695 57.59925 85.99751
#
# Poissons Ratio (x) = 0.07540 0.32114
# Poissons Ratio (y) = 0.05160 0.53927
# Poissons Ratio (z) = 0.14719 0.36119
#
# Static dielectric constant tensor:
#      x y z
#    x 1.653280 0.000000 0.006880 
#    y 0.000000 1.658220 0.000000 
#    z 0.006880 0.000000 1.645820 
# 
# From -- ./inp_files/94927.got.cif
#   From: 2010.05.17/outbox.cif.g08.bks.cpg/sg12_48_cif.got.tgz:94927.got - 2010.06.03 13:09:07.
