data_PCOD9208602
_publ_section_title
;
Structure prediction by ZEFSAII (Michael W. Deem and Ramdas Pophale) SiO2 
 PCOD9208602
Probable space group: C 2/M
;
_chemical_formula_sum "Si O2"
_cell_formula_units_Z 42
_cell_length_a 13.867597
_cell_length_b 11.179654
_cell_length_c 16.474450
_cell_angle_alpha 90.000000
_cell_angle_beta 42.692316
_cell_angle_gamma 90.000000
_cell_volume 1731.846243
_symmetry_space_group_name_H-M "C 2/M"
_symmetry_group_IT_number 12
_symmetry_cell_setting 'monoclinic'
loop_
_space_group_symop_operation_xyz
x,y,z
-x,y,-z
-x,-y,-z
x,-y,z
1/2+x,1/2+y,z
1/2-x,1/2+y,-z
1/2-x,1/2-y,-z
1/2+x,1/2-y,z
loop_
_atom_site_type_symbol
_atom_site_label
_atom_site_fract_x
_atom_site_fract_y
_atom_site_fract_z
Si Si1 0.925371 0.864512 0.848967
Si Si2 0.928049 0.370786 0.392769
Si Si3 0.760263 0.369712 0.773342
Si Si4 0.787906 0.757859 0.357573
Si Si5 0.000000 0.000000 0.000000
Si Si6 0.398351 0.864976 0.983939
O O1 0.076660 0.847619 0.709839
O O2 0.923030 0.748454 0.909328
O O3 0.774546 0.863728 0.895533
O O4 0.935664 0.000000 0.884478
O O5 0.914539 0.500000 0.438479
O O6 0.845617 0.362643 0.359650
O O7 0.852240 0.286898 0.504559
O O8 0.092656 0.349035 0.273312
O O9 0.776282 0.500000 0.718666
O O10 0.740326 0.269376 0.719089
O O11 0.874827 0.896519 0.088949
O O12 0.423126 0.000000 0.932856
O O13 0.500000 0.859057 0.000000
#
# Coordination Sequence:
#
# PCOD9208602 Si02
#       6
#     8   8   8   8   2   8
#     4  10  21  38  58  90 123 162 219 275 327 392
#     4  10  22  41  67  93 129 171 224 275 337 404
#     4   9  19  41  65  93 131 165 215 274 330 392
#     4  11  22  38  64  99 126 169 222 279 336 395
#     4   8  20  40  66 100 130 162 224 270 334 406
#     4   9  20  41  61  83 124 176 216 263 334 404
#
# _framework density 24.251576
#
# number of rings (size 3 to 8) (size 9 to 14) (size 15 to 20)
#    0.571    1.714    0.000    2.286    0.000    4.190 
#    8.571    0.000    0.000   11.429    0.000    0.000 
#    0.000    0.000    0.000    0.000    0.000    0.000 
#
# Total GULP energy -116905.668966 kJ/mol
# GULP energy per Si atom -5566.936617 kJ/mol
# Density = 2.419638 g / cm^3
# Si number density = 24.251576 Si / 1000 Ang^3
#
#
#
# Elastic Constant Matrix: (Units=GPa)
#
#
# Indices 1 2 3 4 5 6 
#
# 1 133.3052 52.8653 28.0575 0.0000 -18.5831 0.0000
# 2 52.8653 107.2829 56.5998 0.0000 -17.7813 0.0000
# 3 28.0575 56.5998 98.0293 0.0000 -19.0777 0.0000
# 4 0.0000 0.0000 0.0000 29.0205 0.0000 -2.4716
# 5 -18.5831 -17.7813 -19.0777 0.0000 33.8803 0.0000
# 6 0.0000 0.0000 0.0000 -2.4716 0.0000 32.3720
#
#
#
# Elastic Compliance Matrix: (Units=1/GPa)
#
#
# Indices 1 2 3 4 5 6 
#
# 1 0.009615 -0.004436 0.000430 0.000000 0.003187 0.000000
# 2 -0.004436 0.015729 -0.007501 0.000000 0.001598 0.000000
# 3 0.000430 -0.007501 0.015373 0.000000 0.004956 0.000000
# 4 0.000000 0.000000 0.000000 0.034684 0.000000 0.002648
# 5 0.003187 0.001598 0.004956 0.000000 0.034893 0.000000
# 6 0.000000 0.000000 0.000000 0.002648 0.000000 0.031093
#
#
# Mechanical properties :
#
#
# Convention : Reuss Voigt Hill
#
# Bulk Modulus (GPa) = 56.48912 68.18472 62.33692
# Shear Modulus (GPa) = 29.35932 32.46088 30.91010
#
# Velocity S-wave (km/s) = 3.48316 3.66253 3.57397
# Velocity P-wave (km/s) = 6.28650 6.78691 6.54149
#
# Compressibility (1/GPa) = 0.01770252
#
# Stress axis : x y z
#
# Youngs Moduli (GPa) = 104.00669 63.57491 65.04759
#
# Poissons Ratio (x) = 0.28204 -0.02796
# Poissons Ratio (y) = 0.46141 0.48793
# Poissons Ratio (z) = -0.04470 0.47688
#
# Static dielectric constant tensor:
#      x y z
#    x 1.844350 0.000000 -0.039360 
#    y 0.000000 2.037630 0.000000 
#    z -0.039360 0.000000 1.948030 
# 
# From -- ./inp_files/267006.got.cif
#   From: 2010.05.17/outbox.cif.g08.bks.cpg/sg12_134_cif.got.tgz:267006.got - 2010.06.03 13:09:07.
