data_PCOD9208456
_publ_section_title
;
Structure prediction by ZEFSAII (Michael W. Deem and Ramdas Pophale) SiO2 
 PCOD9208456
Probable space group: C 2/M
;
_chemical_formula_sum "Si O2"
_cell_formula_units_Z 56
_cell_length_a 30.363930
_cell_length_b 9.753684
_cell_length_c 20.757796
_cell_angle_alpha 90.000000
_cell_angle_beta 29.210174
_cell_angle_gamma 90.000000
_cell_volume 3000.134791
_symmetry_space_group_name_H-M "C 2/M"
_symmetry_group_IT_number 12
_symmetry_cell_setting 'monoclinic'
loop_
_space_group_symop_operation_xyz
x,y,z
-x,y,-z
-x,-y,-z
x,-y,z
1/2+x,1/2+y,z
1/2-x,1/2+y,-z
1/2-x,1/2-y,-z
1/2+x,1/2-y,z
loop_
_atom_site_type_symbol
_atom_site_label
_atom_site_fract_x
_atom_site_fract_y
_atom_site_fract_z
Si Si1 0.676747 0.666949 0.370201
Si Si2 0.749291 0.847575 0.940286
Si Si3 0.020456 0.345823 0.616979
Si Si4 0.512350 0.659389 0.877598
Si Si5 0.938255 0.659036 0.862891
Si Si6 0.150739 0.838456 0.812333
Si Si7 0.912022 0.783719 0.646663
O O1 0.678222 0.500000 0.363485
O O2 0.594730 0.726199 0.517835
O O3 0.768862 0.733092 0.277824
O O4 0.653260 0.735767 0.330879
O O5 0.845239 0.853123 0.782742
O O6 0.724573 0.000000 0.993943
O O7 0.750000 0.750000 0.000000
O O8 0.667781 0.803439 0.997376
O O9 0.059695 0.500000 0.567668
O O10 0.965371 0.327175 0.753302
O O11 0.958217 0.331891 0.632416
O O12 0.516597 0.500000 0.853956
O O13 0.498271 0.750857 0.833167
O O14 0.599279 0.689639 0.810766
O O15 0.425418 0.676765 0.035170
O O16 0.948292 0.500000 0.868299
O O17 0.178952 0.000000 0.776601
O O18 0.000000 0.851043 0.500000
#
# Coordination Sequence:
#
# PCOD9208456 Si02
#       7
#     8   8   8   8   8   8   8
#     4  11  23  37  58  87 116 148 196 244 296 347
#     4  11  22  37  56  81 117 155 195 239 286 344
#     4  10  22  40  58  80 115 157 198 237 288 352
#     4   9  19  36  60  88 113 147 190 236 289 351
#     4  10  21  38  57  83 117 154 194 240 293 346
#     4   9  19  38  60  84 117 148 186 237 292 350
#     4  10  22  38  58  84 118 156 197 242 294 344
#
# _framework density 18.665828000000001
#
# number of rings (size 3 to 8) (size 9 to 14) (size 15 to 20)
#    0.000    2.000    1.429    2.571    0.000   11.714 
#    0.000    2.143    0.000    0.000    0.000    0.000 
#    0.000    0.000    0.000    0.000    0.000    0.000 
#
# Total GULP energy -155932.092512 kJ/mol
# GULP energy per Si atom -5569.003304 kJ/mol
# Density = 1.862334 g / cm^3
# Si number density = 18.665828 Si / 1000 Ang^3
#
#
#
# Elastic Constant Matrix: (Units=GPa)
#
#
# Indices 1 2 3 4 5 6 
#
# 1 119.5686 69.1297 41.4561 -0.0002 -10.7803 0.0003
# 2 69.1297 71.0241 36.1115 0.0000 -10.7542 -0.0001
# 3 41.4561 36.1115 83.0458 0.0001 -4.6978 -0.0003
# 4 -0.0002 0.0000 0.0001 21.9089 0.0004 -9.2204
# 5 -10.7803 -10.7542 -4.6978 0.0004 30.1443 -0.0003
# 6 0.0003 -0.0001 -0.0003 -9.2204 -0.0003 13.0088
#
#
#
# Elastic Compliance Matrix: (Units=1/GPa)
#
#
# Indices 1 2 3 4 5 6 
#
# 1 0.019356 -0.017839 -0.001891 0.000000 0.000264 -0.000001
# 2 -0.017839 0.035386 -0.006183 0.000000 0.005281 0.000001
# 3 -0.001891 -0.006183 0.015649 0.000000 -0.000443 0.000000
# 4 0.000000 0.000000 0.000000 0.065047 0.000000 0.046104
# 5 0.000264 0.005281 -0.000443 0.000000 0.035083 0.000000
# 6 -0.000001 0.000001 0.000000 0.046104 0.000000 0.109549
#
#
# Mechanical properties :
#
#
# Convention : Reuss Voigt Hill
#
# Bulk Modulus (GPa) = 53.86277 63.00370 58.43323
# Shear Modulus (GPa) = 14.78918 21.47514 18.13216
#
# Velocity S-wave (km/s) = 2.81786 3.39559 3.12013
# Velocity P-wave (km/s) = 6.28539 7.01428 6.65981
#
# Compressibility (1/GPa) = 0.01856570
#
# Stress axis : x y z
#
# Youngs Moduli (GPa) = 51.66239 28.25943 63.90136
#
# Poissons Ratio (x) = 0.50412 0.12082
# Poissons Ratio (y) = 0.92160 0.39513
# Poissons Ratio (z) = 0.09768 0.17474
#
# Static dielectric constant tensor:
#      x y z
#    x 1.646700 0.000000 -0.011580 
#    y 0.000000 1.640110 0.000000 
#    z -0.011580 0.000000 1.676680 
# 
# From -- ./inp_files/329493.got.cif
#   From: 2010.05.17/outbox.cif.g08.bks.cpg/sg12_165_cif.got.tgz:329493.got - 2010.06.03 13:09:07.
