data_PCOD9208662
_publ_section_title
;
Structure prediction by ZEFSAII (Michael W. Deem and Ramdas Pophale) SiO2 
 PCOD9208662
Probable space group: C 2/M
;
_chemical_formula_sum "Si O2"
_cell_formula_units_Z 48
_cell_length_a 14.387970
_cell_length_b 27.174265
_cell_length_c 8.278402
_cell_angle_alpha 90.000000
_cell_angle_beta 140.256852
_cell_angle_gamma 90.000000
_cell_volume 2069.381244
_symmetry_space_group_name_H-M "C 2/M"
_symmetry_group_IT_number 12
_symmetry_cell_setting 'monoclinic'
loop_
_space_group_symop_operation_xyz
x,y,z
-x,y,-z
-x,-y,-z
x,-y,z
1/2+x,1/2+y,z
1/2-x,1/2+y,-z
1/2-x,1/2-y,-z
1/2+x,1/2-y,z
loop_
_atom_site_type_symbol
_atom_site_label
_atom_site_fract_x
_atom_site_fract_y
_atom_site_fract_z
Si Si1 0.167133 0.846579 0.549851
Si Si2 0.566224 0.711907 0.919705
Si Si3 0.048556 0.676883 0.232262
Si Si4 0.123204 0.943986 0.303037
Si Si5 0.672643 0.945842 0.706784
Si Si6 0.299611 0.152139 0.085168
O O1 0.280386 0.823619 0.568233
O O2 0.127079 0.901564 0.440795
O O3 0.234106 0.844277 0.817112
O O4 0.025770 0.813564 0.343049
O O5 0.526576 0.769301 0.866605
O O6 0.731134 0.695459 0.103959
O O7 0.500000 0.692374 0.000000
O O8 0.000000 0.650769 0.000000
O O9 0.973449 0.652946 0.285581
O O10 0.275463 0.940833 0.408525
O O11 0.105878 0.000000 0.339958
O O12 0.000000 0.935856 0.000000
O O13 0.500000 0.945967 0.500000
O O14 0.726891 0.000000 0.832943
O O15 0.739398 0.900069 0.890636
#
# Coordination Sequence:
#
# PCOD9208662 Si02
#       6
#     8   8   8   8   8   8
#     4  11  21  37  59  85 116 148 188 238 287 333
#     4  11  22  38  58  81 114 155 194 230 279 339
#     4   9  21  38  56  82 115 150 189 235 283 336
#     4  10  21  38  59  83 114 152 192 232 280 341
#     4  10  21  38  59  84 114 149 190 232 279 341
#     4  11  22  37  59  87 116 146 188 239 287 334
#
# _framework density 23.195340999999999
#
# number of rings (size 3 to 8) (size 9 to 14) (size 15 to 20)
#    0.000    1.667    0.000    5.000    0.000    0.667 
#    0.000    6.667    0.000   11.000    0.000    0.000 
#    0.000    0.000    0.000    0.000    0.000    0.000 
#
# Total GULP energy -134055.103736 kJ/mol
# GULP energy per Si atom -5585.629322 kJ/mol
# Density = 2.314255 g / cm^3
# Si number density = 23.195341 Si / 1000 Ang^3
#
#
#
# Elastic Constant Matrix: (Units=GPa)
#
#
# Indices 1 2 3 4 5 6 
#
# 1 107.6209 23.4918 13.2458 0.0000 5.9628 0.0000
# 2 23.4918 120.5970 -2.5094 0.0000 -14.6865 0.0000
# 3 13.2458 -2.5094 39.5976 0.0000 -2.5951 0.0000
# 4 0.0000 0.0000 0.0000 23.5575 0.0000 12.9952
# 5 5.9628 -14.6865 -2.5951 0.0000 42.2475 0.0000
# 6 0.0000 0.0000 0.0000 12.9952 0.0000 2.1205
#
#
#
# Elastic Compliance Matrix: (Units=1/GPa)
#
#
# Indices 1 2 3 4 5 6 
#
# 1 0.010430 -0.002421 -0.003810 0.000000 -0.002548 0.000000
# 2 -0.002421 0.009243 0.001635 0.000000 0.003655 0.000000
# 3 -0.003810 0.001635 0.026812 0.000000 0.002753 0.000000
# 4 0.000000 0.000000 0.000000 -0.017831 0.000000 0.109275
# 5 -0.002548 0.003655 0.002753 0.000000 0.025469 0.000000
# 6 0.000000 0.000000 0.000000 0.109275 0.000000 -0.198092
#
#
# Mechanical properties :
#
#
# Convention : Reuss Voigt Hill
#
# Bulk Modulus (GPa) = 26.81353 37.36353 32.08853
# Shear Modulus (GPa) = -40.86806 29.15759 -5.85523
#
# Velocity S-wave (km/s) = -4.20206 3.54933 -1.59053
# Velocity P-wave (km/s) = 3.45805 5.73935 3.23898
#
# Compressibility (1/GPa) = 0.03729461
#
# Stress axis : x y z
#
# Youngs Moduli (GPa) = 95.87314 108.19080 37.29615
#
# Poissons Ratio (x) = 0.26197 0.14208
# Poissons Ratio (y) = 0.23214 -0.06099
# Poissons Ratio (z) = 0.36523 -0.17692
#
# Static dielectric constant tensor:
#      x y z
#    x 1.970380 0.000000 0.062790 
#    y 0.000000 1.866360 0.000000 
#    z 0.062790 0.000000 1.886160 
# 
# From -- ./inp_files/67305.got.cif
#   From: 2010.05.17/outbox.cif.g08.bks.cpg/sg12_34_cif.got.tgz:67305.got - 2010.06.03 13:09:07.
