data_PCOD9208083
_publ_section_title
;
Structure prediction by ZEFSAII (Michael W. Deem and Ramdas Pophale) SiO2 
 PCOD9208083
Probable space group: C 2/M
;
_chemical_formula_sum "Si O2"
_cell_formula_units_Z 56
_cell_length_a 8.504003
_cell_length_b 15.495342
_cell_length_c 21.431162
_cell_angle_alpha 90.000000
_cell_angle_beta 67.167327
_cell_angle_gamma 90.000000
_cell_volume 2602.750612
_symmetry_space_group_name_H-M "C 2/M"
_symmetry_group_IT_number 12
_symmetry_cell_setting 'monoclinic'
loop_
_space_group_symop_operation_xyz
x,y,z
-x,y,-z
-x,-y,-z
x,-y,z
1/2+x,1/2+y,z
1/2-x,1/2+y,-z
1/2-x,1/2-y,-z
1/2+x,1/2-y,z
loop_
_atom_site_type_symbol
_atom_site_label
_atom_site_fract_x
_atom_site_fract_y
_atom_site_fract_z
Si Si1 0.195318 0.597295 0.209010
Si Si2 0.184563 0.902237 0.493699
Si Si3 0.282945 0.672482 0.382002
Si Si4 0.073377 0.789205 0.050508
Si Si5 0.553499 0.856062 0.647428
Si Si6 0.735727 0.283454 0.146455
Si Si7 0.520379 0.403489 0.253320
O O1 0.205302 0.500000 0.180164
O O2 0.026436 0.603728 0.278020
O O3 0.197632 0.681077 0.163576
O O4 0.359087 0.607578 0.230282
O O5 0.245548 0.842274 0.540645
O O6 0.308986 0.904475 0.415606
O O7 0.000000 0.871252 0.500000
O O8 0.169265 0.000000 0.520341
O O9 0.356675 0.765396 0.353080
O O10 0.108853 0.657245 0.372474
O O11 0.430991 0.609308 0.333791
O O12 0.129241 0.829620 0.107291
O O13 0.931471 0.719394 0.094233
O O14 0.250000 0.750000 0.000000
O O15 0.000000 0.835770 0.000000
O O16 0.668540 0.334114 0.216948
O O17 0.587420 0.500000 0.235786
#
# Coordination Sequence:
#
# PCOD9208083 Si02
#       7
#     8   8   8   8   8   8   8
#     4  10  21  37  61  93 125 163 209 254 308 372
#     4  11  24  41  58  81 117 161 210 265 317 368
#     4  11  22  38  61  86 120 160 209 259 314 374
#     4   9  20  36  64  96 123 165 204 238 299 361
#     4  11  22  38  61  86 120 159 209 261 313 373
#     4  11  18  38  66  89 127 162 202 251 299 364
#     4  10  21  37  61  93 126 163 206 257 310 368
#
# _framework density 21.515699999999999
#
# number of rings (size 3 to 8) (size 9 to 14) (size 15 to 20)
#    0.000    1.571    2.857    2.571    0.000    2.286 
#    2.571    0.714    0.000   17.143    0.000    0.000 
#    0.000    0.000    0.000    0.000    0.000    0.000 
#
# Total GULP energy -156100.486396 kJ/mol
# GULP energy per Si atom -5575.017371 kJ/mol
# Density = 2.146673 g / cm^3
# Si number density = 21.515700 Si / 1000 Ang^3
#
#
#
# Elastic Constant Matrix: (Units=GPa)
#
#
# Indices 1 2 3 4 5 6 
#
# 1 58.4023 10.1569 26.4467 0.0000 -20.4555 0.0000
# 2 10.1569 89.2250 18.6369 0.0000 -5.0531 0.0000
# 3 26.4467 18.6369 107.3024 0.0000 -29.9632 0.0000
# 4 0.0000 0.0000 0.0000 20.2405 0.0000 -22.9748
# 5 -20.4555 -5.0531 -29.9632 0.0000 35.9105 0.0000
# 6 0.0000 0.0000 0.0000 -22.9748 0.0000 64.9559
#
#
#
# Elastic Compliance Matrix: (Units=1/GPa)
#
#
# Indices 1 2 3 4 5 6 
#
# 1 0.022069 -0.001446 -0.002262 0.000000 0.010481 0.000000
# 2 -0.001446 0.011724 -0.001890 0.000000 -0.000751 0.000000
# 3 -0.002262 -0.001890 0.012739 0.000000 0.009075 0.000000
# 4 0.000000 0.000000 0.000000 0.082547 0.000000 0.029197
# 5 0.010481 -0.000751 0.009075 0.000000 0.041284 0.000000
# 6 0.000000 0.000000 0.000000 0.029197 0.000000 0.025722
#
#
# Mechanical properties :
#
#
# Convention : Reuss Voigt Hill
#
# Bulk Modulus (GPa) = 28.29812 40.60119 34.44966
# Shear Modulus (GPa) = 22.82492 37.53401 30.17946
#
# Velocity S-wave (km/s) = 3.26060 4.18125 3.74929
# Velocity P-wave (km/s) = 5.23032 6.49784 5.89822
#
# Compressibility (1/GPa) = 0.03533804
#
# Stress axis : x y z
#
# Youngs Moduli (GPa) = 45.31232 85.29208 78.49768
#
# Poissons Ratio (x) = 0.12336 0.17752
# Poissons Ratio (y) = 0.06554 0.14832
# Poissons Ratio (z) = 0.10248 0.16116
#
# Static dielectric constant tensor:
#      x y z
#    x 1.805980 0.000000 0.027000 
#    y 0.000000 1.788300 0.000000 
#    z 0.027000 0.000000 1.809170 
# 
# From -- ./inp_files/332833.got.cif
#   From: 2010.05.17/outbox.cif.g08.bks.cpg/sg12_167_cif.got.tgz:332833.got - 2010.06.03 13:09:07.
