data_PCOD9208721
_publ_section_title
;
Structure prediction by ZEFSAII (Michael W. Deem and Ramdas Pophale) SiO2 
 PCOD9208721
Probable space group: C 2/M
;
_chemical_formula_sum "Si O2"
_cell_formula_units_Z 56
_cell_length_a 23.391440
_cell_length_b 14.479472
_cell_length_c 9.689785
_cell_angle_alpha 90.000000
_cell_angle_beta 122.333201
_cell_angle_gamma 90.000000
_cell_volume 2773.038438
_symmetry_space_group_name_H-M "C 2/M"
_symmetry_group_IT_number 12
_symmetry_cell_setting 'monoclinic'
loop_
_space_group_symop_operation_xyz
x,y,z
-x,y,-z
-x,-y,-z
x,-y,z
1/2+x,1/2+y,z
1/2-x,1/2+y,-z
1/2-x,1/2-y,-z
1/2+x,1/2-y,z
loop_
_atom_site_type_symbol
_atom_site_label
_atom_site_fract_x
_atom_site_fract_y
_atom_site_fract_z
Si Si1 0.203195 0.107277 0.163842
Si Si2 0.145645 0.104188 0.551044
Si Si3 0.369516 0.892390 0.888320
Si Si4 0.501559 0.391177 0.336541
Si Si5 0.268401 0.142861 0.519340
Si Si6 0.435644 0.706151 0.008859
Si Si7 0.238862 0.887368 0.905252
O O1 0.262166 0.113743 0.353385
O O2 0.229138 0.142719 0.049340
O O3 0.183605 0.000000 0.123852
O O4 0.136720 0.162452 0.126522
O O5 0.077596 0.143388 0.399149
O O6 0.206049 0.098014 0.521220
O O7 0.124871 0.000000 0.564706
O O8 0.178566 0.148741 0.728962
O O9 0.334987 0.879735 0.692675
O O10 0.388142 0.000000 0.929580
O O11 0.426413 0.816107 0.985444
O O12 0.309399 0.868191 0.919876
O O13 0.500000 0.381484 0.500000
O O14 0.490862 0.500000 0.287967
O O15 0.449991 0.331386 0.181252
O O16 0.250000 0.250000 0.500000
O O17 0.500000 0.676119 0.000000
O O18 0.234505 0.000000 0.898081
#
# Coordination Sequence:
#
# PCOD9208721 Si02
#       7
#     8   8   8   8   8   8   8
#     4  11  21  36  59  90 121 144 178 241 304 353
#     4   9  17  33  56  78 110 150 180 221 283 347
#     4  10  22  43  62  80 114 159 201 243 289 340
#     4  10  21  38  59  85 119 155 187 227 288 355
#     4  11  20  35  55  86 113 144 186 235 290 348
#     4  12  25  38  56  87 120 157 204 238 277 343
#     4   8  17  35  61  88 111 143 188 234 293 351
#
# _framework density 20.194455999999999
#
# number of rings (size 3 to 8) (size 9 to 14) (size 15 to 20)
#    0.000    1.857    1.429    4.286    0.000    5.429 
#    2.571    0.000    0.000    0.429    0.000    0.000 
#    0.000    0.000    0.000    0.000    0.000    0.000 
#
# Total GULP energy -156255.696572 kJ/mol
# GULP energy per Si atom -5580.560592 kJ/mol
# Density = 2.014849 g / cm^3
# Si number density = 20.194456 Si / 1000 Ang^3
#
#
#
# Elastic Constant Matrix: (Units=GPa)
#
#
# Indices 1 2 3 4 5 6 
#
# 1 42.7154 8.5930 28.4523 0.0000 -6.3802 0.0000
# 2 8.5930 87.6704 23.9173 0.0000 2.4037 0.0000
# 3 28.4523 23.9173 126.0164 0.0000 -12.8186 0.0000
# 4 0.0000 0.0000 0.0000 22.5994 0.0000 9.2075
# 5 -6.3802 2.4037 -12.8186 0.0000 24.7898 0.0000
# 6 0.0000 0.0000 0.0000 9.2075 0.0000 21.0736
#
#
#
# Elastic Compliance Matrix: (Units=1/GPa)
#
#
# Indices 1 2 3 4 5 6 
#
# 1 0.028100 -0.001338 -0.005638 0.000000 0.004446 0.000000
# 2 -0.001338 0.012239 -0.002297 0.000000 -0.002719 0.000000
# 3 -0.005638 -0.002297 0.010048 0.000000 0.003967 0.000000
# 4 0.000000 0.000000 0.000000 0.053832 0.000000 -0.023520
# 5 0.004446 -0.002719 0.003967 0.000000 0.043799 0.000000
# 6 0.000000 0.000000 0.000000 -0.023520 0.000000 0.057729
#
#
# Mechanical properties :
#
#
# Convention : Reuss Voigt Hill
#
# Bulk Modulus (GPa) = 31.40755 42.03638 36.72197
# Shear Modulus (GPa) = 21.28510 26.72188 24.00349
#
# Velocity S-wave (km/s) = 3.25007 3.64157 3.45137
# Velocity P-wave (km/s) = 5.44704 6.20825 5.84006
#
# Compressibility (1/GPa) = 0.03183948
#
# Stress axis : x y z
#
# Youngs Moduli (GPa) = 35.58773 81.70749 99.52151
#
# Poissons Ratio (x) = 0.10932 0.56112
# Poissons Ratio (y) = 0.04761 0.22864
# Poissons Ratio (z) = 0.20065 0.18771
#
# Static dielectric constant tensor:
#      x y z
#    x 1.747390 0.000000 -0.005540 
#    y 0.000000 1.788100 0.000000 
#    z -0.005540 0.000000 1.746900 
# 
# From -- ./inp_files/96769.got.cif
#   From: 2010.05.17/outbox.cif.g08.bks.cpg/sg12_49_cif.got.tgz:96769.got - 2010.06.03 13:09:07.
