data_PCOD9208878
_publ_section_title
;
Structure prediction by ZEFSAII (Michael W. Deem and Ramdas Pophale) SiO2 
 PCOD9208878
Probable space group: C 2/M
;
_chemical_formula_sum "Si O2"
_cell_formula_units_Z 24
_cell_length_a 10.452387
_cell_length_b 18.236158
_cell_length_c 4.880965
_cell_angle_alpha 90.000000
_cell_angle_beta 88.655657
_cell_angle_gamma 90.000000
_cell_volume 930.111396
_symmetry_space_group_name_H-M "C 2/M"
_symmetry_group_IT_number 12
_symmetry_cell_setting 'monoclinic'
loop_
_space_group_symop_operation_xyz
x,y,z
-x,y,-z
-x,-y,-z
x,-y,z
1/2+x,1/2+y,z
1/2-x,1/2+y,-z
1/2-x,1/2-y,-z
1/2+x,1/2-y,z
loop_
_atom_site_type_symbol
_atom_site_label
_atom_site_fract_x
_atom_site_fract_y
_atom_site_fract_z
Si Si1 0.874998 0.226026 0.670564
Si Si2 0.885814 0.608354 0.706719
Si Si3 0.723037 0.579257 0.200465
O O1 0.750000 0.250000 0.500000
O O2 0.909917 0.306374 0.776254
O O3 0.842192 0.157495 0.867008
O O4 0.000000 0.201392 0.500000
O O5 0.764780 0.591631 0.513420
O O6 0.000000 0.584619 0.500000
O O7 0.846903 0.575675 0.998305
O O8 0.656333 0.500000 0.179048
#
# Coordination Sequence:
#
# PCOD9208878 Si02
#       3
#     8   8   8
#     4   9  20  40  64  89 120 161 208 253 302 364
#     4  10  21  38  60  85 118 162 207 250 298 359
#     4  11  22  36  57  88 123 157 198 251 308 364
#
# _framework density 25.803362
#
# number of rings (size 3 to 8) (size 9 to 14) (size 15 to 20)
#    0.000    2.000    0.000    3.000    0.000    4.667 
#    0.000   16.667    0.000   10.000    0.000    0.000 
#    0.000    0.000    0.000    0.000    0.000    0.000 
#
# Total GULP energy -66900.297668 kJ/mol
# GULP energy per Si atom -5575.024806 kJ/mol
# Density = 2.574463 g / cm^3
# Si number density = 25.803362 Si / 1000 Ang^3
#
#
#
# Elastic Constant Matrix: (Units=GPa)
#
#
# Indices 1 2 3 4 5 6 
#
# 1 82.0022 -3.3933 38.5292 0.0000 -17.5650 0.0000
# 2 -3.3933 231.7154 52.9843 0.0000 -41.6507 0.0000
# 3 38.5292 52.9843 132.3118 0.0000 -3.4668 0.0000
# 4 0.0000 0.0000 0.0000 -0.5460 0.0000 11.1070
# 5 -17.5650 -41.6507 -3.4668 0.0000 50.7447 0.0000
# 6 0.0000 0.0000 0.0000 11.1070 0.0000 -27.5482
#
#
#
# Elastic Compliance Matrix: (Units=1/GPa)
#
#
# Indices 1 2 3 4 5 6 
#
# 1 0.016767 0.003004 -0.005879 0.000000 0.007868 0.000000
# 2 0.003004 0.006141 -0.003180 0.000000 0.005863 0.000000
# 3 -0.005879 -0.003180 0.010440 0.000000 -0.003932 0.000000
# 4 0.000000 0.000000 0.000000 0.254315 0.000000 0.102535
# 5 0.007868 0.005863 -0.003932 0.000000 0.026973 0.000000
# 6 0.000000 0.000000 0.000000 0.102535 0.000000 0.005041
#
#
# Mechanical properties :
#
#
# Convention : Reuss Voigt Hill
#
# Bulk Modulus (GPa) = 47.08732 69.14108 58.11420
# Shear Modulus (GPa) = 14.75507 28.39071 21.57289
#
# Velocity S-wave (km/s) = 2.39389 3.32063 2.89459
# Velocity P-wave (km/s) = 5.09206 6.44637 5.80882
#
# Compressibility (1/GPa) = 0.02123714
#
# Stress axis : x y z
#
# Youngs Moduli (GPa) = 59.64136 162.84899 95.78113
#
# Poissons Ratio (x) = -0.48923 0.56313
# Poissons Ratio (y) = -0.17917 0.30461
# Poissons Ratio (z) = 0.35065 0.51790
#
# Static dielectric constant tensor:
#      x y z
#    x 2.150010 0.000000 0.024520 
#    y 0.000000 2.133740 0.000000 
#    z 0.024520 0.000000 1.952100 
# 
# From -- ./inp_files/5148.got.cif
#   From: 2010.05.17/outbox.cif.g08.bks.cpg/sg12_3_cif.got.tgz:5148.got - 2010.06.03 13:09:07.
