data_PCOD9208556
_publ_section_title
;
Structure prediction by ZEFSAII (Michael W. Deem and Ramdas Pophale) SiO2 
 PCOD9208556
Probable space group: C 2/M
;
_chemical_formula_sum "Si O2"
_cell_formula_units_Z 56
_cell_length_a 8.334923
_cell_length_b 29.306140
_cell_length_c 11.109167
_cell_angle_alpha 90.000000
_cell_angle_beta 109.900784
_cell_angle_gamma 90.000000
_cell_volume 2551.528999
_symmetry_space_group_name_H-M "C 2/M"
_symmetry_group_IT_number 12
_symmetry_cell_setting 'monoclinic'
loop_
_space_group_symop_operation_xyz
x,y,z
-x,y,-z
-x,-y,-z
x,-y,z
1/2+x,1/2+y,z
1/2-x,1/2+y,-z
1/2-x,1/2-y,-z
1/2+x,1/2-y,z
loop_
_atom_site_type_symbol
_atom_site_label
_atom_site_fract_x
_atom_site_fract_y
_atom_site_fract_z
Si Si1 0.884155 0.049676 0.185161
Si Si2 0.786507 0.858855 0.062938
Si Si3 0.916314 0.813195 0.724207
Si Si4 0.998048 0.644344 0.196255
Si Si5 0.446555 0.775897 0.350446
Si Si6 0.899907 0.552282 0.672470
Si Si7 0.637013 0.593215 0.425885
O O1 0.844365 0.088656 0.079519
O O2 0.738316 0.050167 0.252751
O O3 0.054672 0.061615 0.302230
O O4 0.888658 0.000000 0.131562
O O5 0.650736 0.856459 0.138381
O O6 0.951654 0.829807 0.140553
O O7 0.678365 0.846795 0.918754
O O8 0.750703 0.786211 0.723536
O O9 0.851761 0.857023 0.631914
O O10 0.013679 0.776137 0.669098
O O11 0.039913 0.685725 0.295288
O O12 0.983755 0.595168 0.258236
O O13 0.500000 0.784248 0.500000
O O14 0.964478 0.500000 0.674796
O O15 0.801008 0.570058 0.528292
O O16 0.500000 0.597225 0.500000
#
# Coordination Sequence:
#
# PCOD9208556 Si02
#       7
#     8   8   8   8   8   8   8
#     4   8  14  25  47  81 114 145 187 238 288 335
#     4   9  20  38  59  84 116 157 196 241 287 334
#     4  11  23  39  60  85 114 151 194 240 292 349
#     4  10  21  38  58  84 120 155 197 241 285 339
#     4  12  25  40  62  88 116 149 190 241 296 351
#     4   9  16  28  51  83 116 152 191 234 283 333
#     4   9  16  29  51  80 117 152 188 235 288 344
#
# _framework density 21.947624999999999
#
# number of rings (size 3 to 8) (size 9 to 14) (size 15 to 20)
#    0.000    2.286    0.000    3.857    0.000    3.429 
#    0.000    2.857    0.000    7.286    0.000    5.000 
#    0.000    0.000    0.000    0.000    0.000    0.000 
#
# Total GULP energy -156385.967074 kJ/mol
# GULP energy per Si atom -5585.213110 kJ/mol
# Density = 2.189767 g / cm^3
# Si number density = 21.947625 Si / 1000 Ang^3
#
#
#
# Elastic Constant Matrix: (Units=GPa)
#
#
# Indices 1 2 3 4 5 6 
#
# 1 50.5581 17.5417 10.4170 0.0000 15.9436 0.0000
# 2 17.5417 130.6742 48.4922 0.0000 4.7896 0.0000
# 3 10.4170 48.4922 64.9386 0.0000 9.6705 0.0000
# 4 0.0000 0.0000 0.0000 -17.6498 0.0000 21.5586
# 5 15.9436 4.7896 9.6705 0.0000 12.6016 0.0000
# 6 0.0000 0.0000 0.0000 21.5586 0.0000 6.9610
#
#
#
# Elastic Compliance Matrix: (Units=1/GPa)
#
#
# Indices 1 2 3 4 5 6 
#
# 1 0.035017 -0.004808 0.004853 0.000000 -0.046200 0.000000
# 2 -0.004808 0.011306 -0.008962 0.000000 0.008663 0.000000
# 3 0.004853 -0.008962 0.024522 0.000000 -0.021553 0.000000
# 4 0.000000 0.000000 0.000000 -0.011846 0.000000 0.036687
# 5 -0.046200 0.008663 -0.021553 0.000000 0.151055 0.000000
# 6 0.000000 0.000000 0.000000 0.036687 0.000000 0.030035
#
#
# Mechanical properties :
#
#
# Convention : Reuss Voigt Hill
#
# Bulk Modulus (GPa) = 18.86358 44.34142 31.60250
# Shear Modulus (GPa) = 18.14271 11.69724 14.91997
#
# Velocity S-wave (km/s) = 2.87825 2.31110 2.61012
# Velocity P-wave (km/s) = 4.43387 5.23151 4.84912
#
# Compressibility (1/GPa) = 0.05301222
#
# Stress axis : x y z
#
# Youngs Moduli (GPa) = 28.55768 88.44779 40.77958
#
# Poissons Ratio (x) = 0.42529 -0.19792
# Poissons Ratio (y) = 0.13732 0.36545
# Poissons Ratio (z) = -0.13860 0.79263
#
# Static dielectric constant tensor:
#      x y z
#    x 1.905120 0.000000 -0.025470 
#    y 0.000000 1.797980 0.000000 
#    z -0.025470 0.000000 1.760950 
# 
# From -- ./inp_files/124362.got.cif
#   From: 2010.05.17/outbox.cif.g08.bks.cpg/sg12_63_cif.got.tgz:124362.got - 2010.06.03 13:09:07.
