data_PCOD9208894
_publ_section_title
;
Structure prediction by ZEFSAII (Michael W. Deem and Ramdas Pophale) SiO2 
 PCOD9208894
Probable space group: C 2/M
;
_chemical_formula_sum "Si O2"
_cell_formula_units_Z 64
_cell_length_a 14.623980
_cell_length_b 18.999478
_cell_length_c 22.269933
_cell_angle_alpha 90.000000
_cell_angle_beta 33.920662
_cell_angle_gamma 90.000000
_cell_volume 3452.986750
_symmetry_space_group_name_H-M "C 2/M"
_symmetry_group_IT_number 12
_symmetry_cell_setting 'monoclinic'
loop_
_space_group_symop_operation_xyz
x,y,z
-x,y,-z
-x,-y,-z
x,-y,z
1/2+x,1/2+y,z
1/2-x,1/2+y,-z
1/2-x,1/2-y,-z
1/2+x,1/2-y,z
loop_
_atom_site_type_symbol
_atom_site_label
_atom_site_fract_x
_atom_site_fract_y
_atom_site_fract_z
Si Si1 0.819723 0.077034 0.071672
Si Si2 0.851085 0.698824 0.627882
Si Si3 0.838600 0.691634 0.912533
Si Si4 0.376062 0.082466 0.223458
Si Si5 0.266873 0.126021 0.417178
Si Si6 0.574703 0.343806 0.343624
Si Si7 0.932380 0.771366 0.303836
Si Si8 0.425383 0.078627 0.682405
O O1 0.797612 0.138871 0.037527
O O2 0.686385 0.085827 0.197154
O O3 0.789927 0.000000 0.060630
O O4 0.000000 0.078087 0.000000
O O5 0.862105 0.774148 0.655356
O O6 0.683517 0.691237 0.681837
O O7 0.875213 0.638037 0.663209
O O8 0.000000 0.696268 0.500000
O O9 0.976867 0.639130 0.864734
O O10 0.925141 0.731757 0.810094
O O11 0.750000 0.750000 0.000000
O O12 0.309186 0.096855 0.327952
O O13 0.227540 0.103443 0.260410
O O14 0.420758 0.000000 0.194018
O O15 0.318802 0.208382 0.391581
O O16 0.387660 0.088504 0.398184
O O17 0.077365 0.122634 0.537312
O O18 0.504466 0.318516 0.317753
O O19 0.400446 0.000000 0.671973
#
# Coordination Sequence:
#
# PCOD9208894 Si02
#       8
#     8   8   8   8   8   8   8   8
#     4  10  21  38  60  86 115 151 197 253 314 358
#     4  12  21  36  59  86 123 162 207 245 296 366
#     4  11  23  38  63  91 117 152 203 257 309 360
#     4  11  23  40  62  92 128 159 198 254 308 361
#     4  11  19  35  62  93 123 157 208 251 298 360
#     4  12  21  37  62  91 124 167 207 244 302 366
#     4  11  22  36  58  90 118 158 203 260 302 353
#     4  11  23  38  59  86 123 163 199 255 311 357
#
# _framework density 18.534679000000001
#
# number of rings (size 3 to 8) (size 9 to 14) (size 15 to 20)
#    0.000    0.875    7.500    2.250    1.750    2.750 
#    0.000    0.625    0.000    2.250    0.000    0.000 
#    0.000    0.000    0.000    0.000    0.000    0.000 
#
# Total GULP energy -178730.176818 kJ/mol
# GULP energy per Si atom -5585.318026 kJ/mol
# Density = 1.849249 g / cm^3
# Si number density = 18.534679 Si / 1000 Ang^3
#
#
#
# Elastic Constant Matrix: (Units=GPa)
#
#
# Indices 1 2 3 4 5 6 
#
# 1 96.6857 46.1002 20.2040 0.0001 -17.6391 0.0002
# 2 46.1002 121.2897 41.5960 0.0013 -3.6226 -0.0001
# 3 20.2040 41.5960 58.9888 0.0020 -15.8565 -0.0015
# 4 0.0001 0.0013 0.0020 26.7174 -0.0028 2.8231
# 5 -17.6391 -3.6226 -15.8565 -0.0028 21.9173 0.0005
# 6 0.0002 -0.0001 -0.0015 2.8231 0.0005 29.0540
#
#
#
# Elastic Compliance Matrix: (Units=1/GPa)
#
#
# Indices 1 2 3 4 5 6 
#
# 1 0.015191 -0.006349 0.002828 0.000001 0.013223 0.000000
# 2 -0.006349 0.013925 -0.010427 -0.000001 -0.010352 0.000000
# 3 0.002828 -0.010427 0.029155 0.000000 0.021645 0.000001
# 4 0.000001 -0.000001 0.000000 0.037817 0.000006 -0.003675
# 5 0.013223 -0.010352 0.021645 0.000006 0.070216 -0.000001
# 6 0.000000 0.000000 0.000001 -0.003675 -0.000001 0.034776
#
#
# Mechanical properties :
#
#
# Convention : Reuss Voigt Hill
#
# Bulk Modulus (GPa) = 32.92170 54.75161 43.83665
# Shear Modulus (GPa) = 20.91173 26.80868 23.86020
#
# Velocity S-wave (km/s) = 3.36259 3.80729 3.59183
# Velocity P-wave (km/s) = 5.73383 6.99511 6.39563
#
# Compressibility (1/GPa) = 0.03037510
#
# Stress axis : x y z
#
# Youngs Moduli (GPa) = 65.82699 71.81543 34.29988
#
# Poissons Ratio (x) = 0.45595 -0.09701
# Poissons Ratio (y) = 0.41793 0.35764
# Poissons Ratio (z) = -0.18617 0.74882
#
# Static dielectric constant tensor:
#      x y z
#    x 1.648440 0.000010 -0.005750 
#    y 0.000010 1.658590 -0.000030 
#    z -0.005750 -0.000030 1.576790 
# 
# From -- ./inp_files/340814.got.cif
#   From: 2010.05.17/outbox.cif.g08.bks.cpg/sg12_171_cif.got.tgz:340814.got - 2010.06.03 13:09:07.
