data_PCOD9208778
_publ_section_title
;
Structure prediction by ZEFSAII (Michael W. Deem and Ramdas Pophale) SiO2 
 PCOD9208778
Probable space group: C 2/M
;
_chemical_formula_sum "Si O2"
_cell_formula_units_Z 64
_cell_length_a 26.355420
_cell_length_b 8.712069
_cell_length_c 14.490752
_cell_angle_alpha 90.000000
_cell_angle_beta 85.543225
_cell_angle_gamma 90.000000
_cell_volume 3317.164283
_symmetry_space_group_name_H-M "C 2/M"
_symmetry_group_IT_number 12
_symmetry_cell_setting 'monoclinic'
loop_
_space_group_symop_operation_xyz
x,y,z
-x,y,-z
-x,-y,-z
x,-y,z
1/2+x,1/2+y,z
1/2-x,1/2+y,-z
1/2-x,1/2-y,-z
1/2+x,1/2-y,z
loop_
_atom_site_type_symbol
_atom_site_label
_atom_site_fract_x
_atom_site_fract_y
_atom_site_fract_z
Si Si1 0.021171 0.184299 0.399896
Si Si2 0.131406 0.682918 0.400116
Si Si3 0.503014 0.314474 0.797119
Si Si4 0.098950 0.317154 0.891190
Si Si5 0.605041 0.316466 0.095292
Si Si6 0.299541 0.184399 0.441587
Si Si7 0.806744 0.683895 0.790845
Si Si8 0.693842 0.684707 0.764975
O O1 0.079965 0.229386 0.385252
O O2 0.000000 0.245164 0.500000
O O3 0.993469 0.236568 0.310270
O O4 0.016996 0.000000 0.401738
O O5 0.121937 0.500000 0.398490
O O6 0.153489 0.722181 0.497226
O O7 0.172970 0.717164 0.315435
O O8 0.507826 0.500000 0.800334
O O9 0.546756 0.241871 0.852801
O O10 0.446703 0.274863 0.842407
O O11 0.100208 0.500000 0.889253
O O12 0.146179 0.251022 0.826517
O O13 0.102817 0.257776 0.995058
O O14 0.606046 0.500000 0.086203
O O15 0.654597 0.261922 0.143997
O O16 0.250000 0.250000 0.500000
O O17 0.305721 0.255449 0.339974
O O18 0.295528 0.000000 0.436069
O O19 0.809554 0.500000 0.803580
O O20 0.747778 0.730490 0.803691
O O21 0.691534 0.500000 0.764327
#
# Coordination Sequence:
#
# PCOD9208778 Si02
#       8
#     8   8   8   8   8   8   8   8
#     4  10  22  39  60  92 127 164 206 247 304 372
#     4  10  21  38  59  88 125 162 206 254 306 364
#     4  10  22  42  65  93 128 165 208 256 309 375
#     4  12  27  44  64  93 126 164 210 261 321 381
#     4  11  23  42  69  96 122 160 210 262 318 378
#     4  11  22  38  60  91 126 166 211 253 302 364
#     4  10  21  40  65  93 126 164 207 259 315 371
#     4  11  24  44  65  91 129 171 211 261 318 374
#
# _framework density 19.293586999999999
#
# number of rings (size 3 to 8) (size 9 to 14) (size 15 to 20)
#    0.000    1.375    2.500    2.625    1.750    5.750 
#    0.000    0.000    0.000    0.000    0.000    0.000 
#    0.000    0.000    0.000    0.000    0.000    0.000 
#
# Total GULP energy -178877.623961 kJ/mol
# GULP energy per Si atom -5589.925749 kJ/mol
# Density = 1.924967 g / cm^3
# Si number density = 19.293587 Si / 1000 Ang^3
#
#
#
# Elastic Constant Matrix: (Units=GPa)
#
#
# Indices 1 2 3 4 5 6 
#
# 1 89.4507 35.8283 60.3152 0.0000 24.6993 0.0000
# 2 35.8283 45.0383 52.1295 0.0000 9.5756 0.0000
# 3 60.3152 52.1295 155.9121 0.0000 19.0927 0.0000
# 4 0.0000 0.0000 0.0000 29.3213 0.0000 0.9681
# 5 24.6993 9.5756 19.0927 0.0000 35.5437 0.0000
# 6 0.0000 0.0000 0.0000 0.9681 0.0000 32.6174
#
#
#
# Elastic Compliance Matrix: (Units=1/GPa)
#
#
# Indices 1 2 3 4 5 6 
#
# 1 0.020034 -0.010272 -0.003158 0.000000 -0.009458 0.000000
# 2 -0.010272 0.041894 -0.010196 0.000000 0.001328 0.000000
# 3 -0.003158 -0.010196 0.011175 0.000000 -0.001061 0.000000
# 4 0.000000 0.000000 0.000000 0.034138 0.000000 -0.001013
# 5 -0.009458 0.001328 -0.001061 0.000000 0.034919 0.000000
# 6 0.000000 0.000000 0.000000 -0.001013 0.000000 0.030689
#
#
# Mechanical properties :
#
#
# Convention : Reuss Voigt Hill
#
# Bulk Modulus (GPa) = 38.68271 65.21636 51.94954
# Shear Modulus (GPa) = 21.86102 28.97169 25.41635
#
# Velocity S-wave (km/s) = 3.36977 3.87928 3.63347
# Velocity P-wave (km/s) = 5.93578 7.34442 6.67735
#
# Compressibility (1/GPa) = 0.02585134
#
# Stress axis : x y z
#
# Youngs Moduli (GPa) = 49.91400 23.86990 89.48864
#
# Poissons Ratio (x) = 0.24518 0.28259
# Poissons Ratio (y) = 0.51270 0.91246
# Poissons Ratio (z) = 0.15762 0.24339
#
# Static dielectric constant tensor:
#      x y z
#    x 1.647490 0.000000 -0.001450 
#    y 0.000000 1.648890 0.000000 
#    z -0.001450 0.000000 1.663560 
# 
# From -- ./inp_files/238737.got.cif
#   From: 2010.05.17/outbox.cif.g08.bks.cpg/sg12_120_cif.got.tgz:238737.got - 2010.06.03 13:09:07.
