data_PCOD9208402
_publ_section_title
;
Structure prediction by ZEFSAII (Michael W. Deem and Ramdas Pophale) SiO2 
 PCOD9208402
Probable space group: C 2/M
;
_chemical_formula_sum "Si O2"
_cell_formula_units_Z 64
_cell_length_a 12.001531
_cell_length_b 14.715707
_cell_length_c 26.221652
_cell_angle_alpha 90.000000
_cell_angle_beta 136.993297
_cell_angle_gamma 90.000000
_cell_volume 3158.752811
_symmetry_space_group_name_H-M "C 2/M"
_symmetry_group_IT_number 12
_symmetry_cell_setting 'monoclinic'
loop_
_space_group_symop_operation_xyz
x,y,z
-x,y,-z
-x,-y,-z
x,-y,z
1/2+x,1/2+y,z
1/2-x,1/2+y,-z
1/2-x,1/2-y,-z
1/2+x,1/2-y,z
loop_
_atom_site_type_symbol
_atom_site_label
_atom_site_fract_x
_atom_site_fract_y
_atom_site_fract_z
Si Si1 0.297457 0.392706 0.321165
Si Si2 0.393666 0.788952 0.011270
Si Si3 0.632093 0.603934 0.860564
Si Si4 0.661839 0.105921 0.166357
Si Si5 0.539890 0.103784 0.325066
Si Si6 0.832912 0.390595 0.414849
Si Si7 0.278947 0.392027 0.735526
Si Si8 0.387608 0.279853 0.585296
O O1 0.345686 0.500000 0.334501
O O2 0.220976 0.364442 0.241530
O O3 0.152263 0.386692 0.313528
O O4 0.453282 0.329548 0.384598
O O5 0.523119 0.834856 0.092855
O O6 0.500000 0.740594 0.000000
O O7 0.250000 0.750000 0.000000
O O8 0.285420 0.857950 0.941978
O O9 0.618157 0.500000 0.872574
O O10 0.680856 0.607997 0.817723
O O11 0.455138 0.649567 0.806458
O O12 0.607668 0.000000 0.151223
O O13 0.343924 0.114757 0.257919
O O14 0.582662 0.185850 0.375887
O O15 0.566885 0.000000 0.354252
O O16 0.834044 0.500000 0.416152
O O17 0.802357 0.361895 0.345557
O O18 0.686294 0.350926 0.398991
O O19 0.000000 0.360807 0.500000
O O20 0.305160 0.500000 0.735852
O O21 0.250000 0.250000 0.500000
#
# Coordination Sequence:
#
# PCOD9208402 Si02
#       8
#     8   8   8   8   8   8   8   8
#     4  10  23  45  66  91 125 165 212 265 322 382
#     4  10  21  38  56  87 130 165 204 252 314 375
#     4   9  17  33  63  91 113 149 203 257 303 360
#     4   9  18  38  66  91 117 159 210 259 311 372
#     4  10  24  43  62  87 127 169 204 254 319 382
#     4  10  21  38  62  89 120 153 199 263 318 363
#     4   9  18  36  60  87 116 151 200 254 314 373
#     4  12  26  39  63  89 123 157 213 255 313 384
#
# _framework density 20.261161999999999
#
# number of rings (size 3 to 8) (size 9 to 14) (size 15 to 20)
#    0.000    2.125    0.000    2.250    3.500    6.500 
#    6.750    1.250    0.000    0.750    0.000    0.000 
#    0.000    0.000    0.000    0.000    0.000    0.000 
#
# Total GULP energy -178247.900086 kJ/mol
# GULP energy per Si atom -5570.246878 kJ/mol
# Density = 2.021505 g / cm^3
# Si number density = 20.261162 Si / 1000 Ang^3
#
#
#
# Elastic Constant Matrix: (Units=GPa)
#
#
# Indices 1 2 3 4 5 6 
#
# 1 97.4601 27.8482 32.2292 0.0000 18.6664 0.0000
# 2 27.8482 41.5375 24.1825 0.0000 7.1202 0.0000
# 3 32.2292 24.1825 94.7982 0.0000 14.1736 0.0000
# 4 0.0000 0.0000 0.0000 17.3350 0.0000 8.3917
# 5 18.6664 7.1202 14.1736 0.0000 25.2110 0.0000
# 6 0.0000 0.0000 0.0000 8.3917 0.0000 30.8373
#
#
#
# Elastic Compliance Matrix: (Units=1/GPa)
#
#
# Indices 1 2 3 4 5 6 
#
# 1 0.014413 -0.007251 -0.001923 0.000000 -0.007543 0.000000
# 2 -0.007251 0.032353 -0.005704 0.000000 -0.000562 0.000000
# 3 -0.001923 -0.005704 0.013324 0.000000 -0.004456 0.000000
# 4 0.000000 0.000000 0.000000 0.066439 0.000000 -0.018080
# 5 -0.007543 -0.000562 -0.004456 0.000000 0.047914 0.000000
# 6 0.000000 0.000000 0.000000 -0.018080 0.000000 0.037348
#
#
# Mechanical properties :
#
#
# Convention : Reuss Voigt Hill
#
# Bulk Modulus (GPa) = 32.96541 44.70172 38.83356
# Shear Modulus (GPa) = 19.86837 24.64574 22.25706
#
# Velocity S-wave (km/s) = 3.13487 3.49148 3.31797
# Velocity P-wave (km/s) = 5.42299 6.19391 5.82123
#
# Compressibility (1/GPa) = 0.03033483
#
# Stress axis : x y z
#
# Youngs Moduli (GPa) = 69.38255 30.90930 75.05437
#
# Poissons Ratio (x) = 0.22411 0.14431
# Poissons Ratio (y) = 0.50306 0.42811
# Poissons Ratio (z) = 0.13340 0.17630
#
# Static dielectric constant tensor:
#      x y z
#    x 1.778070 0.000000 0.022400 
#    y 0.000000 1.746800 0.000000 
#    z 0.022400 0.000000 1.746290 
# 
# From -- ./inp_files/358452.got.cif
#   From: 2010.05.17/outbox.cif.g08.bks.cpg/sg12_180_cif.got.tgz:358452.got - 2010.06.03 13:09:07.
