data_PCOD9208848
_publ_section_title
;
Structure prediction by ZEFSAII (Michael W. Deem and Ramdas Pophale) SiO2 
 PCOD9208848
Probable space group: C 2/M
;
_chemical_formula_sum "Si O2"
_cell_formula_units_Z 56
_cell_length_a 16.788523
_cell_length_b 9.018724
_cell_length_c 24.380961
_cell_angle_alpha 90.000000
_cell_angle_beta 133.104270
_cell_angle_gamma 90.000000
_cell_volume 2695.240401
_symmetry_space_group_name_H-M "C 2/M"
_symmetry_group_IT_number 12
_symmetry_cell_setting 'monoclinic'
loop_
_space_group_symop_operation_xyz
x,y,z
-x,y,-z
-x,-y,-z
x,-y,z
1/2+x,1/2+y,z
1/2-x,1/2+y,-z
1/2-x,1/2-y,-z
1/2+x,1/2-y,z
loop_
_atom_site_type_symbol
_atom_site_label
_atom_site_fract_x
_atom_site_fract_y
_atom_site_fract_z
Si Si1 0.235276 0.835655 0.164527
Si Si2 0.803986 0.331399 0.076863
Si Si3 0.732660 0.821260 0.323682
Si Si4 0.164898 0.321075 0.418109
Si Si5 0.080308 0.673751 0.661500
Si Si6 0.535086 0.166720 0.078650
Si Si7 0.483623 0.672417 0.825974
O O1 0.232657 0.836557 0.097875
O O2 0.349104 0.821920 0.249233
O O3 0.163245 0.694509 0.144688
O O4 0.192202 0.000000 0.162356
O O5 0.825845 0.500000 0.070999
O O6 0.913336 0.254172 0.151390
O O7 0.750000 0.250000 0.000000
O O8 0.705629 0.785176 0.375102
O O9 0.845134 0.758060 0.349316
O O10 0.630024 0.746849 0.244193
O O11 0.731384 0.000000 0.317338
O O12 0.166055 0.500000 0.422027
O O13 0.250000 0.250000 0.500000
O O14 0.041899 0.274468 0.379357
O O15 0.073395 0.500000 0.641409
O O16 0.490429 0.290577 0.098205
O O17 0.507340 0.000000 0.082047
O O18 0.500000 0.187076 0.000000
O O19 0.482116 0.500000 0.813562
#
# Coordination Sequence:
#
# PCOD9208848 Si02
#       7
#     8   8   8   8   8   8   8
#     4  10  21  38  60  84 116 158 207 259 319 384
#     4  11  23  39  58  84 120 164 212 270 332 392
#     4  11  23  42  68  99 132 171 217 275 332 389
#     4  10  24  45  69  99 138 176 215 263 327 396
#     4  10  21  41  67  96 129 172 217 266 327 397
#     4  11  23  37  56  84 119 158 204 261 316 369
#     4  12  24  39  60  87 120 163 212 262 319 388
#
# _framework density 20.777367000000002
#
# number of rings (size 3 to 8) (size 9 to 14) (size 15 to 20)
#    0.000    1.286    1.429    4.286    0.000    9.143 
#    0.000    4.286    0.000    0.000    0.000    0.000 
#    0.000    0.000    0.000    0.000    0.000    0.000 
#
# Total GULP energy -156085.861189 kJ/mol
# GULP energy per Si atom -5574.495042 kJ/mol
# Density = 2.073008 g / cm^3
# Si number density = 20.777367 Si / 1000 Ang^3
#
#
#
# Elastic Constant Matrix: (Units=GPa)
#
#
# Indices 1 2 3 4 5 6 
#
# 1 131.7500 61.5879 63.5423 0.0000 5.1254 0.0000
# 2 61.5879 92.4982 46.2688 0.0000 -5.6804 0.0000
# 3 63.5423 46.2688 110.7450 0.0000 3.5348 0.0000
# 4 0.0000 0.0000 0.0000 26.2598 0.0000 -4.1852
# 5 5.1254 -5.6804 3.5348 0.0000 35.9099 0.0000
# 6 0.0000 0.0000 0.0000 -4.1852 0.0000 26.8640
#
#
#
# Elastic Compliance Matrix: (Units=1/GPa)
#
#
# Indices 1 2 3 4 5 6 
#
# 1 0.012937 -0.006431 -0.004659 0.000000 -0.002405 0.000000
# 2 -0.006431 0.017137 -0.003597 0.000000 0.003983 0.000000
# 3 -0.004659 -0.003597 0.013244 0.000000 -0.001208 0.000000
# 4 0.000000 0.000000 0.000000 0.039051 0.000000 0.006084
# 5 -0.002405 0.003983 -0.001208 0.000000 0.028940 0.000000
# 6 0.000000 0.000000 0.000000 0.006084 0.000000 0.038172
#
#
# Mechanical properties :
#
#
# Convention : Reuss Voigt Hill
#
# Bulk Modulus (GPa) = 71.71573 75.31013 73.51293
# Shear Modulus (GPa) = 27.24748 28.71300 27.98024
#
# Velocity S-wave (km/s) = 3.62526 3.72147 3.67368
# Velocity P-wave (km/s) = 7.21904 7.40208 7.31113
#
# Compressibility (1/GPa) = 0.01394394
#
# Stress axis : x y z
#
# Youngs Moduli (GPa) = 77.29728 58.35440 75.50321
#
# Poissons Ratio (x) = 0.37527 0.35180
# Poissons Ratio (y) = 0.49709 0.27158
# Poissons Ratio (z) = 0.36016 0.20989
#
# Static dielectric constant tensor:
#      x y z
#    x 1.983410 0.000000 0.017370 
#    y 0.000000 1.729500 0.000000 
#    z 0.017370 0.000000 1.718200 
# 
# From -- ./inp_files/363144.got.cif
#   From: 2010.05.17/outbox.cif.g08.bks.cpg/sg12_182_cif.got.tgz:363144.got - 2010.06.03 13:09:07.
