data_PCOD9208798
_publ_section_title
;
Structure prediction by ZEFSAII (Michael W. Deem and Ramdas Pophale) SiO2 
 PCOD9208798
Probable space group: C 2/M
;
_chemical_formula_sum "Si O2"
_cell_formula_units_Z 60
_cell_length_a 20.720497
_cell_length_b 20.614653
_cell_length_c 15.200951
_cell_angle_alpha 90.000000
_cell_angle_beta 150.991877
_cell_angle_gamma 90.000000
_cell_volume 3148.685210
_symmetry_space_group_name_H-M "C 2/M"
_symmetry_group_IT_number 12
_symmetry_cell_setting 'monoclinic'
loop_
_space_group_symop_operation_xyz
x,y,z
-x,y,-z
-x,-y,-z
x,-y,z
1/2+x,1/2+y,z
1/2-x,1/2+y,-z
1/2-x,1/2-y,-z
1/2+x,1/2-y,z
loop_
_atom_site_type_symbol
_atom_site_label
_atom_site_fract_x
_atom_site_fract_y
_atom_site_fract_z
Si Si1 0.923242 0.425902 0.495757
Si Si2 0.899099 0.332089 0.200794
Si Si3 0.302501 0.754237 0.721334
Si Si4 0.946347 0.261982 0.079015
Si Si5 0.146211 0.102577 0.217160
Si Si6 0.892443 0.873257 0.110927
Si Si7 0.544622 0.500000 0.225378
Si Si8 0.004536 0.797295 0.402317
O O1 0.960517 0.500000 0.558009
O O2 0.764943 0.421786 0.296186
O O3 0.000000 0.404022 0.500000
O O4 0.975280 0.378322 0.633175
O O5 0.893668 0.306110 0.095013
O O6 0.916898 0.267204 0.280351
O O7 0.766348 0.368771 0.070755
O O8 0.402591 0.781341 0.766696
O O9 0.318727 0.677235 0.727276
O O10 0.152139 0.778444 0.544016
O O11 0.363033 0.767937 0.890203
O O12 0.936346 0.187160 0.100154
O O13 0.140988 0.056902 0.295442
O O14 0.000000 0.094785 0.000000
O O15 0.950524 0.853829 0.275699
O O16 0.946703 0.941817 0.144877
O O17 0.000000 0.812386 0.500000
#
# Coordination Sequence:
#
# PCOD9208798 Si02
#       8
#     8   8   8   8   8   8   4   8
#     4  11  26  39  58  89 123 166 213 246 297 364
#     4  11  23  38  61  87 125 159 197 257 310 361
#     4  11  20  36  62  90 119 155 199 251 305 370
#     4  10  21  38  59  90 122 151 202 250 307 365
#     4  12  23  38  61  86 124 166 199 246 299 369
#     4  11  24  39  58  88 120 163 205 251 306 368
#     4  12  25  40  60  83 122 164 208 240 305 365
#     4  11  22  38  63  89 120 157 202 260 312 360
#
# _framework density 19.055574
#
# number of rings (size 3 to 8) (size 9 to 14) (size 15 to 20)
#    0.000    0.933    4.667    3.800    4.667    3.200 
#    0.000    0.333    0.000    0.000    0.000    0.933 
#    0.000    0.000    0.000    0.000    0.000    0.000 
#
# Total GULP energy -167115.527502 kJ/mol
# GULP energy per Si atom -5570.517583 kJ/mol
# Density = 1.901220 g / cm^3
# Si number density = 19.055574 Si / 1000 Ang^3
#
#
#
# Elastic Constant Matrix: (Units=GPa)
#
#
# Indices 1 2 3 4 5 6 
#
# 1 97.2214 20.3024 38.4891 0.0000 21.8863 0.0000
# 2 20.3024 66.5858 18.1181 0.0000 6.2503 0.0000
# 3 38.4891 18.1181 76.1884 0.0000 20.0571 0.0000
# 4 0.0000 0.0000 0.0000 7.9102 0.0000 13.3454
# 5 21.8863 6.2503 20.0571 0.0000 33.1307 0.0000
# 6 0.0000 0.0000 0.0000 13.3454 0.0000 26.9861
#
#
#
# Elastic Compliance Matrix: (Units=1/GPa)
#
#
# Indices 1 2 3 4 5 6 
#
# 1 0.014077 -0.002382 -0.005015 0.000000 -0.005814 0.000000
# 2 -0.002382 0.016481 -0.002750 0.000000 0.000129 0.000000
# 3 -0.005015 -0.002750 0.018205 0.000000 -0.007190 0.000000
# 4 0.000000 0.000000 0.000000 0.763079 0.000000 -0.377364
# 5 -0.005814 0.000129 -0.007190 0.000000 0.038353 0.000000
# 6 0.000000 0.000000 0.000000 -0.377364 0.000000 0.223673
#
#
# Mechanical properties :
#
#
# Convention : Reuss Voigt Hill
#
# Bulk Modulus (GPa) = 35.12394 43.75721 39.44058
# Shear Modulus (GPa) = 4.53042 24.47779 14.50410
#
# Velocity S-wave (km/s) = 1.54358 3.58795 2.76188
# Velocity P-wave (km/s) = 4.65287 6.33855 5.55997
#
# Compressibility (1/GPa) = 0.02847061
#
# Stress axis : x y z
#
# Youngs Moduli (GPa) = 71.03605 60.67725 54.92887
#
# Poissons Ratio (x) = 0.14454 0.27544
# Poissons Ratio (y) = 0.16921 0.15105
# Poissons Ratio (z) = 0.35621 0.16685
#
# Static dielectric constant tensor:
#      x y z
#    x 1.710110 0.000000 0.016220 
#    y 0.000000 1.634490 0.000000 
#    z 0.016220 0.000000 1.715310 
# 
# From -- ./inp_files/235208.got.cif
#   From: 2010.05.17/outbox.cif.g08.bks.cpg/sg12_118_cif.got.tgz:235208.got - 2010.06.03 13:09:07.
