data_PCOD9208995
_publ_section_title
;
Structure prediction by ZEFSAII (Michael W. Deem and Ramdas Pophale) SiO2 
 PCOD9208995
Probable space group: C 2/M
;
_chemical_formula_sum "Si O2"
_cell_formula_units_Z 64
_cell_length_a 12.511528
_cell_length_b 14.514819
_cell_length_c 19.634419
_cell_angle_alpha 90.000000
_cell_angle_beta 115.659480
_cell_angle_gamma 90.000000
_cell_volume 3214.027786
_symmetry_space_group_name_H-M "C 2/M"
_symmetry_group_IT_number 12
_symmetry_cell_setting 'monoclinic'
loop_
_space_group_symop_operation_xyz
x,y,z
-x,y,-z
-x,-y,-z
x,-y,z
1/2+x,1/2+y,z
1/2-x,1/2+y,-z
1/2-x,1/2-y,-z
1/2+x,1/2-y,z
loop_
_atom_site_type_symbol
_atom_site_label
_atom_site_fract_x
_atom_site_fract_y
_atom_site_fract_z
Si Si1 0.489487 0.223592 0.392864
Si Si2 0.712056 0.793022 0.750388
Si Si3 0.373038 0.603834 0.215134
Si Si4 0.407335 0.388680 0.068799
Si Si5 0.311042 0.896239 0.494721
Si Si6 0.870259 0.845089 0.671241
Si Si7 0.627655 0.602097 0.568999
Si Si8 0.173278 0.888883 0.096050
O O1 0.399913 0.165337 0.321838
O O2 0.402477 0.304638 0.397773
O O3 0.579718 0.266394 0.363545
O O4 0.578919 0.172687 0.468337
O O5 0.690505 0.685362 0.761333
O O6 0.819234 0.809448 0.728041
O O7 0.734374 0.843705 0.827516
O O8 0.323581 0.500000 0.207312
O O9 0.373084 0.634855 0.136033
O O10 0.510060 0.599448 0.278176
O O11 0.407198 0.500000 0.067052
O O12 0.542390 0.362385 0.088087
O O13 0.325422 0.359175 0.982765
O O14 0.232365 0.888562 0.404483
O O15 0.222598 0.881838 0.535035
O O16 0.356886 0.000000 0.512270
O O17 0.500000 0.589630 0.500000
O O18 0.654852 0.500000 0.609169
O O19 0.182677 0.000000 0.101782
#
# Coordination Sequence:
#
# PCOD9208995 Si02
#       8
#     8   8   8   8   8   8   8   8
#     4  11  24  38  58  82 119 150 190 244 293 341
#     4  11  24  35  56  88 119 155 191 232 291 344
#     4  10  21  38  60  89 117 146 193 244 283 332
#     4   8  15  32  60  88 113 147 190 238 281 326
#     4  11  24  40  60  84 112 153 195 240 294 343
#     4  11  22  37  56  81 116 152 191 242 289 335
#     4  10  21  39  65  87 103 143 205 249 289 340
#     4   9  17  33  58  87 119 152 188 231 283 340
#
# _framework density 19.912710000000001
#
# number of rings (size 3 to 8) (size 9 to 14) (size 15 to 20)
#    0.000    1.875    2.500    2.250    1.750    3.500 
#    0.000    1.250    0.000    1.500    0.000    1.750 
#    0.000    0.000    0.000    0.000    0.000    0.000 
#
# Total GULP energy -178279.824574 kJ/mol
# GULP energy per Si atom -5571.244518 kJ/mol
# Density = 1.986739 g / cm^3
# Si number density = 19.912710 Si / 1000 Ang^3
#
#
#
# Elastic Constant Matrix: (Units=GPa)
#
#
# Indices 1 2 3 4 5 6 
#
# 1 45.1488 27.3308 17.4257 0.0000 -3.2512 0.0000
# 2 27.3308 55.8292 30.0134 0.0000 5.7254 0.0000
# 3 17.4257 30.0134 115.2370 0.0000 7.1260 0.0000
# 4 0.0000 0.0000 0.0000 19.5927 0.0000 9.8116
# 5 -3.2512 5.7254 7.1260 0.0000 25.3786 0.0000
# 6 0.0000 0.0000 0.0000 9.8116 0.0000 6.0738
#
#
#
# Elastic Compliance Matrix: (Units=1/GPa)
#
#
# Indices 1 2 3 4 5 6 
#
# 1 0.033167 -0.016414 -0.001254 0.000000 0.008304 0.000000
# 2 -0.016414 0.029215 -0.004670 0.000000 -0.007382 0.000000
# 3 -0.001254 -0.004670 0.010206 0.000000 -0.001973 0.000000
# 4 0.000000 0.000000 0.000000 0.267174 0.000000 -0.431596
# 5 0.008304 -0.007382 -0.001973 0.000000 0.042686 0.000000
# 6 0.000000 0.000000 0.000000 -0.431596 0.000000 0.861850
#
#
# Mechanical properties :
#
#
# Convention : Reuss Voigt Hill
#
# Bulk Modulus (GPa) = 35.82823 40.63943 38.23383
# Shear Modulus (GPa) = 3.85125 19.63869 11.74497
#
# Velocity S-wave (km/s) = 1.39222 3.14385 2.43126
# Velocity P-wave (km/s) = 4.54049 5.79927 5.20805
#
# Compressibility (1/GPa) = 0.02791095
#
# Stress axis : x y z
#
# Youngs Moduli (GPa) = 30.15015 34.22875 97.98379
#
# Poissons Ratio (x) = 0.56184 0.12285
# Poissons Ratio (y) = 0.49490 0.45763
# Poissons Ratio (z) = 0.03780 0.15986
#
# Static dielectric constant tensor:
#      x y z
#    x 1.718840 0.000000 -0.009740 
#    y 0.000000 1.759200 0.000000 
#    z -0.009740 0.000000 1.774950 
# 
# From -- ./inp_files/310409.got.cif
#   From: 2010.05.17/outbox.cif.g08.bks.cpg/sg12_156_cif.got.tgz:310409.got - 2010.06.03 13:09:07.
