data_PCOD9208190
_publ_section_title
;
Structure prediction by ZEFSAII (Michael W. Deem and Ramdas Pophale) SiO2 
 PCOD9208190
Probable space group: C 2/M
;
_chemical_formula_sum "Si O2"
_cell_formula_units_Z 44
_cell_length_a 15.529693
_cell_length_b 23.298654
_cell_length_c 11.943379
_cell_angle_alpha 90.000000
_cell_angle_beta 152.053987
_cell_angle_gamma 90.000000
_cell_volume 2025.161727
_symmetry_space_group_name_H-M "C 2/M"
_symmetry_group_IT_number 12
_symmetry_cell_setting 'monoclinic'
loop_
_space_group_symop_operation_xyz
x,y,z
-x,y,-z
-x,-y,-z
x,-y,z
1/2+x,1/2+y,z
1/2-x,1/2+y,-z
1/2-x,1/2-y,-z
1/2+x,1/2-y,z
loop_
_atom_site_type_symbol
_atom_site_label
_atom_site_fract_x
_atom_site_fract_y
_atom_site_fract_z
Si Si1 0.539980 0.151486 0.369629
Si Si2 0.219929 0.938139 0.752327
Si Si3 0.243700 0.063593 0.043818
Si Si4 0.863348 0.318627 0.929404
Si Si5 0.500000 0.752289 0.500000
Si Si6 0.619470 0.566027 0.250910
O O1 0.379211 0.112510 0.241068
O O2 0.565716 0.207015 0.474931
O O3 0.717099 0.111121 0.561478
O O4 0.467557 0.170733 0.165084
O O5 0.306446 0.879782 0.807322
O O6 0.000000 0.934215 0.500000
O O7 0.271183 0.000000 0.759091
O O8 0.272989 0.939444 0.944410
O O9 0.280852 0.000000 0.134859
O O10 0.031117 0.076379 0.825186
O O11 0.673817 0.285969 0.734234
O O12 0.000000 0.288033 0.000000
O O13 0.687067 0.500000 0.338259
O O14 0.500000 0.570286 0.000000
#
# Coordination Sequence:
#
# PCOD9208190 Si02
#       6
#     8   8   8   8   4   8
#     4  11  24  41  67  91 122 167 213 257 309 376
#     4   9  18  36  62  89 122 159 189 235 306 373
#     4   9  19  36  60  92 128 159 194 248 309 370
#     4  11  26  43  65  93 123 163 208 264 310 369
#     4  12  26  46  62  86 124 168 218 266 308 356
#     4  10  21  37  62  97 130 160 201 255 313 372
#
# _framework density 21.726659000000001
#
# number of rings (size 3 to 8) (size 9 to 14) (size 15 to 20)
#    0.000    1.818    0.909    2.182    2.545    4.000 
#    0.000    3.636    0.000    0.000    0.000    0.000 
#    0.000    0.000    0.000    0.000    0.000    0.000 
#
# Total GULP energy -122938.860260 kJ/mol
# GULP energy per Si atom -5588.130012 kJ/mol
# Density = 2.167721 g / cm^3
# Si number density = 21.726659 Si / 1000 Ang^3
#
#
#
# Elastic Constant Matrix: (Units=GPa)
#
#
# Indices 1 2 3 4 5 6 
#
# 1 52.1809 23.2670 29.0110 0.0000 10.2224 0.0000
# 2 23.2670 92.7307 59.4544 0.0000 9.0011 0.0000
# 3 29.0110 59.4544 109.3566 0.0000 6.9207 0.0000
# 4 0.0000 0.0000 0.0000 -23.8677 0.0000 43.5944
# 5 10.2224 9.0011 6.9207 0.0000 35.7436 0.0000
# 6 0.0000 0.0000 0.0000 43.5944 0.0000 -38.8577
#
#
#
# Elastic Compliance Matrix: (Units=1/GPa)
#
#
# Indices 1 2 3 4 5 6 
#
# 1 0.023902 -0.002505 -0.004643 0.000000 -0.005306 0.000000
# 2 -0.002505 0.017033 -0.008473 0.000000 -0.001932 0.000000
# 3 -0.004643 -0.008473 0.014947 0.000000 0.000568 0.000000
# 4 0.000000 0.000000 0.000000 0.039935 0.000000 0.044803
# 5 -0.005306 -0.001932 0.000568 0.000000 0.029871 0.000000
# 6 0.000000 0.000000 0.000000 0.044803 0.000000 0.024529
#
#
# Mechanical properties :
#
#
# Convention : Reuss Voigt Hill
#
# Bulk Modulus (GPa) = 40.58719 53.08144 46.83431
# Shear Modulus (GPa) = 26.36108 4.10604 15.23356
#
# Velocity S-wave (km/s) = 3.48703 1.37621 2.65079
# Velocity P-wave (km/s) = 5.91049 5.19710 5.56524
#
# Compressibility (1/GPa) = 0.02463832
#
# Stress axis : x y z
#
# Youngs Moduli (GPa) = 41.83738 58.71028 66.90309
#
# Poissons Ratio (x) = 0.14709 0.31064
# Poissons Ratio (y) = 0.10482 0.56690
# Poissons Ratio (z) = 0.19425 0.49748
#
# Static dielectric constant tensor:
#      x y z
#    x 1.839260 0.000000 -0.004460 
#    y 0.000000 1.836400 0.000000 
#    z -0.004460 0.000000 1.771960 
# 
# From -- ./inp_files/228211.got.cif
#   From: 2010.05.17/outbox.cif.g08.bks.cpg/sg12_115_cif.got.tgz:228211.got - 2010.06.03 13:09:07.
